MODEL 1
REMARK VINA RESULT:    -7.672      0.000      0.000
REMARK INTER + INTRA:          -9.522
REMARK INTER:                  -9.242
REMARK INTRA:                  -0.280
REMARK UNBOUND:                -0.280
REMARK SMILES O=c1c(O)c(-c2ccc(O)c(O)c2)oc2cc(O)cc(O)c12
REMARK SMILES IDX 5 1 3 2 2 3 1 4 22 5 20 6 19 7 17 8 16 9 15 10 14 11 6 12
REMARK SMILES IDX 7 13 8 14 9 15 13 16 11 17 10 18 12 20 4 22 21 24 18 26
REMARK H PARENT 10 19 12 21 4 23 21 25 18 27
REMARK Flexibility Score: inf
ROOT
ATOM      1  C   UNL     1      14.529  53.268  -2.322  1.00  0.00     0.180 A 
ATOM      2  C   UNL     1      14.732  54.194  -3.361  1.00  0.00     0.208 A 
ATOM      3  C   UNL     1      14.336  53.852  -4.664  1.00  0.00     0.238 A 
ATOM      4  O   UNL     1      14.471  54.706  -5.580  1.00  0.00    -0.285 OA
ATOM      5  C   UNL     1      13.756  52.586  -4.915  1.00  0.00     0.111 A 
ATOM      6  C   UNL     1      13.353  52.120  -6.203  1.00  0.00     0.134 A 
ATOM      7  C   UNL     1      12.671  50.901  -6.315  1.00  0.00     0.093 A 
ATOM      8  C   UNL     1      12.435  50.103  -5.193  1.00  0.00     0.123 A 
ATOM      9  C   UNL     1      12.876  50.522  -3.939  1.00  0.00     0.094 A 
ATOM     10  C   UNL     1      13.528  51.749  -3.791  1.00  0.00     0.146 A 
ATOM     11  O   UNL     1      13.923  52.115  -2.578  1.00  0.00    -0.452 OA
ENDROOT
BRANCH   1  12
ATOM     12  C   UNL     1      14.943  53.546  -0.928  1.00  0.00     0.025 A 
ATOM     13  C   UNL     1      14.192  54.393  -0.096  1.00  0.00     0.016 A 
ATOM     14  C   UNL     1      14.616  54.660   1.208  1.00  0.00     0.051 A 
ATOM     15  C   UNL     1      15.803  54.097   1.696  1.00  0.00     0.157 A 
ATOM     16  C   UNL     1      16.144  53.000  -0.442  1.00  0.00     0.062 A 
ATOM     17  C   UNL     1      16.571  53.265   0.864  1.00  0.00     0.158 A 
BRANCH  15  18
ATOM     18  O   UNL     1      16.221  54.363   2.999  1.00  0.00    -0.504 OA
ATOM     19  H   UNL     1      17.173  54.641   3.204  1.00  0.00     0.293 HD
ENDBRANCH  15  18
BRANCH  17  20
ATOM     20  O   UNL     1      17.760  52.695   1.316  1.00  0.00    -0.504 OA
ATOM     21  H   UNL     1      17.854  51.699   1.476  1.00  0.00     0.293 HD
ENDBRANCH  17  20
ENDBRANCH   1  12
BRANCH   2  22
ATOM     22  O   UNL     1      15.287  55.446  -3.088  1.00  0.00    -0.502 OA
ATOM     23  H   UNL     1      15.928  55.602  -2.319  1.00  0.00     0.293 HD
ENDBRANCH   2  22
BRANCH   6  24
ATOM     24  O   UNL     1      13.623  52.796  -7.396  1.00  0.00    -0.507 OA
ATOM     25  H   UNL     1      14.489  52.736  -7.908  1.00  0.00     0.293 HD
ENDBRANCH   6  24
BRANCH   8  26
ATOM     26  O   UNL     1      11.769  48.885  -5.315  1.00  0.00    -0.508 OA
ATOM     27  H   UNL     1      10.832  48.755  -4.952  1.00  0.00     0.293 HD
ENDBRANCH   8  26
TORSDOF 6
ENDMDL
MODEL 2
REMARK VINA RESULT:    -7.505      2.051      6.951
REMARK INTER + INTRA:          -9.320
REMARK INTER:                  -8.997
REMARK INTRA:                  -0.323
REMARK UNBOUND:                -0.280
REMARK SMILES O=c1c(O)c(-c2ccc(O)c(O)c2)oc2cc(O)cc(O)c12
REMARK SMILES IDX 5 1 3 2 2 3 1 4 22 5 20 6 19 7 17 8 16 9 15 10 14 11 6 12
REMARK SMILES IDX 7 13 8 14 9 15 13 16 11 17 10 18 12 20 4 22 21 24 18 26
REMARK H PARENT 10 19 12 21 4 23 21 25 18 27
REMARK Flexibility Score: inf
ROOT
ATOM      1  C   UNL     1      13.645  53.255  -2.917  1.00  0.00     0.180 A 
ATOM      2  C   UNL     1      14.937  53.297  -2.362  1.00  0.00     0.208 A 
ATOM      3  C   UNL     1      15.119  53.902  -1.107  1.00  0.00     0.238 A 
ATOM      4  O   UNL     1      16.268  53.888  -0.592  1.00  0.00    -0.285 OA
ATOM      5  C   UNL     1      14.014  54.470  -0.431  1.00  0.00     0.111 A 
ATOM      6  C   UNL     1      14.090  55.143   0.825  1.00  0.00     0.134 A 
ATOM      7  C   UNL     1      12.912  55.551   1.463  1.00  0.00     0.093 A 
ATOM      8  C   UNL     1      11.666  55.369   0.859  1.00  0.00     0.123 A 
ATOM      9  C   UNL     1      11.585  54.766  -0.395  1.00  0.00     0.094 A 
ATOM     10  C   UNL     1      12.740  54.316  -1.039  1.00  0.00     0.146 A 
ATOM     11  O   UNL     1      12.618  53.739  -2.228  1.00  0.00    -0.452 OA
ENDROOT
BRANCH   1  12
ATOM     12  C   UNL     1      13.378  52.657  -4.245  1.00  0.00     0.025 A 
ATOM     13  C   UNL     1      13.074  51.293  -4.385  1.00  0.00     0.016 A 
ATOM     14  C   UNL     1      12.850  50.745  -5.651  1.00  0.00     0.051 A 
ATOM     15  C   UNL     1      12.940  51.549  -6.795  1.00  0.00     0.157 A 
ATOM     16  C   UNL     1      13.488  53.455  -5.396  1.00  0.00     0.062 A 
ATOM     17  C   UNL     1      13.264  52.910  -6.666  1.00  0.00     0.158 A 
BRANCH  15  18
ATOM     18  O   UNL     1      12.712  51.000  -8.057  1.00  0.00    -0.504 OA
ATOM     19  H   UNL     1      12.036  50.260  -8.199  1.00  0.00     0.293 HD
ENDBRANCH  15  18
BRANCH  17  20
ATOM     20  O   UNL     1      13.369  53.735  -7.785  1.00  0.00    -0.504 OA
ATOM     21  H   UNL     1      12.944  54.653  -7.819  1.00  0.00     0.293 HD
ENDBRANCH  17  20
ENDBRANCH   1  12
BRANCH   2  22
ATOM     22  O   UNL     1      16.011  52.711  -3.036  1.00  0.00    -0.502 OA
ATOM     23  H   UNL     1      15.888  51.971  -3.716  1.00  0.00     0.293 HD
ENDBRANCH   2  22
BRANCH   6  24
ATOM     24  O   UNL     1      15.290  55.457   1.470  1.00  0.00    -0.507 OA
ATOM     25  H   UNL     1      15.959  54.780   1.800  1.00  0.00     0.293 HD
ENDBRANCH   6  24
BRANCH   8  26
ATOM     26  O   UNL     1      10.500  55.792   1.494  1.00  0.00    -0.508 OA
ATOM     27  H   UNL     1      10.473  55.966   2.492  1.00  0.00     0.293 HD
ENDBRANCH   8  26
TORSDOF 6
ENDMDL
MODEL 3
REMARK VINA RESULT:    -7.377      8.866     11.819
REMARK INTER + INTRA:          -9.167
REMARK INTER:                  -9.267
REMARK INTRA:                   0.100
REMARK UNBOUND:                -0.280
REMARK SMILES O=c1c(O)c(-c2ccc(O)c(O)c2)oc2cc(O)cc(O)c12
REMARK SMILES IDX 5 1 3 2 2 3 1 4 22 5 20 6 19 7 17 8 16 9 15 10 14 11 6 12
REMARK SMILES IDX 7 13 8 14 9 15 13 16 11 17 10 18 12 20 4 22 21 24 18 26
REMARK H PARENT 10 19 12 21 4 23 21 25 18 27
REMARK Flexibility Score: inf
ROOT
ATOM      1  C   UNL     1      13.136  56.833   6.580  1.00  0.00     0.180 A 
ATOM      2  C   UNL     1      13.910  56.668   7.743  1.00  0.00     0.208 A 
ATOM      3  C   UNL     1      15.060  57.457   7.913  1.00  0.00     0.238 A 
ATOM      4  O   UNL     1      15.718  57.342   8.980  1.00  0.00    -0.285 OA
ATOM      5  C   UNL     1      15.429  58.389   6.915  1.00  0.00     0.111 A 
ATOM      6  C   UNL     1      16.595  59.212   6.965  1.00  0.00     0.134 A 
ATOM      7  C   UNL     1      16.792  60.192   5.983  1.00  0.00     0.093 A 
ATOM      8  C   UNL     1      15.899  60.334   4.919  1.00  0.00     0.123 A 
ATOM      9  C   UNL     1      14.789  59.496   4.829  1.00  0.00     0.094 A 
ATOM     10  C   UNL     1      14.547  58.533   5.812  1.00  0.00     0.146 A 
ATOM     11  O   UNL     1      13.473  57.762   5.693  1.00  0.00    -0.452 OA
ENDROOT
BRANCH   1  12
ATOM     12  C   UNL     1      11.927  56.021   6.318  1.00  0.00     0.025 A 
ATOM     13  C   UNL     1      10.983  55.767   7.327  1.00  0.00     0.016 A 
ATOM     14  C   UNL     1       9.861  54.977   7.063  1.00  0.00     0.051 A 
ATOM     15  C   UNL     1       9.673  54.418   5.792  1.00  0.00     0.157 A 
ATOM     16  C   UNL     1      11.745  55.442   5.051  1.00  0.00     0.062 A 
ATOM     17  C   UNL     1      10.622  54.650   4.782  1.00  0.00     0.158 A 
BRANCH  15  18
ATOM     18  O   UNL     1       8.551  53.633   5.530  1.00  0.00    -0.504 OA
ATOM     19  H   UNL     1       8.383  52.766   6.026  1.00  0.00     0.293 HD
ENDBRANCH  15  18
BRANCH  17  20
ATOM     20  O   UNL     1      10.468  54.103   3.509  1.00  0.00    -0.504 OA
ATOM     21  H   UNL     1      11.260  53.816   2.946  1.00  0.00     0.293 HD
ENDBRANCH  17  20
ENDBRANCH   1  12
BRANCH   2  22
ATOM     22  O   UNL     1      13.516  55.757   8.725  1.00  0.00    -0.502 OA
ATOM     23  H   UNL     1      13.759  55.871   9.702  1.00  0.00     0.293 HD
ENDBRANCH   2  22
BRANCH   6  24
ATOM     24  O   UNL     1      17.595  59.089   7.934  1.00  0.00    -0.507 OA
ATOM     25  H   UNL     1      18.327  59.763   8.092  1.00  0.00     0.293 HD
ENDBRANCH   6  24
BRANCH   8  26
ATOM     26  O   UNL     1      16.111  61.301   3.938  1.00  0.00    -0.508 OA
ATOM     27  H   UNL     1      16.195  61.054   2.959  1.00  0.00     0.293 HD
ENDBRANCH   8  26
TORSDOF 6
ENDMDL
MODEL 4
REMARK VINA RESULT:    -7.367      5.281     10.251
REMARK INTER + INTRA:          -9.154
REMARK INTER:                  -9.416
REMARK INTRA:                   0.262
REMARK UNBOUND:                -0.280
REMARK SMILES O=c1c(O)c(-c2ccc(O)c(O)c2)oc2cc(O)cc(O)c12
REMARK SMILES IDX 5 1 3 2 2 3 1 4 22 5 20 6 19 7 17 8 16 9 15 10 14 11 6 12
REMARK SMILES IDX 7 13 8 14 9 15 13 16 11 17 10 18 12 20 4 22 21 24 18 26
REMARK H PARENT 10 19 12 21 4 23 21 25 18 27
REMARK Flexibility Score: inf
ROOT
ATOM      1  C   UNL     1      11.830  55.170   3.494  1.00  0.00     0.180 A 
ATOM      2  C   UNL     1      10.551  54.872   3.997  1.00  0.00     0.208 A 
ATOM      3  C   UNL     1      10.289  55.084   5.361  1.00  0.00     0.238 A 
ATOM      4  O   UNL     1       9.127  54.866   5.794  1.00  0.00    -0.285 OA
ATOM      5  C   UNL     1      11.312  55.575   6.207  1.00  0.00     0.111 A 
ATOM      6  C   UNL     1      11.170  55.789   7.611  1.00  0.00     0.134 A 
ATOM      7  C   UNL     1      12.208  56.402   8.325  1.00  0.00     0.093 A 
ATOM      8  C   UNL     1      13.407  56.748   7.697  1.00  0.00     0.123 A 
ATOM      9  C   UNL     1      13.578  56.489   6.339  1.00  0.00     0.094 A 
ATOM     10  C   UNL     1      12.547  55.912   5.593  1.00  0.00     0.146 A 
ATOM     11  O   UNL     1      12.748  55.691   4.300  1.00  0.00    -0.452 OA
ENDROOT
BRANCH   1  12
ATOM     12  C   UNL     1      12.188  54.950   2.075  1.00  0.00     0.025 A 
ATOM     13  C   UNL     1      13.488  54.572   1.698  1.00  0.00     0.016 A 
ATOM     14  C   UNL     1      13.810  54.395   0.350  1.00  0.00     0.051 A 
ATOM     15  C   UNL     1      12.843  54.604  -0.642  1.00  0.00     0.157 A 
ATOM     16  C   UNL     1      11.227  55.180   1.076  1.00  0.00     0.062 A 
ATOM     17  C   UNL     1      11.545  55.002  -0.275  1.00  0.00     0.158 A 
BRANCH  15  18
ATOM     18  O   UNL     1      13.166  54.423  -1.986  1.00  0.00    -0.504 OA
ATOM     19  H   UNL     1      12.745  53.685  -2.537  1.00  0.00     0.293 HD
ENDBRANCH  15  18
BRANCH  17  20
ATOM     20  O   UNL     1      10.562  55.225  -1.239  1.00  0.00    -0.504 OA
ATOM     21  H   UNL     1       9.669  55.642  -1.009  1.00  0.00     0.293 HD
ENDBRANCH  17  20
ENDBRANCH   1  12
BRANCH   2  22
ATOM     22  O   UNL     1       9.549  54.408   3.141  1.00  0.00    -0.502 OA
ATOM     23  H   UNL     1       9.712  53.680   2.457  1.00  0.00     0.293 HD
ENDBRANCH   2  22
BRANCH   6  24
ATOM     24  O   UNL     1      10.051  55.396   8.350  1.00  0.00    -0.507 OA
ATOM     25  H   UNL     1       9.973  54.529   8.858  1.00  0.00     0.293 HD
ENDBRANCH   6  24
BRANCH   8  26
ATOM     26  O   UNL     1      14.440  57.343   8.419  1.00  0.00    -0.508 OA
ATOM     27  H   UNL     1      15.354  57.494   8.008  1.00  0.00     0.293 HD
ENDBRANCH   8  26
TORSDOF 6
ENDMDL
MODEL 5
REMARK VINA RESULT:    -7.355      7.154      9.966
REMARK INTER + INTRA:          -9.139
REMARK INTER:                  -8.832
REMARK INTRA:                  -0.308
REMARK UNBOUND:                -0.280
REMARK SMILES O=c1c(O)c(-c2ccc(O)c(O)c2)oc2cc(O)cc(O)c12
REMARK SMILES IDX 5 1 3 2 2 3 1 4 22 5 20 6 19 7 17 8 16 9 15 10 14 11 6 12
REMARK SMILES IDX 7 13 8 14 9 15 13 16 11 17 10 18 12 20 4 22 21 24 18 26
REMARK H PARENT 10 19 12 21 4 23 21 25 18 27
REMARK Flexibility Score: inf
ROOT
ATOM      1  C   UNL     1      13.542  57.415   3.730  1.00  0.00     0.180 A 
ATOM      2  C   UNL     1      14.294  57.468   4.917  1.00  0.00     0.208 A 
ATOM      3  C   UNL     1      13.768  56.886   6.082  1.00  0.00     0.238 A 
ATOM      4  O   UNL     1      14.469  56.889   7.128  1.00  0.00    -0.285 OA
ATOM      5  C   UNL     1      12.493  56.272   6.050  1.00  0.00     0.111 A 
ATOM      6  C   UNL     1      11.847  55.687   7.180  1.00  0.00     0.134 A 
ATOM      7  C   UNL     1      10.642  54.993   7.004  1.00  0.00     0.093 A 
ATOM      8  C   UNL     1      10.030  54.920   5.751  1.00  0.00     0.123 A 
ATOM      9  C   UNL     1      10.624  55.539   4.653  1.00  0.00     0.094 A 
ATOM     10  C   UNL     1      11.843  56.208   4.790  1.00  0.00     0.146 A 
ATOM     11  O   UNL     1      12.378  56.776   3.717  1.00  0.00    -0.452 OA
ENDROOT
BRANCH   1  12
ATOM     12  C   UNL     1      14.018  58.028   2.469  1.00  0.00     0.025 A 
ATOM     13  C   UNL     1      14.913  57.354   1.620  1.00  0.00     0.016 A 
ATOM     14  C   UNL     1      15.368  57.963   0.448  1.00  0.00     0.051 A 
ATOM     15  C   UNL     1      14.948  59.257   0.112  1.00  0.00     0.157 A 
ATOM     16  C   UNL     1      13.616  59.333   2.140  1.00  0.00     0.062 A 
ATOM     17  C   UNL     1      14.069  59.946   0.966  1.00  0.00     0.158 A 
BRANCH  15  18
ATOM     18  O   UNL     1      15.401  59.860  -1.060  1.00  0.00    -0.504 OA
ATOM     19  H   UNL     1      15.859  60.763  -1.049  1.00  0.00     0.293 HD
ENDBRANCH  15  18
BRANCH  17  20
ATOM     20  O   UNL     1      13.638  61.237   0.665  1.00  0.00    -0.504 OA
ATOM     21  H   UNL     1      13.206  61.467  -0.221  1.00  0.00     0.293 HD
ENDBRANCH  17  20
ENDBRANCH   1  12
BRANCH   2  22
ATOM     22  O   UNL     1      15.560  58.059   4.922  1.00  0.00    -0.502 OA
ATOM     23  H   UNL     1      16.188  57.994   5.713  1.00  0.00     0.293 HD
ENDBRANCH   2  22
BRANCH   6  24
ATOM     24  O   UNL     1      12.327  55.782   8.489  1.00  0.00    -0.507 OA
ATOM     25  H   UNL     1      12.067  56.502   9.146  1.00  0.00     0.293 HD
ENDBRANCH   6  24
BRANCH   8  26
ATOM     26  O   UNL     1       8.824  54.241   5.588  1.00  0.00    -0.508 OA
ATOM     27  H   UNL     1       8.327  53.848   6.378  1.00  0.00     0.293 HD
ENDBRANCH   8  26
TORSDOF 6
ENDMDL
MODEL 6
REMARK VINA RESULT:    -7.322      5.802      9.372
REMARK INTER + INTRA:          -9.100
REMARK INTER:                  -8.851
REMARK INTRA:                  -0.249
REMARK UNBOUND:                -0.280
REMARK SMILES O=c1c(O)c(-c2ccc(O)c(O)c2)oc2cc(O)cc(O)c12
REMARK SMILES IDX 5 1 3 2 2 3 1 4 22 5 20 6 19 7 17 8 16 9 15 10 14 11 6 12
REMARK SMILES IDX 7 13 8 14 9 15 13 16 11 17 10 18 12 20 4 22 21 24 18 26
REMARK H PARENT 10 19 12 21 4 23 21 25 18 27
REMARK Flexibility Score: inf
ROOT
ATOM      1  C   UNL     1      12.498  56.137   2.953  1.00  0.00     0.180 A 
ATOM      2  C   UNL     1      11.218  55.737   2.530  1.00  0.00     0.208 A 
ATOM      3  C   UNL     1      10.273  55.350   3.495  1.00  0.00     0.238 A 
ATOM      4  O   UNL     1       9.112  55.045   3.115  1.00  0.00    -0.285 OA
ATOM      5  C   UNL     1      10.623  55.354   4.866  1.00  0.00     0.111 A 
ATOM      6  C   UNL     1       9.758  54.945   5.925  1.00  0.00     0.134 A 
ATOM      7  C   UNL     1      10.166  55.114   7.255  1.00  0.00     0.093 A 
ATOM      8  C   UNL     1      11.432  55.617   7.561  1.00  0.00     0.123 A 
ATOM      9  C   UNL     1      12.306  55.965   6.533  1.00  0.00     0.094 A 
ATOM     10  C   UNL     1      11.915  55.841   5.198  1.00  0.00     0.146 A 
ATOM     11  O   UNL     1      12.775  56.192   4.251  1.00  0.00    -0.452 OA
ENDROOT
BRANCH   1  12
ATOM     12  C   UNL     1      13.555  56.533   1.994  1.00  0.00     0.025 A 
ATOM     13  C   UNL     1      14.186  55.588   1.169  1.00  0.00     0.016 A 
ATOM     14  C   UNL     1      15.198  55.981   0.290  1.00  0.00     0.051 A 
ATOM     15  C   UNL     1      15.604  57.321   0.232  1.00  0.00     0.157 A 
ATOM     16  C   UNL     1      13.979  57.872   1.949  1.00  0.00     0.062 A 
ATOM     17  C   UNL     1      14.992  58.270   1.069  1.00  0.00     0.158 A 
BRANCH  15  18
ATOM     18  O   UNL     1      16.612  57.711  -0.649  1.00  0.00    -0.504 OA
ATOM     19  H   UNL     1      16.946  57.094  -1.380  1.00  0.00     0.293 HD
ENDBRANCH  15  18
BRANCH  17  20
ATOM     20  O   UNL     1      15.378  59.610   1.041  1.00  0.00    -0.504 OA
ATOM     21  H   UNL     1      14.788  60.332   0.646  1.00  0.00     0.293 HD
ENDBRANCH  17  20
ENDBRANCH   1  12
BRANCH   2  22
ATOM     22  O   UNL     1      10.886  55.760   1.174  1.00  0.00    -0.502 OA
ATOM     23  H   UNL     1      10.188  56.388   0.795  1.00  0.00     0.293 HD
ENDBRANCH   2  22
BRANCH   6  24
ATOM     24  O   UNL     1       8.511  54.345   5.726  1.00  0.00    -0.507 OA
ATOM     25  H   UNL     1       7.665  54.842   5.496  1.00  0.00     0.293 HD
ENDBRANCH   6  24
BRANCH   8  26
ATOM     26  O   UNL     1      11.835  55.768   8.886  1.00  0.00    -0.508 OA
ATOM     27  H   UNL     1      12.622  55.253   9.263  1.00  0.00     0.293 HD
ENDBRANCH   8  26
TORSDOF 6
ENDMDL
MODEL 7
REMARK VINA RESULT:    -7.302      5.306      9.216
REMARK INTER + INTRA:          -9.076
REMARK INTER:                  -8.864
REMARK INTRA:                  -0.212
REMARK UNBOUND:                -0.280
REMARK SMILES O=c1c(O)c(-c2ccc(O)c(O)c2)oc2cc(O)cc(O)c12
REMARK SMILES IDX 5 1 3 2 2 3 1 4 22 5 20 6 19 7 17 8 16 9 15 10 14 11 6 12
REMARK SMILES IDX 7 13 8 14 9 15 13 16 11 17 10 18 12 20 4 22 21 24 18 26
REMARK H PARENT 10 19 12 21 4 23 21 25 18 27
REMARK Flexibility Score: inf
ROOT
ATOM      1  C   UNL     1      12.510  56.112   2.940  1.00  0.00     0.180 A 
ATOM      2  C   UNL     1      11.226  55.725   2.516  1.00  0.00     0.208 A 
ATOM      3  C   UNL     1      10.276  55.349   3.480  1.00  0.00     0.238 A 
ATOM      4  O   UNL     1       9.112  55.056   3.098  1.00  0.00    -0.285 OA
ATOM      5  C   UNL     1      10.624  55.351   4.851  1.00  0.00     0.111 A 
ATOM      6  C   UNL     1       9.753  54.951   5.909  1.00  0.00     0.134 A 
ATOM      7  C   UNL     1      10.161  55.117   7.239  1.00  0.00     0.093 A 
ATOM      8  C   UNL     1      11.432  55.607   7.547  1.00  0.00     0.123 A 
ATOM      9  C   UNL     1      12.311  55.944   6.520  1.00  0.00     0.094 A 
ATOM     10  C   UNL     1      11.921  55.824   5.184  1.00  0.00     0.146 A 
ATOM     11  O   UNL     1      12.786  56.165   4.238  1.00  0.00    -0.452 OA
ENDROOT
BRANCH   1  12
ATOM     12  C   UNL     1      13.572  56.496   1.983  1.00  0.00     0.025 A 
ATOM     13  C   UNL     1      13.995  57.830   1.855  1.00  0.00     0.016 A 
ATOM     14  C   UNL     1      14.982  58.173   0.927  1.00  0.00     0.051 A 
ATOM     15  C   UNL     1      15.551  57.192   0.104  1.00  0.00     0.157 A 
ATOM     16  C   UNL     1      14.130  55.519   1.141  1.00  0.00     0.062 A 
ATOM     17  C   UNL     1      15.119  55.859   0.211  1.00  0.00     0.158 A 
BRANCH  15  18
ATOM     18  O   UNL     1      16.537  57.537  -0.818  1.00  0.00    -0.504 OA
ATOM     19  H   UNL     1      17.480  57.173  -0.748  1.00  0.00     0.293 HD
ENDBRANCH  15  18
BRANCH  17  20
ATOM     20  O   UNL     1      15.660  54.861  -0.599  1.00  0.00    -0.504 OA
ATOM     21  H   UNL     1      16.619  54.890  -0.921  1.00  0.00     0.293 HD
ENDBRANCH  17  20
ENDBRANCH   1  12
BRANCH   2  22
ATOM     22  O   UNL     1      10.897  55.750   1.159  1.00  0.00    -0.502 OA
ATOM     23  H   UNL     1      10.675  56.608   0.669  1.00  0.00     0.293 HD
ENDBRANCH   2  22
BRANCH   6  24
ATOM     24  O   UNL     1       8.501  54.365   5.709  1.00  0.00    -0.507 OA
ATOM     25  H   UNL     1       7.619  54.819   5.884  1.00  0.00     0.293 HD
ENDBRANCH   6  24
BRANCH   8  26
ATOM     26  O   UNL     1      11.835  55.755   8.873  1.00  0.00    -0.508 OA
ATOM     27  H   UNL     1      12.389  55.047   9.340  1.00  0.00     0.293 HD
ENDBRANCH   8  26
TORSDOF 6
ENDMDL
MODEL 8
REMARK VINA RESULT:    -7.267      1.889      2.577
REMARK INTER + INTRA:          -9.033
REMARK INTER:                  -8.699
REMARK INTRA:                  -0.335
REMARK UNBOUND:                -0.280
REMARK SMILES O=c1c(O)c(-c2ccc(O)c(O)c2)oc2cc(O)cc(O)c12
REMARK SMILES IDX 5 1 3 2 2 3 1 4 22 5 20 6 19 7 17 8 16 9 15 10 14 11 6 12
REMARK SMILES IDX 7 13 8 14 9 15 13 16 11 17 10 18 12 20 4 22 21 24 18 26
REMARK H PARENT 10 19 12 21 4 23 21 25 18 27
REMARK Flexibility Score: inf
ROOT
ATOM      1  C   UNL     1      13.167  53.950  -2.371  1.00  0.00     0.180 A 
ATOM      2  C   UNL     1      13.491  54.776  -3.462  1.00  0.00     0.208 A 
ATOM      3  C   UNL     1      13.523  54.219  -4.752  1.00  0.00     0.238 A 
ATOM      4  O   UNL     1      13.762  54.975  -5.730  1.00  0.00    -0.285 OA
ATOM      5  C   UNL     1      13.246  52.843  -4.932  1.00  0.00     0.111 A 
ATOM      6  C   UNL     1      13.289  52.166  -6.188  1.00  0.00     0.134 A 
ATOM      7  C   UNL     1      12.869  50.832  -6.268  1.00  0.00     0.093 A 
ATOM      8  C   UNL     1      12.471  50.133  -5.127  1.00  0.00     0.123 A 
ATOM      9  C   UNL     1      12.482  50.768  -3.887  1.00  0.00     0.094 A 
ATOM     10  C   UNL     1      12.861  52.108  -3.780  1.00  0.00     0.146 A 
ATOM     11  O   UNL     1      12.848  52.678  -2.582  1.00  0.00    -0.452 OA
ENDROOT
BRANCH   1  12
ATOM     12  C   UNL     1      13.137  54.457  -0.981  1.00  0.00     0.025 A 
ATOM     13  C   UNL     1      14.289  54.457  -0.177  1.00  0.00     0.016 A 
ATOM     14  C   UNL     1      14.232  54.918   1.141  1.00  0.00     0.051 A 
ATOM     15  C   UNL     1      13.021  55.373   1.679  1.00  0.00     0.157 A 
ATOM     16  C   UNL     1      11.921  54.895  -0.431  1.00  0.00     0.062 A 
ATOM     17  C   UNL     1      11.859  55.359   0.888  1.00  0.00     0.158 A 
BRANCH  15  18
ATOM     18  O   UNL     1      12.968  55.836   2.993  1.00  0.00    -0.504 OA
ATOM     19  H   UNL     1      12.600  55.262   3.742  1.00  0.00     0.293 HD
ENDBRANCH  15  18
BRANCH  17  20
ATOM     20  O   UNL     1      10.638  55.798   1.396  1.00  0.00    -0.504 OA
ATOM     21  H   UNL     1      10.539  56.691   1.864  1.00  0.00     0.293 HD
ENDBRANCH  17  20
ENDBRANCH   1  12
BRANCH   2  22
ATOM     22  O   UNL     1      13.741  56.136  -3.264  1.00  0.00    -0.502 OA
ATOM     23  H   UNL     1      13.776  56.554  -2.343  1.00  0.00     0.293 HD
ENDBRANCH   2  22
BRANCH   6  24
ATOM     24  O   UNL     1      13.759  52.745  -7.371  1.00  0.00    -0.507 OA
ATOM     25  H   UNL     1      13.978  53.722  -7.484  1.00  0.00     0.293 HD
ENDBRANCH   6  24
BRANCH   8  26
ATOM     26  O   UNL     1      12.069  48.801  -5.213  1.00  0.00    -0.508 OA
ATOM     27  H   UNL     1      11.413  48.402  -4.552  1.00  0.00     0.293 HD
ENDBRANCH   8  26
TORSDOF 6
ENDMDL
MODEL 9
REMARK VINA RESULT:    -7.223      2.326      6.997
REMARK INTER + INTRA:          -8.981
REMARK INTER:                  -8.715
REMARK INTRA:                  -0.266
REMARK UNBOUND:                -0.280
REMARK SMILES O=c1c(O)c(-c2ccc(O)c(O)c2)oc2cc(O)cc(O)c12
REMARK SMILES IDX 5 1 3 2 2 3 1 4 22 5 20 6 19 7 17 8 16 9 15 10 14 11 6 12
REMARK SMILES IDX 7 13 8 14 9 15 13 16 11 17 10 18 12 20 4 22 21 24 18 26
REMARK H PARENT 10 19 12 21 4 23 21 25 18 27
REMARK Flexibility Score: inf
ROOT
ATOM      1  C   UNL     1      15.388  53.364  -3.575  1.00  0.00     0.180 A 
ATOM      2  C   UNL     1      14.863  53.430  -2.273  1.00  0.00     0.208 A 
ATOM      3  C   UNL     1      15.719  53.209  -1.181  1.00  0.00     0.238 A 
ATOM      4  O   UNL     1      15.253  53.322  -0.016  1.00  0.00    -0.285 OA
ATOM      5  C   UNL     1      17.084  52.911  -1.405  1.00  0.00     0.111 A 
ATOM      6  C   UNL     1      18.032  52.631  -0.375  1.00  0.00     0.134 A 
ATOM      7  C   UNL     1      19.385  52.477  -0.705  1.00  0.00     0.093 A 
ATOM      8  C   UNL     1      19.812  52.530  -2.033  1.00  0.00     0.123 A 
ATOM      9  C   UNL     1      18.886  52.744  -3.051  1.00  0.00     0.094 A 
ATOM     10  C   UNL     1      17.535  52.936  -2.751  1.00  0.00     0.146 A 
ATOM     11  O   UNL     1      16.687  53.147  -3.750  1.00  0.00    -0.452 OA
ENDROOT
BRANCH   1  12
ATOM     12  C   UNL     1      14.544  53.560  -4.775  1.00  0.00     0.025 A 
ATOM     13  C   UNL     1      14.106  54.838  -5.161  1.00  0.00     0.016 A 
ATOM     14  C   UNL     1      13.289  54.996  -6.284  1.00  0.00     0.051 A 
ATOM     15  C   UNL     1      12.887  53.880  -7.029  1.00  0.00     0.157 A 
ATOM     16  C   UNL     1      14.122  52.442  -5.513  1.00  0.00     0.062 A 
ATOM     17  C   UNL     1      13.305  52.596  -6.639  1.00  0.00     0.158 A 
BRANCH  15  18
ATOM     18  O   UNL     1      12.075  54.042  -8.151  1.00  0.00    -0.504 OA
ATOM     19  H   UNL     1      11.081  53.854  -8.117  1.00  0.00     0.293 HD
ENDBRANCH  15  18
BRANCH  17  20
ATOM     20  O   UNL     1      12.917  51.465  -7.355  1.00  0.00    -0.504 OA
ATOM     21  H   UNL     1      12.417  51.528  -8.233  1.00  0.00     0.293 HD
ENDBRANCH  17  20
ENDBRANCH   1  12
BRANCH   2  22
ATOM     22  O   UNL     1      13.517  53.746  -2.073  1.00  0.00    -0.502 OA
ATOM     23  H   UNL     1      12.987  54.308  -2.728  1.00  0.00     0.293 HD
ENDBRANCH   2  22
BRANCH   6  24
ATOM     24  O   UNL     1      17.695  52.466   0.971  1.00  0.00    -0.507 OA
ATOM     25  H   UNL     1      17.684  51.583   1.457  1.00  0.00     0.293 HD
ENDBRANCH   6  24
BRANCH   8  26
ATOM     26  O   UNL     1      21.158  52.362  -2.354  1.00  0.00    -0.508 OA
ATOM     27  H   UNL     1      21.487  52.424  -3.310  1.00  0.00     0.293 HD
ENDBRANCH   8  26
TORSDOF 6
ENDMDL
