MODEL 1
REMARK VINA RESULT:     4.666      0.000      0.000
REMARK INTER + INTRA:           5.402
REMARK INTER:                   5.620
REMARK INTRA:                  -0.219
REMARK UNBOUND:                -0.219
REMARK SMILES O=c1c(O)c(-c2ccc(O)c(O)c2)oc2cc(O)cc(O)c12
REMARK SMILES IDX 5 1 3 2 2 3 1 4 22 5 20 6 19 7 17 8 16 9 15 10 14 11 6 12
REMARK SMILES IDX 7 13 8 14 9 15 13 16 11 17 10 18 12 20 4 22 21 24 18 26
REMARK H PARENT 10 19 12 21 4 23 21 25 18 27
REMARK Flexibility Score: inf
ROOT
ATOM      1  C   UNL     1       0.597 -31.263  -5.491  1.00  0.00     0.180 A 
ATOM      2  C   UNL     1       0.488 -31.269  -4.089  1.00  0.00     0.208 A 
ATOM      3  C   UNL     1      -0.783 -31.399  -3.505  1.00  0.00     0.238 A 
ATOM      4  O   UNL     1      -0.867 -31.457  -2.250  1.00  0.00    -0.285 OA
ATOM      5  C   UNL     1      -1.929 -31.505  -4.329  1.00  0.00     0.111 A 
ATOM      6  C   UNL     1      -3.269 -31.600  -3.844  1.00  0.00     0.134 A 
ATOM      7  C   UNL     1      -4.314 -31.832  -4.747  1.00  0.00     0.093 A 
ATOM      8  C   UNL     1      -4.076 -31.907  -6.121  1.00  0.00     0.123 A 
ATOM      9  C   UNL     1      -2.780 -31.757  -6.608  1.00  0.00     0.094 A 
ATOM     10  C   UNL     1      -1.711 -31.560  -5.730  1.00  0.00     0.146 A 
ATOM     11  O   UNL     1      -0.491 -31.431  -6.235  1.00  0.00    -0.452 OA
ENDROOT
BRANCH   1  12
ATOM     12  C   UNL     1       1.898 -31.106  -6.180  1.00  0.00     0.025 A 
ATOM     13  C   UNL     1       2.867 -32.124  -6.156  1.00  0.00     0.016 A 
ATOM     14  C   UNL     1       4.097 -31.944  -6.793  1.00  0.00     0.051 A 
ATOM     15  C   UNL     1       4.383 -30.740  -7.450  1.00  0.00     0.157 A 
ATOM     16  C   UNL     1       2.198 -29.893  -6.822  1.00  0.00     0.062 A 
ATOM     17  C   UNL     1       3.429 -29.709  -7.462  1.00  0.00     0.158 A 
BRANCH  15  18
ATOM     18  O   UNL     1       5.611 -30.563  -8.086  1.00  0.00    -0.504 OA
ATOM     19  H   UNL     1       6.311 -29.927  -7.722  1.00  0.00     0.293 HD
ENDBRANCH  15  18
BRANCH  17  20
ATOM     20  O   UNL     1       3.685 -28.497  -8.101  1.00  0.00    -0.504 OA
ATOM     21  H   UNL     1       3.826 -27.636  -7.587  1.00  0.00     0.293 HD
ENDBRANCH  17  20
ENDBRANCH   1  12
BRANCH   2  22
ATOM     22  O   UNL     1       1.634 -31.185  -3.295  1.00  0.00    -0.502 OA
ATOM     23  H   UNL     1       2.459 -30.671  -3.582  1.00  0.00     0.293 HD
ENDBRANCH   2  22
BRANCH   6  24
ATOM     24  O   UNL     1      -3.625 -31.447  -2.501  1.00  0.00    -0.507 OA
ATOM     25  H   UNL     1      -3.061 -30.982  -1.806  1.00  0.00     0.293 HD
ENDBRANCH   6  24
BRANCH   8  26
ATOM     26  O   UNL     1      -5.124 -32.123  -7.013  1.00  0.00    -0.508 OA
ATOM     27  H   UNL     1      -5.599 -31.354  -7.468  1.00  0.00     0.293 HD
ENDBRANCH   8  26
TORSDOF 6
ENDMDL
MODEL 2
REMARK VINA RESULT:     5.210      2.744      6.194
REMARK INTER + INTRA:           6.057
REMARK INTER:                   6.021
REMARK INTRA:                   0.036
REMARK UNBOUND:                -0.219
REMARK SMILES O=c1c(O)c(-c2ccc(O)c(O)c2)oc2cc(O)cc(O)c12
REMARK SMILES IDX 5 1 3 2 2 3 1 4 22 5 20 6 19 7 17 8 16 9 15 10 14 11 6 12
REMARK SMILES IDX 7 13 8 14 9 15 13 16 11 17 10 18 12 20 4 22 21 24 18 26
REMARK H PARENT 10 19 12 21 4 23 21 25 18 27
REMARK Flexibility Score: inf
ROOT
ATOM      1  C   UNL     1       0.580 -31.247  -3.165  1.00  0.00     0.180 A 
ATOM      2  C   UNL     1      -0.681 -31.508  -3.731  1.00  0.00     0.208 A 
ATOM      3  C   UNL     1      -0.766 -31.788  -5.104  1.00  0.00     0.238 A 
ATOM      4  O   UNL     1      -1.891 -32.073  -5.594  1.00  0.00    -0.285 OA
ATOM      5  C   UNL     1       0.406 -31.787  -5.898  1.00  0.00     0.111 A 
ATOM      6  C   UNL     1       0.431 -32.017  -7.307  1.00  0.00     0.134 A 
ATOM      7  C   UNL     1       1.661 -32.122  -7.967  1.00  0.00     0.093 A 
ATOM      8  C   UNL     1       2.865 -31.941  -7.281  1.00  0.00     0.123 A 
ATOM      9  C   UNL     1       2.848 -31.657  -5.918  1.00  0.00     0.094 A 
ATOM     10  C   UNL     1       1.637 -31.581  -5.224  1.00  0.00     0.146 A 
ATOM     11  O   UNL     1       1.667 -31.319  -3.923  1.00  0.00    -0.452 OA
ENDROOT
BRANCH   1  12
ATOM     12  C   UNL     1       0.747 -30.920  -1.731  1.00  0.00     0.025 A 
ATOM     13  C   UNL     1       0.147 -31.700  -0.727  1.00  0.00     0.016 A 
ATOM     14  C   UNL     1       0.300 -31.359   0.619  1.00  0.00     0.051 A 
ATOM     15  C   UNL     1       1.040 -30.227   0.982  1.00  0.00     0.157 A 
ATOM     16  C   UNL     1       1.472 -29.774  -1.363  1.00  0.00     0.062 A 
ATOM     17  C   UNL     1       1.627 -29.430  -0.016  1.00  0.00     0.158 A 
BRANCH  15  18
ATOM     18  O   UNL     1       1.192 -29.890   2.325  1.00  0.00    -0.504 OA
ATOM     19  H   UNL     1       2.031 -29.437   2.669  1.00  0.00     0.293 HD
ENDBRANCH  15  18
BRANCH  17  20
ATOM     20  O   UNL     1       2.365 -28.293   0.312  1.00  0.00    -0.504 OA
ATOM     21  H   UNL     1       2.411 -27.486  -0.298  1.00  0.00     0.293 HD
ENDBRANCH  17  20
ENDBRANCH   1  12
BRANCH   2  22
ATOM     22  O   UNL     1      -1.822 -31.525  -2.925  1.00  0.00    -0.502 OA
ATOM     23  H   UNL     1      -2.754 -31.656  -3.303  1.00  0.00     0.293 HD
ENDBRANCH   2  22
BRANCH   6  24
ATOM     24  O   UNL     1      -0.715 -32.120  -8.100  1.00  0.00    -0.507 OA
ATOM     25  H   UNL     1      -1.659 -31.998  -7.767  1.00  0.00     0.293 HD
ENDBRANCH   6  24
BRANCH   8  26
ATOM     26  O   UNL     1       4.083 -32.032  -7.949  1.00  0.00    -0.508 OA
ATOM     27  H   UNL     1       4.147 -31.920  -8.954  1.00  0.00     0.293 HD
ENDBRANCH   8  26
TORSDOF 6
ENDMDL
