MODEL 1
REMARK VINA RESULT:    -3.997      0.000      0.000
REMARK INTER + INTRA:         -15.115
REMARK INTER:                 -10.539
REMARK INTRA:                  -4.577
REMARK UNBOUND:                -4.577
REMARK SMILES CCCCCCCCCCCCCCCCCCCCCCCCCCCCCC(=O)[O-]
REMARK SMILES IDX 16 1 17 2 18 3 19 4 20 5 21 6 22 7 23 8 24 9 25 10 26 11
REMARK SMILES IDX 27 12 28 13 29 14 30 15 31 16 32 17 15 18 14 19 13 20 12 21
REMARK SMILES IDX 11 22 10 23 9 24 8 25 7 26 6 27 5 28 4 29 3 30 2 31 1 32
REMARK H PARENT
REMARK Flexibility Score: inf
ROOT
ATOM      1  C   UNL     1     -10.125 -34.266 -43.764  1.00  0.00     0.000 C 
ENDROOT
BRANCH   1   2
ATOM      2  C   UNL     1      -9.026 -35.187 -44.320  1.00  0.00     0.000 C 
BRANCH   2   3
ATOM      3  C   UNL     1      -8.345 -34.597 -45.569  1.00  0.00     0.000 C 
BRANCH   3   4
ATOM      4  C   UNL     1      -9.075 -34.979 -46.874  1.00  0.00     0.000 C 
BRANCH   4   5
ATOM      5  C   UNL     1      -9.496 -36.461 -46.951  1.00  0.00     0.000 C 
BRANCH   5   6
ATOM      6  C   UNL     1      -9.988 -36.933 -48.330  1.00  0.00     0.000 C 
BRANCH   6   7
ATOM      7  C   UNL     1      -9.771 -35.881 -49.433  1.00  0.00     0.000 C 
BRANCH   7   8
ATOM      8  C   UNL     1     -11.089 -35.342 -50.018  1.00  0.00     0.000 C 
BRANCH   8   9
ATOM      9  C   UNL     1     -11.534 -33.966 -49.481  1.00  0.00     0.000 C 
BRANCH   9  10
ATOM     10  C   UNL     1     -10.687 -32.771 -49.955  1.00  0.00     0.000 C 
BRANCH  10  11
ATOM     11  C   UNL     1      -9.919 -32.090 -48.814  1.00  0.00     0.000 C 
BRANCH  11  12
ATOM     12  C   UNL     1      -9.122 -30.886 -49.333  1.00  0.00     0.000 C 
BRANCH  12  13
ATOM     13  C   UNL     1      -7.600 -31.055 -49.168  1.00  0.00     0.006 C 
BRANCH  13  14
ATOM     14  C   UNL     1      -7.137 -32.508 -48.971  1.00  0.00     0.053 C 
BRANCH  14  15
ATOM     15  C   UNL     1      -6.089 -32.624 -47.906  1.00  0.00     0.041 C 
ATOM     16  O   UNL     1      -5.000 -33.210 -48.145  1.00  0.00    -0.550 OA
ATOM     17  O   UNL     1      -6.300 -32.046 -46.660  1.00  0.00    -0.550 OA
ENDBRANCH  14  15
ENDBRANCH  13  14
ENDBRANCH  12  13
ENDBRANCH  11  12
ENDBRANCH  10  11
ENDBRANCH   9  10
ENDBRANCH   8   9
ENDBRANCH   7   8
ENDBRANCH   6   7
ENDBRANCH   5   6
ENDBRANCH   4   5
ENDBRANCH   3   4
ENDBRANCH   2   3
ENDBRANCH   1   2
BRANCH   1  18
ATOM     18  C   UNL     1     -11.317 -34.132 -44.725  1.00  0.00     0.000 C 
BRANCH  18  19
ATOM     19  C   UNL     1     -12.646 -34.581 -44.098  1.00  0.00     0.000 C 
BRANCH  19  20
ATOM     20  C   UNL     1     -13.539 -35.352 -45.087  1.00  0.00     0.000 C 
BRANCH  20  21
ATOM     21  C   UNL     1     -12.800 -35.761 -46.372  1.00  0.00     0.000 C 
BRANCH  21  22
ATOM     22  C   UNL     1     -13.694 -36.216 -47.543  1.00  0.00     0.000 C 
BRANCH  22  23
ATOM     23  C   UNL     1     -13.611 -37.725 -47.859  1.00  0.00     0.000 C 
BRANCH  23  24
ATOM     24  C   UNL     1     -12.950 -38.553 -46.738  1.00  0.00    -0.000 C 
BRANCH  24  25
ATOM     25  C   UNL     1     -13.950 -39.070 -45.685  1.00  0.00    -0.000 C 
BRANCH  25  26
ATOM     26  C   UNL     1     -15.439 -38.863 -46.044  1.00  0.00    -0.000 C 
BRANCH  26  27
ATOM     27  C   UNL     1     -16.218 -37.881 -45.148  1.00  0.00    -0.000 C 
BRANCH  27  28
ATOM     28  C   UNL     1     -17.733 -37.884 -45.404  1.00  0.00    -0.000 C 
BRANCH  28  29
ATOM     29  C   UNL     1     -18.196 -36.543 -45.987  1.00  0.00    -0.000 C 
BRANCH  29  30
ATOM     30  C   UNL     1     -16.997 -35.627 -46.269  1.00  0.00    -0.000 C 
BRANCH  30  31
ATOM     31  C   UNL     1     -17.044 -35.071 -47.696  1.00  0.00    -0.003 C 
ATOM     32  C   UNL     1     -17.860 -35.982 -48.612  1.00  0.00     0.004 C 
ENDBRANCH  30  31
ENDBRANCH  29  30
ENDBRANCH  28  29
ENDBRANCH  27  28
ENDBRANCH  26  27
ENDBRANCH  25  26
ENDBRANCH  24  25
ENDBRANCH  23  24
ENDBRANCH  22  23
ENDBRANCH  21  22
ENDBRANCH  20  21
ENDBRANCH  19  20
ENDBRANCH  18  19
ENDBRANCH   1  18
TORSDOF 28
ENDMDL
MODEL 2
REMARK VINA RESULT:    -3.970      1.187      2.401
REMARK INTER + INTRA:         -15.045
REMARK INTER:                 -11.471
REMARK INTRA:                  -3.574
REMARK UNBOUND:                -4.577
REMARK SMILES CCCCCCCCCCCCCCCCCCCCCCCCCCCCCC(=O)[O-]
REMARK SMILES IDX 16 1 17 2 18 3 19 4 20 5 21 6 22 7 23 8 24 9 25 10 26 11
REMARK SMILES IDX 27 12 28 13 29 14 30 15 31 16 32 17 15 18 14 19 13 20 12 21
REMARK SMILES IDX 11 22 10 23 9 24 8 25 7 26 6 27 5 28 4 29 3 30 2 31 1 32
REMARK H PARENT
REMARK Flexibility Score: inf
ROOT
ATOM      1  C   UNL     1     -10.044 -34.313 -43.818  1.00  0.00     0.000 C 
ENDROOT
BRANCH   1   2
ATOM      2  C   UNL     1      -9.233 -35.272 -44.707  1.00  0.00     0.000 C 
BRANCH   2   3
ATOM      3  C   UNL     1      -8.207 -34.530 -45.583  1.00  0.00     0.000 C 
BRANCH   3   4
ATOM      4  C   UNL     1      -8.738 -34.249 -47.004  1.00  0.00     0.000 C 
BRANCH   4   5
ATOM      5  C   UNL     1      -9.826 -35.234 -47.477  1.00  0.00     0.000 C 
BRANCH   5   6
ATOM      6  C   UNL     1      -9.912 -35.436 -49.000  1.00  0.00     0.000 C 
BRANCH   6   7
ATOM      7  C   UNL     1      -9.787 -34.117 -49.783  1.00  0.00     0.000 C 
BRANCH   7   8
ATOM      8  C   UNL     1     -10.900 -33.109 -49.448  1.00  0.00     0.000 C 
BRANCH   8   9
ATOM      9  C   UNL     1     -10.428 -31.658 -49.220  1.00  0.00     0.000 C 
BRANCH   9  10
ATOM     10  C   UNL     1      -9.240 -31.210 -50.089  1.00  0.00     0.000 C 
BRANCH  10  11
ATOM     11  C   UNL     1      -8.469 -30.026 -49.486  1.00  0.00     0.000 C 
BRANCH  11  12
ATOM     12  C   UNL     1      -6.994 -30.061 -49.910  1.00  0.00     0.000 C 
BRANCH  12  13
ATOM     13  C   UNL     1      -6.031 -30.232 -48.721  1.00  0.00     0.006 C 
BRANCH  13  14
ATOM     14  C   UNL     1      -6.359 -31.416 -47.797  1.00  0.00     0.053 C 
BRANCH  14  15
ATOM     15  C   UNL     1      -5.824 -32.710 -48.329  1.00  0.00     0.041 C 
ATOM     16  O   UNL     1      -6.425 -33.315 -49.256  1.00  0.00    -0.550 OA
ATOM     17  O   UNL     1      -4.635 -33.226 -47.828  1.00  0.00    -0.550 OA
ENDBRANCH  14  15
ENDBRANCH  13  14
ENDBRANCH  12  13
ENDBRANCH  11  12
ENDBRANCH  10  11
ENDBRANCH   9  10
ENDBRANCH   8   9
ENDBRANCH   7   8
ENDBRANCH   6   7
ENDBRANCH   5   6
ENDBRANCH   4   5
ENDBRANCH   3   4
ENDBRANCH   2   3
ENDBRANCH   1   2
BRANCH   1  18
ATOM     18  C   UNL     1     -11.297 -33.777 -44.529  1.00  0.00     0.000 C 
BRANCH  18  19
ATOM     19  C   UNL     1     -12.526 -34.681 -44.340  1.00  0.00     0.000 C 
BRANCH  19  20
ATOM     20  C   UNL     1     -12.921 -35.423 -45.631  1.00  0.00     0.000 C 
BRANCH  20  21
ATOM     21  C   UNL     1     -14.243 -36.197 -45.499  1.00  0.00     0.000 C 
BRANCH  21  22
ATOM     22  C   UNL     1     -14.384 -37.440 -46.400  1.00  0.00     0.000 C 
BRANCH  22  23
ATOM     23  C   UNL     1     -15.276 -38.555 -45.813  1.00  0.00     0.000 C 
BRANCH  23  24
ATOM     24  C   UNL     1     -16.241 -38.058 -44.717  1.00  0.00    -0.000 C 
BRANCH  24  25
ATOM     25  C   UNL     1     -17.685 -37.854 -45.217  1.00  0.00    -0.000 C 
BRANCH  25  26
ATOM     26  C   UNL     1     -17.957 -36.487 -45.882  1.00  0.00    -0.000 C 
BRANCH  26  27
ATOM     27  C   UNL     1     -18.354 -36.528 -47.370  1.00  0.00    -0.000 C 
BRANCH  27  28
ATOM     28  C   UNL     1     -17.219 -36.116 -48.321  1.00  0.00    -0.000 C 
BRANCH  28  29
ATOM     29  C   UNL     1     -17.363 -34.650 -48.749  1.00  0.00    -0.000 C 
BRANCH  29  30
ATOM     30  C   UNL     1     -16.065 -34.139 -49.388  1.00  0.00    -0.000 C 
BRANCH  30  31
ATOM     31  C   UNL     1     -15.230 -35.293 -49.956  1.00  0.00    -0.003 C 
ATOM     32  C   UNL     1     -13.834 -35.314 -49.337  1.00  0.00     0.004 C 
ENDBRANCH  30  31
ENDBRANCH  29  30
ENDBRANCH  28  29
ENDBRANCH  27  28
ENDBRANCH  26  27
ENDBRANCH  25  26
ENDBRANCH  24  25
ENDBRANCH  23  24
ENDBRANCH  22  23
ENDBRANCH  21  22
ENDBRANCH  20  21
ENDBRANCH  19  20
ENDBRANCH  18  19
ENDBRANCH   1  18
TORSDOF 28
ENDMDL
MODEL 3
REMARK VINA RESULT:    -3.914      1.379      2.383
REMARK INTER + INTRA:         -14.897
REMARK INTER:                 -10.393
REMARK INTRA:                  -4.504
REMARK UNBOUND:                -4.577
REMARK SMILES CCCCCCCCCCCCCCCCCCCCCCCCCCCCCC(=O)[O-]
REMARK SMILES IDX 16 1 17 2 18 3 19 4 20 5 21 6 22 7 23 8 24 9 25 10 26 11
REMARK SMILES IDX 27 12 28 13 29 14 30 15 31 16 32 17 15 18 14 19 13 20 12 21
REMARK SMILES IDX 11 22 10 23 9 24 8 25 7 26 6 27 5 28 4 29 3 30 2 31 1 32
REMARK H PARENT
REMARK Flexibility Score: inf
ROOT
ATOM      1  C   UNL     1     -11.177 -34.341 -45.011  1.00  0.00     0.000 C 
ENDROOT
BRANCH   1   2
ATOM      2  C   UNL     1      -9.948 -34.555 -44.111  1.00  0.00     0.000 C 
BRANCH   2   3
ATOM      3  C   UNL     1      -8.873 -35.426 -44.786  1.00  0.00     0.000 C 
BRANCH   3   4
ATOM      4  C   UNL     1      -9.263 -35.838 -46.221  1.00  0.00     0.000 C 
BRANCH   4   5
ATOM      5  C   UNL     1      -9.617 -37.331 -46.375  1.00  0.00     0.000 C 
BRANCH   5   6
ATOM      6  C   UNL     1      -9.958 -37.781 -47.806  1.00  0.00     0.000 C 
BRANCH   6   7
ATOM      7  C   UNL     1      -9.626 -36.713 -48.862  1.00  0.00     0.000 C 
BRANCH   7   8
ATOM      8  C   UNL     1     -10.879 -36.092 -49.506  1.00  0.00     0.000 C 
BRANCH   8   9
ATOM      9  C   UNL     1     -10.832 -34.562 -49.698  1.00  0.00     0.000 C 
BRANCH   9  10
ATOM     10  C   UNL     1      -9.550 -33.876 -49.193  1.00  0.00     0.000 C 
BRANCH  10  11
ATOM     11  C   UNL     1      -9.831 -32.595 -48.394  1.00  0.00     0.000 C 
BRANCH  11  12
ATOM     12  C   UNL     1      -9.867 -31.371 -49.319  1.00  0.00     0.000 C 
BRANCH  12  13
ATOM     13  C   UNL     1      -8.475 -30.974 -49.845  1.00  0.00     0.006 C 
BRANCH  13  14
ATOM     14  C   UNL     1      -7.698 -30.010 -48.933  1.00  0.00     0.053 C 
BRANCH  14  15
ATOM     15  C   UNL     1      -6.386 -30.585 -48.495  1.00  0.00     0.041 C 
ATOM     16  O   UNL     1      -5.306 -30.136 -48.962  1.00  0.00    -0.550 OA
ATOM     17  O   UNL     1      -6.356 -31.588 -47.534  1.00  0.00    -0.550 OA
ENDBRANCH  14  15
ENDBRANCH  13  14
ENDBRANCH  12  13
ENDBRANCH  11  12
ENDBRANCH  10  11
ENDBRANCH   9  10
ENDBRANCH   8   9
ENDBRANCH   7   8
ENDBRANCH   6   7
ENDBRANCH   5   6
ENDBRANCH   4   5
ENDBRANCH   3   4
ENDBRANCH   2   3
ENDBRANCH   1   2
BRANCH   1  18
ATOM     18  C   UNL     1     -12.497 -34.621 -44.274  1.00  0.00     0.000 C 
BRANCH  18  19
ATOM     19  C   UNL     1     -13.523 -35.366 -45.143  1.00  0.00     0.000 C 
BRANCH  19  20
ATOM     20  C   UNL     1     -12.969 -35.735 -46.532  1.00  0.00     0.000 C 
BRANCH  20  21
ATOM     21  C   UNL     1     -13.534 -37.059 -47.073  1.00  0.00     0.000 C 
BRANCH  21  22
ATOM     22  C   UNL     1     -13.789 -38.157 -46.021  1.00  0.00     0.000 C 
BRANCH  22  23
ATOM     23  C   UNL     1     -15.235 -38.698 -46.003  1.00  0.00     0.000 C 
BRANCH  23  24
ATOM     24  C   UNL     1     -16.148 -37.979 -44.990  1.00  0.00    -0.000 C 
BRANCH  24  25
ATOM     25  C   UNL     1     -16.998 -36.857 -45.619  1.00  0.00    -0.000 C 
BRANCH  25  26
ATOM     26  C   UNL     1     -17.875 -37.295 -46.813  1.00  0.00    -0.000 C 
BRANCH  26  27
ATOM     27  C   UNL     1     -17.939 -36.313 -47.998  1.00  0.00    -0.000 C 
BRANCH  27  28
ATOM     28  C   UNL     1     -16.658 -36.290 -48.847  1.00  0.00    -0.000 C 
BRANCH  28  29
ATOM     29  C   UNL     1     -16.127 -34.860 -49.006  1.00  0.00    -0.000 C 
BRANCH  29  30
ATOM     30  C   UNL     1     -17.121 -33.843 -48.429  1.00  0.00    -0.000 C 
BRANCH  30  31
ATOM     31  C   UNL     1     -17.679 -32.926 -49.524  1.00  0.00    -0.003 C 
ATOM     32  C   UNL     1     -17.153 -31.501 -49.364  1.00  0.00     0.004 C 
ENDBRANCH  30  31
ENDBRANCH  29  30
ENDBRANCH  28  29
ENDBRANCH  27  28
ENDBRANCH  26  27
ENDBRANCH  25  26
ENDBRANCH  24  25
ENDBRANCH  23  24
ENDBRANCH  22  23
ENDBRANCH  21  22
ENDBRANCH  20  21
ENDBRANCH  19  20
ENDBRANCH  18  19
ENDBRANCH   1  18
TORSDOF 28
ENDMDL
MODEL 4
REMARK VINA RESULT:    -3.785      2.015      3.140
REMARK INTER + INTRA:         -14.557
REMARK INTER:                 -11.661
REMARK INTRA:                  -2.895
REMARK UNBOUND:                -4.577
REMARK SMILES CCCCCCCCCCCCCCCCCCCCCCCCCCCCCC(=O)[O-]
REMARK SMILES IDX 16 1 17 2 18 3 19 4 20 5 21 6 22 7 23 8 24 9 25 10 26 11
REMARK SMILES IDX 27 12 28 13 29 14 30 15 31 16 32 17 15 18 14 19 13 20 12 21
REMARK SMILES IDX 11 22 10 23 9 24 8 25 7 26 6 27 5 28 4 29 3 30 2 31 1 32
REMARK H PARENT
REMARK Flexibility Score: inf
ROOT
ATOM      1  C   UNL     1      -9.938 -34.255 -43.751  1.00  0.00     0.000 C 
ENDROOT
BRANCH   1   2
ATOM      2  C   UNL     1      -9.133 -35.277 -44.571  1.00  0.00     0.000 C 
BRANCH   2   3
ATOM      3  C   UNL     1      -8.237 -34.605 -45.627  1.00  0.00     0.000 C 
BRANCH   3   4
ATOM      4  C   UNL     1      -8.949 -34.442 -46.986  1.00  0.00     0.000 C 
BRANCH   4   5
ATOM      5  C   UNL     1      -9.776 -35.670 -47.416  1.00  0.00     0.000 C 
BRANCH   5   6
ATOM      6  C   UNL     1     -10.363 -35.602 -48.837  1.00  0.00     0.000 C 
BRANCH   6   7
ATOM      7  C   UNL     1     -11.768 -34.975 -48.872  1.00  0.00     0.000 C 
BRANCH   7   8
ATOM      8  C   UNL     1     -11.851 -33.734 -49.779  1.00  0.00     0.000 C 
BRANCH   8   9
ATOM      9  C   UNL     1     -10.511 -33.013 -50.033  1.00  0.00     0.000 C 
BRANCH   9  10
ATOM     10  C   UNL     1     -10.391 -31.612 -49.407  1.00  0.00     0.000 C 
BRANCH  10  11
ATOM     11  C   UNL     1      -9.052 -31.391 -48.687  1.00  0.00     0.000 C 
BRANCH  11  12
ATOM     12  C   UNL     1      -8.179 -30.387 -49.453  1.00  0.00     0.000 C 
BRANCH  12  13
ATOM     13  C   UNL     1      -6.675 -30.565 -49.176  1.00  0.00     0.006 C 
BRANCH  13  14
ATOM     14  C   UNL     1      -6.349 -31.430 -47.948  1.00  0.00     0.053 C 
BRANCH  14  15
ATOM     15  C   UNL     1      -5.780 -32.762 -48.331  1.00  0.00     0.041 C 
ATOM     16  O   UNL     1      -4.738 -33.194 -47.772  1.00  0.00    -0.550 OA
ATOM     17  O   UNL     1      -6.429 -33.545 -49.278  1.00  0.00    -0.550 OA
ENDBRANCH  14  15
ENDBRANCH  13  14
ENDBRANCH  12  13
ENDBRANCH  11  12
ENDBRANCH  10  11
ENDBRANCH   9  10
ENDBRANCH   8   9
ENDBRANCH   7   8
ENDBRANCH   6   7
ENDBRANCH   5   6
ENDBRANCH   4   5
ENDBRANCH   3   4
ENDBRANCH   2   3
ENDBRANCH   1   2
BRANCH   1  18
ATOM     18  C   UNL     1     -11.190 -33.764 -44.497  1.00  0.00     0.000 C 
BRANCH  18  19
ATOM     19  C   UNL     1     -12.427 -34.637 -44.231  1.00  0.00     0.000 C 
BRANCH  19  20
ATOM     20  C   UNL     1     -12.913 -35.377 -45.491  1.00  0.00     0.000 C 
BRANCH  20  21
ATOM     21  C   UNL     1     -14.367 -35.867 -45.377  1.00  0.00     0.000 C 
BRANCH  21  22
ATOM     22  C   UNL     1     -14.609 -37.339 -45.766  1.00  0.00     0.000 C 
BRANCH  22  23
ATOM     23  C   UNL     1     -16.067 -37.664 -46.154  1.00  0.00     0.000 C 
BRANCH  23  24
ATOM     24  C   UNL     1     -17.067 -36.555 -45.771  1.00  0.00    -0.000 C 
BRANCH  24  25
ATOM     25  C   UNL     1     -17.754 -35.901 -46.987  1.00  0.00    -0.000 C 
BRANCH  25  26
ATOM     26  C   UNL     1     -16.794 -35.428 -48.100  1.00  0.00    -0.000 C 
BRANCH  26  27
ATOM     27  C   UNL     1     -16.970 -33.970 -48.567  1.00  0.00    -0.000 C 
BRANCH  27  28
ATOM     28  C   UNL     1     -17.725 -33.838 -49.900  1.00  0.00    -0.000 C 
BRANCH  28  29
ATOM     29  C   UNL     1     -18.764 -32.712 -49.836  1.00  0.00    -0.000 C 
BRANCH  29  30
ATOM     30  C   UNL     1     -18.141 -31.428 -49.271  1.00  0.00    -0.000 C 
BRANCH  30  31
ATOM     31  C   UNL     1     -19.220 -30.438 -48.815  1.00  0.00    -0.003 C 
ATOM     32  C   UNL     1     -18.935 -29.036 -49.348  1.00  0.00     0.004 C 
ENDBRANCH  30  31
ENDBRANCH  29  30
ENDBRANCH  28  29
ENDBRANCH  27  28
ENDBRANCH  26  27
ENDBRANCH  25  26
ENDBRANCH  24  25
ENDBRANCH  23  24
ENDBRANCH  22  23
ENDBRANCH  21  22
ENDBRANCH  20  21
ENDBRANCH  19  20
ENDBRANCH  18  19
ENDBRANCH   1  18
TORSDOF 28
ENDMDL
MODEL 5
REMARK VINA RESULT:    -3.569      1.328      2.727
REMARK INTER + INTRA:         -13.987
REMARK INTER:                  -8.974
REMARK INTRA:                  -5.013
REMARK UNBOUND:                -4.577
REMARK SMILES CCCCCCCCCCCCCCCCCCCCCCCCCCCCCC(=O)[O-]
REMARK SMILES IDX 16 1 17 2 18 3 19 4 20 5 21 6 22 7 23 8 24 9 25 10 26 11
REMARK SMILES IDX 27 12 28 13 29 14 30 15 31 16 32 17 15 18 14 19 13 20 12 21
REMARK SMILES IDX 11 22 10 23 9 24 8 25 7 26 6 27 5 28 4 29 3 30 2 31 1 32
REMARK H PARENT
REMARK Flexibility Score: inf
ROOT
ATOM      1  C   UNL     1     -10.539 -34.235 -45.074  1.00  0.00     0.000 C 
ENDROOT
BRANCH   1   2
ATOM      2  C   UNL     1     -11.907 -34.580 -44.460  1.00  0.00     0.000 C 
BRANCH   2   3
ATOM      3  C   UNL     1     -12.824 -35.319 -45.451  1.00  0.00     0.000 C 
BRANCH   3   4
ATOM      4  C   UNL     1     -12.112 -35.649 -46.779  1.00  0.00     0.000 C 
BRANCH   4   5
ATOM      5  C   UNL     1     -12.999 -35.481 -48.029  1.00  0.00     0.000 C 
BRANCH   5   6
ATOM      6  C   UNL     1     -12.250 -35.109 -49.321  1.00  0.00     0.000 C 
BRANCH   6   7
ATOM      7  C   UNL     1     -11.385 -36.261 -49.861  1.00  0.00     0.000 C 
BRANCH   7   8
ATOM      8  C   UNL     1      -9.881 -36.056 -49.606  1.00  0.00     0.000 C 
BRANCH   8   9
ATOM      9  C   UNL     1      -9.381 -34.604 -49.749  1.00  0.00     0.000 C 
BRANCH   9  10
ATOM     10  C   UNL     1      -9.035 -33.895 -48.427  1.00  0.00     0.000 C 
BRANCH  10  11
ATOM     11  C   UNL     1      -9.662 -32.498 -48.315  1.00  0.00     0.000 C 
BRANCH  11  12
ATOM     12  C   UNL     1      -9.741 -31.822 -49.691  1.00  0.00     0.000 C 
BRANCH  12  13
ATOM     13  C   UNL     1      -8.431 -31.118 -50.091  1.00  0.00     0.006 C 
BRANCH  13  14
ATOM     14  C   UNL     1      -7.900 -30.117 -49.053  1.00  0.00     0.053 C 
BRANCH  14  15
ATOM     15  C   UNL     1      -6.554 -30.512 -48.526  1.00  0.00     0.041 C 
ATOM     16  O   UNL     1      -6.453 -31.402 -47.640  1.00  0.00    -0.550 OA
ATOM     17  O   UNL     1      -5.407 -29.927 -49.047  1.00  0.00    -0.550 OA
ENDBRANCH  14  15
ENDBRANCH  13  14
ENDBRANCH  12  13
ENDBRANCH  11  12
ENDBRANCH  10  11
ENDBRANCH   9  10
ENDBRANCH   8   9
ENDBRANCH   7   8
ENDBRANCH   6   7
ENDBRANCH   5   6
ENDBRANCH   4   5
ENDBRANCH   3   4
ENDBRANCH   2   3
ENDBRANCH   1   2
BRANCH   1  18
ATOM     18  C   UNL     1      -9.372 -34.586 -44.136  1.00  0.00     0.000 C 
BRANCH  18  19
ATOM     19  C   UNL     1      -8.843 -36.014 -44.347  1.00  0.00     0.000 C 
BRANCH  19  20
ATOM     20  C   UNL     1      -9.046 -36.517 -45.788  1.00  0.00     0.000 C 
BRANCH  20  21
ATOM     21  C   UNL     1      -8.905 -38.043 -45.918  1.00  0.00     0.000 C 
BRANCH  21  22
ATOM     22  C   UNL     1      -9.702 -38.693 -47.067  1.00  0.00     0.000 C 
BRANCH  22  23
ATOM     23  C   UNL     1     -11.154 -39.070 -46.704  1.00  0.00     0.000 C 
BRANCH  23  24
ATOM     24  C   UNL     1     -12.098 -39.125 -47.921  1.00  0.00    -0.000 C 
BRANCH  24  25
ATOM     25  C   UNL     1     -13.592 -39.084 -47.541  1.00  0.00    -0.000 C 
BRANCH  25  26
ATOM     26  C   UNL     1     -13.876 -38.906 -46.033  1.00  0.00    -0.000 C 
BRANCH  26  27
ATOM     27  C   UNL     1     -15.359 -38.938 -45.618  1.00  0.00    -0.000 C 
BRANCH  27  28
ATOM     28  C   UNL     1     -15.885 -37.586 -45.110  1.00  0.00    -0.000 C 
BRANCH  28  29
ATOM     29  C   UNL     1     -16.010 -36.576 -46.258  1.00  0.00    -0.000 C 
BRANCH  29  30
ATOM     30  C   UNL     1     -17.467 -36.127 -46.432  1.00  0.00    -0.000 C 
BRANCH  30  31
ATOM     31  C   UNL     1     -18.365 -37.296 -46.854  1.00  0.00    -0.003 C 
ATOM     32  C   UNL     1     -17.977 -37.811 -48.239  1.00  0.00     0.004 C 
ENDBRANCH  30  31
ENDBRANCH  29  30
ENDBRANCH  28  29
ENDBRANCH  27  28
ENDBRANCH  26  27
ENDBRANCH  25  26
ENDBRANCH  24  25
ENDBRANCH  23  24
ENDBRANCH  22  23
ENDBRANCH  21  22
ENDBRANCH  20  21
ENDBRANCH  19  20
ENDBRANCH  18  19
ENDBRANCH   1  18
TORSDOF 28
ENDMDL
MODEL 6
REMARK VINA RESULT:    -3.545      1.318      2.636
REMARK INTER + INTRA:         -13.925
REMARK INTER:                  -8.953
REMARK INTRA:                  -4.972
REMARK UNBOUND:                -4.577
REMARK SMILES CCCCCCCCCCCCCCCCCCCCCCCCCCCCCC(=O)[O-]
REMARK SMILES IDX 16 1 17 2 18 3 19 4 20 5 21 6 22 7 23 8 24 9 25 10 26 11
REMARK SMILES IDX 27 12 28 13 29 14 30 15 31 16 32 17 15 18 14 19 13 20 12 21
REMARK SMILES IDX 11 22 10 23 9 24 8 25 7 26 6 27 5 28 4 29 3 30 2 31 1 32
REMARK H PARENT
REMARK Flexibility Score: inf
ROOT
ATOM      1  C   UNL     1     -11.824 -33.863 -44.499  1.00  0.00     0.000 C 
ENDROOT
BRANCH   1   2
ATOM      2  C   UNL     1     -10.440 -34.292 -43.984  1.00  0.00     0.000 C 
BRANCH   2   3
ATOM      3  C   UNL     1      -9.464 -34.617 -45.131  1.00  0.00     0.000 C 
BRANCH   3   4
ATOM      4  C   UNL     1      -8.894 -36.047 -45.033  1.00  0.00     0.000 C 
BRANCH   4   5
ATOM      5  C   UNL     1      -9.065 -36.883 -46.317  1.00  0.00     0.000 C 
BRANCH   5   6
ATOM      6  C   UNL     1     -10.513 -37.038 -46.814  1.00  0.00     0.000 C 
BRANCH   6   7
ATOM      7  C   UNL     1     -10.698 -36.565 -48.267  1.00  0.00     0.000 C 
BRANCH   7   8
ATOM      8  C   UNL     1     -11.376 -35.187 -48.370  1.00  0.00     0.000 C 
BRANCH   8   9
ATOM      9  C   UNL     1     -11.070 -34.398 -49.660  1.00  0.00     0.000 C 
BRANCH   9  10
ATOM     10  C   UNL     1      -9.580 -34.106 -49.913  1.00  0.00     0.000 C 
BRANCH  10  11
ATOM     11  C   UNL     1      -8.921 -33.320 -48.769  1.00  0.00     0.000 C 
BRANCH  11  12
ATOM     12  C   UNL     1      -9.593 -31.952 -48.588  1.00  0.00     0.000 C 
BRANCH  12  13
ATOM     13  C   UNL     1      -8.869 -30.822 -49.344  1.00  0.00     0.006 C 
BRANCH  13  14
ATOM     14  C   UNL     1      -7.355 -31.032 -49.510  1.00  0.00     0.053 C 
BRANCH  14  15
ATOM     15  C   UNL     1      -6.587 -30.573 -48.307  1.00  0.00     0.041 C 
ATOM     16  O   UNL     1      -6.232 -31.399 -47.425  1.00  0.00    -0.550 OA
ATOM     17  O   UNL     1      -6.226 -29.238 -48.185  1.00  0.00    -0.550 OA
ENDBRANCH  14  15
ENDBRANCH  13  14
ENDBRANCH  12  13
ENDBRANCH  11  12
ENDBRANCH  10  11
ENDBRANCH   9  10
ENDBRANCH   8   9
ENDBRANCH   7   8
ENDBRANCH   6   7
ENDBRANCH   5   6
ENDBRANCH   4   5
ENDBRANCH   3   4
ENDBRANCH   2   3
ENDBRANCH   1   2
BRANCH   1  18
ATOM     18  C   UNL     1     -12.876 -34.974 -44.343  1.00  0.00     0.000 C 
BRANCH  18  19
ATOM     19  C   UNL     1     -13.494 -35.406 -45.681  1.00  0.00     0.000 C 
BRANCH  19  20
ATOM     20  C   UNL     1     -14.640 -36.420 -45.506  1.00  0.00     0.000 C 
BRANCH  20  21
ATOM     21  C   UNL     1     -14.223 -37.862 -45.841  1.00  0.00     0.000 C 
BRANCH  21  22
ATOM     22  C   UNL     1     -13.941 -38.149 -47.329  1.00  0.00     0.000 C 
BRANCH  22  23
ATOM     23  C   UNL     1     -15.065 -37.703 -48.289  1.00  0.00     0.000 C 
BRANCH  23  24
ATOM     24  C   UNL     1     -14.638 -36.580 -49.255  1.00  0.00    -0.000 C 
BRANCH  24  25
ATOM     25  C   UNL     1     -15.266 -35.212 -48.920  1.00  0.00    -0.000 C 
BRANCH  25  26
ATOM     26  C   UNL     1     -16.528 -34.857 -49.737  1.00  0.00    -0.000 C 
BRANCH  26  27
ATOM     27  C   UNL     1     -17.844 -34.768 -48.940  1.00  0.00    -0.000 C 
BRANCH  27  28
ATOM     28  C   UNL     1     -18.770 -35.977 -49.146  1.00  0.00    -0.000 C 
BRANCH  28  29
ATOM     29  C   UNL     1     -18.830 -36.847 -47.884  1.00  0.00    -0.000 C 
BRANCH  29  30
ATOM     30  C   UNL     1     -18.040 -36.200 -46.738  1.00  0.00    -0.000 C 
BRANCH  30  31
ATOM     31  C   UNL     1     -18.010 -37.104 -45.501  1.00  0.00    -0.003 C 
ATOM     32  C   UNL     1     -17.832 -38.568 -45.898  1.00  0.00     0.004 C 
ENDBRANCH  30  31
ENDBRANCH  29  30
ENDBRANCH  28  29
ENDBRANCH  27  28
ENDBRANCH  26  27
ENDBRANCH  25  26
ENDBRANCH  24  25
ENDBRANCH  23  24
ENDBRANCH  22  23
ENDBRANCH  21  22
ENDBRANCH  20  21
ENDBRANCH  19  20
ENDBRANCH  18  19
ENDBRANCH   1  18
TORSDOF 28
ENDMDL
MODEL 7
REMARK VINA RESULT:    -3.521      1.514      2.735
REMARK INTER + INTRA:         -13.862
REMARK INTER:                  -9.165
REMARK INTRA:                  -4.697
REMARK UNBOUND:                -4.577
REMARK SMILES CCCCCCCCCCCCCCCCCCCCCCCCCCCCCC(=O)[O-]
REMARK SMILES IDX 16 1 17 2 18 3 19 4 20 5 21 6 22 7 23 8 24 9 25 10 26 11
REMARK SMILES IDX 27 12 28 13 29 14 30 15 31 16 32 17 15 18 14 19 13 20 12 21
REMARK SMILES IDX 11 22 10 23 9 24 8 25 7 26 6 27 5 28 4 29 3 30 2 31 1 32
REMARK H PARENT
REMARK Flexibility Score: inf
ROOT
ATOM      1  C   UNL     1     -10.296 -34.521 -45.536  1.00  0.00     0.000 C 
ENDROOT
BRANCH   1   2
ATOM      2  C   UNL     1      -9.039 -35.287 -45.088  1.00  0.00     0.000 C 
BRANCH   2   3
ATOM      3  C   UNL     1      -8.925 -36.667 -45.761  1.00  0.00     0.000 C 
BRANCH   3   4
ATOM      4  C   UNL     1      -9.656 -36.725 -47.118  1.00  0.00     0.000 C 
BRANCH   4   5
ATOM      5  C   UNL     1     -10.682 -37.871 -47.234  1.00  0.00     0.000 C 
BRANCH   5   6
ATOM      6  C   UNL     1     -11.163 -38.179 -48.662  1.00  0.00     0.000 C 
BRANCH   6   7
ATOM      7  C   UNL     1     -12.299 -37.247 -49.122  1.00  0.00     0.000 C 
BRANCH   7   8
ATOM      8  C   UNL     1     -11.789 -35.989 -49.847  1.00  0.00     0.000 C 
BRANCH   8   9
ATOM      9  C   UNL     1     -12.282 -34.648 -49.265  1.00  0.00     0.000 C 
BRANCH   9  10
ATOM     10  C   UNL     1     -11.601 -33.393 -49.841  1.00  0.00     0.000 C 
BRANCH  10  11
ATOM     11  C   UNL     1     -10.094 -33.342 -49.551  1.00  0.00     0.000 C 
BRANCH  11  12
ATOM     12  C   UNL     1      -9.703 -31.997 -48.924  1.00  0.00     0.000 C 
BRANCH  12  13
ATOM     13  C   UNL     1      -8.222 -31.936 -48.505  1.00  0.00     0.006 C 
BRANCH  13  14
ATOM     14  C   UNL     1      -7.576 -33.306 -48.244  1.00  0.00     0.053 C 
BRANCH  14  15
ATOM     15  C   UNL     1      -6.333 -33.194 -47.415  1.00  0.00     0.041 C 
ATOM     16  O   UNL     1      -6.402 -33.213 -46.157  1.00  0.00    -0.550 OA
ATOM     17  O   UNL     1      -5.092 -33.112 -48.034  1.00  0.00    -0.550 OA
ENDBRANCH  14  15
ENDBRANCH  13  14
ENDBRANCH  12  13
ENDBRANCH  11  12
ENDBRANCH  10  11
ENDBRANCH   9  10
ENDBRANCH   8   9
ENDBRANCH   7   8
ENDBRANCH   6   7
ENDBRANCH   5   6
ENDBRANCH   4   5
ENDBRANCH   3   4
ENDBRANCH   2   3
ENDBRANCH   1   2
BRANCH   1  18
ATOM     18  C   UNL     1     -11.215 -34.165 -44.356  1.00  0.00     0.000 C 
BRANCH  18  19
ATOM     19  C   UNL     1     -12.598 -34.827 -44.452  1.00  0.00     0.000 C 
BRANCH  19  20
ATOM     20  C   UNL     1     -12.874 -35.428 -45.843  1.00  0.00     0.000 C 
BRANCH  20  21
ATOM     21  C   UNL     1     -13.963 -36.513 -45.824  1.00  0.00     0.000 C 
BRANCH  21  22
ATOM     22  C   UNL     1     -15.377 -36.036 -45.435  1.00  0.00     0.000 C 
BRANCH  22  23
ATOM     23  C   UNL     1     -16.472 -37.117 -45.561  1.00  0.00     0.000 C 
BRANCH  23  24
ATOM     24  C   UNL     1     -17.865 -36.545 -45.890  1.00  0.00    -0.000 C 
BRANCH  24  25
ATOM     25  C   UNL     1     -18.368 -36.925 -47.297  1.00  0.00    -0.000 C 
BRANCH  25  26
ATOM     26  C   UNL     1     -17.314 -37.595 -48.206  1.00  0.00    -0.000 C 
BRANCH  26  27
ATOM     27  C   UNL     1     -16.816 -36.752 -49.396  1.00  0.00    -0.000 C 
BRANCH  27  28
ATOM     28  C   UNL     1     -15.673 -35.790 -49.034  1.00  0.00    -0.000 C 
BRANCH  28  29
ATOM     29  C   UNL     1     -15.955 -34.376 -49.557  1.00  0.00    -0.000 C 
BRANCH  29  30
ATOM     30  C   UNL     1     -17.052 -33.696 -48.727  1.00  0.00    -0.000 C 
BRANCH  30  31
ATOM     31  C   UNL     1     -18.189 -33.183 -49.617  1.00  0.00    -0.003 C 
ATOM     32  C   UNL     1     -18.529 -31.731 -49.289  1.00  0.00     0.004 C 
ENDBRANCH  30  31
ENDBRANCH  29  30
ENDBRANCH  28  29
ENDBRANCH  27  28
ENDBRANCH  26  27
ENDBRANCH  25  26
ENDBRANCH  24  25
ENDBRANCH  23  24
ENDBRANCH  22  23
ENDBRANCH  21  22
ENDBRANCH  20  21
ENDBRANCH  19  20
ENDBRANCH  18  19
ENDBRANCH   1  18
TORSDOF 28
ENDMDL
MODEL 8
REMARK VINA RESULT:    -3.248      1.965      4.801
REMARK INTER + INTRA:         -13.142
REMARK INTER:                  -8.648
REMARK INTRA:                  -4.493
REMARK UNBOUND:                -4.577
REMARK SMILES CCCCCCCCCCCCCCCCCCCCCCCCCCCCCC(=O)[O-]
REMARK SMILES IDX 16 1 17 2 18 3 19 4 20 5 21 6 22 7 23 8 24 9 25 10 26 11
REMARK SMILES IDX 27 12 28 13 29 14 30 15 31 16 32 17 15 18 14 19 13 20 12 21
REMARK SMILES IDX 11 22 10 23 9 24 8 25 7 26 6 27 5 28 4 29 3 30 2 31 1 32
REMARK H PARENT
REMARK Flexibility Score: inf
ROOT
ATOM      1  C   UNL     1      -9.009 -34.994 -49.491  1.00  0.00     0.000 C 
ENDROOT
BRANCH   1   2
ATOM      2  C   UNL     1      -9.688 -33.751 -50.091  1.00  0.00     0.000 C 
BRANCH   2   3
ATOM      3  C   UNL     1     -10.541 -32.995 -49.056  1.00  0.00     0.000 C 
BRANCH   3   4
ATOM      4  C   UNL     1     -10.230 -31.484 -49.027  1.00  0.00     0.000 C 
BRANCH   4   5
ATOM      5  C   UNL     1      -9.014 -31.074 -49.881  1.00  0.00     0.000 C 
BRANCH   5   6
ATOM      6  C   UNL     1      -8.077 -30.038 -49.236  1.00  0.00     0.000 C 
BRANCH   6   7
ATOM      7  C   UNL     1      -6.892 -30.686 -48.497  1.00  0.00     0.000 C 
BRANCH   7   8
ATOM      8  C   UNL     1      -6.454 -32.024 -49.119  1.00  0.00     0.000 C 
BRANCH   8   9
ATOM      9  C   UNL     1      -6.111 -33.138 -48.108  1.00  0.00     0.000 C 
BRANCH   9  10
ATOM     10  C   UNL     1      -6.214 -32.735 -46.626  1.00  0.00     0.000 C 
BRANCH  10  11
ATOM     11  C   UNL     1      -6.948 -33.779 -45.772  1.00  0.00     0.000 C 
BRANCH  11  12
ATOM     12  C   UNL     1      -8.317 -34.119 -46.379  1.00  0.00     0.000 C 
BRANCH  12  13
ATOM     13  C   UNL     1      -8.885 -35.456 -45.869  1.00  0.00     0.006 C 
BRANCH  13  14
ATOM     14  C   UNL     1     -10.339 -35.384 -45.373  1.00  0.00     0.053 C 
BRANCH  14  15
ATOM     15  C   UNL     1     -10.534 -34.303 -44.354  1.00  0.00     0.041 C 
ATOM     16  O   UNL     1     -11.601 -33.634 -44.331  1.00  0.00    -0.550 OA
ATOM     17  O   UNL     1      -9.552 -34.066 -43.400  1.00  0.00    -0.550 OA
ENDBRANCH  14  15
ENDBRANCH  13  14
ENDBRANCH  12  13
ENDBRANCH  11  12
ENDBRANCH  10  11
ENDBRANCH   9  10
ENDBRANCH   8   9
ENDBRANCH   7   8
ENDBRANCH   6   7
ENDBRANCH   5   6
ENDBRANCH   4   5
ENDBRANCH   3   4
ENDBRANCH   2   3
ENDBRANCH   1   2
BRANCH   1  18
ATOM     18  C   UNL     1      -9.555 -36.303 -50.086  1.00  0.00     0.000 C 
BRANCH  18  19
ATOM     19  C   UNL     1     -10.572 -37.000 -49.168  1.00  0.00     0.000 C 
BRANCH  19  20
ATOM     20  C   UNL     1     -12.021 -36.559 -49.444  1.00  0.00     0.000 C 
BRANCH  20  21
ATOM     21  C   UNL     1     -12.674 -35.853 -48.243  1.00  0.00     0.000 C 
BRANCH  21  22
ATOM     22  C   UNL     1     -13.950 -36.518 -47.689  1.00  0.00     0.000 C 
BRANCH  22  23
ATOM     23  C   UNL     1     -13.787 -37.140 -46.285  1.00  0.00     0.000 C 
BRANCH  23  24
ATOM     24  C   UNL     1     -15.034 -36.979 -45.392  1.00  0.00    -0.000 C 
BRANCH  24  25
ATOM     25  C   UNL     1     -16.127 -36.092 -46.020  1.00  0.00    -0.000 C 
BRANCH  25  26
ATOM     26  C   UNL     1     -17.574 -36.585 -45.795  1.00  0.00    -0.000 C 
BRANCH  26  27
ATOM     27  C   UNL     1     -18.381 -36.908 -47.067  1.00  0.00    -0.000 C 
BRANCH  27  28
ATOM     28  C   UNL     1     -17.532 -37.509 -48.199  1.00  0.00    -0.000 C 
BRANCH  28  29
ATOM     29  C   UNL     1     -17.448 -36.550 -49.393  1.00  0.00    -0.000 C 
BRANCH  29  30
ATOM     30  C   UNL     1     -18.453 -35.400 -49.241  1.00  0.00    -0.000 C 
BRANCH  30  31
ATOM     31  C   UNL     1     -17.746 -34.040 -49.225  1.00  0.00    -0.003 C 
ATOM     32  C   UNL     1     -16.229 -34.213 -49.199  1.00  0.00     0.004 C 
ENDBRANCH  30  31
ENDBRANCH  29  30
ENDBRANCH  28  29
ENDBRANCH  27  28
ENDBRANCH  26  27
ENDBRANCH  25  26
ENDBRANCH  24  25
ENDBRANCH  23  24
ENDBRANCH  22  23
ENDBRANCH  21  22
ENDBRANCH  20  21
ENDBRANCH  19  20
ENDBRANCH  18  19
ENDBRANCH   1  18
TORSDOF 28
ENDMDL
MODEL 9
REMARK VINA RESULT:    -2.993      1.568      3.095
REMARK INTER + INTRA:         -12.470
REMARK INTER:                  -8.881
REMARK INTRA:                  -3.589
REMARK UNBOUND:                -4.577
REMARK SMILES CCCCCCCCCCCCCCCCCCCCCCCCCCCCCC(=O)[O-]
REMARK SMILES IDX 16 1 17 2 18 3 19 4 20 5 21 6 22 7 23 8 24 9 25 10 26 11
REMARK SMILES IDX 27 12 28 13 29 14 30 15 31 16 32 17 15 18 14 19 13 20 12 21
REMARK SMILES IDX 11 22 10 23 9 24 8 25 7 26 6 27 5 28 4 29 3 30 2 31 1 32
REMARK H PARENT
REMARK Flexibility Score: inf
ROOT
ATOM      1  C   UNL     1     -12.732 -34.999 -45.080  1.00  0.00     0.000 C 
ENDROOT
BRANCH   1   2
ATOM      2  C   UNL     1     -11.217 -34.861 -44.849  1.00  0.00     0.000 C 
BRANCH   2   3
ATOM      3  C   UNL     1     -10.494 -34.246 -46.060  1.00  0.00     0.000 C 
BRANCH   3   4
ATOM      4  C   UNL     1      -9.387 -35.166 -46.616  1.00  0.00     0.000 C 
BRANCH   4   5
ATOM      5  C   UNL     1      -9.875 -36.576 -47.004  1.00  0.00     0.000 C 
BRANCH   5   6
ATOM      6  C   UNL     1      -9.922 -36.863 -48.514  1.00  0.00     0.000 C 
BRANCH   6   7
ATOM      7  C   UNL     1      -9.785 -35.590 -49.368  1.00  0.00     0.000 C 
BRANCH   7   8
ATOM      8  C   UNL     1     -11.093 -35.196 -50.077  1.00  0.00     0.000 C 
BRANCH   8   9
ATOM      9  C   UNL     1     -11.824 -33.976 -49.480  1.00  0.00     0.000 C 
BRANCH   9  10
ATOM     10  C   UNL     1     -11.289 -32.605 -49.930  1.00  0.00     0.000 C 
BRANCH  10  11
ATOM     11  C   UNL     1     -10.394 -31.936 -48.877  1.00  0.00     0.000 C 
BRANCH  11  12
ATOM     12  C   UNL     1      -9.039 -31.542 -49.481  1.00  0.00     0.000 C 
BRANCH  12  13
ATOM     13  C   UNL     1      -7.896 -32.481 -49.055  1.00  0.00     0.006 C 
BRANCH  13  14
ATOM     14  C   UNL     1      -6.819 -31.821 -48.179  1.00  0.00     0.053 C 
BRANCH  14  15
ATOM     15  C   UNL     1      -5.970 -32.833 -47.472  1.00  0.00     0.041 C 
ATOM     16  O   UNL     1      -4.811 -33.095 -47.890  1.00  0.00    -0.550 OA
ATOM     17  O   UNL     1      -6.444 -33.454 -46.323  1.00  0.00    -0.550 OA
ENDBRANCH  14  15
ENDBRANCH  13  14
ENDBRANCH  12  13
ENDBRANCH  11  12
ENDBRANCH  10  11
ENDBRANCH   9  10
ENDBRANCH   8   9
ENDBRANCH   7   8
ENDBRANCH   6   7
ENDBRANCH   5   6
ENDBRANCH   4   5
ENDBRANCH   3   4
ENDBRANCH   2   3
ENDBRANCH   1   2
BRANCH   1  18
ATOM     18  C   UNL     1     -13.076 -36.171 -46.014  1.00  0.00     0.000 C 
BRANCH  18  19
ATOM     19  C   UNL     1     -14.155 -35.816 -47.049  1.00  0.00     0.000 C 
BRANCH  19  20
ATOM     20  C   UNL     1     -15.575 -35.819 -46.451  1.00  0.00     0.000 C 
BRANCH  20  21
ATOM     21  C   UNL     1     -15.723 -36.779 -45.259  1.00  0.00     0.000 C 
BRANCH  21  22
ATOM     22  C   UNL     1     -16.484 -38.090 -45.545  1.00  0.00     0.000 C 
BRANCH  22  23
ATOM     23  C   UNL     1     -17.902 -37.891 -46.122  1.00  0.00     0.000 C 
BRANCH  23  24
ATOM     24  C   UNL     1     -18.258 -38.893 -47.238  1.00  0.00    -0.000 C 
BRANCH  24  25
ATOM     25  C   UNL     1     -18.150 -38.297 -48.656  1.00  0.00    -0.000 C 
BRANCH  25  26
ATOM     26  C   UNL     1     -19.440 -37.627 -49.180  1.00  0.00    -0.000 C 
BRANCH  26  27
ATOM     27  C   UNL     1     -19.437 -36.087 -49.206  1.00  0.00    -0.000 C 
BRANCH  27  28
ATOM     28  C   UNL     1     -18.031 -35.477 -49.323  1.00  0.00    -0.000 C 
BRANCH  28  29
ATOM     29  C   UNL     1     -18.100 -34.018 -49.792  1.00  0.00    -0.000 C 
BRANCH  29  30
ATOM     30  C   UNL     1     -17.209 -33.123 -48.920  1.00  0.00    -0.000 C 
BRANCH  30  31
ATOM     31  C   UNL     1     -17.582 -31.644 -49.075  1.00  0.00    -0.003 C 
ATOM     32  C   UNL     1     -19.079 -31.482 -49.333  1.00  0.00     0.004 C 
ENDBRANCH  30  31
ENDBRANCH  29  30
ENDBRANCH  28  29
ENDBRANCH  27  28
ENDBRANCH  26  27
ENDBRANCH  25  26
ENDBRANCH  24  25
ENDBRANCH  23  24
ENDBRANCH  22  23
ENDBRANCH  21  22
ENDBRANCH  20  21
ENDBRANCH  19  20
ENDBRANCH  18  19
ENDBRANCH   1  18
TORSDOF 28
ENDMDL
