MODEL 1
REMARK VINA RESULT:    -4.631      0.000      0.000
REMARK INTER + INTRA:         -17.865
REMARK INTER:                 -12.212
REMARK INTRA:                  -5.654
REMARK UNBOUND:                -5.654
REMARK SMILES CCCCCCCCCCCCCCCCCCCCCCCCCCCCCC(=O)[O-]
REMARK SMILES IDX 16 1 17 2 18 3 19 4 20 5 21 6 22 7 23 8 24 9 25 10 26 11
REMARK SMILES IDX 27 12 28 13 29 14 30 15 31 16 32 17 15 18 14 19 13 20 12 21
REMARK SMILES IDX 11 22 10 23 9 24 8 25 7 26 6 27 5 28 4 29 3 30 2 31 1 32
REMARK H PARENT
REMARK Flexibility Score: inf
ROOT
ATOM      1  C   UNL     1     -10.610  -4.155 -14.876  1.00  0.00     0.000 C 
ENDROOT
BRANCH   1   2
ATOM      2  C   UNL     1     -11.194  -5.568 -15.074  1.00  0.00     0.000 C 
BRANCH   2   3
ATOM      3  C   UNL     1     -10.892  -6.571 -13.942  1.00  0.00     0.000 C 
BRANCH   3   4
ATOM      4  C   UNL     1      -9.897  -7.689 -14.309  1.00  0.00     0.000 C 
BRANCH   4   5
ATOM      5  C   UNL     1      -8.433  -7.229 -14.454  1.00  0.00     0.000 C 
BRANCH   5   6
ATOM      6  C   UNL     1      -7.757  -6.797 -13.139  1.00  0.00     0.000 C 
BRANCH   6   7
ATOM      7  C   UNL     1      -6.307  -6.329 -13.342  1.00  0.00     0.000 C 
BRANCH   7   8
ATOM      8  C   UNL     1      -5.950  -6.252 -14.830  1.00  0.00     0.000 C 
BRANCH   8   9
ATOM      9  C   UNL     1      -4.906  -5.154 -15.084  1.00  0.00     0.000 C 
BRANCH   9  10
ATOM     10  C   UNL     1      -4.660  -4.266 -13.854  1.00  0.00     0.000 C 
BRANCH  10  11
ATOM     11  C   UNL     1      -3.944  -2.933 -14.148  1.00  0.00     0.000 C 
BRANCH  11  12
ATOM     12  C   UNL     1      -4.695  -2.027 -15.147  1.00  0.00     0.000 C 
BRANCH  12  13
ATOM     13  C   UNL     1      -4.039  -2.026 -16.540  1.00  0.00     0.006 C 
BRANCH  13  14
ATOM     14  C   UNL     1      -2.513  -2.164 -16.462  1.00  0.00     0.053 C 
BRANCH  14  15
ATOM     15  C   UNL     1      -1.820  -1.239 -17.416  1.00  0.00     0.041 C 
ATOM     16  O   UNL     1      -1.818  -1.488 -18.650  1.00  0.00    -0.550 OA
ATOM     17  O   UNL     1      -1.166  -0.108 -16.939  1.00  0.00    -0.550 OA
ENDBRANCH  14  15
ENDBRANCH  13  14
ENDBRANCH  12  13
ENDBRANCH  11  12
ENDBRANCH  10  11
ENDBRANCH   9  10
ENDBRANCH   8   9
ENDBRANCH   7   8
ENDBRANCH   6   7
ENDBRANCH   5   6
ENDBRANCH   4   5
ENDBRANCH   3   4
ENDBRANCH   2   3
ENDBRANCH   1   2
BRANCH   1  18
ATOM     18  C   UNL     1      -9.369  -3.891 -15.741  1.00  0.00     0.000 C 
BRANCH  18  19
ATOM     19  C   UNL     1      -8.165  -3.389 -14.924  1.00  0.00     0.000 C 
BRANCH  19  20
ATOM     20  C   UNL     1      -8.471  -3.182 -13.425  1.00  0.00     0.000 C 
BRANCH  20  21
ATOM     21  C   UNL     1      -7.610  -2.066 -12.807  1.00  0.00     0.000 C 
BRANCH  21  22
ATOM     22  C   UNL     1      -7.415  -2.243 -11.293  1.00  0.00     0.000 C 
BRANCH  22  23
ATOM     23  C   UNL     1      -6.732  -3.577 -10.942  1.00  0.00     0.000 C 
BRANCH  23  24
ATOM     24  C   UNL     1      -5.554  -3.401  -9.971  1.00  0.00    -0.000 C 
BRANCH  24  25
ATOM     25  C   UNL     1      -5.307  -1.930  -9.604  1.00  0.00    -0.000 C 
BRANCH  25  26
ATOM     26  C   UNL     1      -3.806  -1.624  -9.556  1.00  0.00    -0.000 C 
BRANCH  26  27
ATOM     27  C   UNL     1      -3.344  -0.928 -10.846  1.00  0.00    -0.000 C 
BRANCH  27  28
ATOM     28  C   UNL     1      -4.460  -0.102 -11.507  1.00  0.00    -0.000 C 
BRANCH  28  29
ATOM     29  C   UNL     1      -4.291   1.409 -11.280  1.00  0.00    -0.000 C 
BRANCH  29  30
ATOM     30  C   UNL     1      -5.246   1.911 -10.187  1.00  0.00    -0.000 C 
BRANCH  30  31
ATOM     31  C   UNL     1      -6.673   1.364 -10.352  1.00  0.00    -0.003 C 
ATOM     32  C   UNL     1      -7.352   1.062  -9.016  1.00  0.00     0.004 C 
ENDBRANCH  30  31
ENDBRANCH  29  30
ENDBRANCH  28  29
ENDBRANCH  27  28
ENDBRANCH  26  27
ENDBRANCH  25  26
ENDBRANCH  24  25
ENDBRANCH  23  24
ENDBRANCH  22  23
ENDBRANCH  21  22
ENDBRANCH  20  21
ENDBRANCH  19  20
ENDBRANCH  18  19
ENDBRANCH   1  18
TORSDOF 28
ENDMDL
MODEL 2
REMARK VINA RESULT:    -4.551      2.818      6.294
REMARK INTER + INTRA:         -17.655
REMARK INTER:                 -12.311
REMARK INTRA:                  -5.345
REMARK UNBOUND:                -5.654
REMARK SMILES CCCCCCCCCCCCCCCCCCCCCCCCCCCCCC(=O)[O-]
REMARK SMILES IDX 16 1 17 2 18 3 19 4 20 5 21 6 22 7 23 8 24 9 25 10 26 11
REMARK SMILES IDX 27 12 28 13 29 14 30 15 31 16 32 17 15 18 14 19 13 20 12 21
REMARK SMILES IDX 11 22 10 23 9 24 8 25 7 26 6 27 5 28 4 29 3 30 2 31 1 32
REMARK H PARENT
REMARK Flexibility Score: inf
ROOT
ATOM      1  C   UNL     1      -0.817  -1.226 -14.714  1.00  0.00     0.000 C 
ENDROOT
BRANCH   1   2
ATOM      2  C   UNL     1      -0.065  -1.058 -16.049  1.00  0.00     0.000 C 
BRANCH   2   3
ATOM      3  C   UNL     1      -0.910  -0.515 -17.219  1.00  0.00     0.000 C 
BRANCH   3   4
ATOM      4  C   UNL     1      -1.202  -1.531 -18.340  1.00  0.00     0.000 C 
BRANCH   4   5
ATOM      5  C   UNL     1      -2.652  -2.055 -18.376  1.00  0.00     0.000 C 
BRANCH   5   6
ATOM      6  C   UNL     1      -3.628  -1.325 -17.434  1.00  0.00     0.000 C 
BRANCH   6   7
ATOM      7  C   UNL     1      -4.109  -2.210 -16.274  1.00  0.00     0.000 C 
BRANCH   7   8
ATOM      8  C   UNL     1      -3.795  -3.687 -16.533  1.00  0.00     0.000 C 
BRANCH   8   9
ATOM      9  C   UNL     1      -4.935  -4.584 -16.025  1.00  0.00     0.000 C 
BRANCH   9  10
ATOM     10  C   UNL     1      -5.849  -3.875 -15.014  1.00  0.00     0.000 C 
BRANCH  10  11
ATOM     11  C   UNL     1      -6.340  -4.759 -13.851  1.00  0.00     0.000 C 
BRANCH  11  12
ATOM     12  C   UNL     1      -7.557  -4.181 -13.098  1.00  0.00     0.000 C 
BRANCH  12  13
ATOM     13  C   UNL     1      -8.464  -3.340 -14.015  1.00  0.00     0.006 C 
BRANCH  13  14
ATOM     14  C   UNL     1      -9.632  -4.156 -14.582  1.00  0.00     0.053 C 
BRANCH  14  15
ATOM     15  C   UNL     1      -9.588  -4.228 -16.079  1.00  0.00     0.041 C 
ATOM     16  O   UNL     1     -10.007  -3.263 -16.771  1.00  0.00    -0.550 OA
ATOM     17  O   UNL     1      -9.096  -5.366 -16.708  1.00  0.00    -0.550 OA
ENDBRANCH  14  15
ENDBRANCH  13  14
ENDBRANCH  12  13
ENDBRANCH  11  12
ENDBRANCH  10  11
ENDBRANCH   9  10
ENDBRANCH   8   9
ENDBRANCH   7   8
ENDBRANCH   6   7
ENDBRANCH   5   6
ENDBRANCH   4   5
ENDBRANCH   3   4
ENDBRANCH   2   3
ENDBRANCH   1   2
BRANCH   1  18
ATOM     18  C   UNL     1      -1.021  -2.696 -14.320  1.00  0.00     0.000 C 
BRANCH  18  19
ATOM     19  C   UNL     1      -2.082  -2.881 -13.221  1.00  0.00     0.000 C 
BRANCH  19  20
ATOM     20  C   UNL     1      -2.678  -1.556 -12.701  1.00  0.00     0.000 C 
BRANCH  20  21
ATOM     21  C   UNL     1      -4.215  -1.603 -12.623  1.00  0.00     0.000 C 
BRANCH  21  22
ATOM     22  C   UNL     1      -4.720  -2.476 -11.464  1.00  0.00     0.000 C 
BRANCH  22  23
ATOM     23  C   UNL     1      -5.440  -1.652 -10.380  1.00  0.00     0.000 C 
BRANCH  23  24
ATOM     24  C   UNL     1      -4.782  -1.792  -8.999  1.00  0.00    -0.000 C 
BRANCH  24  25
ATOM     25  C   UNL     1      -3.301  -1.384  -9.005  1.00  0.00    -0.000 C 
BRANCH  25  26
ATOM     26  C   UNL     1      -3.140   0.096  -8.640  1.00  0.00    -0.000 C 
BRANCH  26  27
ATOM     27  C   UNL     1      -2.643   0.911  -9.846  1.00  0.00    -0.000 C 
BRANCH  27  28
ATOM     28  C   UNL     1      -3.543   2.118 -10.156  1.00  0.00    -0.000 C 
BRANCH  28  29
ATOM     29  C   UNL     1      -4.582   1.817 -11.247  1.00  0.00    -0.000 C 
BRANCH  29  30
ATOM     30  C   UNL     1      -5.988   2.247 -10.802  1.00  0.00    -0.000 C 
BRANCH  30  31
ATOM     31  C   UNL     1      -6.159   2.216  -9.274  1.00  0.00    -0.003 C 
ATOM     32  C   UNL     1      -7.115   1.117  -8.807  1.00  0.00     0.004 C 
ENDBRANCH  30  31
ENDBRANCH  29  30
ENDBRANCH  28  29
ENDBRANCH  27  28
ENDBRANCH  26  27
ENDBRANCH  25  26
ENDBRANCH  24  25
ENDBRANCH  23  24
ENDBRANCH  22  23
ENDBRANCH  21  22
ENDBRANCH  20  21
ENDBRANCH  19  20
ENDBRANCH  18  19
ENDBRANCH   1  18
TORSDOF 28
ENDMDL
MODEL 3
REMARK VINA RESULT:    -4.505      1.782      3.569
REMARK INTER + INTRA:         -17.532
REMARK INTER:                 -12.500
REMARK INTRA:                  -5.032
REMARK UNBOUND:                -5.654
REMARK SMILES CCCCCCCCCCCCCCCCCCCCCCCCCCCCCC(=O)[O-]
REMARK SMILES IDX 16 1 17 2 18 3 19 4 20 5 21 6 22 7 23 8 24 9 25 10 26 11
REMARK SMILES IDX 27 12 28 13 29 14 30 15 31 16 32 17 15 18 14 19 13 20 12 21
REMARK SMILES IDX 11 22 10 23 9 24 8 25 7 26 6 27 5 28 4 29 3 30 2 31 1 32
REMARK H PARENT
REMARK Flexibility Score: inf
ROOT
ATOM      1  C   UNL     1     -11.593  -4.999 -14.673  1.00  0.00     0.000 C 
ENDROOT
BRANCH   1   2
ATOM      2  C   UNL     1     -11.051  -6.245 -13.944  1.00  0.00     0.000 C 
BRANCH   2   3
ATOM      3  C   UNL     1     -10.712  -7.445 -14.852  1.00  0.00     0.000 C 
BRANCH   3   4
ATOM      4  C   UNL     1      -9.254  -7.937 -14.765  1.00  0.00     0.000 C 
BRANCH   4   5
ATOM      5  C   UNL     1      -8.562  -7.670 -13.413  1.00  0.00     0.000 C 
BRANCH   5   6
ATOM      6  C   UNL     1      -7.095  -7.213 -13.517  1.00  0.00     0.000 C 
BRANCH   6   7
ATOM      7  C   UNL     1      -6.373  -7.801 -14.739  1.00  0.00     0.000 C 
BRANCH   7   8
ATOM      8  C   UNL     1      -5.315  -6.833 -15.281  1.00  0.00     0.000 C 
BRANCH   8   9
ATOM      9  C   UNL     1      -4.874  -5.843 -14.191  1.00  0.00     0.000 C 
BRANCH   9  10
ATOM     10  C   UNL     1      -3.801  -4.857 -14.677  1.00  0.00     0.000 C 
BRANCH  10  11
ATOM     11  C   UNL     1      -3.850  -3.466 -14.015  1.00  0.00     0.000 C 
BRANCH  11  12
ATOM     12  C   UNL     1      -4.185  -2.320 -14.994  1.00  0.00     0.000 C 
BRANCH  12  13
ATOM     13  C   UNL     1      -3.785  -2.656 -16.442  1.00  0.00     0.006 C 
BRANCH  13  14
ATOM     14  C   UNL     1      -3.660  -1.401 -17.315  1.00  0.00     0.053 C 
BRANCH  14  15
ATOM     15  C   UNL     1      -2.617  -1.563 -18.379  1.00  0.00     0.041 C 
ATOM     16  O   UNL     1      -2.917  -2.087 -19.484  1.00  0.00    -0.550 OA
ATOM     17  O   UNL     1      -1.311  -1.146 -18.145  1.00  0.00    -0.550 OA
ENDBRANCH  14  15
ENDBRANCH  13  14
ENDBRANCH  12  13
ENDBRANCH  11  12
ENDBRANCH  10  11
ENDBRANCH   9  10
ENDBRANCH   8   9
ENDBRANCH   7   8
ENDBRANCH   6   7
ENDBRANCH   5   6
ENDBRANCH   4   5
ENDBRANCH   3   4
ENDBRANCH   2   3
ENDBRANCH   1   2
BRANCH   1  18
ATOM     18  C   UNL     1     -11.005  -4.823 -16.080  1.00  0.00     0.000 C 
BRANCH  18  19
ATOM     19  C   UNL     1      -9.798  -3.868 -16.111  1.00  0.00     0.000 C 
BRANCH  19  20
ATOM     20  C   UNL     1      -8.451  -4.554 -15.797  1.00  0.00     0.000 C 
BRANCH  20  21
ATOM     21  C   UNL     1      -7.509  -3.640 -14.994  1.00  0.00     0.000 C 
BRANCH  21  22
ATOM     22  C   UNL     1      -7.812  -3.659 -13.488  1.00  0.00     0.000 C 
BRANCH  22  23
ATOM     23  C   UNL     1      -8.357  -2.311 -12.982  1.00  0.00     0.000 C 
BRANCH  23  24
ATOM     24  C   UNL     1      -7.740  -1.890 -11.639  1.00  0.00    -0.000 C 
BRANCH  24  25
ATOM     25  C   UNL     1      -6.207  -1.811 -11.692  1.00  0.00    -0.000 C 
BRANCH  25  26
ATOM     26  C   UNL     1      -5.584  -2.426 -10.434  1.00  0.00    -0.000 C 
BRANCH  26  27
ATOM     27  C   UNL     1      -5.343  -3.934 -10.618  1.00  0.00    -0.000 C 
BRANCH  27  28
ATOM     28  C   UNL     1      -5.903  -4.770  -9.455  1.00  0.00    -0.000 C 
BRANCH  28  29
ATOM     29  C   UNL     1      -6.942  -5.804  -9.917  1.00  0.00    -0.000 C 
BRANCH  29  30
ATOM     30  C   UNL     1      -7.331  -6.743  -8.766  1.00  0.00    -0.000 C 
BRANCH  30  31
ATOM     31  C   UNL     1      -6.617  -6.393  -7.450  1.00  0.00    -0.003 C 
ATOM     32  C   UNL     1      -7.345  -6.931  -6.218  1.00  0.00     0.004 C 
ENDBRANCH  30  31
ENDBRANCH  29  30
ENDBRANCH  28  29
ENDBRANCH  27  28
ENDBRANCH  26  27
ENDBRANCH  25  26
ENDBRANCH  24  25
ENDBRANCH  23  24
ENDBRANCH  22  23
ENDBRANCH  21  22
ENDBRANCH  20  21
ENDBRANCH  19  20
ENDBRANCH  18  19
ENDBRANCH   1  18
TORSDOF 28
ENDMDL
MODEL 4
REMARK VINA RESULT:    -4.472      1.743      3.915
REMARK INTER + INTRA:         -17.447
REMARK INTER:                 -12.538
REMARK INTRA:                  -4.909
REMARK UNBOUND:                -5.654
REMARK SMILES CCCCCCCCCCCCCCCCCCCCCCCCCCCCCC(=O)[O-]
REMARK SMILES IDX 16 1 17 2 18 3 19 4 20 5 21 6 22 7 23 8 24 9 25 10 26 11
REMARK SMILES IDX 27 12 28 13 29 14 30 15 31 16 32 17 15 18 14 19 13 20 12 21
REMARK SMILES IDX 11 22 10 23 9 24 8 25 7 26 6 27 5 28 4 29 3 30 2 31 1 32
REMARK H PARENT
REMARK Flexibility Score: inf
ROOT
ATOM      1  C   UNL     1      -9.927  -4.523 -15.789  1.00  0.00     0.000 C 
ENDROOT
BRANCH   1   2
ATOM      2  C   UNL     1     -10.753  -5.062 -14.605  1.00  0.00     0.000 C 
BRANCH   2   3
ATOM      3  C   UNL     1     -10.695  -6.590 -14.401  1.00  0.00     0.000 C 
BRANCH   3   4
ATOM      4  C   UNL     1      -9.342  -7.243 -14.746  1.00  0.00     0.000 C 
BRANCH   4   5
ATOM      5  C   UNL     1      -8.362  -7.365 -13.562  1.00  0.00     0.000 C 
BRANCH   5   6
ATOM      6  C   UNL     1      -6.992  -6.697 -13.784  1.00  0.00     0.000 C 
BRANCH   6   7
ATOM      7  C   UNL     1      -6.647  -6.526 -15.271  1.00  0.00     0.000 C 
BRANCH   7   8
ATOM      8  C   UNL     1      -5.758  -5.299 -15.499  1.00  0.00     0.000 C 
BRANCH   8   9
ATOM      9  C   UNL     1      -5.116  -4.839 -14.181  1.00  0.00     0.000 C 
BRANCH   9  10
ATOM     10  C   UNL     1      -4.631  -3.381 -14.227  1.00  0.00     0.000 C 
BRANCH  10  11
ATOM     11  C   UNL     1      -4.770  -2.694 -15.600  1.00  0.00     0.000 C 
BRANCH  11  12
ATOM     12  C   UNL     1      -3.420  -2.341 -16.261  1.00  0.00     0.000 C 
BRANCH  12  13
ATOM     13  C   UNL     1      -3.573  -1.285 -17.370  1.00  0.00     0.006 C 
BRANCH  13  14
ATOM     14  C   UNL     1      -3.104  -1.804 -18.735  1.00  0.00     0.053 C 
BRANCH  14  15
ATOM     15  C   UNL     1      -1.625  -1.645 -18.914  1.00  0.00     0.041 C 
ATOM     16  O   UNL     1      -1.001  -2.390 -19.715  1.00  0.00    -0.550 OA
ATOM     17  O   UNL     1      -0.934  -0.682 -18.187  1.00  0.00    -0.550 OA
ENDBRANCH  14  15
ENDBRANCH  13  14
ENDBRANCH  12  13
ENDBRANCH  11  12
ENDBRANCH  10  11
ENDBRANCH   9  10
ENDBRANCH   8   9
ENDBRANCH   7   8
ENDBRANCH   6   7
ENDBRANCH   5   6
ENDBRANCH   4   5
ENDBRANCH   3   4
ENDBRANCH   2   3
ENDBRANCH   1   2
BRANCH   1  18
ATOM     18  C   UNL     1      -8.854  -3.511 -15.362  1.00  0.00     0.000 C 
BRANCH  18  19
ATOM     19  C   UNL     1      -8.562  -3.548 -13.851  1.00  0.00     0.000 C 
BRANCH  19  20
ATOM     20  C   UNL     1      -8.056  -2.207 -13.280  1.00  0.00     0.000 C 
BRANCH  20  21
ATOM     21  C   UNL     1      -7.657  -2.322 -11.798  1.00  0.00     0.000 C 
BRANCH  21  22
ATOM     22  C   UNL     1      -7.174  -0.986 -11.213  1.00  0.00     0.000 C 
BRANCH  22  23
ATOM     23  C   UNL     1      -5.643  -0.933 -11.058  1.00  0.00     0.000 C 
BRANCH  23  24
ATOM     24  C   UNL     1      -5.164  -1.512  -9.717  1.00  0.00    -0.000 C 
BRANCH  24  25
ATOM     25  C   UNL     1      -4.297  -2.767  -9.891  1.00  0.00    -0.000 C 
BRANCH  25  26
ATOM     26  C   UNL     1      -5.012  -4.006  -9.343  1.00  0.00    -0.000 C 
BRANCH  26  27
ATOM     27  C   UNL     1      -5.427  -4.953 -10.481  1.00  0.00    -0.000 C 
BRANCH  27  28
ATOM     28  C   UNL     1      -6.816  -5.575 -10.256  1.00  0.00    -0.000 C 
BRANCH  28  29
ATOM     29  C   UNL     1      -7.025  -6.046  -8.808  1.00  0.00    -0.000 C 
BRANCH  29  30
ATOM     30  C   UNL     1      -7.029  -7.579  -8.724  1.00  0.00    -0.000 C 
BRANCH  30  31
ATOM     31  C   UNL     1      -6.720  -8.246 -10.074  1.00  0.00    -0.003 C 
ATOM     32  C   UNL     1      -7.184  -9.702 -10.137  1.00  0.00     0.004 C 
ENDBRANCH  30  31
ENDBRANCH  29  30
ENDBRANCH  28  29
ENDBRANCH  27  28
ENDBRANCH  26  27
ENDBRANCH  25  26
ENDBRANCH  24  25
ENDBRANCH  23  24
ENDBRANCH  22  23
ENDBRANCH  21  22
ENDBRANCH  20  21
ENDBRANCH  19  20
ENDBRANCH  18  19
ENDBRANCH   1  18
TORSDOF 28
ENDMDL
MODEL 5
REMARK VINA RESULT:    -4.425      2.874      6.359
REMARK INTER + INTRA:         -17.321
REMARK INTER:                 -12.575
REMARK INTRA:                  -4.746
REMARK UNBOUND:                -5.654
REMARK SMILES CCCCCCCCCCCCCCCCCCCCCCCCCCCCCC(=O)[O-]
REMARK SMILES IDX 16 1 17 2 18 3 19 4 20 5 21 6 22 7 23 8 24 9 25 10 26 11
REMARK SMILES IDX 27 12 28 13 29 14 30 15 31 16 32 17 15 18 14 19 13 20 12 21
REMARK SMILES IDX 11 22 10 23 9 24 8 25 7 26 6 27 5 28 4 29 3 30 2 31 1 32
REMARK H PARENT
REMARK Flexibility Score: inf
ROOT
ATOM      1  C   UNL     1      -3.643  -1.309 -17.371  1.00  0.00     0.000 C 
ENDROOT
BRANCH   1   2
ATOM      2  C   UNL     1      -4.061  -2.445 -16.418  1.00  0.00     0.000 C 
BRANCH   2   3
ATOM      3  C   UNL     1      -4.109  -2.068 -14.923  1.00  0.00     0.000 C 
BRANCH   3   4
ATOM      4  C   UNL     1      -3.504  -3.114 -13.967  1.00  0.00     0.000 C 
BRANCH   4   5
ATOM      5  C   UNL     1      -3.797  -2.870 -12.473  1.00  0.00     0.000 C 
BRANCH   5   6
ATOM      6  C   UNL     1      -4.569  -1.573 -12.168  1.00  0.00     0.000 C 
BRANCH   6   7
ATOM      7  C   UNL     1      -5.200  -1.571 -10.766  1.00  0.00     0.000 C 
BRANCH   7   8
ATOM      8  C   UNL     1      -6.614  -2.162 -10.791  1.00  0.00     0.000 C 
BRANCH   8   9
ATOM      9  C   UNL     1      -7.460  -1.504 -11.893  1.00  0.00     0.000 C 
BRANCH   9  10
ATOM     10  C   UNL     1      -8.180  -2.527 -12.786  1.00  0.00     0.000 C 
BRANCH  10  11
ATOM     11  C   UNL     1      -7.456  -2.860 -14.105  1.00  0.00     0.000 C 
BRANCH  11  12
ATOM     12  C   UNL     1      -7.308  -4.374 -14.371  1.00  0.00     0.000 C 
BRANCH  12  13
ATOM     13  C   UNL     1      -7.647  -4.745 -15.827  1.00  0.00     0.006 C 
BRANCH  13  14
ATOM     14  C   UNL     1      -9.070  -5.301 -15.966  1.00  0.00     0.053 C 
BRANCH  14  15
ATOM     15  C   UNL     1     -10.103  -4.218 -15.881  1.00  0.00     0.041 C 
ATOM     16  O   UNL     1     -10.128  -3.299 -16.740  1.00  0.00    -0.550 OA
ATOM     17  O   UNL     1     -11.030  -4.220 -14.845  1.00  0.00    -0.550 OA
ENDBRANCH  14  15
ENDBRANCH  13  14
ENDBRANCH  12  13
ENDBRANCH  11  12
ENDBRANCH  10  11
ENDBRANCH   9  10
ENDBRANCH   8   9
ENDBRANCH   7   8
ENDBRANCH   6   7
ENDBRANCH   5   6
ENDBRANCH   4   5
ENDBRANCH   3   4
ENDBRANCH   2   3
ENDBRANCH   1   2
BRANCH   1  18
ATOM     18  C   UNL     1      -2.717  -1.783 -18.501  1.00  0.00     0.000 C 
BRANCH  18  19
ATOM     19  C   UNL     1      -1.262  -1.312 -18.322  1.00  0.00     0.000 C 
BRANCH  19  20
ATOM     20  C   UNL     1      -1.024  -0.500 -17.031  1.00  0.00     0.000 C 
BRANCH  20  21
ATOM     21  C   UNL     1      -0.465  -1.372 -15.893  1.00  0.00     0.000 C 
BRANCH  21  22
ATOM     22  C   UNL     1       0.019  -0.539 -14.696  1.00  0.00     0.000 C 
BRANCH  22  23
ATOM     23  C   UNL     1      -0.762  -0.856 -13.407  1.00  0.00     0.000 C 
BRANCH  23  24
ATOM     24  C   UNL     1      -0.773   0.320 -12.419  1.00  0.00    -0.000 C 
BRANCH  24  25
ATOM     25  C   UNL     1      -1.393  -0.052 -11.064  1.00  0.00    -0.000 C 
BRANCH  25  26
ATOM     26  C   UNL     1      -1.997   1.180 -10.381  1.00  0.00    -0.000 C 
BRANCH  26  27
ATOM     27  C   UNL     1      -2.588   2.150 -11.417  1.00  0.00    -0.000 C 
BRANCH  27  28
ATOM     28  C   UNL     1      -4.121   2.066 -11.501  1.00  0.00    -0.000 C 
BRANCH  28  29
ATOM     29  C   UNL     1      -4.785   1.992 -10.117  1.00  0.00    -0.000 C 
BRANCH  29  30
ATOM     30  C   UNL     1      -6.316   2.013 -10.240  1.00  0.00    -0.000 C 
BRANCH  30  31
ATOM     31  C   UNL     1      -7.021   1.900  -8.878  1.00  0.00    -0.003 C 
ATOM     32  C   UNL     1      -7.594   0.506  -8.621  1.00  0.00     0.004 C 
ENDBRANCH  30  31
ENDBRANCH  29  30
ENDBRANCH  28  29
ENDBRANCH  27  28
ENDBRANCH  26  27
ENDBRANCH  25  26
ENDBRANCH  24  25
ENDBRANCH  23  24
ENDBRANCH  22  23
ENDBRANCH  21  22
ENDBRANCH  20  21
ENDBRANCH  19  20
ENDBRANCH  18  19
ENDBRANCH   1  18
TORSDOF 28
ENDMDL
MODEL 6
REMARK VINA RESULT:    -4.421      3.405      7.166
REMARK INTER + INTRA:         -17.311
REMARK INTER:                 -12.525
REMARK INTRA:                  -4.786
REMARK UNBOUND:                -5.654
REMARK SMILES CCCCCCCCCCCCCCCCCCCCCCCCCCCCCC(=O)[O-]
REMARK SMILES IDX 16 1 17 2 18 3 19 4 20 5 21 6 22 7 23 8 24 9 25 10 26 11
REMARK SMILES IDX 27 12 28 13 29 14 30 15 31 16 32 17 15 18 14 19 13 20 12 21
REMARK SMILES IDX 11 22 10 23 9 24 8 25 7 26 6 27 5 28 4 29 3 30 2 31 1 32
REMARK H PARENT
REMARK Flexibility Score: inf
ROOT
ATOM      1  C   UNL     1      -3.092  -1.435 -12.113  1.00  0.00     0.000 C 
ENDROOT
BRANCH   1   2
ATOM      2  C   UNL     1      -2.724  -2.704 -11.319  1.00  0.00     0.000 C 
BRANCH   2   3
ATOM      3  C   UNL     1      -3.788  -3.182 -10.309  1.00  0.00     0.000 C 
BRANCH   3   4
ATOM      4  C   UNL     1      -4.670  -4.348 -10.796  1.00  0.00     0.000 C 
BRANCH   4   5
ATOM      5  C   UNL     1      -5.921  -4.615  -9.934  1.00  0.00     0.000 C 
BRANCH   5   6
ATOM      6  C   UNL     1      -6.994  -5.493 -10.605  1.00  0.00     0.000 C 
BRANCH   6   7
ATOM      7  C   UNL     1      -6.392  -6.625 -11.452  1.00  0.00     0.000 C 
BRANCH   7   8
ATOM      8  C   UNL     1      -7.406  -7.158 -12.470  1.00  0.00     0.000 C 
BRANCH   8   9
ATOM      9  C   UNL     1      -7.988  -6.010 -13.310  1.00  0.00     0.000 C 
BRANCH   9  10
ATOM     10  C   UNL     1      -9.363  -6.345 -13.911  1.00  0.00     0.000 C 
BRANCH  10  11
ATOM     11  C   UNL     1      -9.463  -6.174 -15.439  1.00  0.00     0.000 C 
BRANCH  11  12
ATOM     12  C   UNL     1      -9.228  -4.726 -15.922  1.00  0.00     0.000 C 
BRANCH  12  13
ATOM     13  C   UNL     1     -10.486  -3.851 -15.774  1.00  0.00     0.006 C 
BRANCH  13  14
ATOM     14  C   UNL     1     -11.778  -4.655 -15.969  1.00  0.00     0.053 C 
BRANCH  14  15
ATOM     15  C   UNL     1     -12.821  -4.290 -14.957  1.00  0.00     0.041 C 
ATOM     16  O   UNL     1     -12.642  -4.555 -13.739  1.00  0.00    -0.550 OA
ATOM     17  O   UNL     1     -13.996  -3.667 -15.361  1.00  0.00    -0.550 OA
ENDBRANCH  14  15
ENDBRANCH  13  14
ENDBRANCH  12  13
ENDBRANCH  11  12
ENDBRANCH  10  11
ENDBRANCH   9  10
ENDBRANCH   8   9
ENDBRANCH   7   8
ENDBRANCH   6   7
ENDBRANCH   5   6
ENDBRANCH   4   5
ENDBRANCH   3   4
ENDBRANCH   2   3
ENDBRANCH   1   2
BRANCH   1  18
ATOM     18  C   UNL     1      -2.365  -0.179 -11.610  1.00  0.00     0.000 C 
BRANCH  18  19
ATOM     19  C   UNL     1      -3.208   0.646 -10.622  1.00  0.00     0.000 C 
BRANCH  19  20
ATOM     20  C   UNL     1      -3.944   1.837 -11.273  1.00  0.00     0.000 C 
BRANCH  20  21
ATOM     21  C   UNL     1      -5.394   1.965 -10.774  1.00  0.00     0.000 C 
BRANCH  21  22
ATOM     22  C   UNL     1      -5.777   0.852  -9.786  1.00  0.00     0.000 C 
BRANCH  22  23
ATOM     23  C   UNL     1      -6.987   0.031 -10.267  1.00  0.00     0.000 C 
BRANCH  23  24
ATOM     24  C   UNL     1      -6.596  -1.061 -11.275  1.00  0.00    -0.000 C 
BRANCH  24  25
ATOM     25  C   UNL     1      -7.756  -2.018 -11.589  1.00  0.00    -0.000 C 
BRANCH  25  26
ATOM     26  C   UNL     1      -7.661  -2.538 -13.028  1.00  0.00    -0.000 C 
BRANCH  26  27
ATOM     27  C   UNL     1      -6.195  -2.676 -13.469  1.00  0.00    -0.000 C 
BRANCH  27  28
ATOM     28  C   UNL     1      -6.056  -3.236 -14.895  1.00  0.00    -0.000 C 
BRANCH  28  29
ATOM     29  C   UNL     1      -4.748  -4.017 -15.098  1.00  0.00    -0.000 C 
BRANCH  29  30
ATOM     30  C   UNL     1      -3.597  -3.073 -15.475  1.00  0.00    -0.000 C 
BRANCH  30  31
ATOM     31  C   UNL     1      -4.052  -1.923 -16.389  1.00  0.00    -0.003 C 
ATOM     32  C   UNL     1      -3.025  -1.583 -17.470  1.00  0.00     0.004 C 
ENDBRANCH  30  31
ENDBRANCH  29  30
ENDBRANCH  28  29
ENDBRANCH  27  28
ENDBRANCH  26  27
ENDBRANCH  25  26
ENDBRANCH  24  25
ENDBRANCH  23  24
ENDBRANCH  22  23
ENDBRANCH  21  22
ENDBRANCH  20  21
ENDBRANCH  19  20
ENDBRANCH  18  19
ENDBRANCH   1  18
TORSDOF 28
ENDMDL
MODEL 7
REMARK VINA RESULT:    -4.382      2.582      6.778
REMARK INTER + INTRA:         -17.209
REMARK INTER:                 -12.667
REMARK INTRA:                  -4.542
REMARK UNBOUND:                -5.654
REMARK SMILES CCCCCCCCCCCCCCCCCCCCCCCCCCCCCC(=O)[O-]
REMARK SMILES IDX 16 1 17 2 18 3 19 4 20 5 21 6 22 7 23 8 24 9 25 10 26 11
REMARK SMILES IDX 27 12 28 13 29 14 30 15 31 16 32 17 15 18 14 19 13 20 12 21
REMARK SMILES IDX 11 22 10 23 9 24 8 25 7 26 6 27 5 28 4 29 3 30 2 31 1 32
REMARK H PARENT
REMARK Flexibility Score: inf
ROOT
ATOM      1  C   UNL     1      -6.581  -4.147 -15.264  1.00  0.00     0.000 C 
ENDROOT
BRANCH   1   2
ATOM      2  C   UNL     1      -5.078  -3.820 -15.164  1.00  0.00     0.000 C 
BRANCH   2   3
ATOM      3  C   UNL     1      -4.739  -2.331 -14.946  1.00  0.00     0.000 C 
BRANCH   3   4
ATOM      4  C   UNL     1      -3.943  -2.025 -13.663  1.00  0.00     0.000 C 
BRANCH   4   5
ATOM      5  C   UNL     1      -4.796  -1.547 -12.471  1.00  0.00     0.000 C 
BRANCH   5   6
ATOM      6  C   UNL     1      -4.972  -2.583 -11.345  1.00  0.00     0.000 C 
BRANCH   6   7
ATOM      7  C   UNL     1      -6.342  -2.485 -10.655  1.00  0.00     0.000 C 
BRANCH   7   8
ATOM      8  C   UNL     1      -6.973  -1.104 -10.865  1.00  0.00     0.000 C 
BRANCH   8   9
ATOM      9  C   UNL     1      -6.723  -0.200  -9.648  1.00  0.00     0.000 C 
BRANCH   9  10
ATOM     10  C   UNL     1      -6.904   1.293  -9.964  1.00  0.00     0.000 C 
BRANCH  10  11
ATOM     11  C   UNL     1      -5.601   2.117  -9.977  1.00  0.00     0.000 C 
BRANCH  11  12
ATOM     12  C   UNL     1      -4.833   2.050 -11.314  1.00  0.00     0.000 C 
BRANCH  12  13
ATOM     13  C   UNL     1      -3.352   1.677 -11.118  1.00  0.00     0.006 C 
BRANCH  13  14
ATOM     14  C   UNL     1      -3.127   0.849  -9.846  1.00  0.00     0.053 C 
BRANCH  14  15
ATOM     15  C   UNL     1      -2.255  -0.343 -10.104  1.00  0.00     0.041 C 
ATOM     16  O   UNL     1      -1.640  -0.452 -11.197  1.00  0.00    -0.550 OA
ATOM     17  O   UNL     1      -2.132  -1.337  -9.140  1.00  0.00    -0.550 OA
ENDBRANCH  14  15
ENDBRANCH  13  14
ENDBRANCH  12  13
ENDBRANCH  11  12
ENDBRANCH  10  11
ENDBRANCH   9  10
ENDBRANCH   8   9
ENDBRANCH   7   8
ENDBRANCH   6   7
ENDBRANCH   5   6
ENDBRANCH   4   5
ENDBRANCH   3   4
ENDBRANCH   2   3
ENDBRANCH   1   2
BRANCH   1  18
ATOM     18  C   UNL     1      -7.454  -3.234 -14.391  1.00  0.00     0.000 C 
BRANCH  18  19
ATOM     19  C   UNL     1      -8.961  -3.476 -14.590  1.00  0.00     0.000 C 
BRANCH  19  20
ATOM     20  C   UNL     1      -9.335  -3.941 -16.013  1.00  0.00     0.000 C 
BRANCH  20  21
ATOM     21  C   UNL     1     -10.797  -4.416 -16.101  1.00  0.00     0.000 C 
BRANCH  21  22
ATOM     22  C   UNL     1     -11.232  -5.214 -14.862  1.00  0.00     0.000 C 
BRANCH  22  23
ATOM     23  C   UNL     1     -10.786  -6.686 -14.925  1.00  0.00     0.000 C 
BRANCH  23  24
ATOM     24  C   UNL     1      -9.873  -7.078 -13.753  1.00  0.00    -0.000 C 
BRANCH  24  25
ATOM     25  C   UNL     1      -8.394  -7.158 -14.157  1.00  0.00    -0.000 C 
BRANCH  25  26
ATOM     26  C   UNL     1      -7.495  -7.279 -12.922  1.00  0.00    -0.000 C 
BRANCH  26  27
ATOM     27  C   UNL     1      -7.375  -5.930 -12.193  1.00  0.00    -0.000 C 
BRANCH  27  28
ATOM     28  C   UNL     1      -6.746  -6.065 -10.796  1.00  0.00    -0.000 C 
BRANCH  28  29
ATOM     29  C   UNL     1      -6.873  -7.487 -10.226  1.00  0.00    -0.000 C 
BRANCH  29  30
ATOM     30  C   UNL     1      -6.496  -7.517  -8.737  1.00  0.00    -0.000 C 
BRANCH  30  31
ATOM     31  C   UNL     1      -7.417  -6.638  -7.876  1.00  0.00    -0.003 C 
ATOM     32  C   UNL     1      -7.500  -7.109  -6.424  1.00  0.00     0.004 C 
ENDBRANCH  30  31
ENDBRANCH  29  30
ENDBRANCH  28  29
ENDBRANCH  27  28
ENDBRANCH  26  27
ENDBRANCH  25  26
ENDBRANCH  24  25
ENDBRANCH  23  24
ENDBRANCH  22  23
ENDBRANCH  21  22
ENDBRANCH  20  21
ENDBRANCH  19  20
ENDBRANCH  18  19
ENDBRANCH   1  18
TORSDOF 28
ENDMDL
MODEL 8
REMARK VINA RESULT:    -4.378      1.216      2.131
REMARK INTER + INTRA:         -17.199
REMARK INTER:                 -12.263
REMARK INTRA:                  -4.936
REMARK UNBOUND:                -5.654
REMARK SMILES CCCCCCCCCCCCCCCCCCCCCCCCCCCCCC(=O)[O-]
REMARK SMILES IDX 16 1 17 2 18 3 19 4 20 5 21 6 22 7 23 8 24 9 25 10 26 11
REMARK SMILES IDX 27 12 28 13 29 14 30 15 31 16 32 17 15 18 14 19 13 20 12 21
REMARK SMILES IDX 11 22 10 23 9 24 8 25 7 26 6 27 5 28 4 29 3 30 2 31 1 32
REMARK H PARENT
REMARK Flexibility Score: inf
ROOT
ATOM      1  C   UNL     1     -11.861  -5.055 -14.679  1.00  0.00     0.000 C 
ENDROOT
BRANCH   1   2
ATOM      2  C   UNL     1     -11.137  -6.160 -13.886  1.00  0.00     0.000 C 
BRANCH   2   3
ATOM      3  C   UNL     1     -10.720  -7.397 -14.708  1.00  0.00     0.000 C 
BRANCH   3   4
ATOM      4  C   UNL     1      -9.232  -7.783 -14.595  1.00  0.00     0.000 C 
BRANCH   4   5
ATOM      5  C   UNL     1      -8.602  -7.530 -13.210  1.00  0.00     0.000 C 
BRANCH   5   6
ATOM      6  C   UNL     1      -7.197  -6.901 -13.244  1.00  0.00     0.000 C 
BRANCH   6   7
ATOM      7  C   UNL     1      -6.202  -7.713 -14.087  1.00  0.00     0.000 C 
BRANCH   7   8
ATOM      8  C   UNL     1      -5.260  -6.795 -14.874  1.00  0.00     0.000 C 
BRANCH   8   9
ATOM      9  C   UNL     1      -4.791  -5.620 -14.002  1.00  0.00     0.000 C 
BRANCH   9  10
ATOM     10  C   UNL     1      -3.619  -4.843 -14.624  1.00  0.00     0.000 C 
BRANCH  10  11
ATOM     11  C   UNL     1      -3.288  -3.505 -13.935  1.00  0.00     0.000 C 
BRANCH  11  12
ATOM     12  C   UNL     1      -4.068  -2.300 -14.504  1.00  0.00     0.000 C 
BRANCH  12  13
ATOM     13  C   UNL     1      -4.463  -2.506 -15.978  1.00  0.00     0.006 C 
BRANCH  13  14
ATOM     14  C   UNL     1      -3.686  -1.578 -16.921  1.00  0.00     0.053 C 
BRANCH  14  15
ATOM     15  C   UNL     1      -3.164  -2.312 -18.119  1.00  0.00     0.041 C 
ATOM     16  O   UNL     1      -3.277  -3.563 -18.194  1.00  0.00    -0.550 OA
ATOM     17  O   UNL     1      -2.541  -1.613 -19.147  1.00  0.00    -0.550 OA
ENDBRANCH  14  15
ENDBRANCH  13  14
ENDBRANCH  12  13
ENDBRANCH  11  12
ENDBRANCH  10  11
ENDBRANCH   9  10
ENDBRANCH   8   9
ENDBRANCH   7   8
ENDBRANCH   6   7
ENDBRANCH   5   6
ENDBRANCH   4   5
ENDBRANCH   3   4
ENDBRANCH   2   3
ENDBRANCH   1   2
BRANCH   1  18
ATOM     18  C   UNL     1     -11.296  -4.864 -16.095  1.00  0.00     0.000 C 
BRANCH  18  19
ATOM     19  C   UNL     1     -10.116  -3.877 -16.141  1.00  0.00     0.000 C 
BRANCH  19  20
ATOM     20  C   UNL     1      -8.732  -4.558 -16.110  1.00  0.00     0.000 C 
BRANCH  20  21
ATOM     21  C   UNL     1      -7.769  -3.870 -15.125  1.00  0.00     0.000 C 
BRANCH  21  22
ATOM     22  C   UNL     1      -8.438  -3.539 -13.782  1.00  0.00     0.000 C 
BRANCH  22  23
ATOM     23  C   UNL     1      -8.011  -2.164 -13.237  1.00  0.00     0.000 C 
BRANCH  23  24
ATOM     24  C   UNL     1      -7.743  -2.185 -11.724  1.00  0.00    -0.000 C 
BRANCH  24  25
ATOM     25  C   UNL     1      -7.052  -3.477 -11.265  1.00  0.00    -0.000 C 
BRANCH  25  26
ATOM     26  C   UNL     1      -5.541  -3.268 -11.120  1.00  0.00    -0.000 C 
BRANCH  26  27
ATOM     27  C   UNL     1      -5.191  -2.726  -9.724  1.00  0.00    -0.000 C 
BRANCH  27  28
ATOM     28  C   UNL     1      -4.836  -1.230  -9.742  1.00  0.00    -0.000 C 
BRANCH  28  29
ATOM     29  C   UNL     1      -5.588  -0.431  -8.666  1.00  0.00    -0.000 C 
BRANCH  29  30
ATOM     30  C   UNL     1      -6.658   0.471  -9.298  1.00  0.00    -0.000 C 
BRANCH  30  31
ATOM     31  C   UNL     1      -6.205   1.075 -10.638  1.00  0.00    -0.003 C 
ATOM     32  C   UNL     1      -6.573   2.553 -10.777  1.00  0.00     0.004 C 
ENDBRANCH  30  31
ENDBRANCH  29  30
ENDBRANCH  28  29
ENDBRANCH  27  28
ENDBRANCH  26  27
ENDBRANCH  25  26
ENDBRANCH  24  25
ENDBRANCH  23  24
ENDBRANCH  22  23
ENDBRANCH  21  22
ENDBRANCH  20  21
ENDBRANCH  19  20
ENDBRANCH  18  19
ENDBRANCH   1  18
TORSDOF 28
ENDMDL
MODEL 9
REMARK VINA RESULT:    -4.334      2.720      7.229
REMARK INTER + INTRA:         -17.081
REMARK INTER:                 -11.993
REMARK INTRA:                  -5.088
REMARK UNBOUND:                -5.654
REMARK SMILES CCCCCCCCCCCCCCCCCCCCCCCCCCCCCC(=O)[O-]
REMARK SMILES IDX 16 1 17 2 18 3 19 4 20 5 21 6 22 7 23 8 24 9 25 10 26 11
REMARK SMILES IDX 27 12 28 13 29 14 30 15 31 16 32 17 15 18 14 19 13 20 12 21
REMARK SMILES IDX 11 22 10 23 9 24 8 25 7 26 6 27 5 28 4 29 3 30 2 31 1 32
REMARK H PARENT
REMARK Flexibility Score: inf
ROOT
ATOM      1  C   UNL     1      -4.798  -1.997 -15.081  1.00  0.00     0.000 C 
ENDROOT
BRANCH   1   2
ATOM      2  C   UNL     1      -4.239  -3.283 -15.721  1.00  0.00     0.000 C 
BRANCH   2   3
ATOM      3  C   UNL     1      -3.551  -3.095 -17.089  1.00  0.00     0.000 C 
BRANCH   3   4
ATOM      4  C   UNL     1      -3.254  -1.632 -17.473  1.00  0.00     0.000 C 
BRANCH   4   5
ATOM      5  C   UNL     1      -1.756  -1.292 -17.609  1.00  0.00     0.000 C 
BRANCH   5   6
ATOM      6  C   UNL     1      -1.091  -0.771 -16.322  1.00  0.00     0.000 C 
BRANCH   6   7
ATOM      7  C   UNL     1      -0.423  -1.887 -15.503  1.00  0.00     0.000 C 
BRANCH   7   8
ATOM      8  C   UNL     1      -1.162  -2.126 -14.182  1.00  0.00     0.000 C 
BRANCH   8   9
ATOM      9  C   UNL     1      -1.107  -0.873 -13.293  1.00  0.00     0.000 C 
BRANCH   9  10
ATOM     10  C   UNL     1      -1.853  -1.051 -11.961  1.00  0.00     0.000 C 
BRANCH  10  11
ATOM     11  C   UNL     1      -2.507   0.230 -11.407  1.00  0.00     0.000 C 
BRANCH  11  12
ATOM     12  C   UNL     1      -4.045   0.150 -11.300  1.00  0.00     0.000 C 
BRANCH  12  13
ATOM     13  C   UNL     1      -4.592   0.984 -10.127  1.00  0.00     0.006 C 
BRANCH  13  14
ATOM     14  C   UNL     1      -6.123   0.947 -10.054  1.00  0.00     0.053 C 
BRANCH  14  15
ATOM     15  C   UNL     1      -6.725   2.302 -10.273  1.00  0.00     0.041 C 
ATOM     16  O   UNL     1      -6.508   2.924 -11.345  1.00  0.00    -0.550 OA
ATOM     17  O   UNL     1      -7.516   2.881  -9.287  1.00  0.00    -0.550 OA
ENDBRANCH  14  15
ENDBRANCH  13  14
ENDBRANCH  12  13
ENDBRANCH  11  12
ENDBRANCH  10  11
ENDBRANCH   9  10
ENDBRANCH   8   9
ENDBRANCH   7   8
ENDBRANCH   6   7
ENDBRANCH   5   6
ENDBRANCH   4   5
ENDBRANCH   3   4
ENDBRANCH   2   3
ENDBRANCH   1   2
BRANCH   1  18
ATOM     18  C   UNL     1      -5.049  -2.138 -13.572  1.00  0.00     0.000 C 
BRANCH  18  19
ATOM     19  C   UNL     1      -4.648  -3.519 -13.024  1.00  0.00     0.000 C 
BRANCH  19  20
ATOM     20  C   UNL     1      -4.511  -3.563 -11.487  1.00  0.00     0.000 C 
BRANCH  20  21
ATOM     21  C   UNL     1      -5.805  -3.127 -10.777  1.00  0.00     0.000 C 
BRANCH  21  22
ATOM     22  C   UNL     1      -7.020  -3.970 -11.195  1.00  0.00     0.000 C 
BRANCH  22  23
ATOM     23  C   UNL     1      -6.891  -5.440 -10.756  1.00  0.00     0.000 C 
BRANCH  23  24
ATOM     24  C   UNL     1      -7.051  -6.422 -11.927  1.00  0.00    -0.000 C 
BRANCH  24  25
ATOM     25  C   UNL     1      -7.722  -5.779 -13.149  1.00  0.00    -0.000 C 
BRANCH  25  26
ATOM     26  C   UNL     1      -6.851  -5.943 -14.400  1.00  0.00    -0.000 C 
BRANCH  26  27
ATOM     27  C   UNL     1      -7.387  -5.088 -15.561  1.00  0.00    -0.000 C 
BRANCH  27  28
ATOM     28  C   UNL     1      -8.243  -3.905 -15.079  1.00  0.00    -0.000 C 
BRANCH  28  29
ATOM     29  C   UNL     1      -9.521  -3.722 -15.914  1.00  0.00    -0.000 C 
BRANCH  29  30
ATOM     30  C   UNL     1     -10.753  -4.229 -15.151  1.00  0.00    -0.000 C 
BRANCH  30  31
ATOM     31  C   UNL     1     -10.970  -5.742 -15.316  1.00  0.00    -0.003 C 
ATOM     32  C   UNL     1     -11.107  -6.472 -13.979  1.00  0.00     0.004 C 
ENDBRANCH  30  31
ENDBRANCH  29  30
ENDBRANCH  28  29
ENDBRANCH  27  28
ENDBRANCH  26  27
ENDBRANCH  25  26
ENDBRANCH  24  25
ENDBRANCH  23  24
ENDBRANCH  22  23
ENDBRANCH  21  22
ENDBRANCH  20  21
ENDBRANCH  19  20
ENDBRANCH  18  19
ENDBRANCH   1  18
TORSDOF 28
ENDMDL
