MODEL 1
REMARK VINA RESULT:    -3.395      0.000      0.000
REMARK INTER + INTRA:          -9.207
REMARK INTER:                  -6.571
REMARK INTRA:                  -2.636
REMARK UNBOUND:                -2.636
REMARK SMILES CCCCCCCCCCCCCCCCCC(=O)[O-]
REMARK SMILES IDX 10 1 11 2 12 3 13 4 14 5 15 6 16 7 17 8 18 9 19 10 20 11
REMARK SMILES IDX 9 12 8 13 7 14 6 15 5 16 4 17 3 18 2 19 1 20
REMARK H PARENT
REMARK Flexibility Score: inf
ROOT
ATOM      1  C   UNL     1      28.095 160.337 116.967  1.00  0.00     0.000 C 
ENDROOT
BRANCH   1   2
ATOM      2  C   UNL     1      29.041 160.203 118.175  1.00  0.00     0.000 C 
BRANCH   2   3
ATOM      3  C   UNL     1      28.702 161.107 119.377  1.00  0.00     0.000 C 
BRANCH   3   4
ATOM      4  C   UNL     1      28.988 160.434 120.730  1.00  0.00     0.000 C 
BRANCH   4   5
ATOM      5  C   UNL     1      29.261 158.923 120.601  1.00  0.00     0.000 C 
BRANCH   5   6
ATOM      6  C   UNL     1      30.401 158.380 121.489  1.00  0.00     0.000 C 
BRANCH   6   7
ATOM      7  C   UNL     1      31.680 157.974 120.736  1.00  0.00     0.006 C 
BRANCH   7   8
ATOM      8  C   UNL     1      32.756 159.067 120.755  1.00  0.00     0.053 C 
BRANCH   8   9
ATOM      9  C   UNL     1      32.569 160.004 119.604  1.00  0.00     0.041 C 
ATOM     10  O   UNL     1      32.368 161.230 119.811  1.00  0.00    -0.550 OA
ATOM     11  O   UNL     1      32.566 159.514 118.304  1.00  0.00    -0.550 OA
ENDBRANCH   8   9
ENDBRANCH   7   8
ENDBRANCH   6   7
ENDBRANCH   5   6
ENDBRANCH   4   5
ENDBRANCH   3   4
ENDBRANCH   2   3
ENDBRANCH   1   2
BRANCH   1  12
ATOM     12  C   UNL     1      27.319 161.662 116.953  1.00  0.00     0.000 C 
BRANCH  12  13
ATOM     13  C   UNL     1      25.822 161.419 116.723  1.00  0.00    -0.000 C 
BRANCH  13  14
ATOM     14  C   UNL     1      25.360 160.130 117.417  1.00  0.00    -0.000 C 
BRANCH  14  15
ATOM     15  C   UNL     1      25.001 160.355 118.902  1.00  0.00    -0.000 C 
BRANCH  15  16
ATOM     16  C   UNL     1      25.338 159.153 119.807  1.00  0.00    -0.000 C 
BRANCH  16  17
ATOM     17  C   UNL     1      26.128 158.026 119.119  1.00  0.00    -0.000 C 
BRANCH  17  18
ATOM     18  C   UNL     1      25.513 156.617 119.258  1.00  0.00    -0.000 C 
BRANCH  18  19
ATOM     19  C   UNL     1      26.329 155.634 120.116  1.00  0.00    -0.003 C 
ATOM     20  C   UNL     1      26.661 156.183 121.503  1.00  0.00     0.004 C 
ENDBRANCH  18  19
ENDBRANCH  17  18
ENDBRANCH  16  17
ENDBRANCH  15  16
ENDBRANCH  14  15
ENDBRANCH  13  14
ENDBRANCH  12  13
ENDBRANCH   1  12
TORSDOF 16
ENDMDL
MODEL 2
REMARK VINA RESULT:    -3.354      2.194      5.276
REMARK INTER + INTRA:          -9.127
REMARK INTER:                  -7.097
REMARK INTRA:                  -2.030
REMARK UNBOUND:                -2.636
REMARK SMILES CCCCCCCCCCCCCCCCCC(=O)[O-]
REMARK SMILES IDX 10 1 11 2 12 3 13 4 14 5 15 6 16 7 17 8 18 9 19 10 20 11
REMARK SMILES IDX 9 12 8 13 7 14 6 15 5 16 4 17 3 18 2 19 1 20
REMARK H PARENT
REMARK Flexibility Score: inf
ROOT
ATOM      1  C   UNL     1      32.360 159.498 118.566  1.00  0.00     0.000 C 
ENDROOT
BRANCH   1   2
ATOM      2  C   UNL     1      31.138 160.253 118.010  1.00  0.00     0.000 C 
BRANCH   2   3
ATOM      3  C   UNL     1      29.846 160.111 118.839  1.00  0.00     0.000 C 
BRANCH   3   4
ATOM      4  C   UNL     1      29.161 161.460 119.114  1.00  0.00     0.000 C 
BRANCH   4   5
ATOM      5  C   UNL     1      27.906 161.325 119.996  1.00  0.00     0.000 C 
BRANCH   5   6
ATOM      6  C   UNL     1      26.567 161.251 119.232  1.00  0.00     0.000 C 
BRANCH   6   7
ATOM      7  C   UNL     1      26.552 161.961 117.867  1.00  0.00     0.006 C 
BRANCH   7   8
ATOM      8  C   UNL     1      25.838 161.147 116.780  1.00  0.00     0.053 C 
BRANCH   8   9
ATOM      9  C   UNL     1      26.701 160.012 116.326  1.00  0.00     0.041 C 
ATOM     10  O   UNL     1      26.313 158.822 116.476  1.00  0.00    -0.550 OA
ATOM     11  O   UNL     1      27.955 160.266 115.786  1.00  0.00    -0.550 OA
ENDBRANCH   8   9
ENDBRANCH   7   8
ENDBRANCH   6   7
ENDBRANCH   5   6
ENDBRANCH   4   5
ENDBRANCH   3   4
ENDBRANCH   2   3
ENDBRANCH   1   2
BRANCH   1  12
ATOM     12  C   UNL     1      32.391 159.448 120.100  1.00  0.00     0.000 C 
BRANCH  12  13
ATOM     13  C   UNL     1      32.249 158.007 120.605  1.00  0.00    -0.000 C 
BRANCH  13  14
ATOM     14  C   UNL     1      31.278 157.932 121.793  1.00  0.00    -0.000 C 
BRANCH  14  15
ATOM     15  C   UNL     1      30.044 157.053 121.492  1.00  0.00    -0.000 C 
BRANCH  15  16
ATOM     16  C   UNL     1      28.738 157.857 121.337  1.00  0.00    -0.000 C 
BRANCH  16  17
ATOM     17  C   UNL     1      27.474 157.004 121.130  1.00  0.00    -0.000 C 
BRANCH  17  18
ATOM     18  C   UNL     1      26.410 157.626 120.201  1.00  0.00    -0.000 C 
BRANCH  18  19
ATOM     19  C   UNL     1      25.737 156.638 119.231  1.00  0.00    -0.003 C 
ATOM     20  C   UNL     1      26.144 155.186 119.477  1.00  0.00     0.004 C 
ENDBRANCH  18  19
ENDBRANCH  17  18
ENDBRANCH  16  17
ENDBRANCH  15  16
ENDBRANCH  14  15
ENDBRANCH  13  14
ENDBRANCH  12  13
ENDBRANCH   1  12
TORSDOF 16
ENDMDL
MODEL 3
REMARK VINA RESULT:    -3.344      2.905      5.916
REMARK INTER + INTRA:          -9.109
REMARK INTER:                  -6.910
REMARK INTRA:                  -2.198
REMARK UNBOUND:                -2.636
REMARK SMILES CCCCCCCCCCCCCCCCCC(=O)[O-]
REMARK SMILES IDX 10 1 11 2 12 3 13 4 14 5 15 6 16 7 17 8 18 9 19 10 20 11
REMARK SMILES IDX 9 12 8 13 7 14 6 15 5 16 4 17 3 18 2 19 1 20
REMARK H PARENT
REMARK Flexibility Score: inf
ROOT
ATOM      1  C   UNL     1      32.071 157.611 120.684  1.00  0.00     0.000 C 
ENDROOT
BRANCH   1   2
ATOM      2  C   UNL     1      30.776 157.695 121.514  1.00  0.00     0.000 C 
BRANCH   2   3
ATOM      3  C   UNL     1      30.474 159.080 122.121  1.00  0.00     0.000 C 
BRANCH   3   4
ATOM      4  C   UNL     1      29.008 159.505 121.937  1.00  0.00     0.000 C 
BRANCH   4   5
ATOM      5  C   UNL     1      28.216 158.547 121.028  1.00  0.00     0.000 C 
BRANCH   5   6
ATOM      6  C   UNL     1      26.744 158.938 120.780  1.00  0.00     0.000 C 
BRANCH   6   7
ATOM      7  C   UNL     1      25.803 157.768 120.444  1.00  0.00     0.006 C 
BRANCH   7   8
ATOM      8  C   UNL     1      26.472 156.398 120.614  1.00  0.00     0.053 C 
BRANCH   8   9
ATOM      9  C   UNL     1      26.138 155.507 119.459  1.00  0.00     0.041 C 
ATOM     10  O   UNL     1      26.495 154.299 119.466  1.00  0.00    -0.550 OA
ATOM     11  O   UNL     1      25.477 156.025 118.352  1.00  0.00    -0.550 OA
ENDBRANCH   8   9
ENDBRANCH   7   8
ENDBRANCH   6   7
ENDBRANCH   5   6
ENDBRANCH   4   5
ENDBRANCH   3   4
ENDBRANCH   2   3
ENDBRANCH   1   2
BRANCH   1  12
ATOM     12  C   UNL     1      32.746 158.975 120.480  1.00  0.00     0.000 C 
BRANCH  12  13
ATOM     13  C   UNL     1      32.499 159.502 119.061  1.00  0.00    -0.000 C 
BRANCH  13  14
ATOM     14  C   UNL     1      32.262 161.020 119.070  1.00  0.00    -0.000 C 
BRANCH  14  15
ATOM     15  C   UNL     1      30.794 161.391 118.765  1.00  0.00    -0.000 C 
BRANCH  15  16
ATOM     16  C   UNL     1      29.990 160.246 118.118  1.00  0.00    -0.000 C 
BRANCH  16  17
ATOM     17  C   UNL     1      28.503 160.557 117.872  1.00  0.00    -0.000 C 
BRANCH  17  18
ATOM     18  C   UNL     1      28.049 160.462 116.401  1.00  0.00    -0.000 C 
BRANCH  18  19
ATOM     19  C   UNL     1      26.551 160.173 116.200  1.00  0.00    -0.003 C 
ATOM     20  C   UNL     1      26.063 158.963 116.995  1.00  0.00     0.004 C 
ENDBRANCH  18  19
ENDBRANCH  17  18
ENDBRANCH  16  17
ENDBRANCH  15  16
ENDBRANCH  14  15
ENDBRANCH  13  14
ENDBRANCH  12  13
ENDBRANCH   1  12
TORSDOF 16
ENDMDL
MODEL 4
REMARK VINA RESULT:    -3.339      1.272      3.018
REMARK INTER + INTRA:          -9.099
REMARK INTER:                  -6.649
REMARK INTRA:                  -2.450
REMARK UNBOUND:                -2.636
REMARK SMILES CCCCCCCCCCCCCCCCCC(=O)[O-]
REMARK SMILES IDX 10 1 11 2 12 3 13 4 14 5 15 6 16 7 17 8 18 9 19 10 20 11
REMARK SMILES IDX 9 12 8 13 7 14 6 15 5 16 4 17 3 18 2 19 1 20
REMARK H PARENT
REMARK Flexibility Score: inf
ROOT
ATOM      1  C   UNL     1      28.748 160.081 120.967  1.00  0.00     0.000 C 
ENDROOT
BRANCH   1   2
ATOM      2  C   UNL     1      28.590 158.910 121.955  1.00  0.00     0.000 C 
BRANCH   2   3
ATOM      3  C   UNL     1      29.104 157.548 121.448  1.00  0.00     0.000 C 
BRANCH   3   4
ATOM      4  C   UNL     1      30.515 157.213 121.959  1.00  0.00     0.000 C 
BRANCH   4   5
ATOM      5  C   UNL     1      31.627 157.700 121.011  1.00  0.00     0.000 C 
BRANCH   5   6
ATOM      6  C   UNL     1      32.337 159.002 121.441  1.00  0.00     0.000 C 
BRANCH   6   7
ATOM      7  C   UNL     1      32.734 159.941 120.288  1.00  0.00     0.006 C 
BRANCH   7   8
ATOM      8  C   UNL     1      32.277 159.429 118.917  1.00  0.00     0.053 C 
BRANCH   8   9
ATOM      9  C   UNL     1      32.397 160.510 117.890  1.00  0.00     0.041 C 
ATOM     10  O   UNL     1      32.800 160.239 116.727  1.00  0.00    -0.550 OA
ATOM     11  O   UNL     1      32.113 161.827 118.231  1.00  0.00    -0.550 OA
ENDBRANCH   8   9
ENDBRANCH   7   8
ENDBRANCH   6   7
ENDBRANCH   5   6
ENDBRANCH   4   5
ENDBRANCH   3   4
ENDBRANCH   2   3
ENDBRANCH   1   2
BRANCH   1  12
ATOM     12  C   UNL     1      28.827 159.626 119.502  1.00  0.00     0.000 C 
BRANCH  12  13
ATOM     13  C   UNL     1      28.789 160.829 118.552  1.00  0.00    -0.000 C 
BRANCH  13  14
ATOM     14  C   UNL     1      28.478 160.386 117.114  1.00  0.00    -0.000 C 
BRANCH  14  15
ATOM     15  C   UNL     1      27.211 161.064 116.549  1.00  0.00    -0.000 C 
BRANCH  15  16
ATOM     16  C   UNL     1      26.019 160.102 116.383  1.00  0.00    -0.000 C 
BRANCH  16  17
ATOM     17  C   UNL     1      25.630 159.327 117.655  1.00  0.00    -0.000 C 
BRANCH  17  18
ATOM     18  C   UNL     1      25.680 157.790 117.525  1.00  0.00    -0.000 C 
BRANCH  18  19
ATOM     19  C   UNL     1      25.625 157.023 118.858  1.00  0.00    -0.003 C 
ATOM     20  C   UNL     1      25.479 157.941 120.071  1.00  0.00     0.004 C 
ENDBRANCH  18  19
ENDBRANCH  17  18
ENDBRANCH  16  17
ENDBRANCH  15  16
ENDBRANCH  14  15
ENDBRANCH  13  14
ENDBRANCH  12  13
ENDBRANCH   1  12
TORSDOF 16
ENDMDL
MODEL 5
REMARK VINA RESULT:    -3.315      1.388      4.114
REMARK INTER + INTRA:          -9.052
REMARK INTER:                  -6.762
REMARK INTRA:                  -2.290
REMARK UNBOUND:                -2.636
REMARK SMILES CCCCCCCCCCCCCCCCCC(=O)[O-]
REMARK SMILES IDX 10 1 11 2 12 3 13 4 14 5 15 6 16 7 17 8 18 9 19 10 20 11
REMARK SMILES IDX 9 12 8 13 7 14 6 15 5 16 4 17 3 18 2 19 1 20
REMARK H PARENT
REMARK Flexibility Score: inf
ROOT
ATOM      1  C   UNL     1      29.043 157.261 121.460  1.00  0.00     0.000 C 
ENDROOT
BRANCH   1   2
ATOM      2  C   UNL     1      29.698 158.647 121.614  1.00  0.00     0.000 C 
BRANCH   2   3
ATOM      3  C   UNL     1      28.791 159.844 121.263  1.00  0.00     0.000 C 
BRANCH   3   4
ATOM      4  C   UNL     1      28.398 159.879 119.777  1.00  0.00     0.000 C 
BRANCH   4   5
ATOM      5  C   UNL     1      29.271 160.841 118.949  1.00  0.00     0.000 C 
BRANCH   5   6
ATOM      6  C   UNL     1      30.129 160.176 117.852  1.00  0.00     0.000 C 
BRANCH   6   7
ATOM      7  C   UNL     1      31.638 160.462 117.937  1.00  0.00     0.006 C 
BRANCH   7   8
ATOM      8  C   UNL     1      32.382 159.478 118.850  1.00  0.00     0.053 C 
BRANCH   8   9
ATOM      9  C   UNL     1      32.792 160.153 120.120  1.00  0.00     0.041 C 
ATOM     10  O   UNL     1      32.550 161.377 120.295  1.00  0.00    -0.550 OA
ATOM     11  O   UNL     1      33.489 159.442 121.090  1.00  0.00    -0.550 OA
ENDBRANCH   8   9
ENDBRANCH   7   8
ENDBRANCH   6   7
ENDBRANCH   5   6
ENDBRANCH   4   5
ENDBRANCH   3   4
ENDBRANCH   2   3
ENDBRANCH   1   2
BRANCH   1  12
ATOM     12  C   UNL     1      27.638 157.186 122.075  1.00  0.00     0.000 C 
BRANCH  12  13
ATOM     13  C   UNL     1      26.714 156.306 121.226  1.00  0.00    -0.000 C 
BRANCH  13  14
ATOM     14  C   UNL     1      26.061 157.119 120.099  1.00  0.00    -0.000 C 
BRANCH  14  15
ATOM     15  C   UNL     1      25.686 156.245 118.882  1.00  0.00    -0.000 C 
BRANCH  15  16
ATOM     16  C   UNL     1      25.476 157.051 117.585  1.00  0.00    -0.000 C 
BRANCH  16  17
ATOM     17  C   UNL     1      25.663 158.572 117.730  1.00  0.00    -0.000 C 
BRANCH  17  18
ATOM     18  C   UNL     1      26.513 159.235 116.626  1.00  0.00    -0.000 C 
BRANCH  18  19
ATOM     19  C   UNL     1      26.339 160.760 116.499  1.00  0.00    -0.003 C 
ATOM     20  C   UNL     1      25.574 161.374 117.671  1.00  0.00     0.004 C 
ENDBRANCH  18  19
ENDBRANCH  17  18
ENDBRANCH  16  17
ENDBRANCH  15  16
ENDBRANCH  14  15
ENDBRANCH  13  14
ENDBRANCH  12  13
ENDBRANCH   1  12
TORSDOF 16
ENDMDL
MODEL 6
REMARK VINA RESULT:    -3.253      2.846      5.354
REMARK INTER + INTRA:          -8.932
REMARK INTER:                  -6.812
REMARK INTRA:                  -2.120
REMARK UNBOUND:                -2.636
REMARK SMILES CCCCCCCCCCCCCCCCCC(=O)[O-]
REMARK SMILES IDX 10 1 11 2 12 3 13 4 14 5 15 6 16 7 17 8 18 9 19 10 20 11
REMARK SMILES IDX 9 12 8 13 7 14 6 15 5 16 4 17 3 18 2 19 1 20
REMARK H PARENT
REMARK Flexibility Score: inf
ROOT
ATOM      1  C   UNL     1      32.126 158.973 119.412  1.00  0.00     0.000 C 
ENDROOT
BRANCH   1   2
ATOM      2  C   UNL     1      32.447 159.322 120.878  1.00  0.00     0.000 C 
BRANCH   2   3
ATOM      3  C   UNL     1      31.596 158.585 121.930  1.00  0.00     0.000 C 
BRANCH   3   4
ATOM      4  C   UNL     1      31.029 157.252 121.413  1.00  0.00     0.000 C 
BRANCH   4   5
ATOM      5  C   UNL     1      29.599 156.975 121.914  1.00  0.00     0.000 C 
BRANCH   5   6
ATOM      6  C   UNL     1      28.552 158.046 121.544  1.00  0.00     0.000 C 
BRANCH   6   7
ATOM      7  C   UNL     1      27.090 157.658 121.827  1.00  0.00     0.006 C 
BRANCH   7   8
ATOM      8  C   UNL     1      26.787 156.192 121.493  1.00  0.00     0.053 C 
BRANCH   8   9
ATOM      9  C   UNL     1      26.091 156.090 120.173  1.00  0.00     0.041 C 
ATOM     10  O   UNL     1      25.244 156.960 119.834  1.00  0.00    -0.550 OA
ATOM     11  O   UNL     1      26.339 155.007 119.339  1.00  0.00    -0.550 OA
ENDBRANCH   8   9
ENDBRANCH   7   8
ENDBRANCH   6   7
ENDBRANCH   5   6
ENDBRANCH   4   5
ENDBRANCH   3   4
ENDBRANCH   2   3
ENDBRANCH   1   2
BRANCH   1  12
ATOM     12  C   UNL     1      32.383 160.137 118.445  1.00  0.00     0.000 C 
BRANCH  12  13
ATOM     13  C   UNL     1      31.182 161.088 118.400  1.00  0.00    -0.000 C 
BRANCH  13  14
ATOM     14  C   UNL     1      29.861 160.315 118.522  1.00  0.00    -0.000 C 
BRANCH  14  15
ATOM     15  C   UNL     1      28.858 161.005 119.472  1.00  0.00    -0.000 C 
BRANCH  15  16
ATOM     16  C   UNL     1      27.403 160.534 119.281  1.00  0.00    -0.000 C 
BRANCH  16  17
ATOM     17  C   UNL     1      27.224 159.367 118.293  1.00  0.00    -0.000 C 
BRANCH  17  18
ATOM     18  C   UNL     1      26.448 159.714 117.006  1.00  0.00    -0.000 C 
BRANCH  18  19
ATOM     19  C   UNL     1      27.191 160.644 116.029  1.00  0.00    -0.003 C 
ATOM     20  C   UNL     1      26.782 162.109 116.171  1.00  0.00     0.004 C 
ENDBRANCH  18  19
ENDBRANCH  17  18
ENDBRANCH  16  17
ENDBRANCH  15  16
ENDBRANCH  14  15
ENDBRANCH  13  14
ENDBRANCH  12  13
ENDBRANCH   1  12
TORSDOF 16
ENDMDL
MODEL 7
REMARK VINA RESULT:    -3.218      2.866      5.249
REMARK INTER + INTRA:          -8.864
REMARK INTER:                  -6.459
REMARK INTRA:                  -2.405
REMARK UNBOUND:                -2.636
REMARK SMILES CCCCCCCCCCCCCCCCCC(=O)[O-]
REMARK SMILES IDX 10 1 11 2 12 3 13 4 14 5 15 6 16 7 17 8 18 9 19 10 20 11
REMARK SMILES IDX 9 12 8 13 7 14 6 15 5 16 4 17 3 18 2 19 1 20
REMARK H PARENT
REMARK Flexibility Score: inf
ROOT
ATOM      1  C   UNL     1      26.754 160.060 116.498  1.00  0.00     0.000 C 
ENDROOT
BRANCH   1   2
ATOM      2  C   UNL     1      25.684 159.460 117.430  1.00  0.00     0.000 C 
BRANCH   2   3
ATOM      3  C   UNL     1      24.986 160.469 118.363  1.00  0.00     0.000 C 
BRANCH   3   4
ATOM      4  C   UNL     1      25.112 160.096 119.849  1.00  0.00     0.000 C 
BRANCH   4   5
ATOM      5  C   UNL     1      26.492 160.443 120.438  1.00  0.00     0.000 C 
BRANCH   5   6
ATOM      6  C   UNL     1      27.335 159.235 120.900  1.00  0.00     0.000 C 
BRANCH   6   7
ATOM      7  C   UNL     1      26.531 157.969 121.244  1.00  0.00     0.006 C 
BRANCH   7   8
ATOM      8  C   UNL     1      27.123 156.698 120.621  1.00  0.00     0.053 C 
BRANCH   8   9
ATOM      9  C   UNL     1      26.107 156.017 119.759  1.00  0.00     0.041 C 
ATOM     10  O   UNL     1      25.140 156.669 119.283  1.00  0.00    -0.550 OA
ATOM     11  O   UNL     1      26.201 154.651 119.523  1.00  0.00    -0.550 OA
ENDBRANCH   8   9
ENDBRANCH   7   8
ENDBRANCH   6   7
ENDBRANCH   5   6
ENDBRANCH   4   5
ENDBRANCH   3   4
ENDBRANCH   2   3
ENDBRANCH   1   2
BRANCH   1  12
ATOM     12  C   UNL     1      27.145 161.496 116.875  1.00  0.00     0.000 C 
BRANCH  12  13
ATOM     13  C   UNL     1      28.418 161.512 117.730  1.00  0.00    -0.000 C 
BRANCH  13  14
ATOM     14  C   UNL     1      29.162 160.172 117.636  1.00  0.00    -0.000 C 
BRANCH  14  15
ATOM     15  C   UNL     1      30.575 160.236 118.256  1.00  0.00    -0.000 C 
BRANCH  15  16
ATOM     16  C   UNL     1      30.606 160.882 119.655  1.00  0.00    -0.000 C 
BRANCH  16  17
ATOM     17  C   UNL     1      31.330 160.056 120.733  1.00  0.00    -0.000 C 
BRANCH  17  18
ATOM     18  C   UNL     1      32.256 158.945 120.194  1.00  0.00    -0.000 C 
BRANCH  18  19
ATOM     19  C   UNL     1      32.003 157.545 120.784  1.00  0.00    -0.003 C 
ATOM     20  C   UNL     1      30.670 157.439 121.522  1.00  0.00     0.004 C 
ENDBRANCH  18  19
ENDBRANCH  17  18
ENDBRANCH  16  17
ENDBRANCH  15  16
ENDBRANCH  14  15
ENDBRANCH  13  14
ENDBRANCH  12  13
ENDBRANCH   1  12
TORSDOF 16
ENDMDL
MODEL 8
REMARK VINA RESULT:    -3.210      2.637      5.614
REMARK INTER + INTRA:          -8.849
REMARK INTER:                  -6.095
REMARK INTRA:                  -2.754
REMARK UNBOUND:                -2.636
REMARK SMILES CCCCCCCCCCCCCCCCCC(=O)[O-]
REMARK SMILES IDX 10 1 11 2 12 3 13 4 14 5 15 6 16 7 17 8 18 9 19 10 20 11
REMARK SMILES IDX 9 12 8 13 7 14 6 15 5 16 4 17 3 18 2 19 1 20
REMARK H PARENT
REMARK Flexibility Score: inf
ROOT
ATOM      1  C   UNL     1      28.142 160.259 116.581  1.00  0.00     0.000 C 
ENDROOT
BRANCH   1   2
ATOM      2  C   UNL     1      27.255 161.519 116.580  1.00  0.00     0.000 C 
BRANCH   2   3
ATOM      3  C   UNL     1      25.739 161.255 116.675  1.00  0.00     0.000 C 
BRANCH   3   4
ATOM      4  C   UNL     1      25.244 161.134 118.125  1.00  0.00     0.000 C 
BRANCH   4   5
ATOM      5  C   UNL     1      25.096 159.672 118.587  1.00  0.00     0.000 C 
BRANCH   5   6
ATOM      6  C   UNL     1      24.976 159.470 120.113  1.00  0.00     0.000 C 
BRANCH   6   7
ATOM      7  C   UNL     1      25.585 158.163 120.650  1.00  0.00     0.006 C 
BRANCH   7   8
ATOM      8  C   UNL     1      25.825 157.121 119.551  1.00  0.00     0.053 C 
BRANCH   8   9
ATOM      9  C   UNL     1      26.193 155.802 120.153  1.00  0.00     0.041 C 
ATOM     10  O   UNL     1      26.516 155.728 121.369  1.00  0.00    -0.550 OA
ATOM     11  O   UNL     1      26.228 154.662 119.360  1.00  0.00    -0.550 OA
ENDBRANCH   8   9
ENDBRANCH   7   8
ENDBRANCH   6   7
ENDBRANCH   5   6
ENDBRANCH   4   5
ENDBRANCH   3   4
ENDBRANCH   2   3
ENDBRANCH   1   2
BRANCH   1  12
ATOM     12  C   UNL     1      29.189 160.260 117.703  1.00  0.00     0.000 C 
BRANCH  12  13
ATOM     13  C   UNL     1      28.650 159.565 118.958  1.00  0.00    -0.000 C 
BRANCH  13  14
ATOM     14  C   UNL     1      28.617 160.530 120.153  1.00  0.00    -0.000 C 
BRANCH  14  15
ATOM     15  C   UNL     1      28.831 159.808 121.501  1.00  0.00    -0.000 C 
BRANCH  15  16
ATOM     16  C   UNL     1      29.318 158.354 121.352  1.00  0.00    -0.000 C 
BRANCH  16  17
ATOM     17  C   UNL     1      30.746 158.094 121.864  1.00  0.00    -0.000 C 
BRANCH  17  18
ATOM     18  C   UNL     1      31.781 157.753 120.771  1.00  0.00    -0.000 C 
BRANCH  18  19
ATOM     19  C   UNL     1      32.259 158.952 119.932  1.00  0.00    -0.003 C 
ATOM     20  C   UNL     1      32.489 160.212 120.766  1.00  0.00     0.004 C 
ENDBRANCH  18  19
ENDBRANCH  17  18
ENDBRANCH  16  17
ENDBRANCH  15  16
ENDBRANCH  14  15
ENDBRANCH  13  14
ENDBRANCH  12  13
ENDBRANCH   1  12
TORSDOF 16
ENDMDL
MODEL 9
REMARK VINA RESULT:    -3.208      2.741      6.066
REMARK INTER + INTRA:          -8.845
REMARK INTER:                  -6.740
REMARK INTRA:                  -2.106
REMARK UNBOUND:                -2.636
REMARK SMILES CCCCCCCCCCCCCCCCCC(=O)[O-]
REMARK SMILES IDX 10 1 11 2 12 3 13 4 14 5 15 6 16 7 17 8 18 9 19 10 20 11
REMARK SMILES IDX 9 12 8 13 7 14 6 15 5 16 4 17 3 18 2 19 1 20
REMARK H PARENT
REMARK Flexibility Score: inf
ROOT
ATOM      1  C   UNL     1      29.497 160.018 118.447  1.00  0.00     0.000 C 
ENDROOT
BRANCH   1   2
ATOM      2  C   UNL     1      28.648 160.255 117.184  1.00  0.00     0.000 C 
BRANCH   2   3
ATOM      3  C   UNL     1      27.429 161.178 117.377  1.00  0.00     0.000 C 
BRANCH   3   4
ATOM      4  C   UNL     1      26.107 160.521 116.945  1.00  0.00     0.000 C 
BRANCH   4   5
ATOM      5  C   UNL     1      25.639 159.422 117.918  1.00  0.00     0.000 C 
BRANCH   5   6
ATOM      6  C   UNL     1      25.660 157.986 117.352  1.00  0.00     0.000 C 
BRANCH   6   7
ATOM      7  C   UNL     1      25.608 156.867 118.406  1.00  0.00     0.006 C 
BRANCH   7   8
ATOM      8  C   UNL     1      26.220 157.283 119.750  1.00  0.00     0.053 C 
BRANCH   8   9
ATOM      9  C   UNL     1      26.425 156.086 120.623  1.00  0.00     0.041 C 
ATOM     10  O   UNL     1      26.083 154.942 120.222  1.00  0.00    -0.550 OA
ATOM     11  O   UNL     1      26.945 156.241 121.902  1.00  0.00    -0.550 OA
ENDBRANCH   8   9
ENDBRANCH   7   8
ENDBRANCH   6   7
ENDBRANCH   5   6
ENDBRANCH   4   5
ENDBRANCH   3   4
ENDBRANCH   2   3
ENDBRANCH   1   2
BRANCH   1  12
ATOM     12  C   UNL     1      30.999 160.241 118.215  1.00  0.00     0.000 C 
BRANCH  12  13
ATOM     13  C   UNL     1      31.439 161.608 118.751  1.00  0.00    -0.000 C 
BRANCH  13  14
ATOM     14  C   UNL     1      31.677 161.556 120.268  1.00  0.00    -0.000 C 
BRANCH  14  15
ATOM     15  C   UNL     1      33.148 161.254 120.625  1.00  0.00    -0.000 C 
BRANCH  15  16
ATOM     16  C   UNL     1      33.377 159.818 121.135  1.00  0.00    -0.000 C 
BRANCH  16  17
ATOM     17  C   UNL     1      32.169 159.182 121.845  1.00  0.00    -0.000 C 
BRANCH  17  18
ATOM     18  C   UNL     1      31.630 157.892 121.192  1.00  0.00    -0.000 C 
BRANCH  18  19
ATOM     19  C   UNL     1      30.115 157.670 121.345  1.00  0.00    -0.003 C 
ATOM     20  C   UNL     1      29.385 158.888 121.910  1.00  0.00     0.004 C 
ENDBRANCH  18  19
ENDBRANCH  17  18
ENDBRANCH  16  17
ENDBRANCH  15  16
ENDBRANCH  14  15
ENDBRANCH  13  14
ENDBRANCH  12  13
ENDBRANCH   1  12
TORSDOF 16
ENDMDL
