MODEL 1
REMARK VINA RESULT:     1.257      0.000      0.000
REMARK INTER + INTRA:           1.003
REMARK INTER:                   3.169
REMARK INTRA:                  -2.165
REMARK UNBOUND:                -2.165
REMARK SMILES CCCCCCCCCCCCCCCCCCCCCCCCCCCC(=O)[O-]
REMARK SMILES IDX 15 1 16 2 17 3 18 4 19 5 20 6 21 7 22 8 23 9 24 10 25 11
REMARK SMILES IDX 26 12 27 13 28 14 29 15 30 16 14 17 13 18 12 19 11 20 10 21
REMARK SMILES IDX 9 22 8 23 7 24 6 25 5 26 4 27 3 28 2 29 1 30
REMARK H PARENT
REMARK Flexibility Score: inf
ROOT
ATOM      1  C   UNL     1      18.534   1.466 -15.519  1.00  0.00     0.000 C 
ENDROOT
BRANCH   1   2
ATOM      2  C   UNL     1      18.925   1.477 -14.027  1.00  0.00     0.000 C 
BRANCH   2   3
ATOM      3  C   UNL     1      19.087   2.877 -13.403  1.00  0.00     0.000 C 
BRANCH   3   4
ATOM      4  C   UNL     1      20.162   3.762 -14.061  1.00  0.00     0.000 C 
BRANCH   4   5
ATOM      5  C   UNL     1      20.441   5.047 -13.270  1.00  0.00     0.000 C 
BRANCH   5   6
ATOM      6  C   UNL     1      21.912   5.116 -12.831  1.00  0.00     0.000 C 
BRANCH   6   7
ATOM      7  C   UNL     1      22.366   6.549 -12.509  1.00  0.00     0.000 C 
BRANCH   7   8
ATOM      8  C   UNL     1      21.846   7.038 -11.146  1.00  0.00     0.000 C 
BRANCH   8   9
ATOM      9  C   UNL     1      21.944   5.959 -10.056  1.00  0.00     0.000 C 
BRANCH   9  10
ATOM     10  C   UNL     1      20.772   6.008  -9.062  1.00  0.00     0.000 C 
BRANCH  10  11
ATOM     11  C   UNL     1      19.539   5.243  -9.567  1.00  0.00     0.000 C 
BRANCH  11  12
ATOM     12  C   UNL     1      18.488   6.171 -10.201  1.00  0.00     0.006 C 
BRANCH  12  13
ATOM     13  C   UNL     1      17.690   5.471 -11.308  1.00  0.00     0.053 C 
BRANCH  13  14
ATOM     14  C   UNL     1      16.642   4.560 -10.748  1.00  0.00     0.041 C 
ATOM     15  O   UNL     1      16.574   3.361 -11.127  1.00  0.00    -0.550 OA
ATOM     16  O   UNL     1      15.713   5.046  -9.836  1.00  0.00    -0.550 OA
ENDBRANCH  13  14
ENDBRANCH  12  13
ENDBRANCH  11  12
ENDBRANCH  10  11
ENDBRANCH   9  10
ENDBRANCH   8   9
ENDBRANCH   7   8
ENDBRANCH   6   7
ENDBRANCH   5   6
ENDBRANCH   4   5
ENDBRANCH   3   4
ENDBRANCH   2   3
ENDBRANCH   1   2
BRANCH   1  17
ATOM     17  C   UNL     1      19.460   0.636 -16.427  1.00  0.00     0.000 C 
BRANCH  17  18
ATOM     18  C   UNL     1      20.878   1.211 -16.607  1.00  0.00     0.000 C 
BRANCH  18  19
ATOM     19  C   UNL     1      21.733   0.448 -17.642  1.00  0.00     0.000 C 
BRANCH  19  20
ATOM     20  C   UNL     1      23.114   0.054 -17.090  1.00  0.00     0.000 C 
BRANCH  20  21
ATOM     21  C   UNL     1      23.794  -1.039 -17.930  1.00  0.00     0.000 C 
BRANCH  21  22
ATOM     22  C   UNL     1      24.737  -1.923 -17.100  1.00  0.00    -0.000 C 
BRANCH  22  23
ATOM     23  C   UNL     1      24.921  -3.295 -17.758  1.00  0.00    -0.000 C 
BRANCH  23  24
ATOM     24  C   UNL     1      24.017  -3.440 -18.992  1.00  0.00    -0.000 C 
BRANCH  24  25
ATOM     25  C   UNL     1      24.703  -2.985 -20.292  1.00  0.00    -0.000 C 
BRANCH  25  26
ATOM     26  C   UNL     1      26.230  -2.800 -20.196  1.00  0.00    -0.000 C 
BRANCH  26  27
ATOM     27  C   UNL     1      27.063  -3.782 -21.039  1.00  0.00    -0.000 C 
BRANCH  27  28
ATOM     28  C   UNL     1      26.193  -4.726 -21.886  1.00  0.00    -0.000 C 
BRANCH  28  29
ATOM     29  C   UNL     1      26.360  -6.201 -21.483  1.00  0.00    -0.003 C 
ATOM     30  C   UNL     1      25.585  -6.558 -20.213  1.00  0.00     0.004 C 
ENDBRANCH  28  29
ENDBRANCH  27  28
ENDBRANCH  26  27
ENDBRANCH  25  26
ENDBRANCH  24  25
ENDBRANCH  23  24
ENDBRANCH  22  23
ENDBRANCH  21  22
ENDBRANCH  20  21
ENDBRANCH  19  20
ENDBRANCH  18  19
ENDBRANCH  17  18
ENDBRANCH   1  17
TORSDOF 26
ENDMDL
MODEL 2
REMARK VINA RESULT:     1.740      5.316     13.054
REMARK INTER + INTRA:           2.220
REMARK INTER:                   2.179
REMARK INTRA:                   0.041
REMARK UNBOUND:                -2.165
REMARK SMILES CCCCCCCCCCCCCCCCCCCCCCCCCCCC(=O)[O-]
REMARK SMILES IDX 15 1 16 2 17 3 18 4 19 5 20 6 21 7 22 8 23 9 24 10 25 11
REMARK SMILES IDX 26 12 27 13 28 14 29 15 30 16 14 17 13 18 12 19 11 20 10 21
REMARK SMILES IDX 9 22 8 23 7 24 6 25 5 26 4 27 3 28 2 29 1 30
REMARK H PARENT
REMARK Flexibility Score: inf
ROOT
ATOM      1  C   UNL     1      26.597   2.915 -14.502  1.00  0.00     0.000 C 
ENDROOT
BRANCH   1   2
ATOM      2  C   UNL     1      25.303   2.078 -14.559  1.00  0.00     0.000 C 
BRANCH   2   3
ATOM      3  C   UNL     1      25.499   0.593 -14.922  1.00  0.00     0.000 C 
BRANCH   3   4
ATOM      4  C   UNL     1      24.588   0.073 -16.048  1.00  0.00     0.000 C 
BRANCH   4   5
ATOM      5  C   UNL     1      24.208  -1.404 -15.873  1.00  0.00     0.000 C 
BRANCH   5   6
ATOM      6  C   UNL     1      24.176  -2.129 -17.227  1.00  0.00     0.000 C 
BRANCH   6   7
ATOM      7  C   UNL     1      24.096  -1.157 -18.416  1.00  0.00     0.000 C 
BRANCH   7   8
ATOM      8  C   UNL     1      23.973  -1.886 -19.765  1.00  0.00     0.000 C 
BRANCH   8   9
ATOM      9  C   UNL     1      25.284  -2.569 -20.188  1.00  0.00     0.000 C 
BRANCH   9  10
ATOM     10  C   UNL     1      26.106  -3.073 -18.989  1.00  0.00     0.000 C 
BRANCH  10  11
ATOM     11  C   UNL     1      25.486  -4.315 -18.330  1.00  0.00     0.000 C 
BRANCH  11  12
ATOM     12  C   UNL     1      24.926  -5.311 -19.360  1.00  0.00     0.006 C 
BRANCH  12  13
ATOM     13  C   UNL     1      25.926  -6.426 -19.690  1.00  0.00     0.053 C 
BRANCH  13  14
ATOM     14  C   UNL     1      26.014  -6.676 -21.164  1.00  0.00     0.041 C 
ATOM     15  O   UNL     1      25.339  -7.600 -21.692  1.00  0.00    -0.550 OA
ATOM     16  O   UNL     1      26.872  -5.916 -21.949  1.00  0.00    -0.550 OA
ENDBRANCH  13  14
ENDBRANCH  12  13
ENDBRANCH  11  12
ENDBRANCH  10  11
ENDBRANCH   9  10
ENDBRANCH   8   9
ENDBRANCH   7   8
ENDBRANCH   6   7
ENDBRANCH   5   6
ENDBRANCH   4   5
ENDBRANCH   3   4
ENDBRANCH   2   3
ENDBRANCH   1   2
BRANCH   1  17
ATOM     17  C   UNL     1      26.386   4.441 -14.547  1.00  0.00     0.000 C 
BRANCH  17  18
ATOM     18  C   UNL     1      24.990   4.916 -14.101  1.00  0.00     0.000 C 
BRANCH  18  19
ATOM     19  C   UNL     1      24.843   6.452 -14.044  1.00  0.00     0.000 C 
BRANCH  19  20
ATOM     20  C   UNL     1      23.628   6.897 -13.211  1.00  0.00     0.000 C 
BRANCH  20  21
ATOM     21  C   UNL     1      22.815   5.708 -12.675  1.00  0.00     0.000 C 
BRANCH  21  22
ATOM     22  C   UNL     1      21.516   6.144 -11.980  1.00  0.00    -0.000 C 
BRANCH  22  23
ATOM     23  C   UNL     1      21.816   7.025 -10.763  1.00  0.00    -0.000 C 
BRANCH  23  24
ATOM     24  C   UNL     1      21.520   6.277  -9.454  1.00  0.00    -0.000 C 
BRANCH  24  25
ATOM     25  C   UNL     1      20.101   5.682  -9.414  1.00  0.00    -0.000 C 
BRANCH  25  26
ATOM     26  C   UNL     1      18.979   6.633  -9.874  1.00  0.00    -0.000 C 
BRANCH  26  27
ATOM     27  C   UNL     1      18.110   6.110 -11.032  1.00  0.00    -0.000 C 
BRANCH  27  28
ATOM     28  C   UNL     1      18.258   4.594 -11.248  1.00  0.00    -0.000 C 
BRANCH  28  29
ATOM     29  C   UNL     1      17.133   3.791 -10.575  1.00  0.00    -0.003 C 
ATOM     30  C   UNL     1      15.739   4.263 -10.991  1.00  0.00     0.004 C 
ENDBRANCH  28  29
ENDBRANCH  27  28
ENDBRANCH  26  27
ENDBRANCH  25  26
ENDBRANCH  24  25
ENDBRANCH  23  24
ENDBRANCH  22  23
ENDBRANCH  21  22
ENDBRANCH  20  21
ENDBRANCH  19  20
ENDBRANCH  18  19
ENDBRANCH  17  18
ENDBRANCH   1  17
TORSDOF 26
ENDMDL
MODEL 3
REMARK VINA RESULT:     1.799      4.978     12.636
REMARK INTER + INTRA:           2.369
REMARK INTER:                   4.295
REMARK INTRA:                  -1.926
REMARK UNBOUND:                -2.165
REMARK SMILES CCCCCCCCCCCCCCCCCCCCCCCCCCCC(=O)[O-]
REMARK SMILES IDX 15 1 16 2 17 3 18 4 19 5 20 6 21 7 22 8 23 9 24 10 25 11
REMARK SMILES IDX 26 12 27 13 28 14 29 15 30 16 14 17 13 18 12 19 11 20 10 21
REMARK SMILES IDX 9 22 8 23 7 24 6 25 5 26 4 27 3 28 2 29 1 30
REMARK H PARENT
REMARK Flexibility Score: inf
ROOT
ATOM      1  C   UNL     1      25.022   4.645 -14.063  1.00  0.00     0.000 C 
ENDROOT
BRANCH   1   2
ATOM      2  C   UNL     1      26.433   4.080 -14.327  1.00  0.00     0.000 C 
BRANCH   2   3
ATOM      3  C   UNL     1      26.471   2.629 -14.845  1.00  0.00     0.000 C 
BRANCH   3   4
ATOM      4  C   UNL     1      25.115   1.901 -14.841  1.00  0.00     0.000 C 
BRANCH   4   5
ATOM      5  C   UNL     1      25.258   0.376 -14.939  1.00  0.00     0.000 C 
BRANCH   5   6
ATOM      6  C   UNL     1      24.363  -0.190 -16.053  1.00  0.00     0.000 C 
BRANCH   6   7
ATOM      7  C   UNL     1      24.581  -1.695 -16.278  1.00  0.00     0.000 C 
BRANCH   7   8
ATOM      8  C   UNL     1      24.949  -2.024 -17.735  1.00  0.00     0.000 C 
BRANCH   8   9
ATOM      9  C   UNL     1      23.724  -2.035 -18.664  1.00  0.00     0.000 C 
BRANCH   9  10
ATOM     10  C   UNL     1      23.991  -2.762 -19.993  1.00  0.00     0.000 C 
BRANCH  10  11
ATOM     11  C   UNL     1      25.400  -2.489 -20.542  1.00  0.00     0.000 C 
BRANCH  11  12
ATOM     12  C   UNL     1      26.330  -3.708 -20.411  1.00  0.00     0.006 C 
BRANCH  12  13
ATOM     13  C   UNL     1      25.548  -5.016 -20.235  1.00  0.00     0.053 C 
BRANCH  13  14
ATOM     14  C   UNL     1      26.060  -6.095 -21.139  1.00  0.00     0.041 C 
ATOM     15  O   UNL     1      25.531  -7.238 -21.125  1.00  0.00    -0.550 OA
ATOM     16  O   UNL     1      27.148  -5.850 -21.968  1.00  0.00    -0.550 OA
ENDBRANCH  13  14
ENDBRANCH  12  13
ENDBRANCH  11  12
ENDBRANCH  10  11
ENDBRANCH   9  10
ENDBRANCH   8   9
ENDBRANCH   7   8
ENDBRANCH   6   7
ENDBRANCH   5   6
ENDBRANCH   4   5
ENDBRANCH   3   4
ENDBRANCH   2   3
ENDBRANCH   1   2
BRANCH   1  17
ATOM     17  C   UNL     1      24.916   6.181 -14.125  1.00  0.00     0.000 C 
BRANCH  17  18
ATOM     18  C   UNL     1      23.775   6.786 -13.286  1.00  0.00     0.000 C 
BRANCH  18  19
ATOM     19  C   UNL     1      22.527   5.881 -13.184  1.00  0.00     0.000 C 
BRANCH  19  20
ATOM     20  C   UNL     1      22.166   5.537 -11.728  1.00  0.00     0.000 C 
BRANCH  20  21
ATOM     21  C   UNL     1      21.869   6.787 -10.885  1.00  0.00     0.000 C 
BRANCH  21  22
ATOM     22  C   UNL     1      21.499   6.447  -9.434  1.00  0.00    -0.000 C 
BRANCH  22  23
ATOM     23  C   UNL     1      20.045   5.972  -9.337  1.00  0.00    -0.000 C 
BRANCH  23  24
ATOM     24  C   UNL     1      19.083   7.016  -9.926  1.00  0.00    -0.000 C 
BRANCH  24  25
ATOM     25  C   UNL     1      18.286   6.481 -11.129  1.00  0.00    -0.000 C 
BRANCH  25  26
ATOM     26  C   UNL     1      17.191   5.452 -10.783  1.00  0.00    -0.000 C 
BRANCH  26  27
ATOM     27  C   UNL     1      17.485   4.008 -11.228  1.00  0.00    -0.000 C 
BRANCH  27  28
ATOM     28  C   UNL     1      18.938   3.813 -11.692  1.00  0.00    -0.000 C 
BRANCH  28  29
ATOM     29  C   UNL     1      19.034   3.034 -13.014  1.00  0.00    -0.003 C 
ATOM     30  C   UNL     1      19.830   3.782 -14.084  1.00  0.00     0.004 C 
ENDBRANCH  28  29
ENDBRANCH  27  28
ENDBRANCH  26  27
ENDBRANCH  25  26
ENDBRANCH  24  25
ENDBRANCH  23  24
ENDBRANCH  22  23
ENDBRANCH  21  22
ENDBRANCH  20  21
ENDBRANCH  19  20
ENDBRANCH  18  19
ENDBRANCH  17  18
ENDBRANCH   1  17
TORSDOF 26
ENDMDL
MODEL 4
REMARK VINA RESULT:     1.977      2.516      5.021
REMARK INTER + INTRA:           2.817
REMARK INTER:                   4.646
REMARK INTRA:                  -1.829
REMARK UNBOUND:                -2.165
REMARK SMILES CCCCCCCCCCCCCCCCCCCCCCCCCCCC(=O)[O-]
REMARK SMILES IDX 15 1 16 2 17 3 18 4 19 5 20 6 21 7 22 8 23 9 24 10 25 11
REMARK SMILES IDX 26 12 27 13 28 14 29 15 30 16 14 17 13 18 12 19 11 20 10 21
REMARK SMILES IDX 9 22 8 23 7 24 6 25 5 26 4 27 3 28 2 29 1 30
REMARK H PARENT
REMARK Flexibility Score: inf
ROOT
ATOM      1  C   UNL     1      22.843   5.754 -12.937  1.00  0.00     0.000 C 
ENDROOT
BRANCH   1   2
ATOM      2  C   UNL     1      22.655   7.058 -12.135  1.00  0.00     0.000 C 
BRANCH   2   3
ATOM      3  C   UNL     1      21.370   7.125 -11.287  1.00  0.00     0.000 C 
BRANCH   3   4
ATOM      4  C   UNL     1      21.395   6.281 -10.000  1.00  0.00     0.000 C 
BRANCH   4   5
ATOM      5  C   UNL     1      19.991   5.951  -9.476  1.00  0.00     0.000 C 
BRANCH   5   6
ATOM      6  C   UNL     1      18.914   6.359 -10.493  1.00  0.00     0.000 C 
BRANCH   6   7
ATOM      7  C   UNL     1      17.889   5.241 -10.749  1.00  0.00     0.000 C 
BRANCH   7   8
ATOM      8  C   UNL     1      18.455   4.115 -11.631  1.00  0.00     0.000 C 
BRANCH   8   9
ATOM      9  C   UNL     1      19.390   4.643 -12.732  1.00  0.00     0.000 C 
BRANCH   9  10
ATOM     10  C   UNL     1      19.750   3.569 -13.773  1.00  0.00     0.000 C 
BRANCH  10  11
ATOM     11  C   UNL     1      19.014   2.242 -13.528  1.00  0.00     0.000 C 
BRANCH  11  12
ATOM     12  C   UNL     1      18.640   1.526 -14.838  1.00  0.00     0.006 C 
BRANCH  12  13
ATOM     13  C   UNL     1      17.729   0.316 -14.597  1.00  0.00     0.053 C 
BRANCH  13  14
ATOM     14  C   UNL     1      17.295  -0.319 -15.882  1.00  0.00     0.041 C 
ATOM     15  O   UNL     1      17.189   0.375 -16.928  1.00  0.00    -0.550 OA
ATOM     16  O   UNL     1      16.969  -1.669 -15.916  1.00  0.00    -0.550 OA
ENDBRANCH  13  14
ENDBRANCH  12  13
ENDBRANCH  11  12
ENDBRANCH  10  11
ENDBRANCH   9  10
ENDBRANCH   8   9
ENDBRANCH   7   8
ENDBRANCH   6   7
ENDBRANCH   5   6
ENDBRANCH   4   5
ENDBRANCH   3   4
ENDBRANCH   2   3
ENDBRANCH   1   2
BRANCH   1  17
ATOM     17  C   UNL     1      24.242   5.568 -13.555  1.00  0.00     0.000 C 
BRANCH  17  18
ATOM     18  C   UNL     1      24.453   4.233 -14.294  1.00  0.00     0.000 C 
BRANCH  18  19
ATOM     19  C   UNL     1      25.937   3.830 -14.441  1.00  0.00     0.000 C 
BRANCH  19  20
ATOM     20  C   UNL     1      26.130   2.304 -14.489  1.00  0.00     0.000 C 
BRANCH  20  21
ATOM     21  C   UNL     1      24.958   1.584 -15.175  1.00  0.00     0.000 C 
BRANCH  21  22
ATOM     22  C   UNL     1      25.119   0.056 -15.174  1.00  0.00    -0.000 C 
BRANCH  22  23
ATOM     23  C   UNL     1      24.608  -0.549 -16.485  1.00  0.00    -0.000 C 
BRANCH  23  24
ATOM     24  C   UNL     1      24.313  -2.048 -16.323  1.00  0.00    -0.000 C 
BRANCH  24  25
ATOM     25  C   UNL     1      24.407  -2.823 -17.649  1.00  0.00    -0.000 C 
BRANCH  25  26
ATOM     26  C   UNL     1      25.825  -3.289 -18.037  1.00  0.00    -0.000 C 
BRANCH  26  27
ATOM     27  C   UNL     1      26.286  -2.879 -19.447  1.00  0.00    -0.000 C 
BRANCH  27  28
ATOM     28  C   UNL     1      25.808  -3.854 -20.536  1.00  0.00    -0.000 C 
BRANCH  28  29
ATOM     29  C   UNL     1      25.627  -5.285 -20.005  1.00  0.00    -0.003 C 
ATOM     30  C   UNL     1      25.763  -6.344 -21.101  1.00  0.00     0.004 C 
ENDBRANCH  28  29
ENDBRANCH  27  28
ENDBRANCH  26  27
ENDBRANCH  25  26
ENDBRANCH  24  25
ENDBRANCH  23  24
ENDBRANCH  22  23
ENDBRANCH  21  22
ENDBRANCH  20  21
ENDBRANCH  19  20
ENDBRANCH  18  19
ENDBRANCH  17  18
ENDBRANCH   1  17
TORSDOF 26
ENDMDL
MODEL 5
REMARK VINA RESULT:     1.998      4.531     12.768
REMARK INTER + INTRA:           2.870
REMARK INTER:                   4.223
REMARK INTRA:                  -1.353
REMARK UNBOUND:                -2.165
REMARK SMILES CCCCCCCCCCCCCCCCCCCCCCCCCCCC(=O)[O-]
REMARK SMILES IDX 15 1 16 2 17 3 18 4 19 5 20 6 21 7 22 8 23 9 24 10 25 11
REMARK SMILES IDX 26 12 27 13 28 14 29 15 30 16 14 17 13 18 12 19 11 20 10 21
REMARK SMILES IDX 9 22 8 23 7 24 6 25 5 26 4 27 3 28 2 29 1 30
REMARK H PARENT
REMARK Flexibility Score: inf
ROOT
ATOM      1  C   UNL     1      20.434   1.079 -16.526  1.00  0.00     0.000 C 
ENDROOT
BRANCH   1   2
ATOM      2  C   UNL     1      21.400   0.486 -17.572  1.00  0.00     0.000 C 
BRANCH   2   3
ATOM      3  C   UNL     1      22.874   0.407 -17.132  1.00  0.00     0.000 C 
BRANCH   3   4
ATOM      4  C   UNL     1      23.683  -0.738 -17.768  1.00  0.00     0.000 C 
BRANCH   4   5
ATOM      5  C   UNL     1      24.034  -1.847 -16.767  1.00  0.00     0.000 C 
BRANCH   5   6
ATOM      6  C   UNL     1      25.517  -2.237 -16.875  1.00  0.00     0.000 C 
BRANCH   6   7
ATOM      7  C   UNL     1      25.748  -3.421 -17.828  1.00  0.00     0.000 C 
BRANCH   7   8
ATOM      8  C   UNL     1      24.447  -4.175 -18.156  1.00  0.00     0.000 C 
BRANCH   8   9
ATOM      9  C   UNL     1      24.055  -4.056 -19.637  1.00  0.00     0.000 C 
BRANCH   9  10
ATOM     10  C   UNL     1      24.826  -2.944 -20.370  1.00  0.00     0.000 C 
BRANCH  10  11
ATOM     11  C   UNL     1      26.207  -3.409 -20.859  1.00  0.00     0.000 C 
BRANCH  11  12
ATOM     12  C   UNL     1      26.112  -4.477 -21.963  1.00  0.00     0.006 C 
BRANCH  12  13
ATOM     13  C   UNL     1      26.896  -5.747 -21.608  1.00  0.00     0.053 C 
BRANCH  13  14
ATOM     14  C   UNL     1      26.018  -6.785 -20.980  1.00  0.00     0.041 C 
ATOM     15  O   UNL     1      25.395  -7.610 -21.700  1.00  0.00    -0.550 OA
ATOM     16  O   UNL     1      25.856  -6.817 -19.601  1.00  0.00    -0.550 OA
ENDBRANCH  13  14
ENDBRANCH  12  13
ENDBRANCH  11  12
ENDBRANCH  10  11
ENDBRANCH   9  10
ENDBRANCH   8   9
ENDBRANCH   7   8
ENDBRANCH   6   7
ENDBRANCH   5   6
ENDBRANCH   4   5
ENDBRANCH   3   4
ENDBRANCH   2   3
ENDBRANCH   1   2
BRANCH   1  17
ATOM     17  C   UNL     1      19.016   0.478 -16.537  1.00  0.00     0.000 C 
BRANCH  17  18
ATOM     18  C   UNL     1      18.150   0.837 -15.315  1.00  0.00     0.000 C 
BRANCH  18  19
ATOM     19  C   UNL     1      18.939   1.494 -14.162  1.00  0.00     0.000 C 
BRANCH  19  20
ATOM     20  C   UNL     1      19.096   3.014 -14.346  1.00  0.00     0.000 C 
BRANCH  20  21
ATOM     21  C   UNL     1      19.890   3.666 -13.203  1.00  0.00     0.000 C 
BRANCH  21  22
ATOM     22  C   UNL     1      20.941   4.666 -13.708  1.00  0.00    -0.000 C 
BRANCH  22  23
ATOM     23  C   UNL     1      21.797   5.190 -12.550  1.00  0.00    -0.000 C 
BRANCH  23  24
ATOM     24  C   UNL     1      21.231   6.508 -11.998  1.00  0.00    -0.000 C 
BRANCH  24  25
ATOM     25  C   UNL     1      21.395   6.635 -10.473  1.00  0.00    -0.000 C 
BRANCH  25  26
ATOM     26  C   UNL     1      20.136   6.300  -9.648  1.00  0.00    -0.000 C 
BRANCH  26  27
ATOM     27  C   UNL     1      19.190   5.268 -10.288  1.00  0.00    -0.000 C 
BRANCH  27  28
ATOM     28  C   UNL     1      17.913   5.907 -10.861  1.00  0.00    -0.000 C 
BRANCH  28  29
ATOM     29  C   UNL     1      16.703   4.961 -10.797  1.00  0.00    -0.003 C 
ATOM     30  C   UNL     1      17.104   3.486 -10.794  1.00  0.00     0.004 C 
ENDBRANCH  28  29
ENDBRANCH  27  28
ENDBRANCH  26  27
ENDBRANCH  25  26
ENDBRANCH  24  25
ENDBRANCH  23  24
ENDBRANCH  22  23
ENDBRANCH  21  22
ENDBRANCH  20  21
ENDBRANCH  19  20
ENDBRANCH  18  19
ENDBRANCH  17  18
ENDBRANCH   1  17
TORSDOF 26
ENDMDL
MODEL 6
REMARK VINA RESULT:     2.202      4.403     10.371
REMARK INTER + INTRA:           3.384
REMARK INTER:                   5.318
REMARK INTRA:                  -1.934
REMARK UNBOUND:                -2.165
REMARK SMILES CCCCCCCCCCCCCCCCCCCCCCCCCCCC(=O)[O-]
REMARK SMILES IDX 15 1 16 2 17 3 18 4 19 5 20 6 21 7 22 8 23 9 24 10 25 11
REMARK SMILES IDX 26 12 27 13 28 14 29 15 30 16 14 17 13 18 12 19 11 20 10 21
REMARK SMILES IDX 9 22 8 23 7 24 6 25 5 26 4 27 3 28 2 29 1 30
REMARK H PARENT
REMARK Flexibility Score: inf
ROOT
ATOM      1  C   UNL     1      21.666   7.033 -11.579  1.00  0.00     0.000 C 
ENDROOT
BRANCH   1   2
ATOM      2  C   UNL     1      22.707   6.720 -12.674  1.00  0.00     0.000 C 
BRANCH   2   3
ATOM      3  C   UNL     1      23.158   5.248 -12.747  1.00  0.00     0.000 C 
BRANCH   3   4
ATOM      4  C   UNL     1      23.877   4.852 -14.049  1.00  0.00     0.000 C 
BRANCH   4   5
ATOM      5  C   UNL     1      25.326   4.402 -13.816  1.00  0.00     0.000 C 
BRANCH   5   6
ATOM      6  C   UNL     1      25.669   3.179 -14.681  1.00  0.00     0.000 C 
BRANCH   6   7
ATOM      7  C   UNL     1      24.656   2.034 -14.513  1.00  0.00     0.000 C 
BRANCH   7   8
ATOM      8  C   UNL     1      25.200   0.689 -15.023  1.00  0.00     0.000 C 
BRANCH   8   9
ATOM      9  C   UNL     1      24.351   0.104 -16.165  1.00  0.00     0.000 C 
BRANCH   9  10
ATOM     10  C   UNL     1      24.246  -1.429 -16.104  1.00  0.00     0.000 C 
BRANCH  10  11
ATOM     11  C   UNL     1      25.135  -2.122 -17.148  1.00  0.00     0.000 C 
BRANCH  11  12
ATOM     12  C   UNL     1      24.450  -2.239 -18.521  1.00  0.00     0.006 C 
BRANCH  12  13
ATOM     13  C   UNL     1      24.220  -3.700 -18.931  1.00  0.00     0.053 C 
BRANCH  13  14
ATOM     14  C   UNL     1      25.246  -4.168 -19.915  1.00  0.00     0.041 C 
ATOM     15  O   UNL     1      25.607  -5.375 -19.930  1.00  0.00    -0.550 OA
ATOM     16  O   UNL     1      25.835  -3.264 -20.791  1.00  0.00    -0.550 OA
ENDBRANCH  13  14
ENDBRANCH  12  13
ENDBRANCH  11  12
ENDBRANCH  10  11
ENDBRANCH   9  10
ENDBRANCH   8   9
ENDBRANCH   7   8
ENDBRANCH   6   7
ENDBRANCH   5   6
ENDBRANCH   4   5
ENDBRANCH   3   4
ENDBRANCH   2   3
ENDBRANCH   1   2
BRANCH   1  17
ATOM     17  C   UNL     1      21.601   6.006 -10.433  1.00  0.00     0.000 C 
BRANCH  17  18
ATOM     18  C   UNL     1      20.296   6.030  -9.614  1.00  0.00     0.000 C 
BRANCH  18  19
ATOM     19  C   UNL     1      19.177   6.885 -10.249  1.00  0.00     0.000 C 
BRANCH  19  20
ATOM     20  C   UNL     1      18.040   6.027 -10.832  1.00  0.00     0.000 C 
BRANCH  20  21
ATOM     21  C   UNL     1      18.289   4.521 -10.656  1.00  0.00     0.000 C 
BRANCH  21  22
ATOM     22  C   UNL     1      18.237   3.753 -11.985  1.00  0.00    -0.000 C 
BRANCH  22  23
ATOM     23  C   UNL     1      19.437   4.109 -12.870  1.00  0.00    -0.000 C 
BRANCH  23  24
ATOM     24  C   UNL     1      19.700   3.009 -13.910  1.00  0.00    -0.000 C 
BRANCH  24  25
ATOM     25  C   UNL     1      18.705   1.840 -13.809  1.00  0.00    -0.000 C 
BRANCH  25  26
ATOM     26  C   UNL     1      18.458   1.074 -15.124  1.00  0.00    -0.000 C 
BRANCH  26  27
ATOM     27  C   UNL     1      17.226   0.152 -15.123  1.00  0.00    -0.000 C 
BRANCH  27  28
ATOM     28  C   UNL     1      17.437  -1.123 -15.958  1.00  0.00    -0.000 C 
BRANCH  28  29
ATOM     29  C   UNL     1      16.744  -1.051 -17.328  1.00  0.00    -0.003 C 
ATOM     30  C   UNL     1      17.081   0.229 -18.094  1.00  0.00     0.004 C 
ENDBRANCH  28  29
ENDBRANCH  27  28
ENDBRANCH  26  27
ENDBRANCH  25  26
ENDBRANCH  24  25
ENDBRANCH  23  24
ENDBRANCH  22  23
ENDBRANCH  21  22
ENDBRANCH  20  21
ENDBRANCH  19  20
ENDBRANCH  18  19
ENDBRANCH  17  18
ENDBRANCH   1  17
TORSDOF 26
ENDMDL
MODEL 7
REMARK VINA RESULT:     2.240      2.579      3.918
REMARK INTER + INTRA:           3.479
REMARK INTER:                   5.301
REMARK INTRA:                  -1.822
REMARK UNBOUND:                -2.165
REMARK SMILES CCCCCCCCCCCCCCCCCCCCCCCCCCCC(=O)[O-]
REMARK SMILES IDX 15 1 16 2 17 3 18 4 19 5 20 6 21 7 22 8 23 9 24 10 25 11
REMARK SMILES IDX 26 12 27 13 28 14 29 15 30 16 14 17 13 18 12 19 11 20 10 21
REMARK SMILES IDX 9 22 8 23 7 24 6 25 5 26 4 27 3 28 2 29 1 30
REMARK H PARENT
REMARK Flexibility Score: inf
ROOT
ATOM      1  C   UNL     1      19.008   2.193 -14.386  1.00  0.00     0.000 C 
ENDROOT
BRANCH   1   2
ATOM      2  C   UNL     1      18.620   2.141 -12.894  1.00  0.00     0.000 C 
BRANCH   2   3
ATOM      3  C   UNL     1      18.478   3.513 -12.206  1.00  0.00     0.000 C 
BRANCH   3   4
ATOM      4  C   UNL     1      17.461   3.559 -11.051  1.00  0.00     0.000 C 
BRANCH   4   5
ATOM      5  C   UNL     1      17.002   4.985 -10.718  1.00  0.00     0.000 C 
BRANCH   5   6
ATOM      6  C   UNL     1      18.016   6.023 -11.225  1.00  0.00     0.000 C 
BRANCH   6   7
ATOM      7  C   UNL     1      18.822   6.666 -10.086  1.00  0.00     0.000 C 
BRANCH   7   8
ATOM      8  C   UNL     1      20.033   5.814  -9.668  1.00  0.00     0.000 C 
BRANCH   8   9
ATOM      9  C   UNL     1      21.340   6.623  -9.636  1.00  0.00     0.000 C 
BRANCH   9  10
ATOM     10  C   UNL     1      21.791   7.082 -11.034  1.00  0.00     0.000 C 
BRANCH  10  11
ATOM     11  C   UNL     1      21.450   6.058 -12.128  1.00  0.00     0.000 C 
BRANCH  11  12
ATOM     12  C   UNL     1      22.471   4.909 -12.199  1.00  0.00     0.006 C 
BRANCH  12  13
ATOM     13  C   UNL     1      23.039   4.726 -13.611  1.00  0.00     0.053 C 
BRANCH  13  14
ATOM     14  C   UNL     1      24.343   5.443 -13.783  1.00  0.00     0.041 C 
ATOM     15  O   UNL     1      24.441   6.663 -13.486  1.00  0.00    -0.550 OA
ATOM     16  O   UNL     1      25.440   4.773 -14.311  1.00  0.00    -0.550 OA
ENDBRANCH  13  14
ENDBRANCH  12  13
ENDBRANCH  11  12
ENDBRANCH  10  11
ENDBRANCH   9  10
ENDBRANCH   8   9
ENDBRANCH   7   8
ENDBRANCH   6   7
ENDBRANCH   5   6
ENDBRANCH   4   5
ENDBRANCH   3   4
ENDBRANCH   2   3
ENDBRANCH   1   2
BRANCH   1  17
ATOM     17  C   UNL     1      18.496   1.012 -15.231  1.00  0.00     0.000 C 
BRANCH  17  18
ATOM     18  C   UNL     1      19.319   0.716 -16.499  1.00  0.00     0.000 C 
BRANCH  18  19
ATOM     19  C   UNL     1      20.748   1.301 -16.465  1.00  0.00     0.000 C 
BRANCH  19  20
ATOM     20  C   UNL     1      21.676   0.648 -17.505  1.00  0.00     0.000 C 
BRANCH  20  21
ATOM     21  C   UNL     1      22.757  -0.232 -16.859  1.00  0.00     0.000 C 
BRANCH  21  22
ATOM     22  C   UNL     1      23.994  -0.402 -17.753  1.00  0.00    -0.000 C 
BRANCH  22  23
ATOM     23  C   UNL     1      23.588  -0.601 -19.217  1.00  0.00    -0.000 C 
BRANCH  23  24
ATOM     24  C   UNL     1      24.015  -1.987 -19.725  1.00  0.00    -0.000 C 
BRANCH  24  25
ATOM     25  C   UNL     1      25.152  -2.604 -18.892  1.00  0.00    -0.000 C 
BRANCH  25  26
ATOM     26  C   UNL     1      26.462  -2.864 -19.662  1.00  0.00    -0.000 C 
BRANCH  26  27
ATOM     27  C   UNL     1      26.391  -3.981 -20.719  1.00  0.00    -0.000 C 
BRANCH  27  28
ATOM     28  C   UNL     1      25.610  -5.213 -20.231  1.00  0.00    -0.000 C 
BRANCH  28  29
ATOM     29  C   UNL     1      25.879  -6.458 -21.092  1.00  0.00    -0.003 C 
ATOM     30  C   UNL     1      25.285  -7.732 -20.491  1.00  0.00     0.004 C 
ENDBRANCH  28  29
ENDBRANCH  27  28
ENDBRANCH  26  27
ENDBRANCH  25  26
ENDBRANCH  24  25
ENDBRANCH  23  24
ENDBRANCH  22  23
ENDBRANCH  21  22
ENDBRANCH  20  21
ENDBRANCH  19  20
ENDBRANCH  18  19
ENDBRANCH  17  18
ENDBRANCH   1  17
TORSDOF 26
ENDMDL
MODEL 8
REMARK VINA RESULT:     2.505      4.687     11.288
REMARK INTER + INTRA:           4.147
REMARK INTER:                   5.916
REMARK INTRA:                  -1.769
REMARK UNBOUND:                -2.165
REMARK SMILES CCCCCCCCCCCCCCCCCCCCCCCCCCCC(=O)[O-]
REMARK SMILES IDX 15 1 16 2 17 3 18 4 19 5 20 6 21 7 22 8 23 9 24 10 25 11
REMARK SMILES IDX 26 12 27 13 28 14 29 15 30 16 14 17 13 18 12 19 11 20 10 21
REMARK SMILES IDX 9 22 8 23 7 24 6 25 5 26 4 27 3 28 2 29 1 30
REMARK H PARENT
REMARK Flexibility Score: inf
ROOT
ATOM      1  C   UNL     1      23.745   6.411 -13.374  1.00  0.00     0.000 C 
ENDROOT
BRANCH   1   2
ATOM      2  C   UNL     1      25.006   5.935 -14.124  1.00  0.00     0.000 C 
BRANCH   2   3
ATOM      3  C   UNL     1      25.044   4.430 -14.452  1.00  0.00     0.000 C 
BRANCH   3   4
ATOM      4  C   UNL     1      26.422   3.763 -14.287  1.00  0.00     0.000 C 
BRANCH   4   5
ATOM      5  C   UNL     1      26.451   2.319 -14.806  1.00  0.00     0.000 C 
BRANCH   5   6
ATOM      6  C   UNL     1      25.029   1.752 -14.936  1.00  0.00     0.000 C 
BRANCH   6   7
ATOM      7  C   UNL     1      25.019   0.266 -15.329  1.00  0.00     0.000 C 
BRANCH   7   8
ATOM      8  C   UNL     1      23.927  -0.063 -16.362  1.00  0.00     0.000 C 
BRANCH   8   9
ATOM      9  C   UNL     1      24.296  -1.265 -17.246  1.00  0.00     0.000 C 
BRANCH   9  10
ATOM     10  C   UNL     1      25.202  -2.278 -16.526  1.00  0.00     0.000 C 
BRANCH  10  11
ATOM     11  C   UNL     1      25.545  -3.491 -17.406  1.00  0.00     0.000 C 
BRANCH  11  12
ATOM     12  C   UNL     1      25.500  -3.160 -18.908  1.00  0.00     0.006 C 
BRANCH  12  13
ATOM     13  C   UNL     1      24.745  -4.226 -19.712  1.00  0.00     0.053 C 
BRANCH  13  14
ATOM     14  C   UNL     1      25.670  -5.037 -20.566  1.00  0.00     0.041 C 
ATOM     15  O   UNL     1      25.731  -6.287 -20.426  1.00  0.00    -0.550 OA
ATOM     16  O   UNL     1      26.495  -4.407 -21.490  1.00  0.00    -0.550 OA
ENDBRANCH  13  14
ENDBRANCH  12  13
ENDBRANCH  11  12
ENDBRANCH  10  11
ENDBRANCH   9  10
ENDBRANCH   8   9
ENDBRANCH   7   8
ENDBRANCH   6   7
ENDBRANCH   5   6
ENDBRANCH   4   5
ENDBRANCH   3   4
ENDBRANCH   2   3
ENDBRANCH   1   2
BRANCH   1  17
ATOM     17  C   UNL     1      22.760   5.292 -12.985  1.00  0.00     0.000 C 
BRANCH  17  18
ATOM     18  C   UNL     1      22.029   5.507 -11.647  1.00  0.00     0.000 C 
BRANCH  18  19
ATOM     19  C   UNL     1      21.117   6.753 -11.627  1.00  0.00     0.000 C 
BRANCH  19  20
ATOM     20  C   UNL     1      20.615   7.093 -10.212  1.00  0.00     0.000 C 
BRANCH  20  21
ATOM     21  C   UNL     1      19.248   6.463  -9.905  1.00  0.00     0.000 C 
BRANCH  21  22
ATOM     22  C   UNL     1      18.450   6.133 -11.175  1.00  0.00    -0.000 C 
BRANCH  22  23
ATOM     23  C   UNL     1      17.463   4.989 -10.919  1.00  0.00    -0.000 C 
BRANCH  23  24
ATOM     24  C   UNL     1      17.902   3.709 -11.648  1.00  0.00    -0.000 C 
BRANCH  24  25
ATOM     25  C   UNL     1      19.245   3.870 -12.382  1.00  0.00    -0.000 C 
BRANCH  25  26
ATOM     26  C   UNL     1      19.358   3.104 -13.715  1.00  0.00    -0.000 C 
BRANCH  26  27
ATOM     27  C   UNL     1      18.595   1.768 -13.771  1.00  0.00    -0.000 C 
BRANCH  27  28
ATOM     28  C   UNL     1      18.583   1.149 -15.179  1.00  0.00    -0.000 C 
BRANCH  28  29
ATOM     29  C   UNL     1      17.270   0.408 -15.484  1.00  0.00    -0.003 C 
ATOM     30  C   UNL     1      17.500  -0.996 -16.046  1.00  0.00     0.004 C 
ENDBRANCH  28  29
ENDBRANCH  27  28
ENDBRANCH  26  27
ENDBRANCH  25  26
ENDBRANCH  24  25
ENDBRANCH  23  24
ENDBRANCH  22  23
ENDBRANCH  21  22
ENDBRANCH  20  21
ENDBRANCH  19  20
ENDBRANCH  18  19
ENDBRANCH  17  18
ENDBRANCH   1  17
TORSDOF 26
ENDMDL
