MODEL 1
REMARK VINA RESULT:    -6.440      0.000      0.000
REMARK INTER + INTRA:          -6.842
REMARK INTER:                  -7.005
REMARK INTRA:                   0.163
REMARK UNBOUND:                 0.163
REMARK SMILES C[C@@H]1[C@H]2C3=CC[C@@H]4[C@@]5(C)CC[C@@H](O)C(C)(C)[C@H]5CC[C@@]4(C)[C@@]3(C)CC[C@]2(C(=O)[O-])CC[C@@H]1C
REMARK SMILES IDX 26 1 30 2 25 3 3 4 31 5 24 6 4 7 2 8 32 9 22 10 5 11 1 12
REMARK SMILES IDX 33 13 23 14 20 15 6 16 7 17 19 18 21 19 8 20 18 21 17 22
REMARK SMILES IDX 10 23 9 24 14 25 11 26 12 27 15 28 16 29 27 30 28 31 29 32
REMARK SMILES IDX 13 33
REMARK H PARENT 13 34
REMARK Flexibility Score: inf
ROOT
ATOM      1  C   UNL     1     -14.001  54.067   8.844  1.00  0.00     0.017 C 
ATOM      2  C   UNL     1     -12.877  55.136   8.896  1.00  0.00     0.014 C 
ATOM      3  C   UNL     1     -13.389  52.774   8.274  1.00  0.00     0.014 C 
ATOM      4  C   UNL     1     -14.529  53.813  10.307  1.00  0.00     0.030 C 
ATOM      5  C   UNL     1     -13.382  56.471   9.451  1.00  0.00     0.004 C 
ATOM      6  C   UNL     1     -14.455  51.692   8.103  1.00  0.00     0.013 C 
ATOM      7  C   UNL     1     -15.425  52.536  10.383  1.00  0.00    -0.063 C 
ATOM      8  C   UNL     1     -15.093  55.192  10.873  1.00  0.00    -0.003 C 
ATOM      9  C   UNL     1     -13.999  56.312  10.849  1.00  0.00    -0.011 C 
ATOM     10  C   UNL     1     -15.179  51.313   9.444  1.00  0.00    -0.006 C 
ATOM     11  C   UNL     1     -16.050  52.210  11.548  1.00  0.00    -0.027 C 
ATOM     12  C   UNL     1     -15.759  55.179  12.262  1.00  0.00     0.008 C 
ATOM     13  C   UNL     1     -12.901  56.142  11.922  1.00  0.00     0.008 C 
ATOM     14  C   UNL     1     -14.106  50.453  10.222  1.00  0.00     0.017 C 
ATOM     15  C   UNL     1     -16.573  50.484   9.172  1.00  0.00    -0.020 C 
ATOM     16  C   UNL     1     -16.980  51.027  11.657  1.00  0.00     0.032 C 
ATOM     17  C   UNL     1     -17.640  50.792  10.289  1.00  0.00     0.006 C 
ATOM     18  C   UNL     1     -17.296  50.900   7.843  1.00  0.00     0.008 C 
ATOM     19  C   UNL     1     -16.219  48.968   9.062  1.00  0.00     0.012 C 
ATOM     20  C   UNL     1     -18.987  49.935  10.270  1.00  0.00    -0.025 C 
ATOM     21  C   UNL     1     -18.841  50.703   7.785  1.00  0.00     0.005 C 
ATOM     22  C   UNL     1     -19.440  49.644   8.762  1.00  0.00     0.003 C 
ATOM     23  C   UNL     1     -20.071  50.776  11.033  1.00  0.00     0.010 C 
ATOM     24  C   UNL     1     -18.779  48.602  11.049  1.00  0.00     0.012 C 
ATOM     25  C   UNL     1     -20.999  49.369   8.524  1.00  0.00    -0.006 C 
ATOM     26  C   UNL     1     -21.512  50.312  10.841  1.00  0.00     0.033 C 
ATOM     27  C   UNL     1     -21.899  50.320   9.365  1.00  0.00     0.120 C 
ATOM     28  C   UNL     1     -21.406  49.522   7.029  1.00  0.00     0.014 C 
ATOM     29  C   UNL     1     -21.348  47.890   8.865  1.00  0.00     0.014 C 
ENDROOT
BRANCH   1  30
ATOM     30  C   UNL     1     -15.094  54.547   7.883  1.00  0.00     0.048 C 
ATOM     31  O   UNL     1     -16.302  54.591   8.238  1.00  0.00    -0.550 OA
ATOM     32  O   UNL     1     -14.775  54.854   6.565  1.00  0.00    -0.550 OA
ENDBRANCH   1  30
BRANCH  27  33
ATOM     33  O   UNL     1     -21.821  51.644   8.886  1.00  0.00    -0.393 OA
ATOM     34  H   UNL     1     -22.732  51.909   8.590  1.00  0.00     0.210 HD
ENDBRANCH  27  33
TORSDOF 2
ENDMDL
MODEL 2
REMARK VINA RESULT:    -6.391      1.842      2.682
REMARK INTER + INTRA:          -6.788
REMARK INTER:                  -6.952
REMARK INTRA:                   0.165
REMARK UNBOUND:                 0.163
REMARK SMILES C[C@@H]1[C@H]2C3=CC[C@@H]4[C@@]5(C)CC[C@@H](O)C(C)(C)[C@H]5CC[C@@]4(C)[C@@]3(C)CC[C@]2(C(=O)[O-])CC[C@@H]1C
REMARK SMILES IDX 26 1 30 2 25 3 3 4 31 5 24 6 4 7 2 8 32 9 22 10 5 11 1 12
REMARK SMILES IDX 33 13 23 14 20 15 6 16 7 17 19 18 21 19 8 20 18 21 17 22
REMARK SMILES IDX 10 23 9 24 14 25 11 26 12 27 15 28 16 29 27 30 28 31 29 32
REMARK SMILES IDX 13 33
REMARK H PARENT 13 34
REMARK Flexibility Score: inf
ROOT
ATOM      1  C   UNL     1     -14.328  54.825   9.796  1.00  0.00     0.017 C 
ATOM      2  C   UNL     1     -13.278  55.964   9.883  1.00  0.00     0.014 C 
ATOM      3  C   UNL     1     -14.063  53.856  10.964  1.00  0.00     0.014 C 
ATOM      4  C   UNL     1     -15.769  55.450   9.933  1.00  0.00     0.030 C 
ATOM      5  C   UNL     1     -13.454  56.991   8.760  1.00  0.00     0.004 C 
ATOM      6  C   UNL     1     -14.999  52.650  10.900  1.00  0.00     0.013 C 
ATOM      7  C   UNL     1     -16.853  54.352  10.176  1.00  0.00    -0.063 C 
ATOM      8  C   UNL     1     -15.970  56.488   8.741  1.00  0.00    -0.003 C 
ATOM      9  C   UNL     1     -14.865  57.598   8.755  1.00  0.00    -0.011 C 
ATOM     10  C   UNL     1     -16.520  53.039  10.953  1.00  0.00    -0.006 C 
ATOM     11  C   UNL     1     -18.170  54.692  10.224  1.00  0.00    -0.027 C 
ATOM     12  C   UNL     1     -17.347  57.163   8.602  1.00  0.00     0.008 C 
ATOM     13  C   UNL     1     -15.026  58.632   9.891  1.00  0.00     0.008 C 
ATOM     14  C   UNL     1     -16.756  53.429  12.466  1.00  0.00     0.017 C 
ATOM     15  C   UNL     1     -17.484  51.799  10.465  1.00  0.00    -0.020 C 
ATOM     16  C   UNL     1     -19.261  53.664  10.388  1.00  0.00     0.032 C 
ATOM     17  C   UNL     1     -18.788  52.341   9.765  1.00  0.00     0.006 C 
ATOM     18  C   UNL     1     -16.825  50.891   9.369  1.00  0.00     0.008 C 
ATOM     19  C   UNL     1     -17.781  50.901  11.706  1.00  0.00     0.012 C 
ATOM     20  C   UNL     1     -19.912  51.272   9.386  1.00  0.00    -0.025 C 
ATOM     21  C   UNL     1     -17.785  50.138   8.400  1.00  0.00     0.005 C 
ATOM     22  C   UNL     1     -19.238  49.899   8.914  1.00  0.00     0.003 C 
ATOM     23  C   UNL     1     -20.771  51.906   8.234  1.00  0.00     0.010 C 
ATOM     24  C   UNL     1     -20.850  51.033  10.607  1.00  0.00     0.012 C 
ATOM     25  C   UNL     1     -20.111  48.970   7.945  1.00  0.00    -0.006 C 
ATOM     26  C   UNL     1     -21.678  50.933   7.487  1.00  0.00     0.033 C 
ATOM     27  C   UNL     1     -20.872  49.796   6.867  1.00  0.00     0.120 C 
ATOM     28  C   UNL     1     -19.246  47.903   7.210  1.00  0.00     0.014 C 
ATOM     29  C   UNL     1     -21.131  48.131   8.771  1.00  0.00     0.014 C 
ENDROOT
BRANCH   1  30
ATOM     30  C   UNL     1     -14.123  54.064   8.482  1.00  0.00     0.048 C 
ATOM     31  O   UNL     1     -15.084  53.845   7.698  1.00  0.00    -0.550 OA
ATOM     32  O   UNL     1     -12.880  53.519   8.181  1.00  0.00    -0.550 OA
ENDBRANCH   1  30
BRANCH  27  33
ATOM     33  O   UNL     1     -19.977  50.339   5.923  1.00  0.00    -0.393 OA
ATOM     34  H   UNL     1     -20.339  51.220   5.639  1.00  0.00     0.210 HD
ENDBRANCH  27  33
TORSDOF 2
ENDMDL
MODEL 3
REMARK VINA RESULT:    -6.137      1.670      7.615
REMARK INTER + INTRA:          -6.512
REMARK INTER:                  -6.723
REMARK INTRA:                   0.211
REMARK UNBOUND:                 0.163
REMARK SMILES C[C@@H]1[C@H]2C3=CC[C@@H]4[C@@]5(C)CC[C@@H](O)C(C)(C)[C@H]5CC[C@@]4(C)[C@@]3(C)CC[C@]2(C(=O)[O-])CC[C@@H]1C
REMARK SMILES IDX 26 1 30 2 25 3 3 4 31 5 24 6 4 7 2 8 32 9 22 10 5 11 1 12
REMARK SMILES IDX 33 13 23 14 20 15 6 16 7 17 19 18 21 19 8 20 18 21 17 22
REMARK SMILES IDX 10 23 9 24 14 25 11 26 12 27 15 28 16 29 27 30 28 31 29 32
REMARK SMILES IDX 13 33
REMARK H PARENT 13 34
REMARK Flexibility Score: inf
ROOT
ATOM      1  C   UNL     1     -19.957  49.969  11.067  1.00  0.00     0.017 C 
ATOM      2  C   UNL     1     -21.048  48.867  11.033  1.00  0.00     0.014 C 
ATOM      3  C   UNL     1     -18.851  49.501  12.031  1.00  0.00     0.014 C 
ATOM      4  C   UNL     1     -19.366  50.146   9.616  1.00  0.00     0.030 C 
ATOM      5  C   UNL     1     -22.204  49.235  10.097  1.00  0.00     0.004 C 
ATOM      6  C   UNL     1     -17.775  50.573  12.195  1.00  0.00     0.013 C 
ATOM      7  C   UNL     1     -18.057  50.997   9.626  1.00  0.00    -0.063 C 
ATOM      8  C   UNL     1     -20.560  50.570   8.648  1.00  0.00    -0.003 C 
ATOM      9  C   UNL     1     -21.716  49.514   8.667  1.00  0.00    -0.011 C 
ATOM     10  C   UNL     1     -17.079  50.969  10.844  1.00  0.00    -0.006 C 
ATOM     11  C   UNL     1     -17.455  51.336   8.454  1.00  0.00    -0.027 C 
ATOM     12  C   UNL     1     -20.213  50.898   7.184  1.00  0.00     0.008 C 
ATOM     13  C   UNL     1     -21.379  48.198   7.932  1.00  0.00     0.008 C 
ATOM     14  C   UNL     1     -16.131  49.743  10.535  1.00  0.00     0.017 C 
ATOM     15  C   UNL     1     -16.253  52.386  10.974  1.00  0.00    -0.020 C 
ATOM     16  C   UNL     1     -16.228  52.213   8.404  1.00  0.00     0.032 C 
ATOM     17  C   UNL     1     -16.257  53.168   9.607  1.00  0.00     0.006 C 
ATOM     18  C   UNL     1     -16.906  53.396  11.982  1.00  0.00     0.008 C 
ATOM     19  C   UNL     1     -14.818  52.061  11.493  1.00  0.00     0.012 C 
ATOM     20  C   UNL     1     -15.353  54.481   9.514  1.00  0.00    -0.025 C 
ATOM     21  C   UNL     1     -16.642  54.912  11.736  1.00  0.00     0.005 C 
ATOM     22  C   UNL     1     -15.368  55.267  10.909  1.00  0.00     0.003 C 
ATOM     23  C   UNL     1     -15.951  55.363   8.361  1.00  0.00     0.010 C 
ATOM     24  C   UNL     1     -13.896  54.096   9.116  1.00  0.00     0.012 C 
ATOM     25  C   UNL     1     -15.067  56.839  10.847  1.00  0.00    -0.006 C 
ATOM     26  C   UNL     1     -15.462  56.808   8.325  1.00  0.00     0.033 C 
ATOM     27  C   UNL     1     -15.766  57.524   9.637  1.00  0.00     0.120 C 
ATOM     28  C   UNL     1     -15.515  57.578  12.142  1.00  0.00     0.014 C 
ATOM     29  C   UNL     1     -13.533  57.095  10.773  1.00  0.00     0.014 C 
ENDROOT
BRANCH   1  30
ATOM     30  C   UNL     1     -20.573  51.256  11.629  1.00  0.00     0.048 C 
ATOM     31  O   UNL     1     -20.285  52.382  11.145  1.00  0.00    -0.550 OA
ATOM     32  O   UNL     1     -21.391  51.202  12.752  1.00  0.00    -0.550 OA
ENDBRANCH   1  30
BRANCH  27  33
ATOM     33  O   UNL     1     -17.164  57.563   9.817  1.00  0.00    -0.393 OA
ATOM     34  H   UNL     1     -17.368  58.334  10.409  1.00  0.00     0.210 HD
ENDBRANCH  27  33
TORSDOF 2
ENDMDL
MODEL 4
REMARK VINA RESULT:    -5.996      3.056      5.974
REMARK INTER + INTRA:          -6.358
REMARK INTER:                  -6.520
REMARK INTRA:                   0.162
REMARK UNBOUND:                 0.163
REMARK SMILES C[C@@H]1[C@H]2C3=CC[C@@H]4[C@@]5(C)CC[C@@H](O)C(C)(C)[C@H]5CC[C@@]4(C)[C@@]3(C)CC[C@]2(C(=O)[O-])CC[C@@H]1C
REMARK SMILES IDX 26 1 30 2 25 3 3 4 31 5 24 6 4 7 2 8 32 9 22 10 5 11 1 12
REMARK SMILES IDX 33 13 23 14 20 15 6 16 7 17 19 18 21 19 8 20 18 21 17 22
REMARK SMILES IDX 10 23 9 24 14 25 11 26 12 27 15 28 16 29 27 30 28 31 29 32
REMARK SMILES IDX 13 33
REMARK H PARENT 13 34
REMARK Flexibility Score: inf
ROOT
ATOM      1  C   UNL     1     -16.977  49.164   9.295  1.00  0.00     0.017 C 
ATOM      2  C   UNL     1     -16.185  47.877   8.944  1.00  0.00     0.014 C 
ATOM      3  C   UNL     1     -18.336  48.731   9.875  1.00  0.00     0.014 C 
ATOM      4  C   UNL     1     -16.168  49.982  10.372  1.00  0.00     0.030 C 
ATOM      5  C   UNL     1     -14.807  48.195   8.354  1.00  0.00     0.004 C 
ATOM      6  C   UNL     1     -19.220  49.944  10.164  1.00  0.00     0.013 C 
ATOM      7  C   UNL     1     -17.036  51.113  11.009  1.00  0.00    -0.063 C 
ATOM      8  C   UNL     1     -14.749  50.350   9.747  1.00  0.00    -0.003 C 
ATOM      9  C   UNL     1     -13.968  49.069   9.300  1.00  0.00    -0.011 C 
ATOM     10  C   UNL     1     -18.579  50.954  11.181  1.00  0.00    -0.006 C 
ATOM     11  C   UNL     1     -16.478  51.985  11.892  1.00  0.00    -0.027 C 
ATOM     12  C   UNL     1     -13.807  51.239  10.580  1.00  0.00     0.008 C 
ATOM     13  C   UNL     1     -13.408  48.233  10.473  1.00  0.00     0.008 C 
ATOM     14  C   UNL     1     -18.728  50.228  12.577  1.00  0.00     0.017 C 
ATOM     15  C   UNL     1     -19.335  52.415  11.149  1.00  0.00    -0.020 C 
ATOM     16  C   UNL     1     -17.252  53.137  12.483  1.00  0.00     0.032 C 
ATOM     17  C   UNL     1     -18.324  53.579  11.474  1.00  0.00     0.006 C 
ATOM     18  C   UNL     1     -19.895  52.795   9.733  1.00  0.00     0.008 C 
ATOM     19  C   UNL     1     -20.543  52.356  12.135  1.00  0.00     0.012 C 
ATOM     20  C   UNL     1     -18.931  55.045  11.654  1.00  0.00    -0.025 C 
ATOM     21  C   UNL     1     -20.033  54.312   9.410  1.00  0.00     0.005 C 
ATOM     22  C   UNL     1     -20.145  55.273  10.634  1.00  0.00     0.003 C 
ATOM     23  C   UNL     1     -17.763  56.056  11.378  1.00  0.00     0.010 C 
ATOM     24  C   UNL     1     -19.403  55.247  13.125  1.00  0.00     0.012 C 
ATOM     25  C   UNL     1     -20.460  56.789  10.227  1.00  0.00    -0.006 C 
ATOM     26  C   UNL     1     -18.192  57.504  11.156  1.00  0.00     0.033 C 
ATOM     27  C   UNL     1     -19.164  57.615   9.985  1.00  0.00     0.120 C 
ATOM     28  C   UNL     1     -21.338  56.887   8.944  1.00  0.00     0.014 C 
ATOM     29  C   UNL     1     -21.317  57.480  11.329  1.00  0.00     0.014 C 
ENDROOT
BRANCH   1  30
ATOM     30  C   UNL     1     -17.232  49.953   8.005  1.00  0.00     0.048 C 
ATOM     31  O   UNL     1     -16.939  51.175   7.919  1.00  0.00    -0.550 OA
ATOM     32  O   UNL     1     -17.883  49.346   6.937  1.00  0.00    -0.550 OA
ENDBRANCH   1  30
BRANCH  27  33
ATOM     33  O   UNL     1     -18.507  57.192   8.812  1.00  0.00    -0.393 OA
ATOM     34  H   UNL     1     -19.204  56.995   8.132  1.00  0.00     0.210 HD
ENDBRANCH  27  33
TORSDOF 2
ENDMDL
MODEL 5
REMARK VINA RESULT:    -5.798      2.320      3.363
REMARK INTER + INTRA:          -6.143
REMARK INTER:                  -6.336
REMARK INTRA:                   0.193
REMARK UNBOUND:                 0.163
REMARK SMILES C[C@@H]1[C@H]2C3=CC[C@@H]4[C@@]5(C)CC[C@@H](O)C(C)(C)[C@H]5CC[C@@]4(C)[C@@]3(C)CC[C@]2(C(=O)[O-])CC[C@@H]1C
REMARK SMILES IDX 26 1 30 2 25 3 3 4 31 5 24 6 4 7 2 8 32 9 22 10 5 11 1 12
REMARK SMILES IDX 33 13 23 14 20 15 6 16 7 17 19 18 21 19 8 20 18 21 17 22
REMARK SMILES IDX 10 23 9 24 14 25 11 26 12 27 15 28 16 29 27 30 28 31 29 32
REMARK SMILES IDX 13 33
REMARK H PARENT 13 34
REMARK Flexibility Score: inf
ROOT
ATOM      1  C   UNL     1     -14.581  56.467   8.773  1.00  0.00     0.017 C 
ATOM      2  C   UNL     1     -13.760  57.767   8.571  1.00  0.00     0.014 C 
ATOM      3  C   UNL     1     -13.965  55.705   9.961  1.00  0.00     0.014 C 
ATOM      4  C   UNL     1     -16.075  56.853   9.100  1.00  0.00     0.030 C 
ATOM      5  C   UNL     1     -14.293  58.606   7.406  1.00  0.00     0.004 C 
ATOM      6  C   UNL     1     -14.661  54.361  10.172  1.00  0.00     0.013 C 
ATOM      7  C   UNL     1     -16.886  55.628   9.627  1.00  0.00    -0.063 C 
ATOM      8  C   UNL     1     -16.645  57.691   7.870  1.00  0.00    -0.003 C 
ATOM      9  C   UNL     1     -15.776  58.963   7.589  1.00  0.00    -0.011 C 
ATOM     10  C   UNL     1     -16.200  54.493  10.452  1.00  0.00    -0.006 C 
ATOM     11  C   UNL     1     -18.220  55.747   9.871  1.00  0.00    -0.027 C 
ATOM     12  C   UNL     1     -18.128  58.104   7.910  1.00  0.00     0.008 C 
ATOM     13  C   UNL     1     -15.948  60.087   8.636  1.00  0.00     0.008 C 
ATOM     14  C   UNL     1     -16.268  55.019  11.940  1.00  0.00     0.017 C 
ATOM     15  C   UNL     1     -16.983  53.060  10.254  1.00  0.00    -0.020 C 
ATOM     16  C   UNL     1     -19.064  54.578  10.315  1.00  0.00     0.032 C 
ATOM     17  C   UNL     1     -18.455  53.287   9.744  1.00  0.00     0.006 C 
ATOM     18  C   UNL     1     -16.343  52.148   9.149  1.00  0.00     0.008 C 
ATOM     19  C   UNL     1     -16.913  52.282  11.606  1.00  0.00     0.012 C 
ATOM     20  C   UNL     1     -19.408  52.008   9.666  1.00  0.00    -0.025 C 
ATOM     21  C   UNL     1     -17.285  51.134   8.435  1.00  0.00     0.005 C 
ATOM     22  C   UNL     1     -18.572  50.719   9.213  1.00  0.00     0.003 C 
ATOM     23  C   UNL     1     -20.535  52.344   8.627  1.00  0.00     0.010 C 
ATOM     24  C   UNL     1     -20.085  51.765  11.048  1.00  0.00     0.012 C 
ATOM     25  C   UNL     1     -19.397  49.547   8.499  1.00  0.00    -0.006 C 
ATOM     26  C   UNL     1     -21.352  51.150   8.140  1.00  0.00     0.033 C 
ATOM     27  C   UNL     1     -20.454  50.097   7.498  1.00  0.00     0.120 C 
ATOM     28  C   UNL     1     -18.474  48.558   7.727  1.00  0.00     0.014 C 
ATOM     29  C   UNL     1     -20.105  48.656   9.563  1.00  0.00     0.014 C 
ENDROOT
BRANCH   1  30
ATOM     30  C   UNL     1     -14.444  55.597   7.519  1.00  0.00     0.048 C 
ATOM     31  O   UNL     1     -15.436  54.991   7.033  1.00  0.00    -0.550 OA
ATOM     32  O   UNL     1     -13.192  55.388   6.952  1.00  0.00    -0.550 OA
ENDBRANCH   1  30
BRANCH  27  33
ATOM     33  O   UNL     1     -19.832  50.663   6.367  1.00  0.00    -0.393 OA
ATOM     34  H   UNL     1     -19.714  49.940   5.696  1.00  0.00     0.210 HD
ENDBRANCH  27  33
TORSDOF 2
ENDMDL
MODEL 6
REMARK VINA RESULT:    -5.707      3.434      6.186
REMARK INTER + INTRA:          -6.045
REMARK INTER:                  -6.210
REMARK INTRA:                   0.166
REMARK UNBOUND:                 0.163
REMARK SMILES C[C@@H]1[C@H]2C3=CC[C@@H]4[C@@]5(C)CC[C@@H](O)C(C)(C)[C@H]5CC[C@@]4(C)[C@@]3(C)CC[C@]2(C(=O)[O-])CC[C@@H]1C
REMARK SMILES IDX 26 1 30 2 25 3 3 4 31 5 24 6 4 7 2 8 32 9 22 10 5 11 1 12
REMARK SMILES IDX 33 13 23 14 20 15 6 16 7 17 19 18 21 19 8 20 18 21 17 22
REMARK SMILES IDX 10 23 9 24 14 25 11 26 12 27 15 28 16 29 27 30 28 31 29 32
REMARK SMILES IDX 13 33
REMARK H PARENT 13 34
REMARK Flexibility Score: inf
ROOT
ATOM      1  C   UNL     1     -16.653  50.276   9.578  1.00  0.00     0.017 C 
ATOM      2  C   UNL     1     -15.873  48.960   9.318  1.00  0.00     0.014 C 
ATOM      3  C   UNL     1     -17.360  50.138  10.939  1.00  0.00     0.014 C 
ATOM      4  C   UNL     1     -15.630  51.475   9.623  1.00  0.00     0.030 C 
ATOM      5  C   UNL     1     -15.127  48.992   7.980  1.00  0.00     0.004 C 
ATOM      6  C   UNL     1     -18.230  51.360  11.232  1.00  0.00     0.013 C 
ATOM      7  C   UNL     1     -16.285  52.772  10.192  1.00  0.00    -0.063 C 
ATOM      8  C   UNL     1     -14.881  51.535   8.217  1.00  0.00    -0.003 C 
ATOM      9  C   UNL     1     -14.161  50.183   7.891  1.00  0.00    -0.011 C 
ATOM     10  C   UNL     1     -17.422  52.707  11.260  1.00  0.00    -0.006 C 
ATOM     11  C   UNL     1     -15.582  53.937  10.217  1.00  0.00    -0.027 C 
ATOM     12  C   UNL     1     -13.894  52.692   7.980  1.00  0.00     0.008 C 
ATOM     13  C   UNL     1     -12.891  49.929   8.732  1.00  0.00     0.008 C 
ATOM     14  C   UNL     1     -16.643  52.649  12.634  1.00  0.00     0.017 C 
ATOM     15  C   UNL     1     -18.413  54.015  11.154  1.00  0.00    -0.020 C 
ATOM     16  C   UNL     1     -16.190  55.233  10.693  1.00  0.00     0.032 C 
ATOM     17  C   UNL     1     -17.699  55.203  10.405  1.00  0.00     0.006 C 
ATOM     18  C   UNL     1     -19.699  53.754  10.294  1.00  0.00     0.008 C 
ATOM     19  C   UNL     1     -18.877  54.388  12.597  1.00  0.00     0.012 C 
ATOM     20  C   UNL     1     -18.460  56.607  10.369  1.00  0.00    -0.025 C 
ATOM     21  C   UNL     1     -20.350  54.987   9.599  1.00  0.00     0.005 C 
ATOM     22  C   UNL     1     -20.039  56.380  10.230  1.00  0.00     0.003 C 
ATOM     23  C   UNL     1     -17.892  57.399   9.138  1.00  0.00     0.010 C 
ATOM     24  C   UNL     1     -18.133  57.422  11.656  1.00  0.00     0.012 C 
ATOM     25  C   UNL     1     -20.878  57.577   9.574  1.00  0.00    -0.006 C 
ATOM     26  C   UNL     1     -18.711  58.613   8.710  1.00  0.00     0.033 C 
ATOM     27  C   UNL     1     -20.142  58.215   8.361  1.00  0.00     0.120 C 
ATOM     28  C   UNL     1     -22.287  57.118   9.094  1.00  0.00     0.014 C 
ATOM     29  C   UNL     1     -21.176  58.676  10.637  1.00  0.00     0.014 C 
ENDROOT
BRANCH   1  30
ATOM     30  C   UNL     1     -17.723  50.437   8.492  1.00  0.00     0.048 C 
ATOM     31  O   UNL     1     -17.883  51.533   7.891  1.00  0.00    -0.550 OA
ATOM     32  O   UNL     1     -18.601  49.394   8.222  1.00  0.00    -0.550 OA
ENDBRANCH   1  30
BRANCH  27  33
ATOM     33  O   UNL     1     -20.110  57.329   7.266  1.00  0.00    -0.393 OA
ATOM     34  H   UNL     1     -19.695  56.482   7.578  1.00  0.00     0.210 HD
ENDBRANCH  27  33
TORSDOF 2
ENDMDL
MODEL 7
REMARK VINA RESULT:    -5.702      1.676      7.513
REMARK INTER + INTRA:          -6.038
REMARK INTER:                  -6.215
REMARK INTRA:                   0.177
REMARK UNBOUND:                 0.163
REMARK SMILES C[C@@H]1[C@H]2C3=CC[C@@H]4[C@@]5(C)CC[C@@H](O)C(C)(C)[C@H]5CC[C@@]4(C)[C@@]3(C)CC[C@]2(C(=O)[O-])CC[C@@H]1C
REMARK SMILES IDX 26 1 30 2 25 3 3 4 31 5 24 6 4 7 2 8 32 9 22 10 5 11 1 12
REMARK SMILES IDX 33 13 23 14 20 15 6 16 7 17 19 18 21 19 8 20 18 21 17 22
REMARK SMILES IDX 10 23 9 24 14 25 11 26 12 27 15 28 16 29 27 30 28 31 29 32
REMARK SMILES IDX 13 33
REMARK H PARENT 13 34
REMARK Flexibility Score: inf
ROOT
ATOM      1  C   UNL     1     -18.867  50.795  11.057  1.00  0.00     0.017 C 
ATOM      2  C   UNL     1     -19.881  49.668  11.386  1.00  0.00     0.014 C 
ATOM      3  C   UNL     1     -17.809  50.814  12.176  1.00  0.00     0.014 C 
ATOM      4  C   UNL     1     -18.181  50.475   9.674  1.00  0.00     0.030 C 
ATOM      5  C   UNL     1     -20.984  49.562  10.329  1.00  0.00     0.004 C 
ATOM      6  C   UNL     1     -16.819  51.960  11.976  1.00  0.00     0.013 C 
ATOM      7  C   UNL     1     -16.933  51.379   9.426  1.00  0.00    -0.063 C 
ATOM      8  C   UNL     1     -19.323  50.405   8.563  1.00  0.00    -0.003 C 
ATOM      9  C   UNL     1     -20.408  49.335   8.922  1.00  0.00    -0.011 C 
ATOM     10  C   UNL     1     -16.050  51.888  10.609  1.00  0.00    -0.006 C 
ATOM     11  C   UNL     1     -16.268  51.313   8.240  1.00  0.00    -0.027 C 
ATOM     12  C   UNL     1     -18.889  50.199   7.101  1.00  0.00     0.008 C 
ATOM     13  C   UNL     1     -19.934  47.875   8.749  1.00  0.00     0.008 C 
ATOM     14  C   UNL     1     -15.006  50.722  10.825  1.00  0.00     0.017 C 
ATOM     15  C   UNL     1     -15.328  53.319  10.238  1.00  0.00    -0.020 C 
ATOM     16  C   UNL     1     -15.098  52.212   7.923  1.00  0.00     0.032 C 
ATOM     17  C   UNL     1     -15.278  53.538   8.679  1.00  0.00     0.006 C 
ATOM     18  C   UNL     1     -16.117  54.569  10.763  1.00  0.00     0.008 C 
ATOM     19  C   UNL     1     -13.918  53.335  10.907  1.00  0.00     0.012 C 
ATOM     20  C   UNL     1     -14.454  54.797   8.143  1.00  0.00    -0.025 C 
ATOM     21  C   UNL     1     -15.933  55.903   9.981  1.00  0.00     0.005 C 
ATOM     22  C   UNL     1     -14.624  56.038   9.141  1.00  0.00     0.003 C 
ATOM     23  C   UNL     1     -15.019  55.135   6.718  1.00  0.00     0.010 C 
ATOM     24  C   UNL     1     -12.951  54.420   7.986  1.00  0.00     0.012 C 
ATOM     25  C   UNL     1     -14.420  57.495   8.510  1.00  0.00    -0.006 C 
ATOM     26  C   UNL     1     -14.621  56.501   6.167  1.00  0.00     0.033 C 
ATOM     27  C   UNL     1     -15.068  57.622   7.101  1.00  0.00     0.120 C 
ATOM     28  C   UNL     1     -15.010  58.619   9.412  1.00  0.00     0.014 C 
ATOM     29  C   UNL     1     -12.904  57.838   8.416  1.00  0.00     0.014 C 
ENDROOT
BRANCH   1  30
ATOM     30  C   UNL     1     -19.604  52.139  11.067  1.00  0.00     0.048 C 
ATOM     31  O   UNL     1     -19.560  52.915  10.076  1.00  0.00    -0.550 OA
ATOM     32  O   UNL     1     -20.258  52.564  12.219  1.00  0.00    -0.550 OA
ENDBRANCH   1  30
BRANCH  27  33
ATOM     33  O   UNL     1     -16.475  57.603   7.188  1.00  0.00    -0.393 OA
ATOM     34  H   UNL     1     -16.809  56.962   6.506  1.00  0.00     0.210 HD
ENDBRANCH  27  33
TORSDOF 2
ENDMDL
MODEL 8
REMARK VINA RESULT:    -5.427      1.611      2.128
REMARK INTER + INTRA:          -5.739
REMARK INTER:                  -5.939
REMARK INTRA:                   0.199
REMARK UNBOUND:                 0.163
REMARK SMILES C[C@@H]1[C@H]2C3=CC[C@@H]4[C@@]5(C)CC[C@@H](O)C(C)(C)[C@H]5CC[C@@]4(C)[C@@]3(C)CC[C@]2(C(=O)[O-])CC[C@@H]1C
REMARK SMILES IDX 26 1 30 2 25 3 3 4 31 5 24 6 4 7 2 8 32 9 22 10 5 11 1 12
REMARK SMILES IDX 33 13 23 14 20 15 6 16 7 17 19 18 21 19 8 20 18 21 17 22
REMARK SMILES IDX 10 23 9 24 14 25 11 26 12 27 15 28 16 29 27 30 28 31 29 32
REMARK SMILES IDX 13 33
REMARK H PARENT 13 34
REMARK Flexibility Score: inf
ROOT
ATOM      1  C   UNL     1     -15.170  56.081   9.161  1.00  0.00     0.017 C 
ATOM      2  C   UNL     1     -14.362  57.405   9.117  1.00  0.00     0.014 C 
ATOM      3  C   UNL     1     -14.792  55.262   7.912  1.00  0.00     0.014 C 
ATOM      4  C   UNL     1     -14.776  55.286  10.464  1.00  0.00     0.030 C 
ATOM      5  C   UNL     1     -14.665  58.300  10.322  1.00  0.00     0.004 C 
ATOM      6  C   UNL     1     -15.615  53.977   7.829  1.00  0.00     0.013 C 
ATOM      7  C   UNL     1     -15.297  53.815  10.423  1.00  0.00    -0.063 C 
ATOM      8  C   UNL     1     -15.128  56.200  11.722  1.00  0.00    -0.003 C 
ATOM      9  C   UNL     1     -14.393  57.580  11.652  1.00  0.00    -0.011 C 
ATOM     10  C   UNL     1     -15.432  53.038   9.075  1.00  0.00    -0.006 C 
ATOM     11  C   UNL     1     -15.135  53.004  11.503  1.00  0.00    -0.027 C 
ATOM     12  C   UNL     1     -14.922  55.599  13.124  1.00  0.00     0.008 C 
ATOM     13  C   UNL     1     -12.877  57.501  11.938  1.00  0.00     0.008 C 
ATOM     14  C   UNL     1     -14.001  52.405   8.862  1.00  0.00     0.017 C 
ATOM     15  C   UNL     1     -16.617  51.901   9.161  1.00  0.00    -0.020 C 
ATOM     16  C   UNL     1     -15.679  51.597  11.542  1.00  0.00     0.032 C 
ATOM     17  C   UNL     1     -16.936  51.531  10.659  1.00  0.00     0.006 C 
ATOM     18  C   UNL     1     -17.997  52.395   8.600  1.00  0.00     0.008 C 
ATOM     19  C   UNL     1     -16.172  50.674   8.307  1.00  0.00     0.012 C 
ATOM     20  C   UNL     1     -17.941  50.317  10.915  1.00  0.00    -0.025 C 
ATOM     21  C   UNL     1     -19.278  51.724   9.178  1.00  0.00     0.005 C 
ATOM     22  C   UNL     1     -19.094  50.307   9.805  1.00  0.00     0.003 C 
ATOM     23  C   UNL     1     -18.541  50.520  12.352  1.00  0.00     0.010 C 
ATOM     24  C   UNL     1     -17.158  48.970  10.908  1.00  0.00     0.012 C 
ATOM     25  C   UNL     1     -20.476  49.609  10.216  1.00  0.00    -0.006 C 
ATOM     26  C   UNL     1     -19.772  49.677  12.669  1.00  0.00     0.033 C 
ATOM     27  C   UNL     1     -20.896  49.950  11.675  1.00  0.00     0.120 C 
ATOM     28  C   UNL     1     -21.647  50.012   9.272  1.00  0.00     0.014 C 
ATOM     29  C   UNL     1     -20.371  48.063  10.055  1.00  0.00     0.014 C 
ENDROOT
BRANCH   1  30
ATOM     30  C   UNL     1     -16.665  56.413   9.085  1.00  0.00     0.048 C 
ATOM     31  O   UNL     1     -17.101  57.280   8.283  1.00  0.00    -0.550 OA
ATOM     32  O   UNL     1     -17.553  55.822   9.977  1.00  0.00    -0.550 OA
ENDBRANCH   1  30
BRANCH  27  33
ATOM     33  O   UNL     1     -21.278  51.303  11.786  1.00  0.00    -0.393 OA
ATOM     34  H   UNL     1     -20.498  51.858  11.520  1.00  0.00     0.210 HD
ENDBRANCH  27  33
TORSDOF 2
ENDMDL
MODEL 9
REMARK VINA RESULT:    -5.336      2.172      7.582
REMARK INTER + INTRA:          -5.640
REMARK INTER:                  -5.825
REMARK INTRA:                   0.184
REMARK UNBOUND:                 0.163
REMARK SMILES C[C@@H]1[C@H]2C3=CC[C@@H]4[C@@]5(C)CC[C@@H](O)C(C)(C)[C@H]5CC[C@@]4(C)[C@@]3(C)CC[C@]2(C(=O)[O-])CC[C@@H]1C
REMARK SMILES IDX 26 1 30 2 25 3 3 4 31 5 24 6 4 7 2 8 32 9 22 10 5 11 1 12
REMARK SMILES IDX 33 13 23 14 20 15 6 16 7 17 19 18 21 19 8 20 18 21 17 22
REMARK SMILES IDX 10 23 9 24 14 25 11 26 12 27 15 28 16 29 27 30 28 31 29 32
REMARK SMILES IDX 13 33
REMARK H PARENT 13 34
REMARK Flexibility Score: inf
ROOT
ATOM      1  C   UNL     1     -18.602  52.184  12.032  1.00  0.00     0.017 C 
ATOM      2  C   UNL     1     -19.584  51.149  12.642  1.00  0.00     0.014 C 
ATOM      3  C   UNL     1     -17.477  52.420  13.057  1.00  0.00     0.014 C 
ATOM      4  C   UNL     1     -18.001  51.592  10.700  1.00  0.00     0.030 C 
ATOM      5  C   UNL     1     -20.749  50.840  11.698  1.00  0.00     0.004 C 
ATOM      6  C   UNL     1     -16.511  53.500  12.571  1.00  0.00     0.013 C 
ATOM      7  C   UNL     1     -16.778  52.424  10.200  1.00  0.00    -0.063 C 
ATOM      8  C   UNL     1     -19.209  51.308   9.699  1.00  0.00    -0.003 C 
ATOM      9  C   UNL     1     -20.260  50.335  10.331  1.00  0.00    -0.011 C 
ATOM     10  C   UNL     1     -15.828  53.155  11.200  1.00  0.00    -0.006 C 
ATOM     11  C   UNL     1     -16.187  52.121   9.012  1.00  0.00    -0.027 C 
ATOM     12  C   UNL     1     -18.864  50.813   8.283  1.00  0.00     0.008 C 
ATOM     13  C   UNL     1     -19.785  48.868  10.422  1.00  0.00     0.008 C 
ATOM     14  C   UNL     1     -14.762  52.051  11.578  1.00  0.00     0.017 C 
ATOM     15  C   UNL     1     -15.142  54.480  10.508  1.00  0.00    -0.020 C 
ATOM     16  C   UNL     1     -15.047  52.934   8.449  1.00  0.00     0.032 C 
ATOM     17  C   UNL     1     -15.191  54.385   8.937  1.00  0.00     0.006 C 
ATOM     18  C   UNL     1     -15.908  55.813  10.823  1.00  0.00     0.008 C 
ATOM     19  C   UNL     1     -13.694  54.624  11.071  1.00  0.00     0.012 C 
ATOM     20  C   UNL     1     -14.414  55.509   8.111  1.00  0.00    -0.025 C 
ATOM     21  C   UNL     1     -15.784  56.965   9.781  1.00  0.00     0.005 C 
ATOM     22  C   UNL     1     -14.532  56.924   8.851  1.00  0.00     0.003 C 
ATOM     23  C   UNL     1     -15.069  55.560   6.685  1.00  0.00     0.010 C 
ATOM     24  C   UNL     1     -12.919  55.102   7.938  1.00  0.00     0.012 C 
ATOM     25  C   UNL     1     -14.380  58.226   7.931  1.00  0.00    -0.006 C 
ATOM     26  C   UNL     1     -14.718  56.787   5.850  1.00  0.00     0.033 C 
ATOM     27  C   UNL     1     -15.115  58.073   6.569  1.00  0.00     0.120 C 
ATOM     28  C   UNL     1     -14.922  59.509   8.628  1.00  0.00     0.014 C 
ATOM     29  C   UNL     1     -12.875  58.538   7.677  1.00  0.00     0.014 C 
ENDROOT
BRANCH   1  30
ATOM     30  C   UNL     1     -19.348  53.506  11.822  1.00  0.00     0.048 C 
ATOM     31  O   UNL     1     -20.014  54.035  12.751  1.00  0.00    -0.550 OA
ATOM     32  O   UNL     1     -19.376  54.096  10.563  1.00  0.00    -0.550 OA
ENDBRANCH   1  30
BRANCH  27  33
ATOM     33  O   UNL     1     -16.513  58.077   6.746  1.00  0.00    -0.393 OA
ATOM     34  H   UNL     1     -16.693  57.984   7.718  1.00  0.00     0.210 HD
ENDBRANCH  27  33
TORSDOF 2
ENDMDL
