MODEL 1
REMARK VINA RESULT:    -6.071      0.000      0.000
REMARK INTER + INTRA:          -7.556
REMARK INTER:                  -7.314
REMARK INTRA:                  -0.242
REMARK UNBOUND:                -0.242
REMARK SMILES O=c1c(O)c(-c2ccc(O)c(O)c2)oc2cc(O)cc(O)c12
REMARK SMILES IDX 5 1 3 2 2 3 1 4 22 5 20 6 19 7 17 8 16 9 15 10 14 11 6 12
REMARK SMILES IDX 7 13 8 14 9 15 13 16 11 17 10 18 12 20 4 22 21 24 18 26
REMARK H PARENT 10 19 12 21 4 23 21 25 18 27
REMARK Flexibility Score: inf
ROOT
ATOM      1  C   UNL     1      62.155  -7.967  -4.031  1.00  0.00     0.180 A 
ATOM      2  C   UNL     1      62.633  -8.874  -3.070  1.00  0.00     0.208 A 
ATOM      3  C   UNL     1      62.539  -8.537  -1.710  1.00  0.00     0.238 A 
ATOM      4  O   UNL     1      62.919  -9.375  -0.851  1.00  0.00    -0.285 OA
ATOM      5  C   UNL     1      61.983  -7.291  -1.329  1.00  0.00     0.111 A 
ATOM      6  C   UNL     1      61.875  -6.829   0.016  1.00  0.00     0.134 A 
ATOM      7  C   UNL     1      61.190  -5.637   0.285  1.00  0.00     0.093 A 
ATOM      8  C   UNL     1      60.666  -4.859  -0.751  1.00  0.00     0.123 A 
ATOM      9  C   UNL     1      60.819  -5.272  -2.072  1.00  0.00     0.094 A 
ATOM     10  C   UNL     1      61.466  -6.474  -2.368  1.00  0.00     0.146 A 
ATOM     11  O   UNL     1      61.581  -6.836  -3.641  1.00  0.00    -0.452 OA
ENDROOT
BRANCH   1  12
ATOM     12  C   UNL     1      62.243  -8.241  -5.484  1.00  0.00     0.025 A 
ATOM     13  C   UNL     1      61.366  -9.169  -6.066  1.00  0.00     0.016 A 
ATOM     14  C   UNL     1      61.417  -9.428  -7.438  1.00  0.00     0.051 A 
ATOM     15  C   UNL     1      62.332  -8.753  -8.251  1.00  0.00     0.157 A 
ATOM     16  C   UNL     1      63.149  -7.548  -6.306  1.00  0.00     0.062 A 
ATOM     17  C   UNL     1      63.200  -7.805  -7.685  1.00  0.00     0.158 A 
BRANCH  15  18
ATOM     18  O   UNL     1      62.362  -9.033  -9.616  1.00  0.00    -0.504 OA
ATOM     19  H   UNL     1      61.807  -9.776 -10.026  1.00  0.00     0.293 HD
ENDBRANCH  15  18
BRANCH  17  20
ATOM     20  O   UNL     1      64.106  -7.118  -8.491  1.00  0.00    -0.504 OA
ATOM     21  H   UNL     1      64.999  -7.521  -8.750  1.00  0.00     0.293 HD
ENDBRANCH  17  20
ENDBRANCH   1  12
BRANCH   2  22
ATOM     22  O   UNL     1      63.157 -10.108  -3.465  1.00  0.00    -0.502 OA
ATOM     23  H   UNL     1      62.918 -10.544  -4.347  1.00  0.00     0.293 HD
ENDBRANCH   2  22
BRANCH   6  24
ATOM     24  O   UNL     1      62.442  -7.483   1.114  1.00  0.00    -0.507 OA
ATOM     25  H   UNL     1      61.944  -7.732   1.956  1.00  0.00     0.293 HD
ENDBRANCH   6  24
BRANCH   8  26
ATOM     26  O   UNL     1      59.999  -3.667  -0.476  1.00  0.00    -0.508 OA
ATOM     27  H   UNL     1      60.276  -3.070   0.295  1.00  0.00     0.293 HD
ENDBRANCH   8  26
TORSDOF 6
ENDMDL
MODEL 2
REMARK VINA RESULT:    -5.377      2.398      4.975
REMARK INTER + INTRA:          -6.719
REMARK INTER:                  -6.389
REMARK INTRA:                  -0.330
REMARK UNBOUND:                -0.242
REMARK SMILES O=c1c(O)c(-c2ccc(O)c(O)c2)oc2cc(O)cc(O)c12
REMARK SMILES IDX 5 1 3 2 2 3 1 4 22 5 20 6 19 7 17 8 16 9 15 10 14 11 6 12
REMARK SMILES IDX 7 13 8 14 9 15 13 16 11 17 10 18 12 20 4 22 21 24 18 26
REMARK H PARENT 10 19 12 21 4 23 21 25 18 27
REMARK Flexibility Score: inf
ROOT
ATOM      1  C   UNL     1      61.736  -6.411  -0.486  1.00  0.00     0.180 A 
ATOM      2  C   UNL     1      61.300  -5.081  -0.363  1.00  0.00     0.208 A 
ATOM      3  C   UNL     1      61.014  -4.574   0.916  1.00  0.00     0.238 A 
ATOM      4  O   UNL     1      60.676  -3.366   1.026  1.00  0.00    -0.285 OA
ATOM      5  C   UNL     1      61.153  -5.407   2.052  1.00  0.00     0.111 A 
ATOM      6  C   UNL     1      60.854  -5.011   3.389  1.00  0.00     0.134 A 
ATOM      7  C   UNL     1      61.151  -5.877   4.450  1.00  0.00     0.093 A 
ATOM      8  C   UNL     1      61.678  -7.149   4.214  1.00  0.00     0.123 A 
ATOM      9  C   UNL     1      61.919  -7.567   2.908  1.00  0.00     0.094 A 
ATOM     10  C   UNL     1      61.665  -6.713   1.832  1.00  0.00     0.146 A 
ATOM     11  O   UNL     1      61.918  -7.148   0.603  1.00  0.00    -0.452 OA
ENDROOT
BRANCH   1  12
ATOM     12  C   UNL     1      62.032  -7.024  -1.802  1.00  0.00     0.025 A 
ATOM     13  C   UNL     1      63.341  -6.978  -2.306  1.00  0.00     0.016 A 
ATOM     14  C   UNL     1      63.647  -7.567  -3.534  1.00  0.00     0.051 A 
ATOM     15  C   UNL     1      62.656  -8.225  -4.270  1.00  0.00     0.157 A 
ATOM     16  C   UNL     1      61.041  -7.703  -2.532  1.00  0.00     0.062 A 
ATOM     17  C   UNL     1      61.347  -8.297  -3.766  1.00  0.00     0.158 A 
BRANCH  15  18
ATOM     18  O   UNL     1      62.991  -8.802  -5.494  1.00  0.00    -0.504 OA
ATOM     19  H   UNL     1      62.586  -9.677  -5.806  1.00  0.00     0.293 HD
ENDBRANCH  15  18
BRANCH  17  20
ATOM     20  O   UNL     1      60.357  -8.963  -4.487  1.00  0.00    -0.504 OA
ATOM     21  H   UNL     1      60.388  -9.964  -4.633  1.00  0.00     0.293 HD
ENDBRANCH  17  20
ENDBRANCH   1  12
BRANCH   2  22
ATOM     22  O   UNL     1      61.191  -4.268  -1.494  1.00  0.00    -0.502 OA
ATOM     23  H   UNL     1      61.260  -4.634  -2.435  1.00  0.00     0.293 HD
ENDBRANCH   2  22
BRANCH   6  24
ATOM     24  O   UNL     1      60.241  -3.800   3.726  1.00  0.00    -0.507 OA
ATOM     25  H   UNL     1      60.730  -2.928   3.864  1.00  0.00     0.293 HD
ENDBRANCH   6  24
BRANCH   8  26
ATOM     26  O   UNL     1      61.958  -8.009   5.274  1.00  0.00    -0.508 OA
ATOM     27  H   UNL     1      62.648  -8.746   5.191  1.00  0.00     0.293 HD
ENDBRANCH   8  26
TORSDOF 6
ENDMDL
MODEL 3
REMARK VINA RESULT:    -4.808      2.402      4.022
REMARK INTER + INTRA:          -6.034
REMARK INTER:                  -5.839
REMARK INTRA:                  -0.194
REMARK UNBOUND:                -0.242
REMARK SMILES O=c1c(O)c(-c2ccc(O)c(O)c2)oc2cc(O)cc(O)c12
REMARK SMILES IDX 5 1 3 2 2 3 1 4 22 5 20 6 19 7 17 8 16 9 15 10 14 11 6 12
REMARK SMILES IDX 7 13 8 14 9 15 13 16 11 17 10 18 12 20 4 22 21 24 18 26
REMARK H PARENT 10 19 12 21 4 23 21 25 18 27
REMARK Flexibility Score: inf
ROOT
ATOM      1  C   UNL     1      62.059  -7.321  -0.378  1.00  0.00     0.180 A 
ATOM      2  C   UNL     1      62.337  -8.449   0.412  1.00  0.00     0.208 A 
ATOM      3  C   UNL     1      62.212  -8.350   1.807  1.00  0.00     0.238 A 
ATOM      4  O   UNL     1      62.410  -9.377   2.507  1.00  0.00    -0.285 OA
ATOM      5  C   UNL     1      61.827  -7.120   2.395  1.00  0.00     0.111 A 
ATOM      6  C   UNL     1      61.708  -6.895   3.799  1.00  0.00     0.134 A 
ATOM      7  C   UNL     1      61.194  -5.677   4.262  1.00  0.00     0.093 A 
ATOM      8  C   UNL     1      60.855  -4.653   3.373  1.00  0.00     0.123 A 
ATOM      9  C   UNL     1      61.024  -4.843   2.004  1.00  0.00     0.094 A 
ATOM     10  C   UNL     1      61.501  -6.059   1.510  1.00  0.00     0.146 A 
ATOM     11  O   UNL     1      61.637  -6.201   0.197  1.00  0.00    -0.452 OA
ENDROOT
BRANCH   1  12
ATOM     12  C   UNL     1      62.192  -7.341  -1.854  1.00  0.00     0.025 A 
ATOM     13  C   UNL     1      63.237  -6.629  -2.463  1.00  0.00     0.016 A 
ATOM     14  C   UNL     1      63.394  -6.651  -3.850  1.00  0.00     0.051 A 
ATOM     15  C   UNL     1      62.520  -7.396  -4.649  1.00  0.00     0.157 A 
ATOM     16  C   UNL     1      61.327  -8.106  -2.656  1.00  0.00     0.062 A 
ATOM     17  C   UNL     1      61.485  -8.131  -4.050  1.00  0.00     0.158 A 
BRANCH  15  18
ATOM     18  O   UNL     1      62.700  -7.397  -6.032  1.00  0.00    -0.504 OA
ATOM     19  H   UNL     1      62.700  -8.253  -6.574  1.00  0.00     0.293 HD
ENDBRANCH  15  18
BRANCH  17  20
ATOM     20  O   UNL     1      60.618  -8.887  -4.839  1.00  0.00    -0.504 OA
ATOM     21  H   UNL     1      60.589  -8.782  -5.846  1.00  0.00     0.293 HD
ENDBRANCH  17  20
ENDBRANCH   1  12
BRANCH   2  22
ATOM     22  O   UNL     1      62.694  -9.659  -0.189  1.00  0.00    -0.502 OA
ATOM     23  H   UNL     1      62.273 -10.541   0.072  1.00  0.00     0.293 HD
ENDBRANCH   2  22
BRANCH   6  24
ATOM     24  O   UNL     1      62.104  -7.816   4.774  1.00  0.00    -0.507 OA
ATOM     25  H   UNL     1      61.697  -7.889   5.694  1.00  0.00     0.293 HD
ENDBRANCH   6  24
BRANCH   8  26
ATOM     26  O   UNL     1      60.359  -3.440   3.844  1.00  0.00    -0.508 OA
ATOM     27  H   UNL     1      59.785  -2.841   3.263  1.00  0.00     0.293 HD
ENDBRANCH   8  26
TORSDOF 6
ENDMDL
MODEL 4
REMARK VINA RESULT:    -4.756     17.256     19.384
REMARK INTER + INTRA:          -5.972
REMARK INTER:                  -5.659
REMARK INTRA:                  -0.312
REMARK UNBOUND:                -0.242
REMARK SMILES O=c1c(O)c(-c2ccc(O)c(O)c2)oc2cc(O)cc(O)c12
REMARK SMILES IDX 5 1 3 2 2 3 1 4 22 5 20 6 19 7 17 8 16 9 15 10 14 11 6 12
REMARK SMILES IDX 7 13 8 14 9 15 13 16 11 17 10 18 12 20 4 22 21 24 18 26
REMARK H PARENT 10 19 12 21 4 23 21 25 18 27
REMARK Flexibility Score: inf
ROOT
ATOM      1  C   UNL     1      60.703   8.875   4.393  1.00  0.00     0.180 A 
ATOM      2  C   UNL     1      61.969   8.646   3.828  1.00  0.00     0.208 A 
ATOM      3  C   UNL     1      62.113   8.706   2.433  1.00  0.00     0.238 A 
ATOM      4  O   UNL     1      63.259   8.554   1.936  1.00  0.00    -0.285 OA
ATOM      5  C   UNL     1      60.987   8.980   1.619  1.00  0.00     0.111 A 
ATOM      6  C   UNL     1      61.009   9.026   0.193  1.00  0.00     0.134 A 
ATOM      7  C   UNL     1      59.864   9.433  -0.503  1.00  0.00     0.093 A 
ATOM      8  C   UNL     1      58.679   9.734   0.174  1.00  0.00     0.123 A 
ATOM      9  C   UNL     1      58.630   9.635   1.562  1.00  0.00     0.094 A 
ATOM     10  C   UNL     1      59.767   9.266   2.286  1.00  0.00     0.146 A 
ATOM     11  O   UNL     1      59.680   9.193   3.609  1.00  0.00    -0.452 OA
ENDROOT
BRANCH   1  12
ATOM     12  C   UNL     1      60.468   8.803   5.854  1.00  0.00     0.025 A 
ATOM     13  C   UNL     1      60.356   9.990   6.594  1.00  0.00     0.016 A 
ATOM     14  C   UNL     1      60.114   9.947   7.969  1.00  0.00     0.051 A 
ATOM     15  C   UNL     1      59.963   8.719   8.622  1.00  0.00     0.157 A 
ATOM     16  C   UNL     1      60.295   7.570   6.508  1.00  0.00     0.062 A 
ATOM     17  C   UNL     1      60.050   7.525   7.888  1.00  0.00     0.158 A 
BRANCH  15  18
ATOM     18  O   UNL     1      59.724   8.706   9.995  1.00  0.00    -0.504 OA
ATOM     19  H   UNL     1      59.851   9.530  10.572  1.00  0.00     0.293 HD
ENDBRANCH  15  18
BRANCH  17  20
ATOM     20  O   UNL     1      59.888   6.298   8.530  1.00  0.00    -0.504 OA
ATOM     21  H   UNL     1      60.188   5.430   8.101  1.00  0.00     0.293 HD
ENDBRANCH  17  20
ENDBRANCH   1  12
BRANCH   2  22
ATOM     22  O   UNL     1      63.072   8.400   4.650  1.00  0.00    -0.502 OA
ATOM     23  H   UNL     1      63.170   8.814   5.569  1.00  0.00     0.293 HD
ENDBRANCH   2  22
BRANCH   6  24
ATOM     24  O   UNL     1      62.112   8.657  -0.583  1.00  0.00    -0.507 OA
ATOM     25  H   UNL     1      62.570   7.759  -0.539  1.00  0.00     0.293 HD
ENDBRANCH   6  24
BRANCH   8  26
ATOM     26  O   UNL     1      57.541  10.124  -0.528  1.00  0.00    -0.508 OA
ATOM     27  H   UNL     1      56.690   9.574  -0.508  1.00  0.00     0.293 HD
ENDBRANCH   8  26
TORSDOF 6
ENDMDL
MODEL 5
REMARK VINA RESULT:    -4.573      3.274      5.310
REMARK INTER + INTRA:          -5.752
REMARK INTER:                  -5.439
REMARK INTRA:                  -0.313
REMARK UNBOUND:                -0.242
REMARK SMILES O=c1c(O)c(-c2ccc(O)c(O)c2)oc2cc(O)cc(O)c12
REMARK SMILES IDX 5 1 3 2 2 3 1 4 22 5 20 6 19 7 17 8 16 9 15 10 14 11 6 12
REMARK SMILES IDX 7 13 8 14 9 15 13 16 11 17 10 18 12 20 4 22 21 24 18 26
REMARK H PARENT 10 19 12 21 4 23 21 25 18 27
REMARK Flexibility Score: inf
ROOT
ATOM      1  C   UNL     1      62.615  -7.836   0.771  1.00  0.00     0.180 A 
ATOM      2  C   UNL     1      63.392  -8.894   1.273  1.00  0.00     0.208 A 
ATOM      3  C   UNL     1      63.389  -9.144   2.655  1.00  0.00     0.238 A 
ATOM      4  O   UNL     1      64.044 -10.125   3.094  1.00  0.00    -0.285 OA
ATOM      5  C   UNL     1      62.621  -8.325   3.518  1.00  0.00     0.111 A 
ATOM      6  C   UNL     1      62.575  -8.462   4.938  1.00  0.00     0.134 A 
ATOM      7  C   UNL     1      61.681  -7.679   5.679  1.00  0.00     0.093 A 
ATOM      8  C   UNL     1      60.878  -6.719   5.057  1.00  0.00     0.123 A 
ATOM      9  C   UNL     1      60.960  -6.536   3.679  1.00  0.00     0.094 A 
ATOM     10  C   UNL     1      61.816  -7.327   2.909  1.00  0.00     0.146 A 
ATOM     11  O   UNL     1      61.855  -7.127   1.597  1.00  0.00    -0.452 OA
ENDROOT
BRANCH   1  12
ATOM     12  C   UNL     1      62.587  -7.496  -0.671  1.00  0.00     0.025 A 
ATOM     13  C   UNL     1      63.601  -6.689  -1.210  1.00  0.00     0.016 A 
ATOM     14  C   UNL     1      63.605  -6.372  -2.570  1.00  0.00     0.051 A 
ATOM     15  C   UNL     1      62.608  -6.869  -3.415  1.00  0.00     0.157 A 
ATOM     16  C   UNL     1      61.596  -8.012  -1.525  1.00  0.00     0.062 A 
ATOM     17  C   UNL     1      61.601  -7.696  -2.892  1.00  0.00     0.158 A 
BRANCH  15  18
ATOM     18  O   UNL     1      62.637  -6.534  -4.768  1.00  0.00    -0.504 OA
ATOM     19  H   UNL     1      62.684  -7.237  -5.496  1.00  0.00     0.293 HD
ENDBRANCH  15  18
BRANCH  17  20
ATOM     20  O   UNL     1      60.610  -8.206  -3.731  1.00  0.00    -0.504 OA
ATOM     21  H   UNL     1      60.840  -8.721  -4.572  1.00  0.00     0.293 HD
ENDBRANCH  17  20
ENDBRANCH   1  12
BRANCH   2  22
ATOM     22  O   UNL     1      64.125  -9.705   0.402  1.00  0.00    -0.502 OA
ATOM     23  H   UNL     1      63.707 -10.471  -0.110  1.00  0.00     0.293 HD
ENDBRANCH   2  22
BRANCH   6  24
ATOM     24  O   UNL     1      63.400  -9.325   5.665  1.00  0.00    -0.507 OA
ATOM     25  H   UNL     1      64.299  -9.659   5.353  1.00  0.00     0.293 HD
ENDBRANCH   6  24
BRANCH   8  26
ATOM     26  O   UNL     1      60.002  -5.935   5.804  1.00  0.00    -0.508 OA
ATOM     27  H   UNL     1      59.015  -5.887   5.585  1.00  0.00     0.293 HD
ENDBRANCH   8  26
TORSDOF 6
ENDMDL
MODEL 6
REMARK VINA RESULT:    -4.443      3.522      8.306
REMARK INTER + INTRA:          -5.594
REMARK INTER:                  -6.125
REMARK INTRA:                   0.531
REMARK UNBOUND:                -0.242
REMARK SMILES O=c1c(O)c(-c2ccc(O)c(O)c2)oc2cc(O)cc(O)c12
REMARK SMILES IDX 5 1 3 2 2 3 1 4 22 5 20 6 19 7 17 8 16 9 15 10 14 11 6 12
REMARK SMILES IDX 7 13 8 14 9 15 13 16 11 17 10 18 12 20 4 22 21 24 18 26
REMARK H PARENT 10 19 12 21 4 23 21 25 18 27
REMARK Flexibility Score: inf
ROOT
ATOM      1  C   UNL     1      62.560  -8.255   1.826  1.00  0.00     0.180 A 
ATOM      2  C   UNL     1      63.336  -9.083   0.997  1.00  0.00     0.208 A 
ATOM      3  C   UNL     1      63.335  -8.853  -0.388  1.00  0.00     0.238 A 
ATOM      4  O   UNL     1      64.073  -9.562  -1.120  1.00  0.00    -0.285 OA
ATOM      5  C   UNL     1      62.546  -7.808  -0.928  1.00  0.00     0.111 A 
ATOM      6  C   UNL     1      62.438  -7.509  -2.320  1.00  0.00     0.134 A 
ATOM      7  C   UNL     1      61.732  -6.372  -2.730  1.00  0.00     0.093 A 
ATOM      8  C   UNL     1      61.076  -5.558  -1.802  1.00  0.00     0.123 A 
ATOM      9  C   UNL     1      61.126  -5.875  -0.447  1.00  0.00     0.094 A 
ATOM     10  C   UNL     1      61.853  -6.983  -0.005  1.00  0.00     0.146 A 
ATOM     11  O   UNL     1      61.883  -7.243   1.297  1.00  0.00    -0.452 OA
ENDROOT
BRANCH   1  12
ATOM     12  C   UNL     1      62.491  -8.451   3.293  1.00  0.00     0.025 A 
ATOM     13  C   UNL     1      63.354  -9.372   3.908  1.00  0.00     0.016 A 
ATOM     14  C   UNL     1      63.320  -9.559   5.291  1.00  0.00     0.051 A 
ATOM     15  C   UNL     1      62.437  -8.818   6.083  1.00  0.00     0.157 A 
ATOM     16  C   UNL     1      61.618  -7.692   4.092  1.00  0.00     0.062 A 
ATOM     17  C   UNL     1      61.585  -7.877   5.483  1.00  0.00     0.158 A 
BRANCH  15  18
ATOM     18  O   UNL     1      62.424  -9.027   7.462  1.00  0.00    -0.504 OA
ATOM     19  H   UNL     1      61.631  -8.771   8.038  1.00  0.00     0.293 HD
ENDBRANCH  15  18
BRANCH  17  20
ATOM     20  O   UNL     1      60.711  -7.125   6.267  1.00  0.00    -0.504 OA
ATOM     21  H   UNL     1      60.680  -6.115   6.208  1.00  0.00     0.293 HD
ENDBRANCH  17  20
ENDBRANCH   1  12
BRANCH   2  22
ATOM     22  O   UNL     1      64.125 -10.094   1.552  1.00  0.00    -0.502 OA
ATOM     23  H   UNL     1      64.078 -10.345   2.532  1.00  0.00     0.293 HD
ENDBRANCH   2  22
BRANCH   6  24
ATOM     24  O   UNL     1      62.978  -8.308  -3.333  1.00  0.00    -0.507 OA
ATOM     25  H   UNL     1      63.785  -8.904  -3.226  1.00  0.00     0.293 HD
ENDBRANCH   6  24
BRANCH   8  26
ATOM     26  O   UNL     1      60.363  -4.437  -2.221  1.00  0.00    -0.508 OA
ATOM     27  H   UNL     1      59.908  -4.405  -3.125  1.00  0.00     0.293 HD
ENDBRANCH   8  26
TORSDOF 6
ENDMDL
MODEL 7
REMARK VINA RESULT:    -4.305     15.674     16.778
REMARK INTER + INTRA:          -5.428
REMARK INTER:                  -5.379
REMARK INTRA:                  -0.049
REMARK UNBOUND:                -0.242
REMARK SMILES O=c1c(O)c(-c2ccc(O)c(O)c2)oc2cc(O)cc(O)c12
REMARK SMILES IDX 5 1 3 2 2 3 1 4 22 5 20 6 19 7 17 8 16 9 15 10 14 11 6 12
REMARK SMILES IDX 7 13 8 14 9 15 13 16 11 17 10 18 12 20 4 22 21 24 18 26
REMARK H PARENT 10 19 12 21 4 23 21 25 18 27
REMARK Flexibility Score: inf
ROOT
ATOM      1  C   UNL     1      61.481   9.033  -2.438  1.00  0.00     0.180 A 
ATOM      2  C   UNL     1      62.704   8.887  -1.761  1.00  0.00     0.208 A 
ATOM      3  C   UNL     1      62.717   8.942  -0.358  1.00  0.00     0.238 A 
ATOM      4  O   UNL     1      63.806   8.758   0.245  1.00  0.00    -0.285 OA
ATOM      5  C   UNL     1      61.509   9.158   0.349  1.00  0.00     0.111 A 
ATOM      6  C   UNL     1      61.410   9.271   1.769  1.00  0.00     0.134 A 
ATOM      7  C   UNL     1      60.147   9.354   2.368  1.00  0.00     0.093 A 
ATOM      8  C   UNL     1      58.983   9.392   1.596  1.00  0.00     0.123 A 
ATOM      9  C   UNL     1      59.074   9.342   0.207  1.00  0.00     0.094 A 
ATOM     10  C   UNL     1      60.317   9.223  -0.419  1.00  0.00     0.146 A 
ATOM     11  O   UNL     1      60.358   9.168  -1.745  1.00  0.00    -0.452 OA
ENDROOT
BRANCH   1  12
ATOM     12  C   UNL     1      61.392   9.011  -3.917  1.00  0.00     0.025 A 
ATOM     13  C   UNL     1      60.850  10.115  -4.592  1.00  0.00     0.016 A 
ATOM     14  C   UNL     1      60.775  10.125  -5.987  1.00  0.00     0.051 A 
ATOM     15  C   UNL     1      61.255   9.041  -6.728  1.00  0.00     0.157 A 
ATOM     16  C   UNL     1      61.894   7.931  -4.664  1.00  0.00     0.062 A 
ATOM     17  C   UNL     1      61.822   7.940  -6.065  1.00  0.00     0.158 A 
BRANCH  15  18
ATOM     18  O   UNL     1      61.165   9.078  -8.119  1.00  0.00    -0.504 OA
ATOM     19  H   UNL     1      61.773   9.660  -8.683  1.00  0.00     0.293 HD
ENDBRANCH  15  18
BRANCH  17  20
ATOM     20  O   UNL     1      62.315   6.861  -6.798  1.00  0.00    -0.504 OA
ATOM     21  H   UNL     1      61.720   6.088  -7.071  1.00  0.00     0.293 HD
ENDBRANCH  17  20
ENDBRANCH   1  12
BRANCH   2  22
ATOM     22  O   UNL     1      63.881   8.653  -2.477  1.00  0.00    -0.502 OA
ATOM     23  H   UNL     1      63.936   7.979  -3.230  1.00  0.00     0.293 HD
ENDBRANCH   2  22
BRANCH   6  24
ATOM     24  O   UNL     1      62.513   9.335   2.625  1.00  0.00    -0.507 OA
ATOM     25  H   UNL     1      62.665   8.722   3.412  1.00  0.00     0.293 HD
ENDBRANCH   6  24
BRANCH   8  26
ATOM     26  O   UNL     1      57.732   9.490   2.200  1.00  0.00    -0.508 OA
ATOM     27  H   UNL     1      57.633   9.746   3.175  1.00  0.00     0.293 HD
ENDBRANCH   8  26
TORSDOF 6
ENDMDL
