MODEL 1
REMARK VINA RESULT:    -3.679      0.000      0.000
REMARK INTER + INTRA:          -7.922
REMARK INTER:                  -6.259
REMARK INTRA:                  -1.662
REMARK UNBOUND:                -1.662
REMARK SMILES CCCCCCCCCCCCCC(=O)[O-]
REMARK SMILES IDX 8 1 9 2 10 3 11 4 12 5 13 6 14 7 15 8 16 9 7 10 6 11 5 12
REMARK SMILES IDX 4 13 3 14 2 15 1 16
REMARK H PARENT
REMARK Flexibility Score: inf
ROOT
ATOM      1  C   UNL     1      -3.263  -9.233 -16.380  1.00  0.00     0.000 C 
ENDROOT
BRANCH   1   2
ATOM      2  C   UNL     1      -2.199 -10.341 -16.299  1.00  0.00     0.000 C 
BRANCH   2   3
ATOM      3  C   UNL     1      -1.330 -10.240 -15.036  1.00  0.00     0.000 C 
BRANCH   3   4
ATOM      4  C   UNL     1      -1.089 -11.629 -14.425  1.00  0.00     0.000 C 
BRANCH   4   5
ATOM      5  C   UNL     1      -1.761 -12.754 -15.227  1.00  0.00     0.006 C 
BRANCH   5   6
ATOM      6  C   UNL     1      -2.395 -13.823 -14.328  1.00  0.00     0.053 C 
BRANCH   6   7
ATOM      7  C   UNL     1      -1.437 -14.949 -14.101  1.00  0.00     0.041 C 
ATOM      8  O   UNL     1      -0.491 -15.149 -14.909  1.00  0.00    -0.550 OA
ATOM      9  O   UNL     1      -1.615 -15.809 -13.024  1.00  0.00    -0.550 OA
ENDBRANCH   6   7
ENDBRANCH   5   6
ENDBRANCH   4   5
ENDBRANCH   3   4
ENDBRANCH   2   3
ENDBRANCH   1   2
BRANCH   1  10
ATOM     10  C   UNL     1      -4.652  -9.775 -16.756  1.00  0.00     0.000 C 
BRANCH  10  11
ATOM     11  C   UNL     1      -5.002 -11.072 -16.007  1.00  0.00    -0.000 C 
BRANCH  11  12
ATOM     12  C   UNL     1      -5.780 -12.070 -16.878  1.00  0.00    -0.000 C 
BRANCH  12  13
ATOM     13  C   UNL     1      -4.921 -13.301 -17.200  1.00  0.00    -0.000 C 
BRANCH  13  14
ATOM     14  C   UNL     1      -4.571 -13.405 -18.693  1.00  0.00    -0.000 C 
BRANCH  14  15
ATOM     15  C   UNL     1      -3.312 -12.607 -19.062  1.00  0.00    -0.003 C 
ATOM     16  C   UNL     1      -3.318 -12.222 -20.538  1.00  0.00     0.004 C 
ENDBRANCH  14  15
ENDBRANCH  13  14
ENDBRANCH  12  13
ENDBRANCH  11  12
ENDBRANCH  10  11
ENDBRANCH   1  10
TORSDOF 12
ENDMDL
MODEL 2
REMARK VINA RESULT:    -3.563     14.631     16.860
REMARK INTER + INTRA:          -7.726
REMARK INTER:                  -6.015
REMARK INTRA:                  -1.710
REMARK UNBOUND:                -1.662
REMARK SMILES CCCCCCCCCCCCCC(=O)[O-]
REMARK SMILES IDX 8 1 9 2 10 3 11 4 12 5 13 6 14 7 15 8 16 9 7 10 6 11 5 12
REMARK SMILES IDX 4 13 3 14 2 15 1 16
REMARK H PARENT
REMARK Flexibility Score: inf
ROOT
ATOM      1  C   UNL     1      -1.976  -3.849 -26.586  1.00  0.00     0.000 C 
ENDROOT
BRANCH   1   2
ATOM      2  C   UNL     1      -1.530  -3.028 -27.807  1.00  0.00     0.000 C 
BRANCH   2   3
ATOM      3  C   UNL     1      -0.790  -1.738 -27.419  1.00  0.00     0.000 C 
BRANCH   3   4
ATOM      4  C   UNL     1      -1.684  -0.508 -27.638  1.00  0.00     0.000 C 
BRANCH   4   5
ATOM      5  C   UNL     1      -1.945  -0.221 -29.125  1.00  0.00     0.006 C 
BRANCH   5   6
ATOM      6  C   UNL     1      -0.994   0.837 -29.698  1.00  0.00     0.053 C 
BRANCH   6   7
ATOM      7  C   UNL     1      -1.154   0.932 -31.183  1.00  0.00     0.041 C 
ATOM      8  O   UNL     1      -1.854   1.849 -31.687  1.00  0.00    -0.550 OA
ATOM      9  O   UNL     1      -0.569  -0.020 -32.009  1.00  0.00    -0.550 OA
ENDBRANCH   6   7
ENDBRANCH   5   6
ENDBRANCH   4   5
ENDBRANCH   3   4
ENDBRANCH   2   3
ENDBRANCH   1   2
BRANCH   1  10
ATOM     10  C   UNL     1      -3.226  -4.698 -26.871  1.00  0.00     0.000 C 
BRANCH  10  11
ATOM     11  C   UNL     1      -4.508  -4.073 -26.296  1.00  0.00    -0.000 C 
BRANCH  11  12
ATOM     12  C   UNL     1      -5.055  -2.930 -27.165  1.00  0.00    -0.000 C 
BRANCH  12  13
ATOM     13  C   UNL     1      -5.032  -1.599 -26.399  1.00  0.00    -0.000 C 
BRANCH  13  14
ATOM     14  C   UNL     1      -4.640  -1.773 -24.923  1.00  0.00    -0.000 C 
BRANCH  14  15
ATOM     15  C   UNL     1      -3.652  -0.701 -24.443  1.00  0.00    -0.003 C 
ATOM     16  C   UNL     1      -2.394  -1.335 -23.857  1.00  0.00     0.004 C 
ENDBRANCH  14  15
ENDBRANCH  13  14
ENDBRANCH  12  13
ENDBRANCH  11  12
ENDBRANCH  10  11
ENDBRANCH   1  10
TORSDOF 12
ENDMDL
MODEL 3
REMARK VINA RESULT:    -3.497     15.008     17.056
REMARK INTER + INTRA:          -7.613
REMARK INTER:                  -6.043
REMARK INTRA:                  -1.570
REMARK UNBOUND:                -1.662
REMARK SMILES CCCCCCCCCCCCCC(=O)[O-]
REMARK SMILES IDX 8 1 9 2 10 3 11 4 12 5 13 6 14 7 15 8 16 9 7 10 6 11 5 12
REMARK SMILES IDX 4 13 3 14 2 15 1 16
REMARK H PARENT
REMARK Flexibility Score: inf
ROOT
ATOM      1  C   UNL     1      -3.215  -3.789 -26.723  1.00  0.00     0.000 C 
ENDROOT
BRANCH   1   2
ATOM      2  C   UNL     1      -1.895  -3.467 -27.443  1.00  0.00     0.000 C 
BRANCH   2   3
ATOM      3  C   UNL     1      -1.824  -2.014 -27.936  1.00  0.00     0.000 C 
BRANCH   3   4
ATOM      4  C   UNL     1      -0.481  -1.735 -28.628  1.00  0.00     0.000 C 
BRANCH   4   5
ATOM      5  C   UNL     1      -0.358  -0.285 -29.120  1.00  0.00     0.006 C 
BRANCH   5   6
ATOM      6  C   UNL     1      -1.672   0.257 -29.696  1.00  0.00     0.053 C 
BRANCH   6   7
ATOM      7  C   UNL     1      -1.481   0.692 -31.115  1.00  0.00     0.041 C 
ATOM      8  O   UNL     1      -2.104   1.690 -31.561  1.00  0.00    -0.550 OA
ATOM      9  O   UNL     1      -0.651  -0.035 -31.959  1.00  0.00    -0.550 OA
ENDBRANCH   6   7
ENDBRANCH   5   6
ENDBRANCH   4   5
ENDBRANCH   3   4
ENDBRANCH   2   3
ENDBRANCH   1   2
BRANCH   1  10
ATOM     10  C   UNL     1      -4.360  -2.853 -27.146  1.00  0.00     0.000 C 
BRANCH  10  11
ATOM     11  C   UNL     1      -5.057  -2.194 -25.943  1.00  0.00    -0.000 C 
BRANCH  11  12
ATOM     12  C   UNL     1      -5.076  -0.660 -26.035  1.00  0.00    -0.000 C 
BRANCH  12  13
ATOM     13  C   UNL     1      -4.361  -0.031 -24.830  1.00  0.00    -0.000 C 
BRANCH  13  14
ATOM     14  C   UNL     1      -3.453  -1.029 -24.093  1.00  0.00    -0.000 C 
BRANCH  14  15
ATOM     15  C   UNL     1      -1.964  -0.809 -24.395  1.00  0.00    -0.003 C 
ATOM     16  C   UNL     1      -1.750   0.461 -25.212  1.00  0.00     0.004 C 
ENDBRANCH  14  15
ENDBRANCH  13  14
ENDBRANCH  12  13
ENDBRANCH  11  12
ENDBRANCH  10  11
ENDBRANCH   1  10
TORSDOF 12
ENDMDL
MODEL 4
REMARK VINA RESULT:    -3.424      3.953      6.712
REMARK INTER + INTRA:          -7.489
REMARK INTER:                  -6.408
REMARK INTRA:                  -1.081
REMARK UNBOUND:                -1.662
REMARK SMILES CCCCCCCCCCCCCC(=O)[O-]
REMARK SMILES IDX 8 1 9 2 10 3 11 4 12 5 13 6 14 7 15 8 16 9 7 10 6 11 5 12
REMARK SMILES IDX 4 13 3 14 2 15 1 16
REMARK H PARENT
REMARK Flexibility Score: inf
ROOT
ATOM      1  C   UNL     1      -0.878  -8.478 -14.867  1.00  0.00     0.000 C 
ENDROOT
BRANCH   1   2
ATOM      2  C   UNL     1      -1.047 -10.007 -14.878  1.00  0.00     0.000 C 
BRANCH   2   3
ATOM      3  C   UNL     1      -2.241 -10.468 -15.727  1.00  0.00     0.000 C 
BRANCH   3   4
ATOM      4  C   UNL     1      -2.982  -9.264 -16.328  1.00  0.00     0.000 C 
BRANCH   4   5
ATOM      5  C   UNL     1      -4.440  -9.586 -16.693  1.00  0.00     0.006 C 
BRANCH   5   6
ATOM      6  C   UNL     1      -4.882 -10.968 -16.195  1.00  0.00     0.053 C 
BRANCH   6   7
ATOM      7  C   UNL     1      -5.244 -11.848 -17.349  1.00  0.00     0.041 C 
ATOM      8  O   UNL     1      -5.096 -11.437 -18.530  1.00  0.00    -0.550 OA
ATOM      9  O   UNL     1      -5.792 -13.105 -17.122  1.00  0.00    -0.550 OA
ENDBRANCH   6   7
ENDBRANCH   5   6
ENDBRANCH   4   5
ENDBRANCH   3   4
ENDBRANCH   2   3
ENDBRANCH   1   2
BRANCH   1  10
ATOM     10  C   UNL     1      -0.087  -7.981 -13.646  1.00  0.00     0.000 C 
BRANCH  10  11
ATOM     11  C   UNL     1      -0.039  -6.446 -13.559  1.00  0.00    -0.000 C 
BRANCH  11  12
ATOM     12  C   UNL     1      -0.835  -5.893 -12.367  1.00  0.00    -0.000 C 
BRANCH  12  13
ATOM     13  C   UNL     1      -1.755  -4.745 -12.808  1.00  0.00    -0.000 C 
BRANCH  13  14
ATOM     14  C   UNL     1      -1.571  -4.374 -14.288  1.00  0.00    -0.000 C 
BRANCH  14  15
ATOM     15  C   UNL     1      -2.904  -4.286 -15.045  1.00  0.00    -0.003 C 
ATOM     16  C   UNL     1      -3.043  -5.426 -16.049  1.00  0.00     0.004 C 
ENDBRANCH  14  15
ENDBRANCH  13  14
ENDBRANCH  12  13
ENDBRANCH  11  12
ENDBRANCH  10  11
ENDBRANCH   1  10
TORSDOF 12
ENDMDL
MODEL 5
REMARK VINA RESULT:    -3.408      1.066      2.835
REMARK INTER + INTRA:          -7.460
REMARK INTER:                  -5.450
REMARK INTRA:                  -2.010
REMARK UNBOUND:                -1.662
REMARK SMILES CCCCCCCCCCCCCC(=O)[O-]
REMARK SMILES IDX 8 1 9 2 10 3 11 4 12 5 13 6 14 7 15 8 16 9 7 10 6 11 5 12
REMARK SMILES IDX 4 13 3 14 2 15 1 16
REMARK H PARENT
REMARK Flexibility Score: inf
ROOT
ATOM      1  C   UNL     1      -2.513 -12.563 -18.743  1.00  0.00     0.000 C 
ENDROOT
BRANCH   1   2
ATOM      2  C   UNL     1      -1.582 -12.763 -17.535  1.00  0.00     0.000 C 
BRANCH   2   3
ATOM      3  C   UNL     1      -1.557 -11.548 -16.595  1.00  0.00     0.000 C 
BRANCH   3   4
ATOM      4  C   UNL     1      -2.074 -11.926 -15.199  1.00  0.00     0.000 C 
BRANCH   4   5
ATOM      5  C   UNL     1      -2.560 -13.382 -15.121  1.00  0.00     0.006 C 
BRANCH   5   6
ATOM      6  C   UNL     1      -2.163 -14.068 -13.808  1.00  0.00     0.053 C 
BRANCH   6   7
ATOM      7  C   UNL     1      -1.169 -15.156 -14.068  1.00  0.00     0.041 C 
ATOM      8  O   UNL     1      -1.095 -16.145 -13.293  1.00  0.00    -0.550 OA
ATOM      9  O   UNL     1      -0.290 -15.054 -15.140  1.00  0.00    -0.550 OA
ENDBRANCH   6   7
ENDBRANCH   5   6
ENDBRANCH   4   5
ENDBRANCH   3   4
ENDBRANCH   2   3
ENDBRANCH   1   2
BRANCH   1  10
ATOM     10  C   UNL     1      -3.615 -13.633 -18.822  1.00  0.00     0.000 C 
BRANCH  10  11
ATOM     11  C   UNL     1      -5.022 -13.046 -18.615  1.00  0.00    -0.000 C 
BRANCH  11  12
ATOM     12  C   UNL     1      -5.407 -12.934 -17.132  1.00  0.00    -0.000 C 
BRANCH  12  13
ATOM     13  C   UNL     1      -5.635 -11.468 -16.735  1.00  0.00    -0.000 C 
BRANCH  13  14
ATOM     14  C   UNL     1      -5.664 -10.524 -17.947  1.00  0.00    -0.000 C 
BRANCH  14  15
ATOM     15  C   UNL     1      -4.497  -9.526 -17.947  1.00  0.00    -0.003 C 
ATOM     16  C   UNL     1      -4.232  -8.988 -16.544  1.00  0.00     0.004 C 
ENDBRANCH  14  15
ENDBRANCH  13  14
ENDBRANCH  12  13
ENDBRANCH  11  12
ENDBRANCH  10  11
ENDBRANCH   1  10
TORSDOF 12
ENDMDL
MODEL 6
REMARK VINA RESULT:    -3.358     16.989     18.581
REMARK INTER + INTRA:          -7.376
REMARK INTER:                  -5.439
REMARK INTRA:                  -1.937
REMARK UNBOUND:                -1.662
REMARK SMILES CCCCCCCCCCCCCC(=O)[O-]
REMARK SMILES IDX 8 1 9 2 10 3 11 4 12 5 13 6 14 7 15 8 16 9 7 10 6 11 5 12
REMARK SMILES IDX 4 13 3 14 2 15 1 16
REMARK H PARENT
REMARK Flexibility Score: inf
ROOT
ATOM      1  C   UNL     1      11.077  -3.160 -23.968  1.00  0.00     0.000 C 
ENDROOT
BRANCH   1   2
ATOM      2  C   UNL     1      10.229  -2.550 -22.838  1.00  0.00     0.000 C 
BRANCH   2   3
ATOM      3  C   UNL     1       9.767  -3.595 -21.811  1.00  0.00     0.000 C 
BRANCH   3   4
ATOM      4  C   UNL     1      10.347  -3.291 -20.422  1.00  0.00     0.000 C 
BRANCH   4   5
ATOM      5  C   UNL     1      11.268  -2.061 -20.420  1.00  0.00     0.006 C 
BRANCH   5   6
ATOM      6  C   UNL     1      11.081  -1.184 -19.176  1.00  0.00     0.053 C 
BRANCH   6   7
ATOM      7  C   UNL     1      10.375   0.085 -19.533  1.00  0.00     0.041 C 
ATOM      8  O   UNL     1      10.719   1.173 -19.001  1.00  0.00    -0.550 OA
ATOM      9  O   UNL     1       9.303   0.060 -20.417  1.00  0.00    -0.550 OA
ENDBRANCH   6   7
ENDBRANCH   5   6
ENDBRANCH   4   5
ENDBRANCH   3   4
ENDBRANCH   2   3
ENDBRANCH   1   2
BRANCH   1  10
ATOM     10  C   UNL     1      12.468  -2.512 -24.076  1.00  0.00     0.000 C 
BRANCH  10  11
ATOM     11  C   UNL     1      13.473  -3.104 -23.074  1.00  0.00    -0.000 C 
BRANCH  11  12
ATOM     12  C   UNL     1      13.364  -4.632 -22.955  1.00  0.00    -0.000 C 
BRANCH  12  13
ATOM     13  C   UNL     1      13.500  -5.078 -21.491  1.00  0.00    -0.000 C 
BRANCH  13  14
ATOM     14  C   UNL     1      12.502  -6.185 -21.114  1.00  0.00    -0.000 C 
BRANCH  14  15
ATOM     15  C   UNL     1      11.622  -6.615 -22.296  1.00  0.00    -0.003 C 
ATOM     16  C   UNL     1      11.915  -8.056 -22.704  1.00  0.00     0.004 C 
ENDBRANCH  14  15
ENDBRANCH  13  14
ENDBRANCH  12  13
ENDBRANCH  11  12
ENDBRANCH  10  11
ENDBRANCH   1  10
TORSDOF 12
ENDMDL
MODEL 7
REMARK VINA RESULT:    -3.350      4.017      6.197
REMARK INTER + INTRA:          -7.362
REMARK INTER:                  -5.766
REMARK INTRA:                  -1.596
REMARK UNBOUND:                -1.662
REMARK SMILES CCCCCCCCCCCCCC(=O)[O-]
REMARK SMILES IDX 8 1 9 2 10 3 11 4 12 5 13 6 14 7 15 8 16 9 7 10 6 11 5 12
REMARK SMILES IDX 4 13 3 14 2 15 1 16
REMARK H PARENT
REMARK Flexibility Score: inf
ROOT
ATOM      1  C   UNL     1      -5.351 -12.423 -17.610  1.00  0.00     0.000 C 
ENDROOT
BRANCH   1   2
ATOM      2  C   UNL     1      -5.416 -11.598 -16.314  1.00  0.00     0.000 C 
BRANCH   2   3
ATOM      3  C   UNL     1      -5.039 -10.124 -16.527  1.00  0.00     0.000 C 
BRANCH   3   4
ATOM      4  C   UNL     1      -4.204  -9.952 -17.805  1.00  0.00     0.000 C 
BRANCH   4   5
ATOM      5  C   UNL     1      -3.440  -8.620 -17.839  1.00  0.00     0.006 C 
BRANCH   5   6
ATOM      6  C   UNL     1      -3.734  -7.738 -16.618  1.00  0.00     0.053 C 
BRANCH   6   7
ATOM      7  C   UNL     1      -4.528  -6.536 -17.022  1.00  0.00     0.041 C 
ATOM      8  O   UNL     1      -5.551  -6.666 -17.745  1.00  0.00    -0.550 OA
ATOM      9  O   UNL     1      -4.111  -5.266 -16.641  1.00  0.00    -0.550 OA
ENDBRANCH   6   7
ENDBRANCH   5   6
ENDBRANCH   4   5
ENDBRANCH   3   4
ENDBRANCH   2   3
ENDBRANCH   1   2
BRANCH   1  10
ATOM     10  C   UNL     1      -4.531 -13.714 -17.447  1.00  0.00     0.000 C 
BRANCH  10  11
ATOM     11  C   UNL     1      -3.028 -13.440 -17.274  1.00  0.00    -0.000 C 
BRANCH  11  12
ATOM     12  C   UNL     1      -2.447 -14.091 -16.009  1.00  0.00    -0.000 C 
BRANCH  12  13
ATOM     13  C   UNL     1      -2.477 -13.112 -14.826  1.00  0.00    -0.000 C 
BRANCH  13  14
ATOM     14  C   UNL     1      -1.261 -12.171 -14.805  1.00  0.00    -0.000 C 
BRANCH  14  15
ATOM     15  C   UNL     1      -1.593 -10.764 -15.321  1.00  0.00    -0.003 C 
ATOM     16  C   UNL     1      -0.785  -9.702 -14.582  1.00  0.00     0.004 C 
ENDBRANCH  14  15
ENDBRANCH  13  14
ENDBRANCH  12  13
ENDBRANCH  11  12
ENDBRANCH  10  11
ENDBRANCH   1  10
TORSDOF 12
ENDMDL
MODEL 8
REMARK VINA RESULT:    -3.347     13.824     15.994
REMARK INTER + INTRA:          -7.357
REMARK INTER:                  -5.423
REMARK INTRA:                  -1.934
REMARK UNBOUND:                -1.662
REMARK SMILES CCCCCCCCCCCCCC(=O)[O-]
REMARK SMILES IDX 8 1 9 2 10 3 11 4 12 5 13 6 14 7 15 8 16 9 7 10 6 11 5 12
REMARK SMILES IDX 4 13 3 14 2 15 1 16
REMARK H PARENT
REMARK Flexibility Score: inf
ROOT
ATOM      1  C   UNL     1      -1.053  -1.739 -24.824  1.00  0.00     0.000 C 
ENDROOT
BRANCH   1   2
ATOM      2  C   UNL     1      -1.294  -3.105 -25.487  1.00  0.00     0.000 C 
BRANCH   2   3
ATOM      3  C   UNL     1      -0.493  -3.286 -26.786  1.00  0.00     0.000 C 
BRANCH   3   4
ATOM      4  C   UNL     1      -1.309  -2.818 -28.001  1.00  0.00     0.000 C 
BRANCH   4   5
ATOM      5  C   UNL     1      -0.767  -1.516 -28.613  1.00  0.00     0.006 C 
BRANCH   5   6
ATOM      6  C   UNL     1      -1.816  -0.397 -28.644  1.00  0.00     0.053 C 
BRANCH   6   7
ATOM      7  C   UNL     1      -1.574   0.511 -29.808  1.00  0.00     0.041 C 
ATOM      8  O   UNL     1      -2.271   0.404 -30.851  1.00  0.00    -0.550 OA
ATOM      9  O   UNL     1      -0.547   1.446 -29.759  1.00  0.00    -0.550 OA
ENDBRANCH   6   7
ENDBRANCH   5   6
ENDBRANCH   4   5
ENDBRANCH   3   4
ENDBRANCH   2   3
ENDBRANCH   1   2
BRANCH   1  10
ATOM     10  C   UNL     1      -2.269  -0.805 -24.939  1.00  0.00     0.000 C 
BRANCH  10  11
ATOM     11  C   UNL     1      -3.512  -1.365 -24.226  1.00  0.00    -0.000 C 
BRANCH  11  12
ATOM     12  C   UNL     1      -4.799  -1.185 -25.045  1.00  0.00    -0.000 C 
BRANCH  12  13
ATOM     13  C   UNL     1      -4.585  -1.615 -26.504  1.00  0.00    -0.000 C 
BRANCH  13  14
ATOM     14  C   UNL     1      -5.354  -2.896 -26.863  1.00  0.00    -0.000 C 
BRANCH  14  15
ATOM     15  C   UNL     1      -4.461  -4.145 -26.852  1.00  0.00    -0.003 C 
ATOM     16  C   UNL     1      -4.614  -4.919 -25.546  1.00  0.00     0.004 C 
ENDBRANCH  14  15
ENDBRANCH  13  14
ENDBRANCH  12  13
ENDBRANCH  11  12
ENDBRANCH  10  11
ENDBRANCH   1  10
TORSDOF 12
ENDMDL
MODEL 9
REMARK VINA RESULT:    -3.329     13.689     16.144
REMARK INTER + INTRA:          -7.327
REMARK INTER:                  -6.004
REMARK INTRA:                  -1.323
REMARK UNBOUND:                -1.662
REMARK SMILES CCCCCCCCCCCCCC(=O)[O-]
REMARK SMILES IDX 8 1 9 2 10 3 11 4 12 5 13 6 14 7 15 8 16 9 7 10 6 11 5 12
REMARK SMILES IDX 4 13 3 14 2 15 1 16
REMARK H PARENT
REMARK Flexibility Score: inf
ROOT
ATOM      1  C   UNL     1      -0.565  -4.390 -27.475  1.00  0.00     0.000 C 
ENDROOT
BRANCH   1   2
ATOM      2  C   UNL     1      -1.678  -4.462 -26.415  1.00  0.00     0.000 C 
BRANCH   2   3
ATOM      3  C   UNL     1      -2.816  -5.415 -26.812  1.00  0.00     0.000 C 
BRANCH   3   4
ATOM      4  C   UNL     1      -4.159  -4.925 -26.251  1.00  0.00     0.000 C 
BRANCH   4   5
ATOM      5  C   UNL     1      -4.504  -3.496 -26.700  1.00  0.00     0.006 C 
BRANCH   5   6
ATOM      6  C   UNL     1      -5.084  -2.643 -25.564  1.00  0.00     0.053 C 
BRANCH   6   7
ATOM      7  C   UNL     1      -4.459  -1.284 -25.562  1.00  0.00     0.041 C 
ATOM      8  O   UNL     1      -3.361  -1.092 -24.976  1.00  0.00    -0.550 OA
ATOM      9  O   UNL     1      -5.112  -0.216 -26.166  1.00  0.00    -0.550 OA
ENDBRANCH   6   7
ENDBRANCH   5   6
ENDBRANCH   4   5
ENDBRANCH   3   4
ENDBRANCH   2   3
ENDBRANCH   1   2
BRANCH   1  10
ATOM     10  C   UNL     1      -0.712  -3.172 -28.402  1.00  0.00     0.000 C 
BRANCH  10  11
ATOM     11  C   UNL     1      -1.135  -1.902 -27.645  1.00  0.00    -0.000 C 
BRANCH  11  12
ATOM     12  C   UNL     1      -2.115  -1.030 -28.446  1.00  0.00    -0.000 C 
BRANCH  12  13
ATOM     13  C   UNL     1      -1.379   0.128 -29.135  1.00  0.00    -0.000 C 
BRANCH  13  14
ATOM     14  C   UNL     1      -1.989   0.489 -30.499  1.00  0.00    -0.000 C 
BRANCH  14  15
ATOM     15  C   UNL     1      -0.954   0.475 -31.632  1.00  0.00    -0.003 C 
ATOM     16  C   UNL     1       0.224  -0.433 -31.291  1.00  0.00     0.004 C 
ENDBRANCH  14  15
ENDBRANCH  13  14
ENDBRANCH  12  13
ENDBRANCH  11  12
ENDBRANCH  10  11
ENDBRANCH   1  10
TORSDOF 12
ENDMDL
