MODEL 1
REMARK VINA RESULT:    -5.439      0.000      0.000
REMARK INTER + INTRA:          -6.379
REMARK INTER:                  -6.234
REMARK INTRA:                  -0.145
REMARK UNBOUND:                -0.145
REMARK SMILES O=C([O-])C=Cc1ccc(O)cc1
REMARK SMILES IDX 6 1 7 2 12 3 8 4 11 5 9 6 5 7 4 8 2 9 1 10 3 11 10 12
REMARK H PARENT 10 13
REMARK Flexibility Score: inf
ROOT
ATOM      1  C   UNL     1      23.862   4.895 102.105  1.00  0.00    -0.025 A 
ATOM      2  C   UNL     1      22.477   4.633 102.072  1.00  0.00     0.012 A 
ATOM      3  C   UNL     1      24.381   5.899 101.270  1.00  0.00     0.012 A 
ATOM      4  C   UNL     1      21.635   5.379 101.242  1.00  0.00     0.047 A 
ATOM      5  C   UNL     1      23.537   6.643 100.441  1.00  0.00     0.047 A 
ATOM      6  C   UNL     1      22.163   6.388 100.426  1.00  0.00     0.115 A 
ENDROOT
BRANCH   1   7
ATOM      7  C   UNL     1      24.802   4.124 102.958  1.00  0.00     0.010 C 
ATOM      8  C   UNL     1      26.021   3.737 102.561  1.00  0.00     0.025 C 
BRANCH   8   9
ATOM      9  C   UNL     1      26.915   2.964 103.436  1.00  0.00     0.064 C 
ATOM     10  O   UNL     1      27.803   3.560 104.100  1.00  0.00    -0.545 OA
ATOM     11  O   UNL     1      26.793   1.583 103.545  1.00  0.00    -0.545 OA
ENDBRANCH   8   9
ENDBRANCH   1   7
BRANCH   6  12
ATOM     12  O   UNL     1      21.332   7.138  99.596  1.00  0.00    -0.508 OA
ATOM     13  H   UNL     1      21.566   8.086  99.329  1.00  0.00     0.293 HD
ENDBRANCH   6  12
TORSDOF 3
ENDMDL
MODEL 2
REMARK VINA RESULT:    -5.397      0.173      1.409
REMARK INTER + INTRA:          -6.331
REMARK INTER:                  -6.195
REMARK INTRA:                  -0.136
REMARK UNBOUND:                -0.145
REMARK SMILES O=C([O-])C=Cc1ccc(O)cc1
REMARK SMILES IDX 6 1 7 2 12 3 8 4 11 5 9 6 5 7 4 8 2 9 1 10 3 11 10 12
REMARK H PARENT 10 13
REMARK Flexibility Score: inf
ROOT
ATOM      1  C   UNL     1      23.994   4.981 102.001  1.00  0.00    -0.025 A 
ATOM      2  C   UNL     1      24.483   6.028 101.192  1.00  0.00     0.012 A 
ATOM      3  C   UNL     1      22.616   4.707 101.994  1.00  0.00     0.012 A 
ATOM      4  C   UNL     1      23.612   6.760 100.379  1.00  0.00     0.047 A 
ATOM      5  C   UNL     1      21.748   5.440 101.181  1.00  0.00     0.047 A 
ATOM      6  C   UNL     1      22.242   6.466 100.370  1.00  0.00     0.115 A 
ENDROOT
BRANCH   1   7
ATOM      7  C   UNL     1      24.873   4.182 102.891  1.00  0.00     0.010 C 
ATOM      8  C   UNL     1      26.005   3.591 102.485  1.00  0.00     0.025 C 
BRANCH   8   9
ATOM      9  C   UNL     1      26.840   2.797 103.399  1.00  0.00     0.064 C 
ATOM     10  O   UNL     1      27.626   3.382 104.189  1.00  0.00    -0.545 OA
ATOM     11  O   UNL     1      26.772   1.408 103.408  1.00  0.00    -0.545 OA
ENDBRANCH   8   9
ENDBRANCH   1   7
BRANCH   6  12
ATOM     12  O   UNL     1      21.366   7.188  99.563  1.00  0.00    -0.508 OA
ATOM     13  H   UNL     1      21.389   8.200  99.530  1.00  0.00     0.293 HD
ENDBRANCH   6  12
TORSDOF 3
ENDMDL
MODEL 3
REMARK VINA RESULT:    -5.356      3.637      4.625
REMARK INTER + INTRA:          -6.284
REMARK INTER:                  -6.146
REMARK INTRA:                  -0.138
REMARK UNBOUND:                -0.145
REMARK SMILES O=C([O-])C=Cc1ccc(O)cc1
REMARK SMILES IDX 6 1 7 2 12 3 8 4 11 5 9 6 5 7 4 8 2 9 1 10 3 11 10 12
REMARK H PARENT 10 13
REMARK Flexibility Score: inf
ROOT
ATOM      1  C   UNL     1      22.353   4.634 102.736  1.00  0.00    -0.025 A 
ATOM      2  C   UNL     1      23.763   4.622 102.750  1.00  0.00     0.012 A 
ATOM      3  C   UNL     1      21.692   5.362 101.732  1.00  0.00     0.012 A 
ATOM      4  C   UNL     1      24.486   5.302 101.766  1.00  0.00     0.047 A 
ATOM      5  C   UNL     1      22.418   6.040 100.749  1.00  0.00     0.047 A 
ATOM      6  C   UNL     1      23.815   6.011 100.761  1.00  0.00     0.115 A 
ENDROOT
BRANCH   1   7
ATOM      7  C   UNL     1      21.537   3.939 103.764  1.00  0.00     0.010 C 
ATOM      8  C   UNL     1      20.966   4.560 104.805  1.00  0.00     0.025 C 
BRANCH   8   9
ATOM      9  C   UNL     1      20.175   3.829 105.807  1.00  0.00     0.064 C 
ATOM     10  O   UNL     1      19.580   4.467 106.714  1.00  0.00    -0.545 OA
ATOM     11  O   UNL     1      20.071   2.443 105.767  1.00  0.00    -0.545 OA
ENDBRANCH   8   9
ENDBRANCH   1   7
BRANCH   6  12
ATOM     12  O   UNL     1      24.527   6.691  99.775  1.00  0.00    -0.508 OA
ATOM     13  H   UNL     1      25.393   6.323  99.399  1.00  0.00     0.293 HD
ENDBRANCH   6  12
TORSDOF 3
ENDMDL
MODEL 4
REMARK VINA RESULT:    -5.346      4.420      5.417
REMARK INTER + INTRA:          -6.273
REMARK INTER:                  -6.129
REMARK INTRA:                  -0.144
REMARK UNBOUND:                -0.145
REMARK SMILES O=C([O-])C=Cc1ccc(O)cc1
REMARK SMILES IDX 6 1 7 2 12 3 8 4 11 5 9 6 5 7 4 8 2 9 1 10 3 11 10 12
REMARK H PARENT 10 13
REMARK Flexibility Score: inf
ROOT
ATOM      1  C   UNL     1      21.629   2.475 103.993  1.00  0.00    -0.025 A 
ATOM      2  C   UNL     1      21.901   3.851 104.139  1.00  0.00     0.012 A 
ATOM      3  C   UNL     1      20.647   1.889 104.810  1.00  0.00     0.012 A 
ATOM      4  C   UNL     1      21.186   4.620 105.064  1.00  0.00     0.047 A 
ATOM      5  C   UNL     1      19.935   2.659 105.733  1.00  0.00     0.047 A 
ATOM      6  C   UNL     1      20.199   4.025 105.861  1.00  0.00     0.115 A 
ENDROOT
BRANCH   1   7
ATOM      7  C   UNL     1      22.366   1.612 103.036  1.00  0.00     0.010 C 
ATOM      8  C   UNL     1      22.864   0.408 103.351  1.00  0.00     0.025 C 
BRANCH   8   9
ATOM      9  C   UNL     1      23.599  -0.409 102.374  1.00  0.00     0.064 C 
ATOM     10  O   UNL     1      22.967  -1.199 101.625  1.00  0.00    -0.545 OA
ATOM     11  O   UNL     1      24.982  -0.321 102.262  1.00  0.00    -0.545 OA
ENDBRANCH   8   9
ENDBRANCH   1   7
BRANCH   6  12
ATOM     12  O   UNL     1      19.481   4.783 106.784  1.00  0.00    -0.508 OA
ATOM     13  H   UNL     1      18.471   4.734 106.838  1.00  0.00     0.293 HD
ENDBRANCH   6  12
TORSDOF 3
ENDMDL
MODEL 5
REMARK VINA RESULT:    -5.336      3.341      5.783
REMARK INTER + INTRA:          -6.261
REMARK INTER:                  -6.122
REMARK INTRA:                  -0.139
REMARK UNBOUND:                -0.145
REMARK SMILES O=C([O-])C=Cc1ccc(O)cc1
REMARK SMILES IDX 6 1 7 2 12 3 8 4 11 5 9 6 5 7 4 8 2 9 1 10 3 11 10 12
REMARK H PARENT 10 13
REMARK Flexibility Score: inf
ROOT
ATOM      1  C   UNL     1      21.791   4.069 103.477  1.00  0.00    -0.025 A 
ATOM      2  C   UNL     1      21.764   2.660 103.434  1.00  0.00     0.012 A 
ATOM      3  C   UNL     1      21.148   4.727 104.540  1.00  0.00     0.012 A 
ATOM      4  C   UNL     1      21.129   1.934 104.447  1.00  0.00     0.047 A 
ATOM      5  C   UNL     1      20.515   3.998 105.550  1.00  0.00     0.047 A 
ATOM      6  C   UNL     1      20.505   2.602 105.509  1.00  0.00     0.115 A 
ENDROOT
BRANCH   1   7
ATOM      7  C   UNL     1      22.440   4.889 102.423  1.00  0.00     0.010 C 
ATOM      8  C   UNL     1      21.764   5.635 101.539  1.00  0.00     0.025 C 
BRANCH   8   9
ATOM      9  C   UNL     1      22.448   6.422 100.501  1.00  0.00     0.064 C 
ATOM     10  O   UNL     1      21.768   7.061  99.657  1.00  0.00    -0.545 OA
ATOM     11  O   UNL     1      23.836   6.475 100.440  1.00  0.00    -0.545 OA
ENDBRANCH   8   9
ENDBRANCH   1   7
BRANCH   6  12
ATOM     12  O   UNL     1      19.871   1.886 106.522  1.00  0.00    -0.508 OA
ATOM     13  H   UNL     1      19.314   2.351 107.229  1.00  0.00     0.293 HD
ENDBRANCH   6  12
TORSDOF 3
ENDMDL
MODEL 6
REMARK VINA RESULT:    -4.899      8.449     10.002
REMARK INTER + INTRA:          -5.760
REMARK INTER:                  -5.609
REMARK INTRA:                  -0.151
REMARK UNBOUND:                -0.145
REMARK SMILES O=C([O-])C=Cc1ccc(O)cc1
REMARK SMILES IDX 6 1 7 2 12 3 8 4 11 5 9 6 5 7 4 8 2 9 1 10 3 11 10 12
REMARK H PARENT 10 13
REMARK Flexibility Score: inf
ROOT
ATOM      1  C   UNL     1      32.172   4.585  98.965  1.00  0.00    -0.025 A 
ATOM      2  C   UNL     1      32.501   5.404 100.065  1.00  0.00     0.012 A 
ATOM      3  C   UNL     1      31.980   3.209  99.180  1.00  0.00     0.012 A 
ATOM      4  C   UNL     1      32.607   4.858 101.347  1.00  0.00     0.047 A 
ATOM      5  C   UNL     1      32.087   2.666 100.463  1.00  0.00     0.047 A 
ATOM      6  C   UNL     1      32.398   3.488 101.550  1.00  0.00     0.115 A 
ENDROOT
BRANCH   1   7
ATOM      7  C   UNL     1      32.058   5.110  97.582  1.00  0.00     0.010 C 
ATOM      8  C   UNL     1      31.517   4.423  96.566  1.00  0.00     0.025 C 
BRANCH   8   9
ATOM      9  C   UNL     1      31.436   4.979  95.207  1.00  0.00     0.064 C 
ATOM     10  O   UNL     1      30.527   4.588  94.429  1.00  0.00    -0.545 OA
ATOM     11  O   UNL     1      32.347   5.933  94.767  1.00  0.00    -0.545 OA
ENDBRANCH   8   9
ENDBRANCH   1   7
BRANCH   6  12
ATOM     12  O   UNL     1      32.502   2.935 102.825  1.00  0.00    -0.508 OA
ATOM     13  H   UNL     1      33.375   2.553 103.167  1.00  0.00     0.293 HD
ENDBRANCH   6  12
TORSDOF 3
ENDMDL
MODEL 7
REMARK VINA RESULT:    -4.476      8.597      8.946
REMARK INTER + INTRA:          -5.275
REMARK INTER:                  -5.140
REMARK INTRA:                  -0.135
REMARK UNBOUND:                -0.145
REMARK SMILES O=C([O-])C=Cc1ccc(O)cc1
REMARK SMILES IDX 6 1 7 2 12 3 8 4 11 5 9 6 5 7 4 8 2 9 1 10 3 11 10 12
REMARK H PARENT 10 13
REMARK Flexibility Score: inf
ROOT
ATOM      1  C   UNL     1      32.889   4.324 100.813  1.00  0.00    -0.025 A 
ATOM      2  C   UNL     1      32.709   3.058 100.218  1.00  0.00     0.012 A 
ATOM      3  C   UNL     1      32.624   5.474 100.050  1.00  0.00     0.012 A 
ATOM      4  C   UNL     1      32.250   2.953  98.901  1.00  0.00     0.047 A 
ATOM      5  C   UNL     1      32.166   5.366  98.734  1.00  0.00     0.047 A 
ATOM      6  C   UNL     1      31.975   4.108  98.157  1.00  0.00     0.115 A 
ENDROOT
BRANCH   1   7
ATOM      7  C   UNL     1      33.384   4.491 102.202  1.00  0.00     0.010 C 
ATOM      8  C   UNL     1      32.613   4.879 103.226  1.00  0.00     0.025 C 
BRANCH   8   9
ATOM      9  C   UNL     1      33.149   5.044 104.586  1.00  0.00     0.064 C 
ATOM     10  O   UNL     1      32.731   4.303 105.513  1.00  0.00    -0.545 OA
ATOM     11  O   UNL     1      34.115   6.005 104.863  1.00  0.00    -0.545 OA
ENDBRANCH   8   9
ENDBRANCH   1   7
BRANCH   6  12
ATOM     12  O   UNL     1      31.517   4.014  96.844  1.00  0.00    -0.508 OA
ATOM     13  H   UNL     1      31.955   4.532  96.092  1.00  0.00     0.293 HD
ENDBRANCH   6  12
TORSDOF 3
ENDMDL
MODEL 8
REMARK VINA RESULT:    -4.440     11.241     12.285
REMARK INTER + INTRA:          -5.234
REMARK INTER:                  -5.095
REMARK INTRA:                  -0.139
REMARK UNBOUND:                -0.145
REMARK SMILES O=C([O-])C=Cc1ccc(O)cc1
REMARK SMILES IDX 6 1 7 2 12 3 8 4 11 5 9 6 5 7 4 8 2 9 1 10 3 11 10 12
REMARK H PARENT 10 13
REMARK Flexibility Score: inf
ROOT
ATOM      1  C   UNL     1      22.329  -6.008 106.232  1.00  0.00    -0.025 A 
ATOM      2  C   UNL     1      23.650  -5.672 105.871  1.00  0.00     0.012 A 
ATOM      3  C   UNL     1      21.422  -6.371 105.222  1.00  0.00     0.012 A 
ATOM      4  C   UNL     1      24.053  -5.726 104.533  1.00  0.00     0.047 A 
ATOM      5  C   UNL     1      21.828  -6.423 103.886  1.00  0.00     0.047 A 
ATOM      6  C   UNL     1      23.143  -6.104 103.537  1.00  0.00     0.115 A 
ENDROOT
BRANCH   1   7
ATOM      7  C   UNL     1      21.846  -5.955 107.635  1.00  0.00     0.010 C 
ATOM      8  C   UNL     1      22.613  -5.596 108.674  1.00  0.00     0.025 C 
BRANCH   8   9
ATOM      9  C   UNL     1      22.095  -5.571 110.050  1.00  0.00     0.064 C 
ATOM     10  O   UNL     1      22.369  -4.596 110.799  1.00  0.00    -0.545 OA
ATOM     11  O   UNL     1      21.305  -6.605 110.539  1.00  0.00    -0.545 OA
ENDBRANCH   8   9
ENDBRANCH   1   7
BRANCH   6  12
ATOM     12  O   UNL     1      23.535  -6.162 102.202  1.00  0.00    -0.508 OA
ATOM     13  H   UNL     1      24.513  -6.192 101.938  1.00  0.00     0.293 HD
ENDBRANCH   6  12
TORSDOF 3
ENDMDL
MODEL 9
REMARK VINA RESULT:    -4.397     11.222     12.477
REMARK INTER + INTRA:          -5.184
REMARK INTER:                  -5.045
REMARK INTRA:                  -0.139
REMARK UNBOUND:                -0.145
REMARK SMILES O=C([O-])C=Cc1ccc(O)cc1
REMARK SMILES IDX 6 1 7 2 12 3 8 4 11 5 9 6 5 7 4 8 2 9 1 10 3 11 10 12
REMARK H PARENT 10 13
REMARK Flexibility Score: inf
ROOT
ATOM      1  C   UNL     1      22.051  -6.490 104.653  1.00  0.00    -0.025 A 
ATOM      2  C   UNL     1      21.046  -6.377 105.635  1.00  0.00     0.012 A 
ATOM      3  C   UNL     1      23.390  -6.284 105.027  1.00  0.00     0.012 A 
ATOM      4  C   UNL     1      21.382  -6.091 106.962  1.00  0.00     0.047 A 
ATOM      5  C   UNL     1      23.723  -5.998 106.353  1.00  0.00     0.047 A 
ATOM      6  C   UNL     1      22.722  -5.903 107.325  1.00  0.00     0.115 A 
ENDROOT
BRANCH   1   7
ATOM      7  C   UNL     1      21.748  -6.780 103.228  1.00  0.00     0.010 C 
ATOM      8  C   UNL     1      21.733  -5.848 102.266  1.00  0.00     0.025 C 
BRANCH   8   9
ATOM      9  C   UNL     1      21.415  -6.178 100.868  1.00  0.00     0.064 C 
ATOM     10  O   UNL     1      20.624  -7.125 100.619  1.00  0.00    -0.545 OA
ATOM     11  O   UNL     1      21.972  -5.459  99.817  1.00  0.00    -0.545 OA
ENDBRANCH   8   9
ENDBRANCH   1   7
BRANCH   6  12
ATOM     12  O   UNL     1      23.068  -5.618 108.644  1.00  0.00    -0.508 OA
ATOM     13  H   UNL     1      23.245  -6.355 109.316  1.00  0.00     0.293 HD
ENDBRANCH   6  12
TORSDOF 3
ENDMDL
