MODEL 1
REMARK VINA RESULT:    -8.355      0.000      0.000
REMARK INTER + INTRA:         -10.272
REMARK INTER:                 -10.064
REMARK INTRA:                  -0.208
REMARK UNBOUND:                -0.208
REMARK SMILES Oc1cc(O)c2cc(O)c(-c3ccc(O)c(O)c3)[o+]c2c1.[Cl-]
REMARK SMILES IDX 10 1 19 2 20 3 21 4 2 5 3 6 4 7 6 8 7 9 8 10 11 11 12 12
REMARK SMILES IDX 13 13 14 14 18 15 16 16 15 17 17 19 9 21 1 23 5 25
REMARK H PARENT 15 18 17 20 9 22 1 24 5 26
REMARK Flexibility Score: inf
ROOT
ATOM      1  C   UNL     1     -34.458  44.266  40.103  1.00  0.00     0.402 A 
ATOM      2  O   UNL     1     -34.190  42.966  40.178  1.00  0.00    -0.202 OA
ATOM      3  C   UNL     1     -34.534  42.207  41.213  1.00  0.00     0.368 A 
ATOM      4  C   UNL     1     -34.206  40.849  41.200  1.00  0.00     0.162 A 
ATOM      5  C   UNL     1     -34.551  40.029  42.275  1.00  0.00     0.128 A 
ATOM      6  C   UNL     1     -35.229  40.570  43.374  1.00  0.00     0.093 A 
ATOM      7  C   UNL     1     -35.570  41.928  43.411  1.00  0.00     0.136 A 
ATOM      8  C   UNL     1     -35.222  42.764  42.319  1.00  0.00     0.125 A 
ATOM      9  C   UNL     1     -35.534  44.132  42.262  1.00  0.00     0.078 A 
ATOM     10  C   UNL     1     -35.162  44.891  41.149  1.00  0.00     0.223 A 
ENDROOT
BRANCH   1  11
ATOM     11  C   UNL     1     -34.013  45.005  38.900  1.00  0.00     0.087 A 
ATOM     12  C   UNL     1     -32.649  45.184  38.612  1.00  0.00     0.022 A 
ATOM     13  C   UNL     1     -32.254  45.867  37.458  1.00  0.00     0.051 A 
ATOM     14  C   UNL     1     -33.214  46.367  36.569  1.00  0.00     0.157 A 
ATOM     15  C   UNL     1     -34.972  45.492  37.994  1.00  0.00     0.068 A 
ATOM     16  C   UNL     1     -34.579  46.176  36.839  1.00  0.00     0.158 A 
BRANCH  14  17
ATOM     17  O   UNL     1     -32.816  47.049  35.419  1.00  0.00    -0.504 OA
ATOM     18  H   UNL     1     -31.849  47.064  35.120  1.00  0.00     0.293 HD
ENDBRANCH  14  17
BRANCH  16  19
ATOM     19  O   UNL     1     -35.560  46.656  35.970  1.00  0.00    -0.504 OA
ATOM     20  H   UNL     1     -36.341  47.213  36.295  1.00  0.00     0.293 HD
ENDBRANCH  16  19
ENDBRANCH   1  11
BRANCH  10  21
ATOM     21  O   UNL     1     -35.515  46.239  41.071  1.00  0.00    -0.500 OA
ATOM     22  H   UNL     1     -35.021  46.884  40.465  1.00  0.00     0.294 HD
ENDBRANCH  10  21
BRANCH   5  23
ATOM     23  O   UNL     1     -34.215  38.678  42.245  1.00  0.00    -0.507 OA
ATOM     24  H   UNL     1     -33.789  38.255  41.428  1.00  0.00     0.293 HD
ENDBRANCH   5  23
BRANCH   7  25
ATOM     25  O   UNL     1     -36.243  42.392  44.544  1.00  0.00    -0.507 OA
ATOM     26  H   UNL     1     -36.848  43.201  44.558  1.00  0.00     0.293 HD
ENDBRANCH   7  25
TORSDOF 6
ENDMDL
MODEL 2
REMARK VINA RESULT:    -7.781      4.467      7.487
REMARK INTER + INTRA:          -9.580
REMARK INTER:                  -9.265
REMARK INTRA:                  -0.315
REMARK UNBOUND:                -0.208
REMARK SMILES Oc1cc(O)c2cc(O)c(-c3ccc(O)c(O)c3)[o+]c2c1.[Cl-]
REMARK SMILES IDX 10 1 19 2 20 3 21 4 2 5 3 6 4 7 6 8 7 9 8 10 11 11 12 12
REMARK SMILES IDX 13 13 14 14 18 15 16 16 15 17 17 19 9 21 1 23 5 25
REMARK H PARENT 15 18 17 20 9 22 1 24 5 26
REMARK Flexibility Score: inf
ROOT
ATOM      1  C   UNL     1     -37.113  38.938  43.941  1.00  0.00     0.402 A 
ATOM      2  O   UNL     1     -38.043  39.317  44.813  1.00  0.00    -0.202 OA
ATOM      3  C   UNL     1     -38.479  38.541  45.800  1.00  0.00     0.368 A 
ATOM      4  C   UNL     1     -39.461  39.028  46.666  1.00  0.00     0.162 A 
ATOM      5  C   UNL     1     -39.940  38.234  47.708  1.00  0.00     0.128 A 
ATOM      6  C   UNL     1     -39.435  36.942  47.888  1.00  0.00     0.093 A 
ATOM      7  C   UNL     1     -38.449  36.430  47.035  1.00  0.00     0.136 A 
ATOM      8  C   UNL     1     -37.959  37.235  45.975  1.00  0.00     0.125 A 
ATOM      9  C   UNL     1     -36.963  36.812  45.079  1.00  0.00     0.078 A 
ATOM     10  C   UNL     1     -36.526  37.664  44.061  1.00  0.00     0.223 A 
ENDROOT
BRANCH   1  11
ATOM     11  C   UNL     1     -36.718  39.890  42.879  1.00  0.00     0.087 A 
ATOM     12  C   UNL     1     -35.535  40.644  42.972  1.00  0.00     0.022 A 
ATOM     13  C   UNL     1     -35.173  41.520  41.945  1.00  0.00     0.051 A 
ATOM     14  C   UNL     1     -35.979  41.646  40.805  1.00  0.00     0.157 A 
ATOM     15  C   UNL     1     -37.512  40.005  41.724  1.00  0.00     0.068 A 
ATOM     16  C   UNL     1     -37.152  40.882  40.695  1.00  0.00     0.158 A 
BRANCH  14  17
ATOM     17  O   UNL     1     -35.615  42.522  39.784  1.00  0.00    -0.504 OA
ATOM     18  H   UNL     1     -35.461  43.507  39.960  1.00  0.00     0.293 HD
ENDBRANCH  14  17
BRANCH  16  19
ATOM     19  O   UNL     1     -37.972  40.978  39.571  1.00  0.00    -0.504 OA
ATOM     20  H   UNL     1     -37.638  40.754  38.641  1.00  0.00     0.293 HD
ENDBRANCH  16  19
ENDBRANCH   1  11
BRANCH  10  21
ATOM     21  O   UNL     1     -35.503  37.262  43.203  1.00  0.00    -0.500 OA
ATOM     22  H   UNL     1     -35.546  37.435  42.205  1.00  0.00     0.294 HD
ENDBRANCH  10  21
BRANCH   5  23
ATOM     23  O   UNL     1     -40.921  38.738  48.560  1.00  0.00    -0.507 OA
ATOM     24  H   UNL     1     -40.868  39.679  48.932  1.00  0.00     0.293 HD
ENDBRANCH   5  23
BRANCH   7  25
ATOM     25  O   UNL     1     -37.999  35.130  47.279  1.00  0.00    -0.507 OA
ATOM     26  H   UNL     1     -37.399  34.868  48.048  1.00  0.00     0.293 HD
ENDBRANCH   7  25
TORSDOF 6
ENDMDL
MODEL 3
REMARK VINA RESULT:    -7.765      5.619      7.926
REMARK INTER + INTRA:          -9.561
REMARK INTER:                  -9.221
REMARK INTRA:                  -0.340
REMARK UNBOUND:                -0.208
REMARK SMILES Oc1cc(O)c2cc(O)c(-c3ccc(O)c(O)c3)[o+]c2c1.[Cl-]
REMARK SMILES IDX 10 1 19 2 20 3 21 4 2 5 3 6 4 7 6 8 7 9 8 10 11 11 12 12
REMARK SMILES IDX 13 13 14 14 18 15 16 16 15 17 17 19 9 21 1 23 5 25
REMARK H PARENT 15 18 17 20 9 22 1 24 5 26
REMARK Flexibility Score: inf
ROOT
ATOM      1  C   UNL     1     -37.010  39.957  44.977  1.00  0.00     0.402 A 
ATOM      2  O   UNL     1     -37.094  39.382  46.173  1.00  0.00    -0.202 OA
ATOM      3  C   UNL     1     -38.238  38.959  46.701  1.00  0.00     0.368 A 
ATOM      4  C   UNL     1     -38.226  38.368  47.967  1.00  0.00     0.162 A 
ATOM      5  C   UNL     1     -39.412  37.917  48.547  1.00  0.00     0.128 A 
ATOM      6  C   UNL     1     -40.621  38.058  47.858  1.00  0.00     0.093 A 
ATOM      7  C   UNL     1     -40.661  38.645  46.587  1.00  0.00     0.136 A 
ATOM      8  C   UNL     1     -39.457  39.103  45.994  1.00  0.00     0.125 A 
ATOM      9  C   UNL     1     -39.398  39.692  44.720  1.00  0.00     0.078 A 
ATOM     10  C   UNL     1     -38.172  40.115  44.198  1.00  0.00     0.223 A 
ENDROOT
BRANCH   1  11
ATOM     11  C   UNL     1     -35.678  40.396  44.503  1.00  0.00     0.087 A 
ATOM     12  C   UNL     1     -35.275  41.740  44.590  1.00  0.00     0.022 A 
ATOM     13  C   UNL     1     -34.004  42.126  44.157  1.00  0.00     0.051 A 
ATOM     14  C   UNL     1     -33.112  41.175  43.644  1.00  0.00     0.157 A 
ATOM     15  C   UNL     1     -34.772  39.443  44.007  1.00  0.00     0.068 A 
ATOM     16  C   UNL     1     -33.499  39.827  43.571  1.00  0.00     0.158 A 
BRANCH  14  17
ATOM     17  O   UNL     1     -31.845  41.565  43.211  1.00  0.00    -0.504 OA
ATOM     18  H   UNL     1     -31.335  41.031  42.518  1.00  0.00     0.293 HD
ENDBRANCH  14  17
BRANCH  16  19
ATOM     19  O   UNL     1     -32.632  38.854  43.072  1.00  0.00    -0.504 OA
ATOM     20  H   UNL     1     -32.970  37.984  42.679  1.00  0.00     0.293 HD
ENDBRANCH  16  19
ENDBRANCH   1  11
BRANCH  10  21
ATOM     21  O   UNL     1     -38.106  40.654  42.913  1.00  0.00    -0.500 OA
ATOM     22  H   UNL     1     -37.429  41.367  42.669  1.00  0.00     0.294 HD
ENDBRANCH  10  21
BRANCH   5  23
ATOM     23  O   UNL     1     -39.379  37.332  49.811  1.00  0.00    -0.507 OA
ATOM     24  H   UNL     1     -38.555  37.383  50.399  1.00  0.00     0.293 HD
ENDBRANCH   5  23
BRANCH   7  25
ATOM     25  O   UNL     1     -41.908  38.752  45.966  1.00  0.00    -0.507 OA
ATOM     26  H   UNL     1     -42.790  38.789  46.457  1.00  0.00     0.293 HD
ENDBRANCH   7  25
TORSDOF 6
ENDMDL
MODEL 4
REMARK VINA RESULT:    -7.755      4.364      9.930
REMARK INTER + INTRA:          -9.550
REMARK INTER:                  -9.239
REMARK INTRA:                  -0.310
REMARK UNBOUND:                -0.208
REMARK SMILES Oc1cc(O)c2cc(O)c(-c3ccc(O)c(O)c3)[o+]c2c1.[Cl-]
REMARK SMILES IDX 10 1 19 2 20 3 21 4 2 5 3 6 4 7 6 8 7 9 8 10 11 11 12 12
REMARK SMILES IDX 13 13 14 14 18 15 16 16 15 17 17 19 9 21 1 23 5 25
REMARK H PARENT 15 18 17 20 9 22 1 24 5 26
REMARK Flexibility Score: inf
ROOT
ATOM      1  C   UNL     1     -37.695  39.438  44.985  1.00  0.00     0.402 A 
ATOM      2  O   UNL     1     -37.580  40.726  44.678  1.00  0.00    -0.202 OA
ATOM      3  C   UNL     1     -36.736  41.187  43.760  1.00  0.00     0.368 A 
ATOM      4  C   UNL     1     -36.687  42.561  43.510  1.00  0.00     0.162 A 
ATOM      5  C   UNL     1     -35.808  43.072  42.554  1.00  0.00     0.128 A 
ATOM      6  C   UNL     1     -34.971  42.205  41.843  1.00  0.00     0.093 A 
ATOM      7  C   UNL     1     -35.001  40.824  42.075  1.00  0.00     0.136 A 
ATOM      8  C   UNL     1     -35.895  40.300  43.045  1.00  0.00     0.125 A 
ATOM      9  C   UNL     1     -36.005  38.931  43.335  1.00  0.00     0.078 A 
ATOM     10  C   UNL     1     -36.913  38.488  44.301  1.00  0.00     0.223 A 
ENDROOT
BRANCH   1  11
ATOM     11  C   UNL     1     -38.665  39.051  46.034  1.00  0.00     0.087 A 
ATOM     12  C   UNL     1     -40.040  38.951  45.761  1.00  0.00     0.022 A 
ATOM     13  C   UNL     1     -40.933  38.562  46.763  1.00  0.00     0.051 A 
ATOM     14  C   UNL     1     -40.466  38.253  48.047  1.00  0.00     0.157 A 
ATOM     15  C   UNL     1     -38.199  38.720  47.318  1.00  0.00     0.068 A 
ATOM     16  C   UNL     1     -39.091  38.331  48.323  1.00  0.00     0.158 A 
BRANCH  14  17
ATOM     17  O   UNL     1     -41.360  37.867  49.044  1.00  0.00    -0.504 OA
ATOM     18  H   UNL     1     -41.434  38.376  49.916  1.00  0.00     0.293 HD
ENDBRANCH  14  17
BRANCH  16  19
ATOM     19  O   UNL     1     -38.592  38.024  49.589  1.00  0.00    -0.504 OA
ATOM     20  H   UNL     1     -37.838  38.551  50.013  1.00  0.00     0.293 HD
ENDBRANCH  16  19
ENDBRANCH   1  11
BRANCH  10  21
ATOM     21  O   UNL     1     -37.057  37.124  44.553  1.00  0.00    -0.500 OA
ATOM     22  H   UNL     1     -37.875  36.610  44.246  1.00  0.00     0.294 HD
ENDBRANCH  10  21
BRANCH   5  23
ATOM     23  O   UNL     1     -35.772  44.444  42.319  1.00  0.00    -0.507 OA
ATOM     24  H   UNL     1     -35.752  45.113  43.080  1.00  0.00     0.293 HD
ENDBRANCH   5  23
BRANCH   7  25
ATOM     25  O   UNL     1     -34.132  40.026  41.327  1.00  0.00    -0.507 OA
ATOM     26  H   UNL     1     -34.386  39.548  40.474  1.00  0.00     0.293 HD
ENDBRANCH   7  25
TORSDOF 6
ENDMDL
MODEL 5
REMARK VINA RESULT:    -7.749      4.599      6.503
REMARK INTER + INTRA:          -9.542
REMARK INTER:                  -9.258
REMARK INTRA:                  -0.284
REMARK UNBOUND:                -0.208
REMARK SMILES Oc1cc(O)c2cc(O)c(-c3ccc(O)c(O)c3)[o+]c2c1.[Cl-]
REMARK SMILES IDX 10 1 19 2 20 3 21 4 2 5 3 6 4 7 6 8 7 9 8 10 11 11 12 12
REMARK SMILES IDX 13 13 14 14 18 15 16 16 15 17 17 19 9 21 1 23 5 25
REMARK H PARENT 15 18 17 20 9 22 1 24 5 26
REMARK Flexibility Score: inf
ROOT
ATOM      1  C   UNL     1     -36.454  39.966  43.319  1.00  0.00     0.402 A 
ATOM      2  O   UNL     1     -36.275  39.530  44.563  1.00  0.00    -0.202 OA
ATOM      3  C   UNL     1     -37.277  39.224  45.380  1.00  0.00     0.368 A 
ATOM      4  C   UNL     1     -36.989  38.775  46.672  1.00  0.00     0.162 A 
ATOM      5  C   UNL     1     -38.021  38.449  47.552  1.00  0.00     0.128 A 
ATOM      6  C   UNL     1     -39.353  38.573  47.141  1.00  0.00     0.093 A 
ATOM      7  C   UNL     1     -39.669  39.019  45.852  1.00  0.00     0.136 A 
ATOM      8  C   UNL     1     -38.622  39.350  44.953  1.00  0.00     0.125 A 
ATOM      9  C   UNL     1     -38.842  39.793  43.639  1.00  0.00     0.078 A 
ATOM     10  C   UNL     1     -37.759  40.095  42.809  1.00  0.00     0.223 A 
ENDROOT
BRANCH   1  11
ATOM     11  C   UNL     1     -35.256  40.285  42.510  1.00  0.00     0.087 A 
ATOM     12  C   UNL     1     -34.496  41.443  42.749  1.00  0.00     0.022 A 
ATOM     13  C   UNL     1     -33.356  41.711  41.986  1.00  0.00     0.051 A 
ATOM     14  C   UNL     1     -32.950  40.819  40.984  1.00  0.00     0.157 A 
ATOM     15  C   UNL     1     -34.832  39.384  41.518  1.00  0.00     0.068 A 
ATOM     16  C   UNL     1     -33.692  39.649  40.752  1.00  0.00     0.158 A 
BRANCH  14  17
ATOM     17  O   UNL     1     -31.813  41.090  40.224  1.00  0.00    -0.504 OA
ATOM     18  H   UNL     1     -31.737  40.792  39.259  1.00  0.00     0.293 HD
ENDBRANCH  14  17
BRANCH  16  19
ATOM     19  O   UNL     1     -33.310  38.738  39.767  1.00  0.00    -0.504 OA
ATOM     20  H   UNL     1     -32.362  38.388  39.697  1.00  0.00     0.293 HD
ENDBRANCH  16  19
ENDBRANCH   1  11
BRANCH  10  21
ATOM     21  O   UNL     1     -37.977  40.488  41.488  1.00  0.00    -0.500 OA
ATOM     22  H   UNL     1     -38.245  39.822  40.772  1.00  0.00     0.294 HD
ENDBRANCH  10  21
BRANCH   5  23
ATOM     23  O   UNL     1     -37.714  38.003  48.836  1.00  0.00    -0.507 OA
ATOM     24  H   UNL     1     -37.326  38.626  49.535  1.00  0.00     0.293 HD
ENDBRANCH   5  23
BRANCH   7  25
ATOM     25  O   UNL     1     -41.022  39.120  45.518  1.00  0.00    -0.507 OA
ATOM     26  H   UNL     1     -41.499  38.505  44.874  1.00  0.00     0.293 HD
ENDBRANCH   7  25
TORSDOF 6
ENDMDL
MODEL 6
REMARK VINA RESULT:    -7.644      3.731      6.428
REMARK INTER + INTRA:          -9.416
REMARK INTER:                  -9.067
REMARK INTRA:                  -0.349
REMARK UNBOUND:                -0.208
REMARK SMILES Oc1cc(O)c2cc(O)c(-c3ccc(O)c(O)c3)[o+]c2c1.[Cl-]
REMARK SMILES IDX 10 1 19 2 20 3 21 4 2 5 3 6 4 7 6 8 7 9 8 10 11 11 12 12
REMARK SMILES IDX 13 13 14 14 18 15 16 16 15 17 17 19 9 21 1 23 5 25
REMARK H PARENT 15 18 17 20 9 22 1 24 5 26
REMARK Flexibility Score: inf
ROOT
ATOM      1  C   UNL     1     -36.488  40.315  43.926  1.00  0.00     0.402 A 
ATOM      2  O   UNL     1     -37.786  40.138  44.152  1.00  0.00    -0.202 OA
ATOM      3  C   UNL     1     -38.265  39.555  45.246  1.00  0.00     0.368 A 
ATOM      4  C   UNL     1     -39.647  39.412  45.392  1.00  0.00     0.162 A 
ATOM      5  C   UNL     1     -40.177  38.801  46.529  1.00  0.00     0.128 A 
ATOM      6  C   UNL     1     -39.320  38.327  47.528  1.00  0.00     0.093 A 
ATOM      7  C   UNL     1     -37.931  38.458  47.407  1.00  0.00     0.136 A 
ATOM      8  C   UNL     1     -37.388  39.081  46.253  1.00  0.00     0.125 A 
ATOM      9  C   UNL     1     -36.011  39.268  46.050  1.00  0.00     0.078 A 
ATOM     10  C   UNL     1     -35.551  39.896  44.889  1.00  0.00     0.223 A 
ENDROOT
BRANCH   1  11
ATOM     11  C   UNL     1     -36.079  40.970  42.662  1.00  0.00     0.087 A 
ATOM     12  C   UNL     1     -35.904  42.362  42.581  1.00  0.00     0.022 A 
ATOM     13  C   UNL     1     -35.496  42.954  41.382  1.00  0.00     0.051 A 
ATOM     14  C   UNL     1     -35.243  42.164  40.253  1.00  0.00     0.157 A 
ATOM     15  C   UNL     1     -35.804  40.180  41.533  1.00  0.00     0.068 A 
ATOM     16  C   UNL     1     -35.396  40.770  40.331  1.00  0.00     0.158 A 
BRANCH  14  17
ATOM     17  O   UNL     1     -34.838  42.758  39.059  1.00  0.00    -0.504 OA
ATOM     18  H   UNL     1     -34.116  43.469  39.038  1.00  0.00     0.293 HD
ENDBRANCH  14  17
BRANCH  16  19
ATOM     19  O   UNL     1     -35.146  39.954  39.227  1.00  0.00    -0.504 OA
ATOM     20  H   UNL     1     -35.331  38.959  39.241  1.00  0.00     0.293 HD
ENDBRANCH  16  19
ENDBRANCH   1  11
BRANCH  10  21
ATOM     21  O   UNL     1     -34.187  40.126  44.711  1.00  0.00    -0.500 OA
ATOM     22  H   UNL     1     -33.815  41.063  44.610  1.00  0.00     0.294 HD
ENDBRANCH  10  21
BRANCH   5  23
ATOM     23  O   UNL     1     -41.557  38.667  46.656  1.00  0.00    -0.507 OA
ATOM     24  H   UNL     1     -42.065  37.927  46.186  1.00  0.00     0.293 HD
ENDBRANCH   5  23
BRANCH   7  25
ATOM     25  O   UNL     1     -37.143  37.956  48.446  1.00  0.00    -0.507 OA
ATOM     26  H   UNL     1     -36.419  38.480  48.918  1.00  0.00     0.293 HD
ENDBRANCH   7  25
TORSDOF 6
ENDMDL
MODEL 7
REMARK VINA RESULT:    -7.643      1.787      7.138
REMARK INTER + INTRA:          -9.414
REMARK INTER:                  -9.067
REMARK INTRA:                  -0.347
REMARK UNBOUND:                -0.208
REMARK SMILES Oc1cc(O)c2cc(O)c(-c3ccc(O)c(O)c3)[o+]c2c1.[Cl-]
REMARK SMILES IDX 10 1 19 2 20 3 21 4 2 5 3 6 4 7 6 8 7 9 8 10 11 11 12 12
REMARK SMILES IDX 13 13 14 14 18 15 16 16 15 17 17 19 9 21 1 23 5 25
REMARK H PARENT 15 18 17 20 9 22 1 24 5 26
REMARK Flexibility Score: inf
ROOT
ATOM      1  C   UNL     1     -35.091  41.577  42.008  1.00  0.00     0.402 A 
ATOM      2  O   UNL     1     -34.725  41.787  40.747  1.00  0.00    -0.202 OA
ATOM      3  C   UNL     1     -34.734  42.985  40.173  1.00  0.00     0.368 A 
ATOM      4  C   UNL     1     -34.333  43.105  38.840  1.00  0.00     0.162 A 
ATOM      5  C   UNL     1     -34.336  44.350  38.211  1.00  0.00     0.128 A 
ATOM      6  C   UNL     1     -34.744  45.486  38.918  1.00  0.00     0.093 A 
ATOM      7  C   UNL     1     -35.151  45.394  40.255  1.00  0.00     0.136 A 
ATOM      8  C   UNL     1     -35.147  44.130  40.898  1.00  0.00     0.125 A 
ATOM      9  C   UNL     1     -35.525  43.943  42.238  1.00  0.00     0.078 A 
ATOM     10  C   UNL     1     -35.491  42.666  42.805  1.00  0.00     0.223 A 
ENDROOT
BRANCH   1  11
ATOM     11  C   UNL     1     -35.047  40.192  42.529  1.00  0.00     0.087 A 
ATOM     12  C   UNL     1     -33.909  39.691  43.184  1.00  0.00     0.022 A 
ATOM     13  C   UNL     1     -33.900  38.388  43.688  1.00  0.00     0.051 A 
ATOM     14  C   UNL     1     -35.031  37.571  43.558  1.00  0.00     0.157 A 
ATOM     15  C   UNL     1     -36.187  39.376  42.420  1.00  0.00     0.068 A 
ATOM     16  C   UNL     1     -36.180  38.071  42.923  1.00  0.00     0.158 A 
BRANCH  14  17
ATOM     17  O   UNL     1     -35.018  36.271  44.060  1.00  0.00    -0.504 OA
ATOM     18  H   UNL     1     -34.287  35.951  44.684  1.00  0.00     0.293 HD
ENDBRANCH  14  17
BRANCH  16  19
ATOM     19  O   UNL     1     -37.325  37.286  42.784  1.00  0.00    -0.504 OA
ATOM     20  H   UNL     1     -37.467  36.679  41.986  1.00  0.00     0.293 HD
ENDBRANCH  16  19
ENDBRANCH   1  11
BRANCH  10  21
ATOM     21  O   UNL     1     -35.818  42.488  44.150  1.00  0.00    -0.500 OA
ATOM     22  H   UNL     1     -36.781  42.470  44.465  1.00  0.00     0.294 HD
ENDBRANCH  10  21
BRANCH   5  23
ATOM     23  O   UNL     1     -33.933  44.449  36.881  1.00  0.00    -0.507 OA
ATOM     24  H   UNL     1     -34.264  43.801  36.176  1.00  0.00     0.293 HD
ENDBRANCH   5  23
BRANCH   7  25
ATOM     25  O   UNL     1     -35.547  46.574  40.891  1.00  0.00    -0.507 OA
ATOM     26  H   UNL     1     -35.906  46.622  41.834  1.00  0.00     0.293 HD
ENDBRANCH   7  25
TORSDOF 6
ENDMDL
MODEL 8
REMARK VINA RESULT:    -7.613      4.046      9.324
REMARK INTER + INTRA:          -9.378
REMARK INTER:                  -9.211
REMARK INTRA:                  -0.167
REMARK UNBOUND:                -0.208
REMARK SMILES Oc1cc(O)c2cc(O)c(-c3ccc(O)c(O)c3)[o+]c2c1.[Cl-]
REMARK SMILES IDX 10 1 19 2 20 3 21 4 2 5 3 6 4 7 6 8 7 9 8 10 11 11 12 12
REMARK SMILES IDX 13 13 14 14 18 15 16 16 15 17 17 19 9 21 1 23 5 25
REMARK H PARENT 15 18 17 20 9 22 1 24 5 26
REMARK Flexibility Score: inf
ROOT
ATOM      1  C   UNL     1     -37.219  39.423  44.146  1.00  0.00     0.402 A 
ATOM      2  O   UNL     1     -35.935  39.759  44.223  1.00  0.00    -0.202 OA
ATOM      3  C   UNL     1     -35.296  40.430  43.270  1.00  0.00     0.368 A 
ATOM      4  C   UNL     1     -33.944  40.736  43.443  1.00  0.00     0.162 A 
ATOM      5  C   UNL     1     -33.248  41.436  42.457  1.00  0.00     0.128 A 
ATOM      6  C   UNL     1     -33.906  41.833  41.288  1.00  0.00     0.093 A 
ATOM      7  C   UNL     1     -35.261  41.540  41.091  1.00  0.00     0.136 A 
ATOM      8  C   UNL     1     -35.973  40.830  42.092  1.00  0.00     0.125 A 
ATOM      9  C   UNL     1     -37.335  40.503  41.988  1.00  0.00     0.078 A 
ATOM     10  C   UNL     1     -37.970  39.805  43.018  1.00  0.00     0.223 A 
ENDROOT
BRANCH   1  11
ATOM     11  C   UNL     1     -37.815  38.665  45.270  1.00  0.00     0.087 A 
ATOM     12  C   UNL     1     -38.870  39.194  46.033  1.00  0.00     0.022 A 
ATOM     13  C   UNL     1     -39.430  38.450  47.075  1.00  0.00     0.051 A 
ATOM     14  C   UNL     1     -38.955  37.163  47.360  1.00  0.00     0.157 A 
ATOM     15  C   UNL     1     -37.356  37.366  45.547  1.00  0.00     0.068 A 
ATOM     16  C   UNL     1     -37.914  36.619  46.590  1.00  0.00     0.158 A 
BRANCH  14  17
ATOM     17  O   UNL     1     -39.515  36.425  48.402  1.00  0.00    -0.504 OA
ATOM     18  H   UNL     1     -38.990  35.707  48.885  1.00  0.00     0.293 HD
ENDBRANCH  14  17
BRANCH  16  19
ATOM     19  O   UNL     1     -37.424  35.338  46.844  1.00  0.00    -0.504 OA
ATOM     20  H   UNL     1     -38.028  34.579  47.136  1.00  0.00     0.293 HD
ENDBRANCH  16  19
ENDBRANCH   1  11
BRANCH  10  21
ATOM     21  O   UNL     1     -39.334  39.524  42.937  1.00  0.00    -0.500 OA
ATOM     22  H   UNL     1     -39.827  39.530  42.051  1.00  0.00     0.294 HD
ENDBRANCH  10  21
BRANCH   5  23
ATOM     23  O   UNL     1     -31.900  41.731  42.647  1.00  0.00    -0.507 OA
ATOM     24  H   UNL     1     -31.523  42.649  42.439  1.00  0.00     0.293 HD
ENDBRANCH   5  23
BRANCH   7  25
ATOM     25  O   UNL     1     -35.846  41.968  39.896  1.00  0.00    -0.507 OA
ATOM     26  H   UNL     1     -36.821  41.847  39.662  1.00  0.00     0.293 HD
ENDBRANCH   7  25
TORSDOF 6
ENDMDL
MODEL 9
REMARK VINA RESULT:    -7.505      3.358      8.454
REMARK INTER + INTRA:          -9.248
REMARK INTER:                  -8.930
REMARK INTRA:                  -0.318
REMARK UNBOUND:                -0.208
REMARK SMILES Oc1cc(O)c2cc(O)c(-c3ccc(O)c(O)c3)[o+]c2c1.[Cl-]
REMARK SMILES IDX 10 1 19 2 20 3 21 4 2 5 3 6 4 7 6 8 7 9 8 10 11 11 12 12
REMARK SMILES IDX 13 13 14 14 18 15 16 16 15 17 17 19 9 21 1 23 5 25
REMARK H PARENT 15 18 17 20 9 22 1 24 5 26
REMARK Flexibility Score: inf
ROOT
ATOM      1  C   UNL     1     -36.123  39.799  43.149  1.00  0.00     0.402 A 
ATOM      2  O   UNL     1     -34.813  40.018  43.084  1.00  0.00    -0.202 OA
ATOM      3  C   UNL     1     -34.245  40.782  42.157  1.00  0.00     0.368 A 
ATOM      4  C   UNL     1     -32.858  40.950  42.169  1.00  0.00     0.162 A 
ATOM      5  C   UNL     1     -32.235  41.744  41.206  1.00  0.00     0.128 A 
ATOM      6  C   UNL     1     -33.003  42.375  40.221  1.00  0.00     0.093 A 
ATOM      7  C   UNL     1     -34.394  42.223  40.186  1.00  0.00     0.136 A 
ATOM      8  C   UNL     1     -35.032  41.418  41.165  1.00  0.00     0.125 A 
ATOM      9  C   UNL     1     -36.421  41.219  41.217  1.00  0.00     0.078 A 
ATOM     10  C   UNL     1     -36.978  40.415  42.216  1.00  0.00     0.223 A 
ENDROOT
BRANCH   1  11
ATOM     11  C   UNL     1     -36.634  38.919  44.224  1.00  0.00     0.087 A 
ATOM     12  C   UNL     1     -36.552  37.519  44.127  1.00  0.00     0.022 A 
ATOM     13  C   UNL     1     -37.021  36.710  45.166  1.00  0.00     0.051 A 
ATOM     14  C   UNL     1     -37.565  37.286  46.321  1.00  0.00     0.157 A 
ATOM     15  C   UNL     1     -37.161  39.492  45.394  1.00  0.00     0.068 A 
ATOM     16  C   UNL     1     -37.632  38.684  46.435  1.00  0.00     0.158 A 
BRANCH  14  17
ATOM     17  O   UNL     1     -38.033  36.476  47.354  1.00  0.00    -0.504 OA
ATOM     18  H   UNL     1     -38.785  36.774  47.963  1.00  0.00     0.293 HD
ENDBRANCH  14  17
BRANCH  16  19
ATOM     19  O   UNL     1     -38.161  39.290  47.576  1.00  0.00    -0.504 OA
ATOM     20  H   UNL     1     -38.887  38.851  48.129  1.00  0.00     0.293 HD
ENDBRANCH  16  19
ENDBRANCH   1  11
BRANCH  10  21
ATOM     21  O   UNL     1     -38.361  40.258  42.297  1.00  0.00    -0.500 OA
ATOM     22  H   UNL     1     -38.869  40.445  43.155  1.00  0.00     0.294 HD
ENDBRANCH  10  21
BRANCH   5  23
ATOM     23  O   UNL     1     -30.851  41.900  41.235  1.00  0.00    -0.507 OA
ATOM     24  H   UNL     1     -30.244  41.183  41.615  1.00  0.00     0.293 HD
ENDBRANCH   5  23
BRANCH   7  25
ATOM     25  O   UNL     1     -35.089  42.882  39.168  1.00  0.00    -0.507 OA
ATOM     26  H   UNL     1     -35.674  42.422  38.485  1.00  0.00     0.293 HD
ENDBRANCH   7  25
TORSDOF 6
ENDMDL
