MODEL 1
REMARK VINA RESULT:    -5.973      0.000      0.000
REMARK INTER + INTRA:         -18.051
REMARK INTER:                 -15.052
REMARK INTRA:                  -2.998
REMARK UNBOUND:                -2.998
REMARK SMILES CCCCCCCCCCCCCCCCCCCCCCCCCCCC(=O)[O-]
REMARK SMILES IDX 15 1 16 2 17 3 18 4 19 5 20 6 21 7 22 8 23 9 24 10 25 11
REMARK SMILES IDX 26 12 27 13 28 14 29 15 30 16 14 17 13 18 12 19 11 20 10 21
REMARK SMILES IDX 9 22 8 23 7 24 6 25 5 26 4 27 3 28 2 29 1 30
REMARK H PARENT
REMARK Flexibility Score: inf
ROOT
ATOM      1  C   UNL     1     -16.054  -6.544  43.162  1.00  0.00     0.000 C 
ENDROOT
BRANCH   1   2
ATOM      2  C   UNL     1     -16.531  -6.331  44.609  1.00  0.00     0.000 C 
BRANCH   2   3
ATOM      3  C   UNL     1     -17.669  -7.285  45.002  1.00  0.00     0.000 C 
BRANCH   3   4
ATOM      4  C   UNL     1     -17.412  -7.990  46.343  1.00  0.00     0.000 C 
BRANCH   4   5
ATOM      5  C   UNL     1     -17.423  -9.514  46.173  1.00  0.00     0.000 C 
BRANCH   5   6
ATOM      6  C   UNL     1     -16.830  -9.921  44.816  1.00  0.00     0.000 C 
BRANCH   6   7
ATOM      7  C   UNL     1     -15.463 -10.620  44.941  1.00  0.00     0.000 C 
BRANCH   7   8
ATOM      8  C   UNL     1     -14.360  -9.791  45.626  1.00  0.00     0.000 C 
BRANCH   8   9
ATOM      9  C   UNL     1     -13.611 -10.571  46.718  1.00  0.00     0.000 C 
BRANCH   9  10
ATOM     10  C   UNL     1     -14.518 -11.559  47.472  1.00  0.00     0.000 C 
BRANCH  10  11
ATOM     11  C   UNL     1     -15.242 -10.934  48.683  1.00  0.00     0.000 C 
BRANCH  11  12
ATOM     12  C   UNL     1     -14.434  -9.782  49.309  1.00  0.00     0.006 C 
BRANCH  12  13
ATOM     13  C   UNL     1     -15.133  -8.426  49.147  1.00  0.00     0.053 C 
BRANCH  13  14
ATOM     14  C   UNL     1     -14.182  -7.360  48.693  1.00  0.00     0.041 C 
ATOM     15  O   UNL     1     -14.378  -6.757  47.606  1.00  0.00    -0.550 OA
ATOM     16  O   UNL     1     -13.061  -7.057  49.457  1.00  0.00    -0.550 OA
ENDBRANCH  13  14
ENDBRANCH  12  13
ENDBRANCH  11  12
ENDBRANCH  10  11
ENDBRANCH   9  10
ENDBRANCH   8   9
ENDBRANCH   7   8
ENDBRANCH   6   7
ENDBRANCH   5   6
ENDBRANCH   4   5
ENDBRANCH   3   4
ENDBRANCH   2   3
ENDBRANCH   1   2
BRANCH   1  17
ATOM     17  C   UNL     1     -17.096  -7.275  42.299  1.00  0.00     0.000 C 
BRANCH  17  18
ATOM     18  C   UNL     1     -17.702  -6.370  41.212  1.00  0.00     0.000 C 
BRANCH  18  19
ATOM     19  C   UNL     1     -17.768  -7.069  39.837  1.00  0.00     0.000 C 
BRANCH  19  20
ATOM     20  C   UNL     1     -17.038  -6.308  38.713  1.00  0.00     0.000 C 
BRANCH  20  21
ATOM     21  C   UNL     1     -15.827  -5.475  39.166  1.00  0.00     0.000 C 
BRANCH  21  22
ATOM     22  C   UNL     1     -14.489  -6.055  38.672  1.00  0.00    -0.000 C 
BRANCH  22  23
ATOM     23  C   UNL     1     -14.442  -6.229  37.143  1.00  0.00    -0.000 C 
BRANCH  23  24
ATOM     24  C   UNL     1     -13.359  -7.197  36.632  1.00  0.00    -0.000 C 
BRANCH  24  25
ATOM     25  C   UNL     1     -12.372  -7.625  37.733  1.00  0.00    -0.000 C 
BRANCH  25  26
ATOM     26  C   UNL     1     -11.170  -8.405  37.180  1.00  0.00    -0.000 C 
BRANCH  26  27
ATOM     27  C   UNL     1     -11.080  -9.831  37.752  1.00  0.00    -0.000 C 
BRANCH  27  28
ATOM     28  C   UNL     1     -10.334  -9.884  39.095  1.00  0.00    -0.000 C 
BRANCH  28  29
ATOM     29  C   UNL     1      -8.845  -9.534  38.959  1.00  0.00    -0.003 C 
ATOM     30  C   UNL     1      -8.079 -10.656  38.264  1.00  0.00     0.004 C 
ENDBRANCH  28  29
ENDBRANCH  27  28
ENDBRANCH  26  27
ENDBRANCH  25  26
ENDBRANCH  24  25
ENDBRANCH  23  24
ENDBRANCH  22  23
ENDBRANCH  21  22
ENDBRANCH  20  21
ENDBRANCH  19  20
ENDBRANCH  18  19
ENDBRANCH  17  18
ENDBRANCH   1  17
TORSDOF 26
ENDMDL
MODEL 2
REMARK VINA RESULT:    -5.911      1.441      2.463
REMARK INTER + INTRA:         -17.893
REMARK INTER:                 -14.872
REMARK INTRA:                  -3.020
REMARK UNBOUND:                -2.998
REMARK SMILES CCCCCCCCCCCCCCCCCCCCCCCCCCCC(=O)[O-]
REMARK SMILES IDX 15 1 16 2 17 3 18 4 19 5 20 6 21 7 22 8 23 9 24 10 25 11
REMARK SMILES IDX 26 12 27 13 28 14 29 15 30 16 14 17 13 18 12 19 11 20 10 21
REMARK SMILES IDX 9 22 8 23 7 24 6 25 5 26 4 27 3 28 2 29 1 30
REMARK H PARENT
REMARK Flexibility Score: inf
ROOT
ATOM      1  C   UNL     1     -16.858  -7.275  43.005  1.00  0.00     0.000 C 
ENDROOT
BRANCH   1   2
ATOM      2  C   UNL     1     -16.410  -8.067  44.245  1.00  0.00     0.000 C 
BRANCH   2   3
ATOM      3  C   UNL     1     -17.075  -9.449  44.335  1.00  0.00     0.000 C 
BRANCH   3   4
ATOM      4  C   UNL     1     -16.098 -10.546  44.787  1.00  0.00     0.000 C 
BRANCH   4   5
ATOM      5  C   UNL     1     -14.719  -9.956  45.106  1.00  0.00     0.000 C 
BRANCH   5   6
ATOM      6  C   UNL     1     -14.069 -10.684  46.292  1.00  0.00     0.000 C 
BRANCH   6   7
ATOM      7  C   UNL     1     -15.087 -11.439  47.167  1.00  0.00     0.000 C 
BRANCH   7   8
ATOM      8  C   UNL     1     -15.396 -10.787  48.528  1.00  0.00     0.000 C 
BRANCH   8   9
ATOM      9  C   UNL     1     -16.454  -9.675  48.436  1.00  0.00     0.000 C 
BRANCH   9  10
ATOM     10  C   UNL     1     -15.908  -8.299  48.857  1.00  0.00     0.000 C 
BRANCH  10  11
ATOM     11  C   UNL     1     -15.710  -7.325  47.676  1.00  0.00     0.000 C 
BRANCH  11  12
ATOM     12  C   UNL     1     -14.222  -7.024  47.417  1.00  0.00     0.006 C 
BRANCH  12  13
ATOM     13  C   UNL     1     -13.417  -6.906  48.718  1.00  0.00     0.053 C 
BRANCH  13  14
ATOM     14  C   UNL     1     -12.166  -7.729  48.675  1.00  0.00     0.041 C 
ATOM     15  O   UNL     1     -12.219  -8.949  48.370  1.00  0.00    -0.550 OA
ATOM     16  O   UNL     1     -10.943  -7.154  49.001  1.00  0.00    -0.550 OA
ENDBRANCH  13  14
ENDBRANCH  12  13
ENDBRANCH  11  12
ENDBRANCH  10  11
ENDBRANCH   9  10
ENDBRANCH   8   9
ENDBRANCH   7   8
ENDBRANCH   6   7
ENDBRANCH   5   6
ENDBRANCH   4   5
ENDBRANCH   3   4
ENDBRANCH   2   3
ENDBRANCH   1   2
BRANCH   1  17
ATOM     17  C   UNL     1     -18.063  -7.918  42.299  1.00  0.00     0.000 C 
BRANCH  17  18
ATOM     18  C   UNL     1     -18.043  -7.696  40.776  1.00  0.00     0.000 C 
BRANCH  18  19
ATOM     19  C   UNL     1     -17.397  -6.349  40.387  1.00  0.00     0.000 C 
BRANCH  19  20
ATOM     20  C   UNL     1     -16.995  -6.254  38.903  1.00  0.00     0.000 C 
BRANCH  20  21
ATOM     21  C   UNL     1     -15.487  -6.097  38.642  1.00  0.00     0.000 C 
BRANCH  21  22
ATOM     22  C   UNL     1     -15.149  -6.013  37.143  1.00  0.00    -0.000 C 
BRANCH  22  23
ATOM     23  C   UNL     1     -13.850  -6.757  36.781  1.00  0.00    -0.000 C 
BRANCH  23  24
ATOM     24  C   UNL     1     -13.036  -7.267  37.985  1.00  0.00    -0.000 C 
BRANCH  24  25
ATOM     25  C   UNL     1     -11.873  -8.188  37.572  1.00  0.00    -0.000 C 
BRANCH  25  26
ATOM     26  C   UNL     1     -11.226  -8.898  38.771  1.00  0.00    -0.000 C 
BRANCH  26  27
ATOM     27  C   UNL     1     -11.502  -8.177  40.102  1.00  0.00    -0.000 C 
BRANCH  27  28
ATOM     28  C   UNL     1     -10.394  -8.409  41.142  1.00  0.00    -0.000 C 
BRANCH  28  29
ATOM     29  C   UNL     1      -9.607  -9.704  40.888  1.00  0.00    -0.003 C 
ATOM     30  C   UNL     1      -9.987 -10.784  41.896  1.00  0.00     0.004 C 
ENDBRANCH  28  29
ENDBRANCH  27  28
ENDBRANCH  26  27
ENDBRANCH  25  26
ENDBRANCH  24  25
ENDBRANCH  23  24
ENDBRANCH  22  23
ENDBRANCH  21  22
ENDBRANCH  20  21
ENDBRANCH  19  20
ENDBRANCH  18  19
ENDBRANCH  17  18
ENDBRANCH   1  17
TORSDOF 26
ENDMDL
MODEL 3
REMARK VINA RESULT:    -5.866      2.213      8.316
REMARK INTER + INTRA:         -17.781
REMARK INTER:                 -14.489
REMARK INTRA:                  -3.292
REMARK UNBOUND:                -2.998
REMARK SMILES CCCCCCCCCCCCCCCCCCCCCCCCCCCC(=O)[O-]
REMARK SMILES IDX 15 1 16 2 17 3 18 4 19 5 20 6 21 7 22 8 23 9 24 10 25 11
REMARK SMILES IDX 26 12 27 13 28 14 29 15 30 16 14 17 13 18 12 19 11 20 10 21
REMARK SMILES IDX 9 22 8 23 7 24 6 25 5 26 4 27 3 28 2 29 1 30
REMARK H PARENT
REMARK Flexibility Score: inf
ROOT
ATOM      1  C   UNL     1     -15.774  -6.116  41.303  1.00  0.00     0.000 C 
ENDROOT
BRANCH   1   2
ATOM      2  C   UNL     1     -16.949  -6.389  40.347  1.00  0.00     0.000 C 
BRANCH   2   3
ATOM      3  C   UNL     1     -16.582  -6.149  38.875  1.00  0.00     0.000 C 
BRANCH   3   4
ATOM      4  C   UNL     1     -15.124  -5.699  38.695  1.00  0.00     0.000 C 
BRANCH   4   5
ATOM      5  C   UNL     1     -14.706  -5.765  37.222  1.00  0.00     0.000 C 
BRANCH   5   6
ATOM      6  C   UNL     1     -13.733  -6.928  36.976  1.00  0.00     0.000 C 
BRANCH   6   7
ATOM      7  C   UNL     1     -12.890  -7.281  38.215  1.00  0.00     0.000 C 
BRANCH   7   8
ATOM      8  C   UNL     1     -11.647  -8.149  37.939  1.00  0.00     0.000 C 
BRANCH   8   9
ATOM      9  C   UNL     1     -10.858  -8.492  39.213  1.00  0.00     0.000 C 
BRANCH   9  10
ATOM     10  C   UNL     1     -10.317  -9.932  39.208  1.00  0.00     0.000 C 
BRANCH  10  11
ATOM     11  C   UNL     1      -9.511 -10.295  40.473  1.00  0.00     0.000 C 
BRANCH  11  12
ATOM     12  C   UNL     1     -10.306 -10.023  41.763  1.00  0.00     0.006 C 
BRANCH  12  13
ATOM     13  C   UNL     1      -9.426 -10.108  43.017  1.00  0.00     0.053 C 
BRANCH  13  14
ATOM     14  C   UNL     1     -10.117  -9.544  44.222  1.00  0.00     0.041 C 
ATOM     15  O   UNL     1     -11.357  -9.698  44.371  1.00  0.00    -0.550 OA
ATOM     16  O   UNL     1      -9.394  -8.821  45.163  1.00  0.00    -0.550 OA
ENDBRANCH  13  14
ENDBRANCH  12  13
ENDBRANCH  11  12
ENDBRANCH  10  11
ENDBRANCH   9  10
ENDBRANCH   8   9
ENDBRANCH   7   8
ENDBRANCH   6   7
ENDBRANCH   5   6
ENDBRANCH   4   5
ENDBRANCH   3   4
ENDBRANCH   2   3
ENDBRANCH   1   2
BRANCH   1  17
ATOM     17  C   UNL     1     -16.134  -6.395  42.772  1.00  0.00     0.000 C 
BRANCH  17  18
ATOM     18  C   UNL     1     -17.441  -7.194  42.918  1.00  0.00     0.000 C 
BRANCH  18  19
ATOM     19  C   UNL     1     -17.794  -7.476  44.394  1.00  0.00     0.000 C 
BRANCH  19  20
ATOM     20  C   UNL     1     -17.846  -8.975  44.749  1.00  0.00     0.000 C 
BRANCH  20  21
ATOM     21  C   UNL     1     -16.996  -9.890  43.852  1.00  0.00     0.000 C 
BRANCH  21  22
ATOM     22  C   UNL     1     -16.172 -10.911  44.656  1.00  0.00    -0.000 C 
BRANCH  22  23
ATOM     23  C   UNL     1     -14.845 -10.329  45.179  1.00  0.00    -0.000 C 
BRANCH  23  24
ATOM     24  C   UNL     1     -14.572 -10.573  46.675  1.00  0.00    -0.000 C 
BRANCH  24  25
ATOM     25  C   UNL     1     -15.841 -10.950  47.460  1.00  0.00    -0.000 C 
BRANCH  25  26
ATOM     26  C   UNL     1     -16.461  -9.751  48.193  1.00  0.00    -0.000 C 
BRANCH  26  27
ATOM     27  C   UNL     1     -15.555  -8.508  48.161  1.00  0.00    -0.000 C 
BRANCH  27  28
ATOM     28  C   UNL     1     -16.297  -7.246  47.691  1.00  0.00    -0.000 C 
BRANCH  28  29
ATOM     29  C   UNL     1     -15.356  -6.204  47.068  1.00  0.00    -0.003 C 
ATOM     30  C   UNL     1     -14.430  -6.846  46.039  1.00  0.00     0.004 C 
ENDBRANCH  28  29
ENDBRANCH  27  28
ENDBRANCH  26  27
ENDBRANCH  25  26
ENDBRANCH  24  25
ENDBRANCH  23  24
ENDBRANCH  22  23
ENDBRANCH  21  22
ENDBRANCH  20  21
ENDBRANCH  19  20
ENDBRANCH  18  19
ENDBRANCH  17  18
ENDBRANCH   1  17
TORSDOF 26
ENDMDL
MODEL 4
REMARK VINA RESULT:    -5.860      1.832      4.203
REMARK INTER + INTRA:         -17.764
REMARK INTER:                 -14.878
REMARK INTRA:                  -2.887
REMARK UNBOUND:                -2.998
REMARK SMILES CCCCCCCCCCCCCCCCCCCCCCCCCCCC(=O)[O-]
REMARK SMILES IDX 15 1 16 2 17 3 18 4 19 5 20 6 21 7 22 8 23 9 24 10 25 11
REMARK SMILES IDX 26 12 27 13 28 14 29 15 30 16 14 17 13 18 12 19 11 20 10 21
REMARK SMILES IDX 9 22 8 23 7 24 6 25 5 26 4 27 3 28 2 29 1 30
REMARK H PARENT
REMARK Flexibility Score: inf
ROOT
ATOM      1  C   UNL     1     -17.459  -6.863  38.965  1.00  0.00     0.000 C 
ENDROOT
BRANCH   1   2
ATOM      2  C   UNL     1     -17.890  -7.158  40.412  1.00  0.00     0.000 C 
BRANCH   2   3
ATOM      3  C   UNL     1     -16.886  -6.629  41.448  1.00  0.00     0.000 C 
BRANCH   3   4
ATOM      4  C   UNL     1     -17.480  -6.556  42.862  1.00  0.00     0.000 C 
BRANCH   4   5
ATOM      5  C   UNL     1     -16.784  -7.548  43.802  1.00  0.00     0.000 C 
BRANCH   5   6
ATOM      6  C   UNL     1     -17.328  -8.970  43.603  1.00  0.00     0.000 C 
BRANCH   6   7
ATOM      7  C   UNL     1     -17.194  -9.849  44.861  1.00  0.00     0.000 C 
BRANCH   7   8
ATOM      8  C   UNL     1     -15.982 -10.800  44.872  1.00  0.00     0.000 C 
BRANCH   8   9
ATOM      9  C   UNL     1     -15.088 -10.620  46.109  1.00  0.00     0.000 C 
BRANCH   9  10
ATOM     10  C   UNL     1     -15.793 -11.021  47.417  1.00  0.00     0.000 C 
BRANCH  10  11
ATOM     11  C   UNL     1     -16.289  -9.818  48.246  1.00  0.00     0.000 C 
BRANCH  11  12
ATOM     12  C   UNL     1     -15.411  -8.571  48.041  1.00  0.00     0.006 C 
BRANCH  12  13
ATOM     13  C   UNL     1     -16.218  -7.366  47.541  1.00  0.00     0.053 C 
BRANCH  13  14
ATOM     14  C   UNL     1     -15.328  -6.258  47.065  1.00  0.00     0.041 C 
ATOM     15  O   UNL     1     -15.761  -5.402  46.252  1.00  0.00    -0.550 OA
ATOM     16  O   UNL     1     -14.009  -6.192  47.497  1.00  0.00    -0.550 OA
ENDBRANCH  13  14
ENDBRANCH  12  13
ENDBRANCH  11  12
ENDBRANCH  10  11
ENDBRANCH   9  10
ENDBRANCH   8   9
ENDBRANCH   7   8
ENDBRANCH   6   7
ENDBRANCH   5   6
ENDBRANCH   4   5
ENDBRANCH   3   4
ENDBRANCH   2   3
ENDBRANCH   1   2
BRANCH   1  17
ATOM     17  C   UNL     1     -16.347  -5.804  38.886  1.00  0.00     0.000 C 
BRANCH  17  18
ATOM     18  C   UNL     1     -15.447  -5.984  37.651  1.00  0.00     0.000 C 
BRANCH  18  19
ATOM     19  C   UNL     1     -14.019  -6.436  38.026  1.00  0.00     0.000 C 
BRANCH  19  20
ATOM     20  C   UNL     1     -13.310  -7.246  36.925  1.00  0.00     0.000 C 
BRANCH  20  21
ATOM     21  C   UNL     1     -12.134  -8.114  37.405  1.00  0.00     0.000 C 
BRANCH  21  22
ATOM     22  C   UNL     1     -11.752  -7.837  38.870  1.00  0.00    -0.000 C 
BRANCH  22  23
ATOM     23  C   UNL     1     -10.682  -8.810  39.402  1.00  0.00    -0.000 C 
BRANCH  23  24
ATOM     24  C   UNL     1     -10.618  -8.930  40.936  1.00  0.00    -0.000 C 
BRANCH  24  25
ATOM     25  C   UNL     1      -9.898 -10.207  41.406  1.00  0.00    -0.000 C 
BRANCH  25  26
ATOM     26  C   UNL     1     -10.176 -10.535  42.880  1.00  0.00    -0.000 C 
BRANCH  26  27
ATOM     27  C   UNL     1     -10.673  -9.314  43.672  1.00  0.00    -0.000 C 
BRANCH  27  28
ATOM     28  C   UNL     1     -11.691  -9.689  44.761  1.00  0.00    -0.000 C 
BRANCH  28  29
ATOM     29  C   UNL     1     -12.579  -8.505  45.174  1.00  0.00    -0.003 C 
ATOM     30  C   UNL     1     -12.859  -7.589  43.986  1.00  0.00     0.004 C 
ENDBRANCH  28  29
ENDBRANCH  27  28
ENDBRANCH  26  27
ENDBRANCH  25  26
ENDBRANCH  24  25
ENDBRANCH  23  24
ENDBRANCH  22  23
ENDBRANCH  21  22
ENDBRANCH  20  21
ENDBRANCH  19  20
ENDBRANCH  18  19
ENDBRANCH  17  18
ENDBRANCH   1  17
TORSDOF 26
ENDMDL
MODEL 5
REMARK VINA RESULT:    -5.807      3.493      9.244
REMARK INTER + INTRA:         -17.631
REMARK INTER:                 -13.853
REMARK INTRA:                  -3.778
REMARK UNBOUND:                -2.998
REMARK SMILES CCCCCCCCCCCCCCCCCCCCCCCCCCCC(=O)[O-]
REMARK SMILES IDX 15 1 16 2 17 3 18 4 19 5 20 6 21 7 22 8 23 9 24 10 25 11
REMARK SMILES IDX 26 12 27 13 28 14 29 15 30 16 14 17 13 18 12 19 11 20 10 21
REMARK SMILES IDX 9 22 8 23 7 24 6 25 5 26 4 27 3 28 2 29 1 30
REMARK H PARENT
REMARK Flexibility Score: inf
ROOT
ATOM      1  C   UNL     1     -17.399  -9.078  44.319  1.00  0.00     0.000 C 
ENDROOT
BRANCH   1   2
ATOM      2  C   UNL     1     -18.017  -8.401  43.083  1.00  0.00     0.000 C 
BRANCH   2   3
ATOM      3  C   UNL     1     -17.720  -6.895  43.023  1.00  0.00     0.000 C 
BRANCH   3   4
ATOM      4  C   UNL     1     -16.807  -6.519  41.846  1.00  0.00     0.000 C 
BRANCH   4   5
ATOM      5  C   UNL     1     -17.487  -6.822  40.505  1.00  0.00     0.000 C 
BRANCH   5   6
ATOM      6  C   UNL     1     -17.144  -5.750  39.460  1.00  0.00     0.000 C 
BRANCH   6   7
ATOM      7  C   UNL     1     -16.548  -6.336  38.167  1.00  0.00     0.000 C 
BRANCH   7   8
ATOM      8  C   UNL     1     -15.114  -5.878  37.838  1.00  0.00     0.000 C 
BRANCH   8   9
ATOM      9  C   UNL     1     -14.381  -5.279  39.049  1.00  0.00     0.000 C 
BRANCH   9  10
ATOM     10  C   UNL     1     -13.343  -6.242  39.652  1.00  0.00     0.000 C 
BRANCH  10  11
ATOM     11  C   UNL     1     -12.777  -7.256  38.636  1.00  0.00     0.000 C 
BRANCH  11  12
ATOM     12  C   UNL     1     -11.304  -7.600  38.921  1.00  0.00     0.006 C 
BRANCH  12  13
ATOM     13  C   UNL     1     -10.994  -9.082  38.672  1.00  0.00     0.053 C 
BRANCH  13  14
ATOM     14  C   UNL     1     -10.152  -9.276  37.447  1.00  0.00     0.041 C 
ATOM     15  O   UNL     1      -9.339 -10.234  37.383  1.00  0.00    -0.550 OA
ATOM     16  O   UNL     1     -10.247  -8.380  36.389  1.00  0.00    -0.550 OA
ENDBRANCH  13  14
ENDBRANCH  12  13
ENDBRANCH  11  12
ENDBRANCH  10  11
ENDBRANCH   9  10
ENDBRANCH   8   9
ENDBRANCH   7   8
ENDBRANCH   6   7
ENDBRANCH   5   6
ENDBRANCH   4   5
ENDBRANCH   3   4
ENDBRANCH   2   3
ENDBRANCH   1   2
BRANCH   1  17
ATOM     17  C   UNL     1     -16.985 -10.534  44.047  1.00  0.00     0.000 C 
BRANCH  17  18
ATOM     18  C   UNL     1     -15.749 -10.958  44.860  1.00  0.00     0.000 C 
BRANCH  18  19
ATOM     19  C   UNL     1     -15.890 -10.625  46.360  1.00  0.00     0.000 C 
BRANCH  19  20
ATOM     20  C   UNL     1     -15.148 -11.604  47.290  1.00  0.00     0.000 C 
BRANCH  20  21
ATOM     21  C   UNL     1     -14.193 -10.948  48.302  1.00  0.00     0.000 C 
BRANCH  21  22
ATOM     22  C   UNL     1     -13.278  -9.893  47.657  1.00  0.00    -0.000 C 
BRANCH  22  23
ATOM     23  C   UNL     1     -13.219  -8.581  48.462  1.00  0.00    -0.000 C 
BRANCH  23  24
ATOM     24  C   UNL     1     -14.574  -8.092  49.008  1.00  0.00    -0.000 C 
BRANCH  24  25
ATOM     25  C   UNL     1     -15.064  -6.803  48.324  1.00  0.00    -0.000 C 
BRANCH  25  26
ATOM     26  C   UNL     1     -16.040  -7.078  47.171  1.00  0.00    -0.000 C 
BRANCH  26  27
ATOM     27  C   UNL     1     -15.874  -6.085  46.008  1.00  0.00    -0.000 C 
BRANCH  27  28
ATOM     28  C   UNL     1     -14.504  -6.200  45.322  1.00  0.00    -0.000 C 
BRANCH  28  29
ATOM     29  C   UNL     1     -14.203  -7.626  44.836  1.00  0.00    -0.003 C 
ATOM     30  C   UNL     1     -12.783  -7.730  44.287  1.00  0.00     0.004 C 
ENDBRANCH  28  29
ENDBRANCH  27  28
ENDBRANCH  26  27
ENDBRANCH  25  26
ENDBRANCH  24  25
ENDBRANCH  23  24
ENDBRANCH  22  23
ENDBRANCH  21  22
ENDBRANCH  20  21
ENDBRANCH  19  20
ENDBRANCH  18  19
ENDBRANCH  17  18
ENDBRANCH   1  17
TORSDOF 26
ENDMDL
MODEL 6
REMARK VINA RESULT:    -5.763      3.232      8.476
REMARK INTER + INTRA:         -17.521
REMARK INTER:                 -13.202
REMARK INTRA:                  -4.319
REMARK UNBOUND:                -2.998
REMARK SMILES CCCCCCCCCCCCCCCCCCCCCCCCCCCC(=O)[O-]
REMARK SMILES IDX 15 1 16 2 17 3 18 4 19 5 20 6 21 7 22 8 23 9 24 10 25 11
REMARK SMILES IDX 26 12 27 13 28 14 29 15 30 16 14 17 13 18 12 19 11 20 10 21
REMARK SMILES IDX 9 22 8 23 7 24 6 25 5 26 4 27 3 28 2 29 1 30
REMARK H PARENT
REMARK Flexibility Score: inf
ROOT
ATOM      1  C   UNL     1     -17.401  -6.500  41.330  1.00  0.00     0.000 C 
ENDROOT
BRANCH   1   2
ATOM      2  C   UNL     1     -18.019  -7.550  40.389  1.00  0.00     0.000 C 
BRANCH   2   3
ATOM      3  C   UNL     1     -17.666  -7.303  38.915  1.00  0.00     0.000 C 
BRANCH   3   4
ATOM      4  C   UNL     1     -16.835  -6.027  38.712  1.00  0.00     0.000 C 
BRANCH   4   5
ATOM      5  C   UNL     1     -15.584  -6.315  37.873  1.00  0.00     0.000 C 
BRANCH   5   6
ATOM      6  C   UNL     1     -14.341  -5.659  38.494  1.00  0.00     0.000 C 
BRANCH   6   7
ATOM      7  C   UNL     1     -14.685  -4.613  39.570  1.00  0.00     0.000 C 
BRANCH   7   8
ATOM      8  C   UNL     1     -13.773  -4.621  40.811  1.00  0.00     0.000 C 
BRANCH   8   9
ATOM      9  C   UNL     1     -13.858  -5.931  41.611  1.00  0.00     0.000 C 
BRANCH   9  10
ATOM     10  C   UNL     1     -12.483  -6.587  41.827  1.00  0.00     0.000 C 
BRANCH  10  11
ATOM     11  C   UNL     1     -11.387  -6.051  40.883  1.00  0.00     0.000 C 
BRANCH  11  12
ATOM     12  C   UNL     1     -10.700  -7.180  40.093  1.00  0.00     0.006 C 
BRANCH  12  13
ATOM     13  C   UNL     1     -11.703  -8.032  39.304  1.00  0.00     0.053 C 
BRANCH  13  14
ATOM     14  C   UNL     1     -11.036  -9.189  38.624  1.00  0.00     0.041 C 
ATOM     15  O   UNL     1     -11.244  -9.413  37.404  1.00  0.00    -0.550 OA
ATOM     16  O   UNL     1     -10.208 -10.038  39.349  1.00  0.00    -0.550 OA
ENDBRANCH  13  14
ENDBRANCH  12  13
ENDBRANCH  11  12
ENDBRANCH  10  11
ENDBRANCH   9  10
ENDBRANCH   8   9
ENDBRANCH   7   8
ENDBRANCH   6   7
ENDBRANCH   5   6
ENDBRANCH   4   5
ENDBRANCH   3   4
ENDBRANCH   2   3
ENDBRANCH   1   2
BRANCH   1  17
ATOM     17  C   UNL     1     -17.813  -6.710  42.797  1.00  0.00     0.000 C 
BRANCH  17  18
ATOM     18  C   UNL     1     -17.951  -8.198  43.164  1.00  0.00     0.000 C 
BRANCH  18  19
ATOM     19  C   UNL     1     -16.894  -8.649  44.194  1.00  0.00     0.000 C 
BRANCH  19  20
ATOM     20  C   UNL     1     -16.085  -7.490  44.809  1.00  0.00     0.000 C 
BRANCH  20  21
ATOM     21  C   UNL     1     -16.189  -7.358  46.338  1.00  0.00     0.000 C 
BRANCH  21  22
ATOM     22  C   UNL     1     -17.313  -8.225  46.934  1.00  0.00    -0.000 C 
BRANCH  22  23
ATOM     23  C   UNL     1     -16.791  -9.281  47.926  1.00  0.00    -0.000 C 
BRANCH  23  24
ATOM     24  C   UNL     1     -16.406 -10.632  47.295  1.00  0.00    -0.000 C 
BRANCH  24  25
ATOM     25  C   UNL     1     -14.977 -11.076  47.658  1.00  0.00    -0.000 C 
BRANCH  25  26
ATOM     26  C   UNL     1     -14.074  -9.898  48.054  1.00  0.00    -0.000 C 
BRANCH  26  27
ATOM     27  C   UNL     1     -12.881  -9.723  47.099  1.00  0.00    -0.000 C 
BRANCH  27  28
ATOM     28  C   UNL     1     -13.277  -9.879  45.622  1.00  0.00    -0.000 C 
BRANCH  28  29
ATOM     29  C   UNL     1     -12.711  -8.759  44.736  1.00  0.00    -0.003 C 
ATOM     30  C   UNL     1     -12.241  -7.578  45.578  1.00  0.00     0.004 C 
ENDBRANCH  28  29
ENDBRANCH  27  28
ENDBRANCH  26  27
ENDBRANCH  25  26
ENDBRANCH  24  25
ENDBRANCH  23  24
ENDBRANCH  22  23
ENDBRANCH  21  22
ENDBRANCH  20  21
ENDBRANCH  19  20
ENDBRANCH  18  19
ENDBRANCH  17  18
ENDBRANCH   1  17
TORSDOF 26
ENDMDL
MODEL 7
REMARK VINA RESULT:    -5.733      1.312      2.488
REMARK INTER + INTRA:         -17.445
REMARK INTER:                 -13.871
REMARK INTRA:                  -3.574
REMARK UNBOUND:                -2.998
REMARK SMILES CCCCCCCCCCCCCCCCCCCCCCCCCCCC(=O)[O-]
REMARK SMILES IDX 15 1 16 2 17 3 18 4 19 5 20 6 21 7 22 8 23 9 24 10 25 11
REMARK SMILES IDX 26 12 27 13 28 14 29 15 30 16 14 17 13 18 12 19 11 20 10 21
REMARK SMILES IDX 9 22 8 23 7 24 6 25 5 26 4 27 3 28 2 29 1 30
REMARK H PARENT
REMARK Flexibility Score: inf
ROOT
ATOM      1  C   UNL     1     -15.195  -6.159  43.636  1.00  0.00     0.000 C 
ENDROOT
BRANCH   1   2
ATOM      2  C   UNL     1     -14.510  -7.445  44.130  1.00  0.00     0.000 C 
BRANCH   2   3
ATOM      3  C   UNL     1     -13.257  -7.162  44.972  1.00  0.00     0.000 C 
BRANCH   3   4
ATOM      4  C   UNL     1     -12.889  -8.333  45.896  1.00  0.00     0.000 C 
BRANCH   4   5
ATOM      5  C   UNL     1     -13.518  -9.641  45.402  1.00  0.00     0.000 C 
BRANCH   5   6
ATOM      6  C   UNL     1     -14.007 -10.496  46.581  1.00  0.00     0.000 C 
BRANCH   6   7
ATOM      7  C   UNL     1     -15.444 -11.016  46.393  1.00  0.00     0.000 C 
BRANCH   7   8
ATOM      8  C   UNL     1     -16.170 -10.504  45.134  1.00  0.00     0.000 C 
BRANCH   8   9
ATOM      9  C   UNL     1     -17.356  -9.580  45.457  1.00  0.00     0.000 C 
BRANCH   9  10
ATOM     10  C   UNL     1     -17.311  -9.035  46.895  1.00  0.00     0.000 C 
BRANCH  10  11
ATOM     11  C   UNL     1     -16.705  -7.620  47.001  1.00  0.00     0.000 C 
BRANCH  11  12
ATOM     12  C   UNL     1     -15.741  -7.490  48.195  1.00  0.00     0.006 C 
BRANCH  12  13
ATOM     13  C   UNL     1     -15.180  -6.069  48.337  1.00  0.00     0.053 C 
BRANCH  13  14
ATOM     14  C   UNL     1     -13.726  -6.079  48.700  1.00  0.00     0.041 C 
ATOM     15  O   UNL     1     -13.291  -6.896  49.554  1.00  0.00    -0.550 OA
ATOM     16  O   UNL     1     -12.857  -5.165  48.117  1.00  0.00    -0.550 OA
ENDBRANCH  13  14
ENDBRANCH  12  13
ENDBRANCH  11  12
ENDBRANCH  10  11
ENDBRANCH   9  10
ENDBRANCH   8   9
ENDBRANCH   7   8
ENDBRANCH   6   7
ENDBRANCH   5   6
ENDBRANCH   4   5
ENDBRANCH   3   4
ENDBRANCH   2   3
ENDBRANCH   1   2
BRANCH   1  17
ATOM     17  C   UNL     1     -16.725  -6.300  43.561  1.00  0.00     0.000 C 
BRANCH  17  18
ATOM     18  C   UNL     1     -17.178  -7.213  42.408  1.00  0.00     0.000 C 
BRANCH  18  19
ATOM     19  C   UNL     1     -17.926  -6.438  41.303  1.00  0.00     0.000 C 
BRANCH  19  20
ATOM     20  C   UNL     1     -17.559  -6.877  39.873  1.00  0.00     0.000 C 
BRANCH  20  21
ATOM     21  C   UNL     1     -17.074  -5.749  38.946  1.00  0.00     0.000 C 
BRANCH  21  22
ATOM     22  C   UNL     1     -15.546  -5.570  38.977  1.00  0.00    -0.000 C 
BRANCH  22  23
ATOM     23  C   UNL     1     -14.878  -5.907  37.631  1.00  0.00    -0.000 C 
BRANCH  23  24
ATOM     24  C   UNL     1     -13.644  -6.824  37.729  1.00  0.00    -0.000 C 
BRANCH  24  25
ATOM     25  C   UNL     1     -12.943  -6.738  39.097  1.00  0.00    -0.000 C 
BRANCH  25  26
ATOM     26  C   UNL     1     -12.006  -7.926  39.358  1.00  0.00    -0.000 C 
BRANCH  26  27
ATOM     27  C   UNL     1     -11.243  -8.364  38.095  1.00  0.00    -0.000 C 
BRANCH  27  28
ATOM     28  C   UNL     1     -10.546  -9.723  38.266  1.00  0.00    -0.000 C 
BRANCH  28  29
ATOM     29  C   UNL     1      -9.387  -9.922  37.278  1.00  0.00    -0.003 C 
ATOM     30  C   UNL     1      -8.080  -9.381  37.850  1.00  0.00     0.004 C 
ENDBRANCH  28  29
ENDBRANCH  27  28
ENDBRANCH  26  27
ENDBRANCH  25  26
ENDBRANCH  24  25
ENDBRANCH  23  24
ENDBRANCH  22  23
ENDBRANCH  21  22
ENDBRANCH  20  21
ENDBRANCH  19  20
ENDBRANCH  18  19
ENDBRANCH  17  18
ENDBRANCH   1  17
TORSDOF 26
ENDMDL
MODEL 8
REMARK VINA RESULT:    -5.726      3.006      6.093
REMARK INTER + INTRA:         -17.427
REMARK INTER:                 -12.818
REMARK INTRA:                  -4.610
REMARK UNBOUND:                -2.998
REMARK SMILES CCCCCCCCCCCCCCCCCCCCCCCCCCCC(=O)[O-]
REMARK SMILES IDX 15 1 16 2 17 3 18 4 19 5 20 6 21 7 22 8 23 9 24 10 25 11
REMARK SMILES IDX 26 12 27 13 28 14 29 15 30 16 14 17 13 18 12 19 11 20 10 21
REMARK SMILES IDX 9 22 8 23 7 24 6 25 5 26 4 27 3 28 2 29 1 30
REMARK H PARENT
REMARK Flexibility Score: inf
ROOT
ATOM      1  C   UNL     1     -15.990 -10.770  46.802  1.00  0.00     0.000 C 
ENDROOT
BRANCH   1   2
ATOM      2  C   UNL     1     -14.814 -11.231  47.680  1.00  0.00     0.000 C 
BRANCH   2   3
ATOM      3  C   UNL     1     -14.750 -10.486  49.022  1.00  0.00     0.000 C 
BRANCH   3   4
ATOM      4  C   UNL     1     -15.916  -9.503  49.208  1.00  0.00     0.000 C 
BRANCH   4   5
ATOM      5  C   UNL     1     -15.412  -8.056  49.254  1.00  0.00     0.000 C 
BRANCH   5   6
ATOM      6  C   UNL     1     -15.817  -7.291  47.985  1.00  0.00     0.000 C 
BRANCH   6   7
ATOM      7  C   UNL     1     -14.633  -7.029  47.036  1.00  0.00     0.000 C 
BRANCH   7   8
ATOM      8  C   UNL     1     -13.237  -7.200  47.663  1.00  0.00     0.000 C 
BRANCH   8   9
ATOM      9  C   UNL     1     -12.426  -8.340  47.025  1.00  0.00     0.000 C 
BRANCH   9  10
ATOM     10  C   UNL     1     -12.816  -8.599  45.559  1.00  0.00     0.000 C 
BRANCH  10  11
ATOM     11  C   UNL     1     -12.086  -9.803  44.929  1.00  0.00     0.000 C 
BRANCH  11  12
ATOM     12  C   UNL     1     -10.670  -9.436  44.450  1.00  0.00     0.006 C 
BRANCH  12  13
ATOM     13  C   UNL     1     -10.588  -9.302  42.923  1.00  0.00     0.053 C 
BRANCH  13  14
ATOM     14  C   UNL     1      -9.685 -10.336  42.322  1.00  0.00     0.041 C 
ATOM     15  O   UNL     1      -8.801 -10.891  43.024  1.00  0.00    -0.550 OA
ATOM     16  O   UNL     1      -9.801 -10.662  40.976  1.00  0.00    -0.550 OA
ENDBRANCH  13  14
ENDBRANCH  12  13
ENDBRANCH  11  12
ENDBRANCH  10  11
ENDBRANCH   9  10
ENDBRANCH   8   9
ENDBRANCH   7   8
ENDBRANCH   6   7
ENDBRANCH   5   6
ENDBRANCH   4   5
ENDBRANCH   3   4
ENDBRANCH   2   3
ENDBRANCH   1   2
BRANCH   1  17
ATOM     17  C   UNL     1     -15.650 -10.795  45.302  1.00  0.00     0.000 C 
BRANCH  17  18
ATOM     18  C   UNL     1     -16.661 -10.004  44.454  1.00  0.00     0.000 C 
BRANCH  18  19
ATOM     19  C   UNL     1     -17.608  -9.145  45.318  1.00  0.00     0.000 C 
BRANCH  19  20
ATOM     20  C   UNL     1     -17.733  -7.684  44.845  1.00  0.00     0.000 C 
BRANCH  20  21
ATOM     21  C   UNL     1     -17.984  -7.503  43.339  1.00  0.00     0.000 C 
BRANCH  21  22
ATOM     22  C   UNL     1     -16.971  -6.551  42.678  1.00  0.00    -0.000 C 
BRANCH  22  23
ATOM     23  C   UNL     1     -15.712  -6.330  43.536  1.00  0.00    -0.000 C 
BRANCH  23  24
ATOM     24  C   UNL     1     -14.379  -6.417  42.769  1.00  0.00    -0.000 C 
BRANCH  24  25
ATOM     25  C   UNL     1     -14.247  -5.340  41.677  1.00  0.00    -0.000 C 
BRANCH  25  26
ATOM     26  C   UNL     1     -13.470  -5.836  40.448  1.00  0.00    -0.000 C 
BRANCH  26  27
ATOM     27  C   UNL     1     -14.388  -6.121  39.246  1.00  0.00    -0.000 C 
BRANCH  27  28
ATOM     28  C   UNL     1     -15.770  -5.466  39.388  1.00  0.00    -0.000 C 
BRANCH  28  29
ATOM     29  C   UNL     1     -16.819  -6.087  38.453  1.00  0.00    -0.003 C 
ATOM     30  C   UNL     1     -17.603  -7.187  39.162  1.00  0.00     0.004 C 
ENDBRANCH  28  29
ENDBRANCH  27  28
ENDBRANCH  26  27
ENDBRANCH  25  26
ENDBRANCH  24  25
ENDBRANCH  23  24
ENDBRANCH  22  23
ENDBRANCH  21  22
ENDBRANCH  20  21
ENDBRANCH  19  20
ENDBRANCH  18  19
ENDBRANCH  17  18
ENDBRANCH   1  17
TORSDOF 26
ENDMDL
MODEL 9
REMARK VINA RESULT:    -5.695      2.525      3.595
REMARK INTER + INTRA:         -17.349
REMARK INTER:                 -12.822
REMARK INTRA:                  -4.527
REMARK UNBOUND:                -2.998
REMARK SMILES CCCCCCCCCCCCCCCCCCCCCCCCCCCC(=O)[O-]
REMARK SMILES IDX 15 1 16 2 17 3 18 4 19 5 20 6 21 7 22 8 23 9 24 10 25 11
REMARK SMILES IDX 26 12 27 13 28 14 29 15 30 16 14 17 13 18 12 19 11 20 10 21
REMARK SMILES IDX 9 22 8 23 7 24 6 25 5 26 4 27 3 28 2 29 1 30
REMARK H PARENT
REMARK Flexibility Score: inf
ROOT
ATOM      1  C   UNL     1     -16.851  -6.544  41.914  1.00  0.00     0.000 C 
ENDROOT
BRANCH   1   2
ATOM      2  C   UNL     1     -17.185  -6.332  43.401  1.00  0.00     0.000 C 
BRANCH   2   3
ATOM      3  C   UNL     1     -17.882  -7.547  44.031  1.00  0.00     0.000 C 
BRANCH   3   4
ATOM      4  C   UNL     1     -16.886  -8.576  44.588  1.00  0.00     0.000 C 
BRANCH   4   5
ATOM      5  C   UNL     1     -17.158  -9.971  44.015  1.00  0.00     0.000 C 
BRANCH   5   6
ATOM      6  C   UNL     1     -16.136 -10.991  44.538  1.00  0.00     0.000 C 
BRANCH   6   7
ATOM      7  C   UNL     1     -15.036 -10.352  45.406  1.00  0.00     0.000 C 
BRANCH   7   8
ATOM      8  C   UNL     1     -14.799 -11.028  46.770  1.00  0.00     0.000 C 
BRANCH   8   9
ATOM      9  C   UNL     1     -15.973 -10.843  47.745  1.00  0.00     0.000 C 
BRANCH   9  10
ATOM     10  C   UNL     1     -15.607  -9.972  48.959  1.00  0.00     0.000 C 
BRANCH  10  11
ATOM     11  C   UNL     1     -16.007  -8.491  48.801  1.00  0.00     0.000 C 
BRANCH  11  12
ATOM     12  C   UNL     1     -14.837  -7.625  48.300  1.00  0.00     0.006 C 
BRANCH  12  13
ATOM     13  C   UNL     1     -15.267  -6.644  47.201  1.00  0.00     0.053 C 
BRANCH  13  14
ATOM     14  C   UNL     1     -15.121  -5.218  47.639  1.00  0.00     0.041 C 
ATOM     15  O   UNL     1     -15.435  -4.281  46.860  1.00  0.00    -0.550 OA
ATOM     16  O   UNL     1     -14.609  -4.926  48.898  1.00  0.00    -0.550 OA
ENDBRANCH  13  14
ENDBRANCH  12  13
ENDBRANCH  11  12
ENDBRANCH  10  11
ENDBRANCH   9  10
ENDBRANCH   8   9
ENDBRANCH   7   8
ENDBRANCH   6   7
ENDBRANCH   5   6
ENDBRANCH   4   5
ENDBRANCH   3   4
ENDBRANCH   2   3
ENDBRANCH   1   2
BRANCH   1  17
ATOM     17  C   UNL     1     -17.971  -7.281  41.160  1.00  0.00     0.000 C 
BRANCH  17  18
ATOM     18  C   UNL     1     -17.764  -7.266  39.635  1.00  0.00     0.000 C 
BRANCH  18  19
ATOM     19  C   UNL     1     -16.988  -6.020  39.159  1.00  0.00     0.000 C 
BRANCH  19  20
ATOM     20  C   UNL     1     -15.892  -6.324  38.121  1.00  0.00     0.000 C 
BRANCH  20  21
ATOM     21  C   UNL     1     -14.638  -5.438  38.214  1.00  0.00     0.000 C 
BRANCH  21  22
ATOM     22  C   UNL     1     -14.210  -5.166  39.667  1.00  0.00    -0.000 C 
BRANCH  22  23
ATOM     23  C   UNL     1     -13.263  -6.246  40.223  1.00  0.00    -0.000 C 
BRANCH  23  24
ATOM     24  C   UNL     1     -12.631  -5.918  41.589  1.00  0.00    -0.000 C 
BRANCH  24  25
ATOM     25  C   UNL     1     -13.578  -5.127  42.510  1.00  0.00    -0.000 C 
BRANCH  25  26
ATOM     26  C   UNL     1     -13.573  -5.651  43.954  1.00  0.00    -0.000 C 
BRANCH  26  27
ATOM     27  C   UNL     1     -13.558  -7.188  44.023  1.00  0.00    -0.000 C 
BRANCH  27  28
ATOM     28  C   UNL     1     -12.387  -7.731  44.858  1.00  0.00    -0.000 C 
BRANCH  28  29
ATOM     29  C   UNL     1     -11.824  -9.048  44.302  1.00  0.00    -0.003 C 
ATOM     30  C   UNL     1     -10.312  -8.964  44.120  1.00  0.00     0.004 C 
ENDBRANCH  28  29
ENDBRANCH  27  28
ENDBRANCH  26  27
ENDBRANCH  25  26
ENDBRANCH  24  25
ENDBRANCH  23  24
ENDBRANCH  22  23
ENDBRANCH  21  22
ENDBRANCH  20  21
ENDBRANCH  19  20
ENDBRANCH  18  19
ENDBRANCH  17  18
ENDBRANCH   1  17
TORSDOF 26
ENDMDL
