MODEL 1
REMARK VINA RESULT:    -7.343      0.000      0.000
REMARK INTER + INTRA:         -10.629
REMARK INTER:                  -9.705
REMARK INTRA:                  -0.925
REMARK UNBOUND:                -0.925
REMARK SMILES CC[C@@H](C=C[C@H](C)[C@H]1CC[C@H]2[C@@H]3CC=C4C[C@H](O)CC[C@]4(C)[C@H]3CC[C@@]12C)C(C)C
REMARK SMILES IDX 6 1 7 2 5 3 4 4 3 5 2 6 1 7 28 8 29 9 30 10 8 11 9 12 26 13
REMARK SMILES IDX 10 14 11 15 25 16 27 17 12 18 24 19 23 20 13 21 21 22 14 23
REMARK SMILES IDX 15 24 20 25 22 26 16 27 19 28 17 29 18 30
REMARK H PARENT 18 31
REMARK Flexibility Score: inf
ROOT
ATOM      1  C   UNL     1     143.944 136.334 146.015  1.00  0.00     0.012 C 
ATOM      2  C   UNL     1     143.060 137.215 145.114  1.00  0.00     0.012 C 
ENDROOT
BRANCH   1   3
ATOM      3  C   UNL     1     145.362 136.873 145.985  1.00  0.00    -0.028 C 
ATOM      4  C   UNL     1     145.740 137.882 145.179  1.00  0.00    -0.027 C 
BRANCH   4   5
ATOM      5  C   UNL     1     147.201 138.262 144.976  1.00  0.00     0.014 C 
BRANCH   5   6
ATOM      6  C   UNL     1     147.810 138.979 146.220  1.00  0.00     0.004 C 
ATOM      7  C   UNL     1     147.235 140.379 146.439  1.00  0.00     0.004 C 
ENDBRANCH   5   6
BRANCH   5   8
ATOM      8  C   UNL     1     147.410 139.106 143.679  1.00  0.00    -0.011 C 
ATOM      9  C   UNL     1     146.565 138.618 142.486  1.00  0.00     0.008 C 
ATOM     10  C   UNL     1     148.893 139.195 143.284  1.00  0.00     0.008 C 
ENDBRANCH   5   8
ENDBRANCH   4   5
ENDBRANCH   1   3
BRANCH   1  11
ATOM     11  C   UNL     1     143.358 136.204 147.463  1.00  0.00     0.002 C 
ATOM     12  C   UNL     1     142.397 137.340 147.795  1.00  0.00     0.005 C 
ATOM     13  C   UNL     1     142.553 134.906 147.817  1.00  0.00    -0.026 C 
ATOM     14  C   UNL     1     141.659 136.883 149.032  1.00  0.00     0.005 C 
ATOM     15  C   UNL     1     141.542 135.352 148.928  1.00  0.00    -0.001 C 
ATOM     16  C   UNL     1     141.793 134.337 146.588  1.00  0.00     0.007 C 
ATOM     17  C   UNL     1     143.510 133.827 148.387  1.00  0.00     0.012 C 
ATOM     18  C   UNL     1     140.056 134.916 148.694  1.00  0.00     0.000 C 
ATOM     19  C   UNL     1     140.871 133.170 146.955  1.00  0.00     0.005 C 
ATOM     20  C   UNL     1     139.945 133.458 148.177  1.00  0.00     0.003 C 
ATOM     21  C   UNL     1     139.257 135.064 150.011  1.00  0.00     0.031 C 
ATOM     22  C   UNL     1     138.443 133.029 147.945  1.00  0.00    -0.008 C 
ATOM     23  C   UNL     1     137.919 134.381 150.004  1.00  0.00    -0.027 C 
ATOM     24  C   UNL     1     137.601 133.359 149.183  1.00  0.00    -0.065 C 
ATOM     25  C   UNL     1     138.401 131.487 147.693  1.00  0.00     0.014 C 
ATOM     26  C   UNL     1     137.799 133.776 146.742  1.00  0.00     0.016 C 
ATOM     27  C   UNL     1     136.246 132.698 149.352  1.00  0.00     0.063 C 
ATOM     28  C   UNL     1     136.994 130.875 147.784  1.00  0.00     0.033 C 
ATOM     29  C   UNL     1     136.332 131.183 149.130  1.00  0.00     0.118 C 
BRANCH  29  30
ATOM     30  O   UNL     1     137.062 130.576 150.167  1.00  0.00    -0.393 OA
ATOM     31  H   UNL     1     137.882 131.120 150.298  1.00  0.00     0.210 HD
ENDBRANCH  29  30
ENDBRANCH   1  11
TORSDOF 6
ENDMDL
MODEL 2
REMARK VINA RESULT:    -6.792      3.546      9.526
REMARK INTER + INTRA:          -9.900
REMARK INTER:                  -8.514
REMARK INTRA:                  -1.386
REMARK UNBOUND:                -0.925
REMARK SMILES CC[C@@H](C=C[C@H](C)[C@H]1CC[C@H]2[C@@H]3CC=C4C[C@H](O)CC[C@]4(C)[C@H]3CC[C@@]12C)C(C)C
REMARK SMILES IDX 6 1 7 2 5 3 4 4 3 5 2 6 1 7 28 8 29 9 30 10 8 11 9 12 26 13
REMARK SMILES IDX 10 14 11 15 25 16 27 17 12 18 24 19 23 20 13 21 21 22 14 23
REMARK SMILES IDX 15 24 20 25 22 26 16 27 19 28 17 29 18 30
REMARK H PARENT 18 31
REMARK Flexibility Score: inf
ROOT
ATOM      1  C   UNL     1     139.190 135.465 144.797  1.00  0.00     0.012 C 
ATOM      2  C   UNL     1     137.814 135.404 144.109  1.00  0.00     0.012 C 
ENDROOT
BRANCH   1   3
ATOM      3  C   UNL     1     139.128 134.668 146.087  1.00  0.00    -0.028 C 
ATOM      4  C   UNL     1     139.218 135.241 147.301  1.00  0.00    -0.027 C 
BRANCH   4   5
ATOM      5  C   UNL     1     139.394 134.428 148.577  1.00  0.00     0.014 C 
BRANCH   5   6
ATOM      6  C   UNL     1     138.196 134.595 149.561  1.00  0.00     0.004 C 
ATOM      7  C   UNL     1     136.845 134.301 148.907  1.00  0.00     0.004 C 
ENDBRANCH   5   6
BRANCH   5   8
ATOM      8  C   UNL     1     140.752 134.736 149.283  1.00  0.00    -0.011 C 
ATOM      9  C   UNL     1     140.592 135.207 150.741  1.00  0.00     0.008 C 
ATOM     10  C   UNL     1     141.599 135.741 148.486  1.00  0.00     0.008 C 
ENDBRANCH   5   8
ENDBRANCH   4   5
ENDBRANCH   1   3
BRANCH   1  11
ATOM     11  C   UNL     1     140.345 135.012 143.839  1.00  0.00     0.002 C 
ATOM     12  C   UNL     1     140.123 135.491 142.409  1.00  0.00     0.005 C 
ATOM     13  C   UNL     1     141.805 135.473 144.176  1.00  0.00    -0.026 C 
ATOM     14  C   UNL     1     141.454 135.304 141.720  1.00  0.00     0.005 C 
ATOM     15  C   UNL     1     142.535 135.534 142.791  1.00  0.00    -0.001 C 
ATOM     16  C   UNL     1     141.833 136.864 144.866  1.00  0.00     0.007 C 
ATOM     17  C   UNL     1     142.496 134.424 145.084  1.00  0.00     0.012 C 
ATOM     18  C   UNL     1     143.333 136.853 142.512  1.00  0.00     0.000 C 
ATOM     19  C   UNL     1     143.256 137.402 145.048  1.00  0.00     0.005 C 
ATOM     20  C   UNL     1     144.126 137.334 143.755  1.00  0.00     0.003 C 
ATOM     21  C   UNL     1     144.303 136.633 141.328  1.00  0.00     0.031 C 
ATOM     22  C   UNL     1     144.926 138.664 143.463  1.00  0.00    -0.008 C 
ATOM     23  C   UNL     1     145.344 137.706 141.172  1.00  0.00    -0.027 C 
ATOM     24  C   UNL     1     145.740 138.518 142.172  1.00  0.00    -0.065 C 
ATOM     25  C   UNL     1     145.900 138.929 144.656  1.00  0.00     0.014 C 
ATOM     26  C   UNL     1     143.982 139.886 143.273  1.00  0.00     0.016 C 
ATOM     27  C   UNL     1     146.872 139.492 141.899  1.00  0.00     0.063 C 
ATOM     28  C   UNL     1     146.973 139.990 144.366  1.00  0.00     0.033 C 
ATOM     29  C   UNL     1     147.789 139.638 143.119  1.00  0.00     0.118 C 
BRANCH  29  30
ATOM     30  O   UNL     1     148.504 138.448 143.340  1.00  0.00    -0.393 OA
ATOM     31  H   UNL     1     149.441 138.619 143.059  1.00  0.00     0.210 HD
ENDBRANCH  29  30
ENDBRANCH   1  11
TORSDOF 6
ENDMDL
MODEL 3
REMARK VINA RESULT:    -6.693      9.494     13.457
REMARK INTER + INTRA:          -9.769
REMARK INTER:                  -8.889
REMARK INTRA:                  -0.880
REMARK UNBOUND:                -0.925
REMARK SMILES CC[C@@H](C=C[C@H](C)[C@H]1CC[C@H]2[C@@H]3CC=C4C[C@H](O)CC[C@]4(C)[C@H]3CC[C@@]12C)C(C)C
REMARK SMILES IDX 6 1 7 2 5 3 4 4 3 5 2 6 1 7 28 8 29 9 30 10 8 11 9 12 26 13
REMARK SMILES IDX 10 14 11 15 25 16 27 17 12 18 24 19 23 20 13 21 21 22 14 23
REMARK SMILES IDX 15 24 20 25 22 26 16 27 19 28 17 29 18 30
REMARK H PARENT 18 31
REMARK Flexibility Score: inf
ROOT
ATOM      1  C   UNL     1     135.666 140.342 138.321  1.00  0.00     0.012 C 
ATOM      2  C   UNL     1     136.589 140.412 137.091  1.00  0.00     0.012 C 
ENDROOT
BRANCH   1   3
ATOM      3  C   UNL     1     134.381 139.637 137.927  1.00  0.00    -0.028 C 
ATOM      4  C   UNL     1     133.217 140.290 137.754  1.00  0.00    -0.027 C 
BRANCH   4   5
ATOM      5  C   UNL     1     131.888 139.563 137.595  1.00  0.00     0.014 C 
BRANCH   5   6
ATOM      6  C   UNL     1     131.546 139.265 136.103  1.00  0.00     0.004 C 
ATOM      7  C   UNL     1     131.364 137.773 135.821  1.00  0.00     0.004 C 
ENDBRANCH   5   6
BRANCH   5   8
ATOM      8  C   UNL     1     130.720 140.319 138.302  1.00  0.00    -0.011 C 
ATOM      9  C   UNL     1     131.184 141.209 139.471  1.00  0.00     0.008 C 
ATOM     10  C   UNL     1     129.613 139.359 138.768  1.00  0.00     0.008 C 
ENDBRANCH   5   8
ENDBRANCH   4   5
ENDBRANCH   1   3
BRANCH   1  11
ATOM     11  C   UNL     1     136.381 139.690 139.554  1.00  0.00     0.002 C 
ATOM     12  C   UNL     1     137.584 138.850 139.139  1.00  0.00     0.005 C 
ATOM     13  C   UNL     1     136.943 140.641 140.666  1.00  0.00    -0.026 C 
ATOM     14  C   UNL     1     138.357 138.610 140.415  1.00  0.00     0.005 C 
ATOM     15  C   UNL     1     138.149 139.858 141.290  1.00  0.00    -0.001 C 
ATOM     16  C   UNL     1     137.422 142.000 140.085  1.00  0.00     0.007 C 
ATOM     17  C   UNL     1     135.863 140.886 141.750  1.00  0.00     0.012 C 
ATOM     18  C   UNL     1     139.478 140.676 141.430  1.00  0.00     0.000 C 
ATOM     19  C   UNL     1     138.126 142.871 141.130  1.00  0.00     0.005 C 
ATOM     20  C   UNL     1     139.230 142.120 141.937  1.00  0.00     0.003 C 
ATOM     21  C   UNL     1     140.440 139.944 142.394  1.00  0.00     0.031 C 
ATOM     22  C   UNL     1     140.576 142.935 142.073  1.00  0.00    -0.008 C 
ATOM     23  C   UNL     1     141.603 140.774 142.859  1.00  0.00    -0.027 C 
ATOM     24  C   UNL     1     141.608 142.122 142.864  1.00  0.00    -0.065 C 
ATOM     25  C   UNL     1     140.275 144.265 142.837  1.00  0.00     0.014 C 
ATOM     26  C   UNL     1     141.210 143.256 140.689  1.00  0.00     0.016 C 
ATOM     27  C   UNL     1     142.812 142.833 143.454  1.00  0.00     0.063 C 
ATOM     28  C   UNL     1     141.530 144.999 143.337  1.00  0.00     0.033 C 
ATOM     29  C   UNL     1     142.396 144.095 144.220  1.00  0.00     0.118 C 
BRANCH  29  30
ATOM     30  O   UNL     1     141.687 143.750 145.384  1.00  0.00    -0.393 OA
ATOM     31  H   UNL     1     141.864 142.787 145.554  1.00  0.00     0.210 HD
ENDBRANCH  29  30
ENDBRANCH   1  11
TORSDOF 6
ENDMDL
MODEL 4
REMARK VINA RESULT:    -6.509      9.204     11.399
REMARK INTER + INTRA:          -9.527
REMARK INTER:                  -8.503
REMARK INTRA:                  -1.024
REMARK UNBOUND:                -0.925
REMARK SMILES CC[C@@H](C=C[C@H](C)[C@H]1CC[C@H]2[C@@H]3CC=C4C[C@H](O)CC[C@]4(C)[C@H]3CC[C@@]12C)C(C)C
REMARK SMILES IDX 6 1 7 2 5 3 4 4 3 5 2 6 1 7 28 8 29 9 30 10 8 11 9 12 26 13
REMARK SMILES IDX 10 14 11 15 25 16 27 17 12 18 24 19 23 20 13 21 21 22 14 23
REMARK SMILES IDX 15 24 20 25 22 26 16 27 19 28 17 29 18 30
REMARK H PARENT 18 31
REMARK Flexibility Score: inf
ROOT
ATOM      1  C   UNL     1     137.863 143.976 139.632  1.00  0.00     0.012 C 
ATOM      2  C   UNL     1     137.336 143.490 138.270  1.00  0.00     0.012 C 
ENDROOT
BRANCH   1   3
ATOM      3  C   UNL     1     137.536 145.450 139.784  1.00  0.00    -0.028 C 
ATOM      4  C   UNL     1     136.965 146.173 138.803  1.00  0.00    -0.027 C 
BRANCH   4   5
ATOM      5  C   UNL     1     136.854 147.692 138.866  1.00  0.00     0.014 C 
BRANCH   5   6
ATOM      6  C   UNL     1     137.102 148.249 140.302  1.00  0.00     0.004 C 
ATOM      7  C   UNL     1     135.835 148.267 141.159  1.00  0.00     0.004 C 
ENDBRANCH   5   6
BRANCH   5   8
ATOM      8  C   UNL     1     135.497 148.203 138.288  1.00  0.00    -0.011 C 
ATOM      9  C   UNL     1     134.843 147.220 137.299  1.00  0.00     0.008 C 
ATOM     10  C   UNL     1     135.634 149.594 137.648  1.00  0.00     0.008 C 
ENDBRANCH   5   8
ENDBRANCH   4   5
ENDBRANCH   1   3
BRANCH   1  11
ATOM     11  C   UNL     1     137.333 143.095 140.814  1.00  0.00     0.002 C 
ATOM     12  C   UNL     1     136.595 141.856 140.318  1.00  0.00     0.005 C 
ATOM     13  C   UNL     1     138.377 142.534 141.841  1.00  0.00    -0.026 C 
ATOM     14  C   UNL     1     136.481 140.955 141.525  1.00  0.00     0.005 C 
ATOM     15  C   UNL     1     137.738 141.207 142.377  1.00  0.00    -0.001 C 
ATOM     16  C   UNL     1     139.750 142.245 141.176  1.00  0.00     0.007 C 
ATOM     17  C   UNL     1     138.560 143.534 143.011  1.00  0.00     0.012 C 
ATOM     18  C   UNL     1     138.684 139.959 142.369  1.00  0.00     0.000 C 
ATOM     19  C   UNL     1     140.726 141.541 142.125  1.00  0.00     0.005 C 
ATOM     20  C   UNL     1     140.117 140.303 142.851  1.00  0.00     0.003 C 
ATOM     21  C   UNL     1     138.085 138.848 143.264  1.00  0.00     0.031 C 
ATOM     22  C   UNL     1     141.061 139.037 142.839  1.00  0.00    -0.008 C 
ATOM     23  C   UNL     1     139.041 137.737 143.595  1.00  0.00    -0.027 C 
ATOM     24  C   UNL     1     140.383 137.864 143.558  1.00  0.00    -0.065 C 
ATOM     25  C   UNL     1     142.385 139.399 143.585  1.00  0.00     0.014 C 
ATOM     26  C   UNL     1     141.386 138.561 141.393  1.00  0.00     0.016 C 
ATOM     27  C   UNL     1     141.229 136.689 144.013  1.00  0.00     0.063 C 
ATOM     28  C   UNL     1     143.255 138.184 143.946  1.00  0.00     0.033 C 
ATOM     29  C   UNL     1     142.474 137.159 144.774  1.00  0.00     0.118 C 
BRANCH  29  30
ATOM     30  O   UNL     1     142.110 137.725 146.008  1.00  0.00    -0.393 OA
ATOM     31  H   UNL     1     141.731 138.622 145.812  1.00  0.00     0.210 HD
ENDBRANCH  29  30
ENDBRANCH   1  11
TORSDOF 6
ENDMDL
MODEL 5
REMARK VINA RESULT:    -6.445     10.368     14.151
REMARK INTER + INTRA:          -9.442
REMARK INTER:                  -8.472
REMARK INTRA:                  -0.970
REMARK UNBOUND:                -0.925
REMARK SMILES CC[C@@H](C=C[C@H](C)[C@H]1CC[C@H]2[C@@H]3CC=C4C[C@H](O)CC[C@]4(C)[C@H]3CC[C@@]12C)C(C)C
REMARK SMILES IDX 6 1 7 2 5 3 4 4 3 5 2 6 1 7 28 8 29 9 30 10 8 11 9 12 26 13
REMARK SMILES IDX 10 14 11 15 25 16 27 17 12 18 24 19 23 20 13 21 21 22 14 23
REMARK SMILES IDX 15 24 20 25 22 26 16 27 19 28 17 29 18 30
REMARK H PARENT 18 31
REMARK Flexibility Score: inf
ROOT
ATOM      1  C   UNL     1     136.008 139.417 137.988  1.00  0.00     0.012 C 
ATOM      2  C   UNL     1     136.769 138.249 138.642  1.00  0.00     0.012 C 
ENDROOT
BRANCH   1   3
ATOM      3  C   UNL     1     134.753 138.875 137.330  1.00  0.00    -0.028 C 
ATOM      4  C   UNL     1     133.576 139.526 137.363  1.00  0.00    -0.027 C 
BRANCH   4   5
ATOM      5  C   UNL     1     132.272 138.879 136.913  1.00  0.00     0.014 C 
BRANCH   5   6
ATOM      6  C   UNL     1     131.962 139.146 135.408  1.00  0.00     0.004 C 
ATOM      7  C   UNL     1     132.574 138.095 134.480  1.00  0.00     0.004 C 
ENDBRANCH   5   6
BRANCH   5   8
ATOM      8  C   UNL     1     131.071 139.295 137.820  1.00  0.00    -0.011 C 
ATOM      9  C   UNL     1     129.710 139.237 137.100  1.00  0.00     0.008 C 
ATOM     10  C   UNL     1     131.282 140.679 138.454  1.00  0.00     0.008 C 
ENDBRANCH   5   8
ENDBRANCH   4   5
ENDBRANCH   1   3
BRANCH   1  11
ATOM     11  C   UNL     1     135.727 140.575 139.006  1.00  0.00     0.002 C 
ATOM     12  C   UNL     1     135.592 140.061 140.435  1.00  0.00     0.005 C 
ATOM     13  C   UNL     1     136.780 141.732 139.113  1.00  0.00    -0.026 C 
ATOM     14  C   UNL     1     135.697 141.290 141.308  1.00  0.00     0.005 C 
ATOM     15  C   UNL     1     136.648 142.258 140.583  1.00  0.00    -0.001 C 
ATOM     16  C   UNL     1     138.225 141.233 138.842  1.00  0.00     0.007 C 
ATOM     17  C   UNL     1     136.423 142.868 138.119  1.00  0.00     0.012 C 
ATOM     18  C   UNL     1     137.999 142.410 141.363  1.00  0.00     0.000 C 
ATOM     19  C   UNL     1     139.280 142.313 139.108  1.00  0.00     0.005 C 
ATOM     20  C   UNL     1     139.119 143.027 140.485  1.00  0.00     0.003 C 
ATOM     21  C   UNL     1     137.779 143.287 142.618  1.00  0.00     0.031 C 
ATOM     22  C   UNL     1     140.475 143.175 141.281  1.00  0.00    -0.008 C 
ATOM     23  C   UNL     1     139.045 143.770 143.267  1.00  0.00    -0.027 C 
ATOM     24  C   UNL     1     140.226 143.870 142.625  1.00  0.00    -0.065 C 
ATOM     25  C   UNL     1     141.458 144.041 140.429  1.00  0.00     0.014 C 
ATOM     26  C   UNL     1     141.125 141.796 141.593  1.00  0.00     0.016 C 
ATOM     27  C   UNL     1     141.402 144.468 143.375  1.00  0.00     0.063 C 
ATOM     28  C   UNL     1     142.682 144.548 141.207  1.00  0.00     0.033 C 
ATOM     29  C   UNL     1     142.269 145.335 142.454  1.00  0.00     0.118 C 
BRANCH  29  30
ATOM     30  O   UNL     1     141.573 146.495 142.074  1.00  0.00    -0.393 OA
ATOM     31  H   UNL     1     141.393 147.008 142.906  1.00  0.00     0.210 HD
ENDBRANCH  29  30
ENDBRANCH   1  11
TORSDOF 6
ENDMDL
MODEL 6
REMARK VINA RESULT:    -6.383      5.877      8.402
REMARK INTER + INTRA:          -9.360
REMARK INTER:                  -8.068
REMARK INTRA:                  -1.292
REMARK UNBOUND:                -0.925
REMARK SMILES CC[C@@H](C=C[C@H](C)[C@H]1CC[C@H]2[C@@H]3CC=C4C[C@H](O)CC[C@]4(C)[C@H]3CC[C@@]12C)C(C)C
REMARK SMILES IDX 6 1 7 2 5 3 4 4 3 5 2 6 1 7 28 8 29 9 30 10 8 11 9 12 26 13
REMARK SMILES IDX 10 14 11 15 25 16 27 17 12 18 24 19 23 20 13 21 21 22 14 23
REMARK SMILES IDX 15 24 20 25 22 26 16 27 19 28 17 29 18 30
REMARK H PARENT 18 31
REMARK Flexibility Score: inf
ROOT
ATOM      1  C   UNL     1     144.798 139.425 142.377  1.00  0.00     0.012 C 
ATOM      2  C   UNL     1     145.767 140.347 141.615  1.00  0.00     0.012 C 
ENDROOT
BRANCH   1   3
ATOM      3  C   UNL     1     145.603 138.506 143.277  1.00  0.00    -0.028 C 
ATOM      4  C   UNL     1     145.481 138.511 144.617  1.00  0.00    -0.027 C 
BRANCH   4   5
ATOM      5  C   UNL     1     146.450 137.767 145.528  1.00  0.00     0.014 C 
BRANCH   5   6
ATOM      6  C   UNL     1     145.754 137.201 146.803  1.00  0.00     0.004 C 
ATOM      7  C   UNL     1     144.869 135.989 146.510  1.00  0.00     0.004 C 
ENDBRANCH   5   6
BRANCH   5   8
ATOM      8  C   UNL     1     147.689 138.640 145.900  1.00  0.00    -0.011 C 
ATOM      9  C   UNL     1     147.358 140.136 146.066  1.00  0.00     0.008 C 
ATOM     10  C   UNL     1     148.843 138.454 144.902  1.00  0.00     0.008 C 
ENDBRANCH   5   8
ENDBRANCH   4   5
ENDBRANCH   1   3
BRANCH   1  11
ATOM     11  C   UNL     1     143.696 140.236 143.141  1.00  0.00     0.002 C 
ATOM     12  C   UNL     1     143.728 141.718 142.786  1.00  0.00     0.005 C 
ATOM     13  C   UNL     1     142.198 139.823 142.931  1.00  0.00    -0.026 C 
ATOM     14  C   UNL     1     142.417 142.274 143.294  1.00  0.00     0.005 C 
ATOM     15  C   UNL     1     141.383 141.142 143.159  1.00  0.00    -0.001 C 
ATOM     16  C   UNL     1     141.942 139.267 141.503  1.00  0.00     0.007 C 
ATOM     17  C   UNL     1     141.786 138.766 143.987  1.00  0.00     0.012 C 
ATOM     18  C   UNL     1     140.326 141.475 142.052  1.00  0.00     0.000 C 
ATOM     19  C   UNL     1     140.455 139.018 141.227  1.00  0.00     0.005 C 
ATOM     20  C   UNL     1     139.535 140.221 141.598  1.00  0.00     0.003 C 
ATOM     21  C   UNL     1     139.343 142.548 142.578  1.00  0.00     0.031 C 
ATOM     22  C   UNL     1     138.472 140.568 140.482  1.00  0.00    -0.008 C 
ATOM     23  C   UNL     1     138.105 142.717 141.745  1.00  0.00    -0.027 C 
ATOM     24  C   UNL     1     137.621 141.768 140.918  1.00  0.00    -0.065 C 
ATOM     25  C   UNL     1     137.544 139.328 140.279  1.00  0.00     0.014 C 
ATOM     26  C   UNL     1     139.143 140.951 139.132  1.00  0.00     0.016 C 
ATOM     27  C   UNL     1     136.306 142.035 140.210  1.00  0.00     0.063 C 
ATOM     28  C   UNL     1     136.266 139.625 139.477  1.00  0.00     0.033 C 
ATOM     29  C   UNL     1     135.457 140.762 140.109  1.00  0.00     0.118 C 
BRANCH  29  30
ATOM     30  O   UNL     1     135.006 140.371 141.382  1.00  0.00    -0.393 OA
ATOM     31  H   UNL     1     135.761 139.898 141.822  1.00  0.00     0.210 HD
ENDBRANCH  29  30
ENDBRANCH   1  11
TORSDOF 6
ENDMDL
MODEL 7
REMARK VINA RESULT:    -6.371      6.737     12.359
REMARK INTER + INTRA:          -9.344
REMARK INTER:                  -8.005
REMARK INTRA:                  -1.339
REMARK UNBOUND:                -0.925
REMARK SMILES CC[C@@H](C=C[C@H](C)[C@H]1CC[C@H]2[C@@H]3CC=C4C[C@H](O)CC[C@]4(C)[C@H]3CC[C@@]12C)C(C)C
REMARK SMILES IDX 6 1 7 2 5 3 4 4 3 5 2 6 1 7 28 8 29 9 30 10 8 11 9 12 26 13
REMARK SMILES IDX 10 14 11 15 25 16 27 17 12 18 24 19 23 20 13 21 21 22 14 23
REMARK SMILES IDX 15 24 20 25 22 26 16 27 19 28 17 29 18 30
REMARK H PARENT 18 31
REMARK Flexibility Score: inf
ROOT
ATOM      1  C   UNL     1     141.500 138.303 142.743  1.00  0.00     0.012 C 
ATOM      2  C   UNL     1     141.539 136.883 143.335  1.00  0.00     0.012 C 
ENDROOT
BRANCH   1   3
ATOM      3  C   UNL     1     140.268 139.018 143.267  1.00  0.00    -0.028 C 
ATOM      4  C   UNL     1     139.264 139.419 142.466  1.00  0.00    -0.027 C 
BRANCH   4   5
ATOM      5  C   UNL     1     138.149 140.338 142.951  1.00  0.00     0.014 C 
BRANCH   5   6
ATOM      6  C   UNL     1     136.793 139.589 143.127  1.00  0.00     0.004 C 
ATOM      7  C   UNL     1     136.766 138.692 144.365  1.00  0.00     0.004 C 
ENDBRANCH   5   6
BRANCH   5   8
ATOM      8  C   UNL     1     137.988 141.593 142.036  1.00  0.00    -0.011 C 
ATOM      9  C   UNL     1     139.308 142.056 141.390  1.00  0.00     0.008 C 
ATOM     10  C   UNL     1     137.316 142.760 142.776  1.00  0.00     0.008 C 
ENDBRANCH   5   8
ENDBRANCH   4   5
ENDBRANCH   1   3
BRANCH   1  11
ATOM     11  C   UNL     1     142.832 139.085 143.007  1.00  0.00     0.002 C 
ATOM     12  C   UNL     1     144.062 138.228 142.727  1.00  0.00     0.005 C 
ATOM     13  C   UNL     1     143.088 140.400 142.193  1.00  0.00    -0.026 C 
ATOM     14  C   UNL     1     145.216 139.203 142.667  1.00  0.00     0.005 C 
ATOM     15  C   UNL     1     144.648 140.514 142.096  1.00  0.00    -0.001 C 
ATOM     16  C   UNL     1     142.459 140.340 140.774  1.00  0.00     0.007 C 
ATOM     17  C   UNL     1     142.524 141.620 142.965  1.00  0.00     0.012 C 
ATOM     18  C   UNL     1     145.211 140.794 140.661  1.00  0.00     0.000 C 
ATOM     19  C   UNL     1     142.843 141.545 139.909  1.00  0.00     0.005 C 
ATOM     20  C   UNL     1     144.372 141.851 139.896  1.00  0.00     0.003 C 
ATOM     21  C   UNL     1     146.680 141.268 140.762  1.00  0.00     0.031 C 
ATOM     22  C   UNL     1     144.948 142.125 138.451  1.00  0.00    -0.008 C 
ATOM     23  C   UNL     1     147.225 141.871 139.498  1.00  0.00    -0.027 C 
ATOM     24  C   UNL     1     146.455 142.400 138.526  1.00  0.00    -0.065 C 
ATOM     25  C   UNL     1     144.226 143.378 137.859  1.00  0.00     0.014 C 
ATOM     26  C   UNL     1     144.753 140.908 137.502  1.00  0.00     0.016 C 
ATOM     27  C   UNL     1     147.142 143.065 137.348  1.00  0.00     0.063 C 
ATOM     28  C   UNL     1     144.907 143.963 136.611  1.00  0.00     0.033 C 
ATOM     29  C   UNL     1     146.375 144.308 136.882  1.00  0.00     0.118 C 
BRANCH  29  30
ATOM     30  O   UNL     1     146.452 145.324 137.850  1.00  0.00    -0.393 OA
ATOM     31  H   UNL     1     147.405 145.603 137.898  1.00  0.00     0.210 HD
ENDBRANCH  29  30
ENDBRANCH   1  11
TORSDOF 6
ENDMDL
MODEL 8
REMARK VINA RESULT:    -6.301      3.185      9.405
REMARK INTER + INTRA:          -9.252
REMARK INTER:                  -8.169
REMARK INTRA:                  -1.083
REMARK UNBOUND:                -0.925
REMARK SMILES CC[C@@H](C=C[C@H](C)[C@H]1CC[C@H]2[C@@H]3CC=C4C[C@H](O)CC[C@]4(C)[C@H]3CC[C@@]12C)C(C)C
REMARK SMILES IDX 6 1 7 2 5 3 4 4 3 5 2 6 1 7 28 8 29 9 30 10 8 11 9 12 26 13
REMARK SMILES IDX 10 14 11 15 25 16 27 17 12 18 24 19 23 20 13 21 21 22 14 23
REMARK SMILES IDX 15 24 20 25 22 26 16 27 19 28 17 29 18 30
REMARK H PARENT 18 31
REMARK Flexibility Score: inf
ROOT
ATOM      1  C   UNL     1     141.679 133.259 147.226  1.00  0.00     0.012 C 
ATOM      2  C   UNL     1     142.066 131.787 147.458  1.00  0.00     0.012 C 
ENDROOT
BRANCH   1   3
ATOM      3  C   UNL     1     140.362 133.535 147.928  1.00  0.00    -0.028 C 
ATOM      4  C   UNL     1     139.174 133.455 147.301  1.00  0.00    -0.027 C 
BRANCH   4   5
ATOM      5  C   UNL     1     137.882 133.958 147.933  1.00  0.00     0.014 C 
BRANCH   5   6
ATOM      6  C   UNL     1     138.130 135.086 148.980  1.00  0.00     0.004 C 
ATOM      7  C   UNL     1     138.024 134.591 150.424  1.00  0.00     0.004 C 
ENDBRANCH   5   6
BRANCH   5   8
ATOM      8  C   UNL     1     137.039 132.795 148.545  1.00  0.00    -0.011 C 
ATOM      9  C   UNL     1     137.641 131.400 148.287  1.00  0.00     0.008 C 
ATOM     10  C   UNL     1     135.575 132.840 148.079  1.00  0.00     0.008 C 
ENDBRANCH   5   8
ENDBRANCH   4   5
ENDBRANCH   1   3
BRANCH   1  11
ATOM     11  C   UNL     1     142.827 134.240 147.648  1.00  0.00     0.002 C 
ATOM     12  C   UNL     1     144.204 133.703 147.273  1.00  0.00     0.005 C 
ATOM     13  C   UNL     1     142.808 135.692 147.058  1.00  0.00    -0.026 C 
ATOM     14  C   UNL     1     145.136 134.885 147.400  1.00  0.00     0.005 C 
ATOM     15  C   UNL     1     144.312 136.130 147.026  1.00  0.00    -0.001 C 
ATOM     16  C   UNL     1     142.200 135.734 145.630  1.00  0.00     0.007 C 
ATOM     17  C   UNL     1     142.011 136.635 147.996  1.00  0.00     0.012 C 
ATOM     18  C   UNL     1     144.802 136.742 145.669  1.00  0.00     0.000 C 
ATOM     19  C   UNL     1     142.329 137.114 144.976  1.00  0.00     0.005 C 
ATOM     20  C   UNL     1     143.764 137.718 145.056  1.00  0.00     0.003 C 
ATOM     21  C   UNL     1     146.145 137.479 145.886  1.00  0.00     0.031 C 
ATOM     22  C   UNL     1     144.268 138.329 143.689  1.00  0.00    -0.008 C 
ATOM     23  C   UNL     1     146.552 138.373 144.749  1.00  0.00    -0.027 C 
ATOM     24  C   UNL     1     145.688 138.885 143.850  1.00  0.00    -0.065 C 
ATOM     25  C   UNL     1     143.306 139.490 143.280  1.00  0.00     0.014 C 
ATOM     26  C   UNL     1     144.320 137.264 142.555  1.00  0.00     0.016 C 
ATOM     27  C   UNL     1     146.223 139.854 142.811  1.00  0.00     0.063 C 
ATOM     28  C   UNL     1     143.850 140.391 142.160  1.00  0.00     0.033 C 
ATOM     29  C   UNL     1     145.218 140.975 142.523  1.00  0.00     0.118 C 
BRANCH  29  30
ATOM     30  O   UNL     1     145.091 141.819 143.641  1.00  0.00    -0.393 OA
ATOM     31  H   UNL     1     145.089 142.751 143.298  1.00  0.00     0.210 HD
ENDBRANCH  29  30
ENDBRANCH   1  11
TORSDOF 6
ENDMDL
MODEL 9
REMARK VINA RESULT:    -6.231      9.219     12.387
REMARK INTER + INTRA:          -9.159
REMARK INTER:                  -8.154
REMARK INTRA:                  -1.005
REMARK UNBOUND:                -0.925
REMARK SMILES CC[C@@H](C=C[C@H](C)[C@H]1CC[C@H]2[C@@H]3CC=C4C[C@H](O)CC[C@]4(C)[C@H]3CC[C@@]12C)C(C)C
REMARK SMILES IDX 6 1 7 2 5 3 4 4 3 5 2 6 1 7 28 8 29 9 30 10 8 11 9 12 26 13
REMARK SMILES IDX 10 14 11 15 25 16 27 17 12 18 24 19 23 20 13 21 21 22 14 23
REMARK SMILES IDX 15 24 20 25 22 26 16 27 19 28 17 29 18 30
REMARK H PARENT 18 31
REMARK Flexibility Score: inf
ROOT
ATOM      1  C   UNL     1     138.668 144.611 139.939  1.00  0.00     0.012 C 
ATOM      2  C   UNL     1     137.801 143.766 138.987  1.00  0.00     0.012 C 
ENDROOT
BRANCH   1   3
ATOM      3  C   UNL     1     138.048 145.989 140.072  1.00  0.00    -0.028 C 
ATOM      4  C   UNL     1     137.351 146.572 139.079  1.00  0.00    -0.027 C 
BRANCH   4   5
ATOM      5  C   UNL     1     136.935 148.037 139.124  1.00  0.00     0.014 C 
BRANCH   5   6
ATOM      6  C   UNL     1     136.938 148.614 140.573  1.00  0.00     0.004 C 
ATOM      7  C   UNL     1     135.640 148.328 141.329  1.00  0.00     0.004 C 
ENDBRANCH   5   6
BRANCH   5   8
ATOM      8  C   UNL     1     135.560 148.275 138.424  1.00  0.00    -0.011 C 
ATOM      9  C   UNL     1     135.158 147.142 137.460  1.00  0.00     0.008 C 
ATOM     10  C   UNL     1     135.510 149.632 137.704  1.00  0.00     0.008 C 
ENDBRANCH   5   8
ENDBRANCH   4   5
ENDBRANCH   1   3
BRANCH   1  11
ATOM     11  C   UNL     1     138.896 143.895 141.314  1.00  0.00     0.002 C 
ATOM     12  C   UNL     1     138.176 142.553 141.386  1.00  0.00     0.005 C 
ATOM     13  C   UNL     1     140.369 143.562 141.736  1.00  0.00    -0.026 C 
ATOM     14  C   UNL     1     138.779 141.845 142.578  1.00  0.00     0.005 C 
ATOM     15  C   UNL     1     140.247 142.300 142.657  1.00  0.00    -0.001 C 
ATOM     16  C   UNL     1     141.272 143.254 140.510  1.00  0.00     0.007 C 
ATOM     17  C   UNL     1     140.968 144.742 142.545  1.00  0.00     0.012 C 
ATOM     18  C   UNL     1     141.221 141.123 142.311  1.00  0.00     0.000 C 
ATOM     19  C   UNL     1     142.666 142.764 140.914  1.00  0.00     0.005 C 
ATOM     20  C   UNL     1     142.650 141.621 141.975  1.00  0.00     0.003 C 
ATOM     21  C   UNL     1     141.280 140.132 143.498  1.00  0.00     0.031 C 
ATOM     22  C   UNL     1     143.623 140.426 141.628  1.00  0.00    -0.008 C 
ATOM     23  C   UNL     1     142.409 139.144 143.424  1.00  0.00    -0.027 C 
ATOM     24  C   UNL     1     143.535 139.342 142.709  1.00  0.00    -0.065 C 
ATOM     25  C   UNL     1     145.084 140.976 141.571  1.00  0.00     0.014 C 
ATOM     26  C   UNL     1     143.262 139.751 140.273  1.00  0.00     0.016 C 
ATOM     27  C   UNL     1     144.638 138.304 142.804  1.00  0.00     0.063 C 
ATOM     28  C   UNL     1     146.166 139.885 141.577  1.00  0.00     0.033 C 
ATOM     29  C   UNL     1     146.024 138.958 142.787  1.00  0.00     0.118 C 
BRANCH  29  30
ATOM     30  O   UNL     1     146.236 139.688 143.970  1.00  0.00    -0.393 OA
ATOM     31  H   UNL     1     147.136 139.434 144.307  1.00  0.00     0.210 HD
ENDBRANCH  29  30
ENDBRANCH   1  11
TORSDOF 6
ENDMDL
