MODEL 1
REMARK VINA RESULT:    -7.455      0.000      0.000
REMARK INTER + INTRA:          -8.317
REMARK INTER:                  -8.109
REMARK INTRA:                  -0.207
REMARK UNBOUND:                -0.207
REMARK SMILES C[C@@H]1[C@@H](C)CC[C@@]2(C(=O)[O-])CC[C@@]3(C)C(=CC[C@@H]4[C@@]5(C)CC[C@@H](O)C(C)(C)[C@@H]5CC[C@@]43C)[C@@H]12
REMARK SMILES IDX 7 1 6 2 11 3 33 4 5 5 12 6 15 7 2 8 3 9 13 10 16 11 1 12
REMARK SMILES IDX 4 13 14 14 31 15 17 16 18 17 30 18 32 19 19 20 29 21 28 22
REMARK SMILES IDX 21 23 20 24 25 25 22 26 23 27 26 28 27 29 8 30 9 31 10 32
REMARK SMILES IDX 24 33
REMARK H PARENT 24 34
REMARK Flexibility Score: inf
ROOT
ATOM      1  C   UNL     1      12.858  41.554  -0.781  1.00  0.00     0.017 C 
ATOM      2  C   UNL     1      12.725  42.480   0.474  1.00  0.00     0.014 C 
ATOM      3  C   UNL     1      13.623  42.345  -1.872  1.00  0.00     0.014 C 
ATOM      4  C   UNL     1      13.653  40.235  -0.448  1.00  0.00     0.030 C 
ATOM      5  C   UNL     1      12.801  41.698   1.785  1.00  0.00     0.004 C 
ATOM      6  C   UNL     1      13.741  41.554  -3.172  1.00  0.00     0.013 C 
ATOM      7  C   UNL     1      14.129  39.487  -1.711  1.00  0.00    -0.063 C 
ATOM      8  C   UNL     1      14.791  40.534   0.595  1.00  0.00    -0.003 C 
ATOM      9  C   UNL     1      14.183  41.023   1.954  1.00  0.00    -0.011 C 
ATOM     10  C   UNL     1      14.517  40.195  -3.028  1.00  0.00    -0.006 C 
ATOM     11  C   UNL     1      14.341  38.160  -1.607  1.00  0.00    -0.027 C 
ATOM     12  C   UNL     1      15.730  39.337   0.850  1.00  0.00     0.008 C 
ATOM     13  C   UNL     1      15.152  41.968   2.689  1.00  0.00     0.008 C 
ATOM     14  C   UNL     1      16.034  40.553  -2.928  1.00  0.00     0.017 C 
ATOM     15  C   UNL     1      14.207  39.220  -4.289  1.00  0.00    -0.020 C 
ATOM     16  C   UNL     1      15.189  37.437  -2.601  1.00  0.00     0.032 C 
ATOM     17  C   UNL     1      14.710  37.714  -4.045  1.00  0.00     0.006 C 
ATOM     18  C   UNL     1      14.826  39.823  -5.585  1.00  0.00     0.008 C 
ATOM     19  C   UNL     1      12.659  39.136  -4.543  1.00  0.00     0.012 C 
ATOM     20  C   UNL     1      15.611  37.046  -5.177  1.00  0.00    -0.025 C 
ATOM     21  C   UNL     1      14.751  38.925  -6.825  1.00  0.00     0.005 C 
ATOM     22  C   UNL     1      14.977  37.401  -6.577  1.00  0.00     0.003 C 
ATOM     23  C   UNL     1      15.588  35.476  -4.966  1.00  0.00     0.010 C 
ATOM     24  C   UNL     1      17.099  37.505  -5.099  1.00  0.00     0.012 C 
ATOM     25  C   UNL     1      15.569  36.620  -7.837  1.00  0.00    -0.006 C 
ATOM     26  C   UNL     1      15.333  34.641  -6.228  1.00  0.00     0.033 C 
ATOM     27  C   UNL     1      16.096  35.195  -7.426  1.00  0.00     0.120 C 
ATOM     28  C   UNL     1      14.431  36.474  -8.887  1.00  0.00     0.014 C 
ATOM     29  C   UNL     1      16.736  37.375  -8.536  1.00  0.00     0.014 C 
ENDROOT
BRANCH   1  30
ATOM     30  C   UNL     1      11.445  41.234  -1.269  1.00  0.00     0.048 C 
ATOM     31  O   UNL     1      10.978  40.065  -1.215  1.00  0.00    -0.550 OA
ATOM     32  O   UNL     1      10.630  42.257  -1.742  1.00  0.00    -0.550 OA
ENDBRANCH   1  30
BRANCH  27  33
ATOM     33  O   UNL     1      15.992  34.271  -8.483  1.00  0.00    -0.393 OA
ATOM     34  H   UNL     1      16.900  33.907  -8.647  1.00  0.00     0.210 HD
ENDBRANCH  27  33
TORSDOF 2
ENDMDL
MODEL 2
REMARK VINA RESULT:    -7.451      5.050      7.430
REMARK INTER + INTRA:          -8.311
REMARK INTER:                  -8.164
REMARK INTRA:                  -0.147
REMARK UNBOUND:                -0.207
REMARK SMILES C[C@@H]1[C@@H](C)CC[C@@]2(C(=O)[O-])CC[C@@]3(C)C(=CC[C@@H]4[C@@]5(C)CC[C@@H](O)C(C)(C)[C@@H]5CC[C@@]43C)[C@@H]12
REMARK SMILES IDX 7 1 6 2 11 3 33 4 5 5 12 6 15 7 2 8 3 9 13 10 16 11 1 12
REMARK SMILES IDX 4 13 14 14 31 15 17 16 18 17 30 18 32 19 19 20 29 21 28 22
REMARK SMILES IDX 21 23 20 24 25 25 22 26 23 27 26 28 27 29 8 30 9 31 10 32
REMARK SMILES IDX 24 33
REMARK H PARENT 24 34
REMARK Flexibility Score: inf
ROOT
ATOM      1  C   UNL     1      22.229  38.705  -0.103  1.00  0.00     0.017 C 
ATOM      2  C   UNL     1      23.515  38.287   0.685  1.00  0.00     0.014 C 
ATOM      3  C   UNL     1      21.879  37.553  -1.079  1.00  0.00     0.014 C 
ATOM      4  C   UNL     1      21.010  38.949   0.864  1.00  0.00     0.030 C 
ATOM      5  C   UNL     1      23.507  38.798   2.126  1.00  0.00     0.004 C 
ATOM      6  C   UNL     1      20.676  37.893  -1.954  1.00  0.00     0.013 C 
ATOM      7  C   UNL     1      19.656  38.988   0.124  1.00  0.00    -0.063 C 
ATOM      8  C   UNL     1      21.059  37.940   2.068  1.00  0.00    -0.003 C 
ATOM      9  C   UNL     1      22.345  38.172   2.934  1.00  0.00    -0.011 C 
ATOM     10  C   UNL     1      19.355  38.167  -1.149  1.00  0.00    -0.006 C 
ATOM     11  C   UNL     1      18.650  39.674   0.701  1.00  0.00    -0.027 C 
ATOM     12  C   UNL     1      19.812  37.992   2.974  1.00  0.00     0.008 C 
ATOM     13  C   UNL     1      22.806  36.865   3.606  1.00  0.00     0.008 C 
ATOM     14  C   UNL     1      18.816  36.777  -0.684  1.00  0.00     0.017 C 
ATOM     15  C   UNL     1      18.274  38.956  -2.071  1.00  0.00    -0.020 C 
ATOM     16  C   UNL     1      17.229  39.426   0.312  1.00  0.00     0.032 C 
ATOM     17  C   UNL     1      17.044  39.539  -1.219  1.00  0.00     0.006 C 
ATOM     18  C   UNL     1      17.781  38.026  -3.217  1.00  0.00     0.008 C 
ATOM     19  C   UNL     1      18.954  40.188  -2.770  1.00  0.00     0.012 C 
ATOM     20  C   UNL     1      15.571  39.208  -1.730  1.00  0.00    -0.025 C 
ATOM     21  C   UNL     1      16.635  38.586  -4.067  1.00  0.00     0.005 C 
ATOM     22  C   UNL     1      15.546  39.394  -3.295  1.00  0.00     0.003 C 
ATOM     23  C   UNL     1      14.570  40.236  -1.056  1.00  0.00     0.010 C 
ATOM     24  C   UNL     1      15.111  37.775  -1.324  1.00  0.00     0.012 C 
ATOM     25  C   UNL     1      14.107  39.365  -3.986  1.00  0.00    -0.006 C 
ATOM     26  C   UNL     1      13.559  40.893  -2.004  1.00  0.00     0.033 C 
ATOM     27  C   UNL     1      12.995  39.887  -3.003  1.00  0.00     0.120 C 
ATOM     28  C   UNL     1      14.161  40.277  -5.245  1.00  0.00     0.014 C 
ATOM     29  C   UNL     1      13.685  37.948  -4.470  1.00  0.00     0.014 C 
ENDROOT
BRANCH   1  30
ATOM     30  C   UNL     1      22.563  39.969  -0.894  1.00  0.00     0.048 C 
ATOM     31  O   UNL     1      21.862  41.012  -0.797  1.00  0.00    -0.550 OA
ATOM     32  O   UNL     1      23.692  39.997  -1.707  1.00  0.00    -0.550 OA
ENDBRANCH   1  30
BRANCH  27  33
ATOM     33  O   UNL     1      11.928  40.497  -3.691  1.00  0.00    -0.393 OA
ATOM     34  H   UNL     1      11.501  41.137  -3.065  1.00  0.00     0.210 HD
ENDBRANCH  27  33
TORSDOF 2
ENDMDL
MODEL 3
REMARK VINA RESULT:    -7.040      4.205      7.576
REMARK INTER + INTRA:          -7.865
REMARK INTER:                  -7.669
REMARK INTRA:                  -0.196
REMARK UNBOUND:                -0.207
REMARK SMILES C[C@@H]1[C@@H](C)CC[C@@]2(C(=O)[O-])CC[C@@]3(C)C(=CC[C@@H]4[C@@]5(C)CC[C@@H](O)C(C)(C)[C@@H]5CC[C@@]43C)[C@@H]12
REMARK SMILES IDX 7 1 6 2 11 3 33 4 5 5 12 6 15 7 2 8 3 9 13 10 16 11 1 12
REMARK SMILES IDX 4 13 14 14 31 15 17 16 18 17 30 18 32 19 19 20 29 21 28 22
REMARK SMILES IDX 21 23 20 24 25 25 22 26 23 27 26 28 27 29 8 30 9 31 10 32
REMARK SMILES IDX 24 33
REMARK H PARENT 24 34
REMARK Flexibility Score: inf
ROOT
ATOM      1  C   UNL     1      14.229  38.700  -4.972  1.00  0.00     0.017 C 
ATOM      2  C   UNL     1      12.980  38.268  -5.810  1.00  0.00     0.014 C 
ATOM      3  C   UNL     1      13.931  38.381  -3.484  1.00  0.00     0.014 C 
ATOM      4  C   UNL     1      15.524  37.921  -5.416  1.00  0.00     0.030 C 
ATOM      5  C   UNL     1      13.362  37.729  -7.189  1.00  0.00     0.004 C 
ATOM      6  C   UNL     1      15.063  38.835  -2.566  1.00  0.00     0.013 C 
ATOM      7  C   UNL     1      16.671  38.030  -4.389  1.00  0.00    -0.063 C 
ATOM      8  C   UNL     1      15.160  36.447  -5.825  1.00  0.00    -0.003 C 
ATOM      9  C   UNL     1      14.206  36.437  -7.069  1.00  0.00    -0.011 C 
ATOM     10  C   UNL     1      16.445  38.151  -2.866  1.00  0.00    -0.006 C 
ATOM     11  C   UNL     1      17.930  37.876  -4.843  1.00  0.00    -0.027 C 
ATOM     12  C   UNL     1      16.388  35.560  -6.110  1.00  0.00     0.008 C 
ATOM     13  C   UNL     1      13.288  35.200  -7.055  1.00  0.00     0.008 C 
ATOM     14  C   UNL     1      16.360  36.699  -2.296  1.00  0.00     0.017 C 
ATOM     15  C   UNL     1      17.661  38.993  -2.194  1.00  0.00    -0.020 C 
ATOM     16  C   UNL     1      19.047  37.536  -3.910  1.00  0.00     0.032 C 
ATOM     17  C   UNL     1      19.103  38.528  -2.725  1.00  0.00     0.006 C 
ATOM     18  C   UNL     1      17.570  38.901  -0.642  1.00  0.00     0.008 C 
ATOM     19  C   UNL     1      17.525  40.517  -2.549  1.00  0.00     0.012 C 
ATOM     20  C   UNL     1      20.217  38.191  -1.636  1.00  0.00    -0.025 C 
ATOM     21  C   UNL     1      18.751  39.514   0.120  1.00  0.00     0.005 C 
ATOM     22  C   UNL     1      20.158  39.303  -0.520  1.00  0.00     0.003 C 
ATOM     23  C   UNL     1      21.632  38.226  -2.348  1.00  0.00     0.010 C 
ATOM     24  C   UNL     1      20.036  36.769  -1.025  1.00  0.00     0.012 C 
ATOM     25  C   UNL     1      21.357  39.307   0.535  1.00  0.00    -0.006 C 
ATOM     26  C   UNL     1      22.725  39.009  -1.610  1.00  0.00     0.033 C 
ATOM     27  C   UNL     1      22.680  38.749  -0.108  1.00  0.00     0.120 C 
ATOM     28  C   UNL     1      21.579  40.774   1.001  1.00  0.00     0.014 C 
ATOM     29  C   UNL     1      21.056  38.467   1.809  1.00  0.00     0.014 C 
ENDROOT
BRANCH   1  30
ATOM     30  C   UNL     1      14.407  40.207  -5.152  1.00  0.00     0.048 C 
ATOM     31  O   UNL     1      15.444  40.690  -5.681  1.00  0.00    -0.550 OA
ATOM     32  O   UNL     1      13.387  41.073  -4.769  1.00  0.00    -0.550 OA
ENDBRANCH   1  30
BRANCH  27  33
ATOM     33  O   UNL     1      23.828  39.319   0.475  1.00  0.00    -0.393 OA
ATOM     34  H   UNL     1      23.837  39.053   1.430  1.00  0.00     0.210 HD
ENDBRANCH  27  33
TORSDOF 2
ENDMDL
MODEL 4
REMARK VINA RESULT:    -6.950      4.136      6.143
REMARK INTER + INTRA:          -7.766
REMARK INTER:                  -7.563
REMARK INTRA:                  -0.203
REMARK UNBOUND:                -0.207
REMARK SMILES C[C@@H]1[C@@H](C)CC[C@@]2(C(=O)[O-])CC[C@@]3(C)C(=CC[C@@H]4[C@@]5(C)CC[C@@H](O)C(C)(C)[C@@H]5CC[C@@]43C)[C@@H]12
REMARK SMILES IDX 7 1 6 2 11 3 33 4 5 5 12 6 15 7 2 8 3 9 13 10 16 11 1 12
REMARK SMILES IDX 4 13 14 14 31 15 17 16 18 17 30 18 32 19 19 20 29 21 28 22
REMARK SMILES IDX 21 23 20 24 25 25 22 26 23 27 26 28 27 29 8 30 9 31 10 32
REMARK SMILES IDX 24 33
REMARK H PARENT 24 34
REMARK Flexibility Score: inf
ROOT
ATOM      1  C   UNL     1      18.615  36.572   2.281  1.00  0.00     0.017 C 
ATOM      2  C   UNL     1      19.530  36.505   3.549  1.00  0.00     0.014 C 
ATOM      3  C   UNL     1      17.602  37.727   2.491  1.00  0.00     0.014 C 
ATOM      4  C   UNL     1      19.452  36.852   0.976  1.00  0.00     0.030 C 
ATOM      5  C   UNL     1      20.964  36.099   3.211  1.00  0.00     0.004 C 
ATOM      6  C   UNL     1      16.609  37.831   1.336  1.00  0.00     0.013 C 
ATOM      7  C   UNL     1      18.575  37.297  -0.214  1.00  0.00    -0.063 C 
ATOM      8  C   UNL     1      20.649  37.820   1.294  1.00  0.00    -0.003 C 
ATOM      9  C   UNL     1      21.644  37.155   2.306  1.00  0.00    -0.011 C 
ATOM     10  C   UNL     1      17.274  38.114  -0.058  1.00  0.00    -0.006 C 
ATOM     11  C   UNL     1      19.049  37.071  -1.456  1.00  0.00    -0.027 C 
ATOM     12  C   UNL     1      21.422  38.285   0.043  1.00  0.00     0.008 C 
ATOM     13  C   UNL     1      22.354  38.217   3.167  1.00  0.00     0.008 C 
ATOM     14  C   UNL     1      17.674  39.624  -0.066  1.00  0.00     0.017 C 
ATOM     15  C   UNL     1      16.250  37.755  -1.267  1.00  0.00    -0.020 C 
ATOM     16  C   UNL     1      18.514  37.823  -2.631  1.00  0.00     0.032 C 
ATOM     17  C   UNL     1      16.972  37.721  -2.701  1.00  0.00     0.006 C 
ATOM     18  C   UNL     1      15.054  38.752  -1.257  1.00  0.00     0.008 C 
ATOM     19  C   UNL     1      15.630  36.328  -1.047  1.00  0.00     0.012 C 
ATOM     20  C   UNL     1      16.310  38.563  -3.880  1.00  0.00    -0.025 C 
ATOM     21  C   UNL     1      14.092  38.632  -2.445  1.00  0.00     0.005 C 
ATOM     22  C   UNL     1      14.751  38.332  -3.828  1.00  0.00     0.003 C 
ATOM     23  C   UNL     1      16.881  38.023  -5.256  1.00  0.00     0.010 C 
ATOM     24  C   UNL     1      16.659  40.080  -3.793  1.00  0.00     0.012 C 
ATOM     25  C   UNL     1      13.915  38.875  -5.075  1.00  0.00    -0.006 C 
ATOM     26  C   UNL     1      15.837  37.758  -6.348  1.00  0.00     0.033 C 
ATOM     27  C   UNL     1      14.781  38.857  -6.389  1.00  0.00     0.120 C 
ATOM     28  C   UNL     1      12.673  37.956  -5.255  1.00  0.00     0.014 C 
ATOM     29  C   UNL     1      13.383  40.323  -4.876  1.00  0.00     0.014 C 
ENDROOT
BRANCH   1  30
ATOM     30  C   UNL     1      17.869  35.242   2.179  1.00  0.00     0.048 C 
ATOM     31  O   UNL     1      18.140  34.402   1.280  1.00  0.00    -0.550 OA
ATOM     32  O   UNL     1      16.899  34.921   3.123  1.00  0.00    -0.550 OA
ENDBRANCH   1  30
BRANCH  27  33
ATOM     33  O   UNL     1      13.989  38.669  -7.538  1.00  0.00    -0.393 OA
ATOM     34  H   UNL     1      14.606  38.503  -8.297  1.00  0.00     0.210 HD
ENDBRANCH  27  33
TORSDOF 2
ENDMDL
MODEL 5
REMARK VINA RESULT:    -6.913      3.142      7.836
REMARK INTER + INTRA:          -7.726
REMARK INTER:                  -7.575
REMARK INTRA:                  -0.151
REMARK UNBOUND:                -0.207
REMARK SMILES C[C@@H]1[C@@H](C)CC[C@@]2(C(=O)[O-])CC[C@@]3(C)C(=CC[C@@H]4[C@@]5(C)CC[C@@H](O)C(C)(C)[C@@H]5CC[C@@]43C)[C@@H]12
REMARK SMILES IDX 7 1 6 2 11 3 33 4 5 5 12 6 15 7 2 8 3 9 13 10 16 11 1 12
REMARK SMILES IDX 4 13 14 14 31 15 17 16 18 17 30 18 32 19 19 20 29 21 28 22
REMARK SMILES IDX 21 23 20 24 25 25 22 26 23 27 26 28 27 29 8 30 9 31 10 32
REMARK SMILES IDX 24 33
REMARK H PARENT 24 34
REMARK Flexibility Score: inf
ROOT
ATOM      1  C   UNL     1      14.429  38.825  -5.858  1.00  0.00     0.017 C 
ATOM      2  C   UNL     1      13.811  38.429  -7.240  1.00  0.00     0.014 C 
ATOM      3  C   UNL     1      13.593  38.133  -4.751  1.00  0.00     0.014 C 
ATOM      4  C   UNL     1      15.929  38.359  -5.738  1.00  0.00     0.030 C 
ATOM      5  C   UNL     1      14.871  38.282  -8.332  1.00  0.00     0.004 C 
ATOM      6  C   UNL     1      14.070  38.515  -3.353  1.00  0.00     0.013 C 
ATOM      7  C   UNL     1      16.451  38.386  -4.286  1.00  0.00    -0.063 C 
ATOM      8  C   UNL     1      16.132  36.983  -6.473  1.00  0.00    -0.003 C 
ATOM      9  C   UNL     1      15.850  37.128  -8.008  1.00  0.00    -0.011 C 
ATOM     10  C   UNL     1      15.560  38.119  -3.053  1.00  0.00    -0.006 C 
ATOM     11  C   UNL     1      17.780  38.519  -4.104  1.00  0.00    -0.027 C 
ATOM     12  C   UNL     1      17.530  36.367  -6.262  1.00  0.00     0.008 C 
ATOM     13  C   UNL     1      15.332  35.806  -8.605  1.00  0.00     0.008 C 
ATOM     14  C   UNL     1      15.573  36.578  -2.801  1.00  0.00     0.017 C 
ATOM     15  C   UNL     1      16.128  38.945  -1.774  1.00  0.00    -0.020 C 
ATOM     16  C   UNL     1      18.421  38.132  -2.811  1.00  0.00     0.032 C 
ATOM     17  C   UNL     1      17.722  38.821  -1.616  1.00  0.00     0.006 C 
ATOM     18  C   UNL     1      15.392  38.484  -0.482  1.00  0.00     0.008 C 
ATOM     19  C   UNL     1      15.813  40.475  -1.934  1.00  0.00     0.012 C 
ATOM     20  C   UNL     1      18.291  38.400  -0.189  1.00  0.00    -0.025 C 
ATOM     21  C   UNL     1      15.943  39.064   0.827  1.00  0.00     0.005 C 
ATOM     22  C   UNL     1      17.495  39.205   0.909  1.00  0.00     0.003 C 
ATOM     23  C   UNL     1      19.824  38.796  -0.130  1.00  0.00     0.010 C 
ATOM     24  C   UNL     1      18.195  36.864   0.058  1.00  0.00     0.012 C 
ATOM     25  C   UNL     1      18.073  39.132   2.395  1.00  0.00    -0.006 C 
ATOM     26  C   UNL     1      20.270  39.532   1.140  1.00  0.00     0.033 C 
ATOM     27  C   UNL     1      19.633  38.928   2.387  1.00  0.00     0.120 C 
ATOM     28  C   UNL     1      17.724  40.467   3.111  1.00  0.00     0.014 C 
ATOM     29  C   UNL     1      17.449  37.986   3.243  1.00  0.00     0.014 C 
ENDROOT
BRANCH   1  30
ATOM     30  C   UNL     1      14.314  40.343  -5.719  1.00  0.00     0.048 C 
ATOM     31  O   UNL     1      13.197  40.925  -5.750  1.00  0.00    -0.550 OA
ATOM     32  O   UNL     1      15.458  41.105  -5.507  1.00  0.00    -0.550 OA
ENDBRANCH   1  30
BRANCH  27  33
ATOM     33  O   UNL     1      20.245  39.502   3.518  1.00  0.00    -0.393 OA
ATOM     34  H   UNL     1      20.638  40.367   3.234  1.00  0.00     0.210 HD
ENDBRANCH  27  33
TORSDOF 2
ENDMDL
MODEL 6
REMARK VINA RESULT:    -6.780      3.230      4.932
REMARK INTER + INTRA:          -7.582
REMARK INTER:                  -7.466
REMARK INTRA:                  -0.115
REMARK UNBOUND:                -0.207
REMARK SMILES C[C@@H]1[C@@H](C)CC[C@@]2(C(=O)[O-])CC[C@@]3(C)C(=CC[C@@H]4[C@@]5(C)CC[C@@H](O)C(C)(C)[C@@H]5CC[C@@]43C)[C@@H]12
REMARK SMILES IDX 7 1 6 2 11 3 33 4 5 5 12 6 15 7 2 8 3 9 13 10 16 11 1 12
REMARK SMILES IDX 4 13 14 14 31 15 17 16 18 17 30 18 32 19 19 20 29 21 28 22
REMARK SMILES IDX 21 23 20 24 25 25 22 26 23 27 26 28 27 29 8 30 9 31 10 32
REMARK SMILES IDX 24 33
REMARK H PARENT 24 34
REMARK Flexibility Score: inf
ROOT
ATOM      1  C   UNL     1      18.750  38.614   0.167  1.00  0.00     0.017 C 
ATOM      2  C   UNL     1      19.169  38.649   1.674  1.00  0.00     0.014 C 
ATOM      3  C   UNL     1      18.428  37.142  -0.199  1.00  0.00     0.014 C 
ATOM      4  C   UNL     1      17.477  39.501  -0.103  1.00  0.00     0.030 C 
ATOM      5  C   UNL     1      18.713  39.929   2.375  1.00  0.00     0.004 C 
ATOM      6  C   UNL     1      18.078  36.985  -1.675  1.00  0.00     0.013 C 
ATOM      7  C   UNL     1      16.814  39.201  -1.464  1.00  0.00    -0.063 C 
ATOM      8  C   UNL     1      16.495  39.432   1.123  1.00  0.00    -0.003 C 
ATOM      9  C   UNL     1      17.168  40.028   2.407  1.00  0.00    -0.011 C 
ATOM     10  C   UNL     1      16.818  37.806  -2.127  1.00  0.00    -0.006 C 
ATOM     11  C   UNL     1      16.084  40.182  -2.032  1.00  0.00    -0.027 C 
ATOM     12  C   UNL     1      15.143  40.133   0.877  1.00  0.00     0.008 C 
ATOM     13  C   UNL     1      16.617  39.365   3.683  1.00  0.00     0.008 C 
ATOM     14  C   UNL     1      15.567  37.039  -1.592  1.00  0.00     0.017 C 
ATOM     15  C   UNL     1      16.783  37.964  -3.744  1.00  0.00    -0.020 C 
ATOM     16  C   UNL     1      15.076  39.875  -3.091  1.00  0.00     0.032 C 
ATOM     17  C   UNL     1      15.708  39.050  -4.236  1.00  0.00     0.006 C 
ATOM     18  C   UNL     1      16.532  36.576  -4.403  1.00  0.00     0.008 C 
ATOM     19  C   UNL     1      18.181  38.451  -4.270  1.00  0.00     0.012 C 
ATOM     20  C   UNL     1      14.681  38.608  -5.372  1.00  0.00    -0.025 C 
ATOM     21  C   UNL     1      16.313  36.602  -5.920  1.00  0.00     0.005 C 
ATOM     22  C   UNL     1      15.483  37.805  -6.467  1.00  0.00     0.003 C 
ATOM     23  C   UNL     1      14.063  39.916  -6.018  1.00  0.00     0.010 C 
ATOM     24  C   UNL     1      13.499  37.764  -4.807  1.00  0.00     0.012 C 
ATOM     25  C   UNL     1      14.702  37.490  -7.823  1.00  0.00    -0.006 C 
ATOM     26  C   UNL     1      14.035  39.947  -7.552  1.00  0.00     0.033 C 
ATOM     27  C   UNL     1      13.627  38.597  -8.130  1.00  0.00     0.120 C 
ATOM     28  C   UNL     1      15.744  37.439  -8.976  1.00  0.00     0.014 C 
ATOM     29  C   UNL     1      13.975  36.114  -7.809  1.00  0.00     0.014 C 
ENDROOT
BRANCH   1  30
ATOM     30  C   UNL     1      19.942  39.101  -0.655  1.00  0.00     0.048 C 
ATOM     31  O   UNL     1      19.816  39.995  -1.534  1.00  0.00    -0.550 OA
ATOM     32  O   UNL     1      21.210  38.587  -0.404  1.00  0.00    -0.550 OA
ENDBRANCH   1  30
BRANCH  27  33
ATOM     33  O   UNL     1      13.413  38.754  -9.513  1.00  0.00    -0.393 OA
ATOM     34  H   UNL     1      13.555  39.712  -9.727  1.00  0.00     0.210 HD
ENDBRANCH  27  33
TORSDOF 2
ENDMDL
MODEL 7
REMARK VINA RESULT:    -6.777      6.643      8.734
REMARK INTER + INTRA:          -7.578
REMARK INTER:                  -7.392
REMARK INTRA:                  -0.186
REMARK UNBOUND:                -0.207
REMARK SMILES C[C@@H]1[C@@H](C)CC[C@@]2(C(=O)[O-])CC[C@@]3(C)C(=CC[C@@H]4[C@@]5(C)CC[C@@H](O)C(C)(C)[C@@H]5CC[C@@]43C)[C@@H]12
REMARK SMILES IDX 7 1 6 2 11 3 33 4 5 5 12 6 15 7 2 8 3 9 13 10 16 11 1 12
REMARK SMILES IDX 4 13 14 14 31 15 17 16 18 17 30 18 32 19 19 20 29 21 28 22
REMARK SMILES IDX 21 23 20 24 25 25 22 26 23 27 26 28 27 29 8 30 9 31 10 32
REMARK SMILES IDX 24 33
REMARK H PARENT 24 34
REMARK Flexibility Score: inf
ROOT
ATOM      1  C   UNL     1      23.466  38.407   1.751  1.00  0.00     0.017 C 
ATOM      2  C   UNL     1      24.833  38.641   2.476  1.00  0.00     0.014 C 
ATOM      3  C   UNL     1      22.489  39.518   2.216  1.00  0.00     0.014 C 
ATOM      4  C   UNL     1      23.619  38.479   0.185  1.00  0.00     0.030 C 
ATOM      5  C   UNL     1      26.028  38.264   1.600  1.00  0.00     0.004 C 
ATOM      6  C   UNL     1      21.096  39.337   1.621  1.00  0.00     0.013 C 
ATOM      7  C   UNL     1      22.267  38.632  -0.544  1.00  0.00    -0.063 C 
ATOM      8  C   UNL     1      24.691  39.560  -0.209  1.00  0.00    -0.003 C 
ATOM      9  C   UNL     1      26.104  39.164   0.343  1.00  0.00    -0.011 C 
ATOM     10  C   UNL     1      21.056  39.385   0.052  1.00  0.00    -0.006 C 
ATOM     11  C   UNL     1      22.193  38.200  -1.818  1.00  0.00    -0.027 C 
ATOM     12  C   UNL     1      24.784  39.819  -1.726  1.00  0.00     0.008 C 
ATOM     13  C   UNL     1      26.958  40.413   0.631  1.00  0.00     0.008 C 
ATOM     14  C   UNL     1      21.202  40.886  -0.355  1.00  0.00     0.017 C 
ATOM     15  C   UNL     1      19.675  38.738  -0.509  1.00  0.00    -0.020 C 
ATOM     16  C   UNL     1      21.110  38.676  -2.729  1.00  0.00     0.032 C 
ATOM     17  C   UNL     1      19.716  38.471  -2.092  1.00  0.00     0.006 C 
ATOM     18  C   UNL     1      18.472  39.645  -0.116  1.00  0.00     0.008 C 
ATOM     19  C   UNL     1      19.414  37.346   0.171  1.00  0.00     0.012 C 
ATOM     20  C   UNL     1      18.504  39.028  -2.965  1.00  0.00    -0.025 C 
ATOM     21  C   UNL     1      17.123  39.240  -0.722  1.00  0.00     0.005 C 
ATOM     22  C   UNL     1      17.165  38.719  -2.192  1.00  0.00     0.003 C 
ATOM     23  C   UNL     1      18.504  38.268  -4.355  1.00  0.00     0.010 C 
ATOM     24  C   UNL     1      18.643  40.551  -3.266  1.00  0.00     0.012 C 
ATOM     25  C   UNL     1      15.811  38.959  -3.003  1.00  0.00    -0.006 C 
ATOM     26  C   UNL     1      17.142  37.735  -4.817  1.00  0.00     0.033 C 
ATOM     27  C   UNL     1      16.028  38.740  -4.546  1.00  0.00     0.120 C 
ATOM     28  C   UNL     1      14.752  37.951  -2.475  1.00  0.00     0.014 C 
ATOM     29  C   UNL     1      15.220  40.384  -2.804  1.00  0.00     0.014 C 
ENDROOT
BRANCH   1  30
ATOM     30  C   UNL     1      22.940  37.040   2.188  1.00  0.00     0.048 C 
ATOM     31  O   UNL     1      22.729  36.118   1.356  1.00  0.00    -0.550 OA
ATOM     32  O   UNL     1      22.729  36.782   3.539  1.00  0.00    -0.550 OA
ENDBRANCH   1  30
BRANCH  27  33
ATOM     33  O   UNL     1      14.857  38.286  -5.182  1.00  0.00    -0.393 OA
ATOM     34  H   UNL     1      14.209  38.046  -4.471  1.00  0.00     0.210 HD
ENDBRANCH  27  33
TORSDOF 2
ENDMDL
MODEL 8
REMARK VINA RESULT:    -6.765      3.257      7.760
REMARK INTER + INTRA:          -7.565
REMARK INTER:                  -7.459
REMARK INTRA:                  -0.106
REMARK UNBOUND:                -0.207
REMARK SMILES C[C@@H]1[C@@H](C)CC[C@@]2(C(=O)[O-])CC[C@@]3(C)C(=CC[C@@H]4[C@@]5(C)CC[C@@H](O)C(C)(C)[C@@H]5CC[C@@]43C)[C@@H]12
REMARK SMILES IDX 7 1 6 2 11 3 33 4 5 5 12 6 15 7 2 8 3 9 13 10 16 11 1 12
REMARK SMILES IDX 4 13 14 14 31 15 17 16 18 17 30 18 32 19 19 20 29 21 28 22
REMARK SMILES IDX 21 23 20 24 25 25 22 26 23 27 26 28 27 29 8 30 9 31 10 32
REMARK SMILES IDX 24 33
REMARK H PARENT 24 34
REMARK Flexibility Score: inf
ROOT
ATOM      1  C   UNL     1      14.408  37.761  -7.941  1.00  0.00     0.017 C 
ATOM      2  C   UNL     1      13.547  37.682  -9.246  1.00  0.00     0.014 C 
ATOM      3  C   UNL     1      14.188  39.163  -7.315  1.00  0.00     0.014 C 
ATOM      4  C   UNL     1      13.984  36.659  -6.898  1.00  0.00     0.030 C 
ATOM      5  C   UNL     1      12.987  36.281  -9.489  1.00  0.00     0.004 C 
ATOM      6  C   UNL     1      15.045  39.372  -6.070  1.00  0.00     0.013 C 
ATOM      7  C   UNL     1      14.530  36.934  -5.481  1.00  0.00    -0.063 C 
ATOM      8  C   UNL     1      12.432  36.421  -6.958  1.00  0.00    -0.003 C 
ATOM      9  C   UNL     1      12.010  35.866  -8.363  1.00  0.00    -0.011 C 
ATOM     10  C   UNL     1      14.753  38.352  -4.912  1.00  0.00    -0.006 C 
ATOM     11  C   UNL     1      14.691  35.878  -4.659  1.00  0.00    -0.027 C 
ATOM     12  C   UNL     1      11.904  35.482  -5.854  1.00  0.00     0.008 C 
ATOM     13  C   UNL     1      10.573  36.290  -8.719  1.00  0.00     0.008 C 
ATOM     14  C   UNL     1      13.412  38.798  -4.249  1.00  0.00     0.017 C 
ATOM     15  C   UNL     1      15.977  38.331  -3.843  1.00  0.00    -0.020 C 
ATOM     16  C   UNL     1      14.791  36.063  -3.181  1.00  0.00     0.032 C 
ATOM     17  C   UNL     1      15.885  37.095  -2.822  1.00  0.00     0.006 C 
ATOM     18  C   UNL     1      16.038  39.690  -3.086  1.00  0.00     0.008 C 
ATOM     19  C   UNL     1      17.350  38.187  -4.594  1.00  0.00     0.012 C 
ATOM     20  C   UNL     1      16.003  37.414  -1.265  1.00  0.00    -0.025 C 
ATOM     21  C   UNL     1      17.045  39.750  -1.931  1.00  0.00     0.005 C 
ATOM     22  C   UNL     1      17.172  38.455  -1.070  1.00  0.00     0.003 C 
ATOM     23  C   UNL     1      16.359  36.068  -0.509  1.00  0.00     0.010 C 
ATOM     24  C   UNL     1      14.667  37.947  -0.666  1.00  0.00     0.012 C 
ATOM     25  C   UNL     1      17.635  38.720   0.435  1.00  0.00    -0.006 C 
ATOM     26  C   UNL     1      17.499  36.164   0.513  1.00  0.00     0.033 C 
ATOM     27  C   UNL     1      17.409  37.448   1.331  1.00  0.00     0.120 C 
ATOM     28  C   UNL     1      19.148  39.082   0.413  1.00  0.00     0.014 C 
ATOM     29  C   UNL     1      16.894  39.912   1.105  1.00  0.00     0.014 C 
ENDROOT
BRANCH   1  30
ATOM     30  C   UNL     1      15.873  37.600  -8.345  1.00  0.00     0.048 C 
ATOM     31  O   UNL     1      16.635  36.791  -7.752  1.00  0.00    -0.550 OA
ATOM     32  O   UNL     1      16.376  38.324  -9.421  1.00  0.00    -0.550 OA
ENDBRANCH   1  30
BRANCH  27  33
ATOM     33  O   UNL     1      18.343  37.370   2.381  1.00  0.00    -0.393 OA
ATOM     34  H   UNL     1      17.845  37.120   3.202  1.00  0.00     0.210 HD
ENDBRANCH  27  33
TORSDOF 2
ENDMDL
MODEL 9
REMARK VINA RESULT:    -6.661      6.913      9.602
REMARK INTER + INTRA:          -7.452
REMARK INTER:                  -7.246
REMARK INTRA:                  -0.206
REMARK UNBOUND:                -0.207
REMARK SMILES C[C@@H]1[C@@H](C)CC[C@@]2(C(=O)[O-])CC[C@@]3(C)C(=CC[C@@H]4[C@@]5(C)CC[C@@H](O)C(C)(C)[C@@H]5CC[C@@]43C)[C@@H]12
REMARK SMILES IDX 7 1 6 2 11 3 33 4 5 5 12 6 15 7 2 8 3 9 13 10 16 11 1 12
REMARK SMILES IDX 4 13 14 14 31 15 17 16 18 17 30 18 32 19 19 20 29 21 28 22
REMARK SMILES IDX 21 23 20 24 25 25 22 26 23 27 26 28 27 29 8 30 9 31 10 32
REMARK SMILES IDX 24 33
REMARK H PARENT 24 34
REMARK Flexibility Score: inf
ROOT
ATOM      1  C   UNL     1      16.809  37.904  -0.176  1.00  0.00     0.017 C 
ATOM      2  C   UNL     1      15.308  37.471  -0.267  1.00  0.00     0.014 C 
ATOM      3  C   UNL     1      16.956  38.847   1.046  1.00  0.00     0.014 C 
ATOM      4  C   UNL     1      17.761  36.663   0.013  1.00  0.00     0.030 C 
ATOM      5  C   UNL     1      15.145  36.038  -0.773  1.00  0.00     0.004 C 
ATOM      6  C   UNL     1      18.376  39.388   1.181  1.00  0.00     0.013 C 
ATOM      7  C   UNL     1      19.177  37.060   0.480  1.00  0.00    -0.063 C 
ATOM      8  C   UNL     1      17.065  35.576   0.910  1.00  0.00    -0.003 C 
ATOM      9  C   UNL     1      15.775  35.024   0.212  1.00  0.00    -0.011 C 
ATOM     10  C   UNL     1      19.469  38.279   1.382  1.00  0.00    -0.006 C 
ATOM     11  C   UNL     1      20.188  36.217   0.190  1.00  0.00    -0.027 C 
ATOM     12  C   UNL     1      17.989  34.400   1.290  1.00  0.00     0.008 C 
ATOM     13  C   UNL     1      14.732  34.569   1.250  1.00  0.00     0.008 C 
ATOM     14  C   UNL     1      19.350  37.795   2.862  1.00  0.00     0.017 C 
ATOM     15  C   UNL     1      20.949  38.864   1.056  1.00  0.00    -0.020 C 
ATOM     16  C   UNL     1      21.478  36.276   0.941  1.00  0.00     0.032 C 
ATOM     17  C   UNL     1      22.059  37.709   0.936  1.00  0.00     0.006 C 
ATOM     18  C   UNL     1      21.345  39.923   2.127  1.00  0.00     0.008 C 
ATOM     19  C   UNL     1      20.942  39.619  -0.322  1.00  0.00     0.012 C 
ATOM     20  C   UNL     1      23.396  37.880   1.786  1.00  0.00    -0.025 C 
ATOM     21  C   UNL     1      22.785  40.440   2.036  1.00  0.00     0.005 C 
ATOM     22  C   UNL     1      23.866  39.380   1.656  1.00  0.00     0.003 C 
ATOM     23  C   UNL     1      24.499  36.923   1.173  1.00  0.00     0.010 C 
ATOM     24  C   UNL     1      23.205  37.476   3.279  1.00  0.00     0.012 C 
ATOM     25  C   UNL     1      25.324  39.713   2.216  1.00  0.00    -0.006 C 
ATOM     26  C   UNL     1      25.876  37.559   0.945  1.00  0.00     0.033 C 
ATOM     27  C   UNL     1      26.273  38.462   2.108  1.00  0.00     0.120 C 
ATOM     28  C   UNL     1      25.904  40.884   1.375  1.00  0.00     0.014 C 
ATOM     29  C   UNL     1      25.321  40.179   3.700  1.00  0.00     0.014 C 
ENDROOT
BRANCH   1  30
ATOM     30  C   UNL     1      17.148  38.664  -1.458  1.00  0.00     0.048 C 
ATOM     31  O   UNL     1      17.966  38.205  -2.300  1.00  0.00    -0.550 OA
ATOM     32  O   UNL     1      16.511  39.869  -1.735  1.00  0.00    -0.550 OA
ENDBRANCH   1  30
BRANCH  27  33
ATOM     33  O   UNL     1      27.619  38.837   1.938  1.00  0.00    -0.393 OA
ATOM     34  H   UNL     1      27.884  39.357   2.740  1.00  0.00     0.210 HD
ENDBRANCH  27  33
TORSDOF 2
ENDMDL
