MODEL 1
REMARK VINA RESULT:    -5.764      0.000      0.000
REMARK INTER + INTRA:          -6.940
REMARK INTER:                  -6.775
REMARK INTRA:                  -0.165
REMARK UNBOUND:                -0.165
REMARK SMILES O=C([O-])C=Cc1ccc(O)c(O)c1
REMARK SMILES IDX 6 1 13 2 7 3 11 4 8 5 9 6 5 7 4 8 2 9 1 10 3 11 12 12 10 14
REMARK H PARENT 12 13 10 15
REMARK Flexibility Score: inf
ROOT
ATOM      1  C   UNL     1      54.426   3.282 -10.017  1.00  0.00    -0.022 A 
ATOM      2  C   UNL     1      53.861   2.076  -9.568  1.00  0.00     0.058 A 
ATOM      3  C   UNL     1      55.265   3.272 -11.141  1.00  0.00     0.012 A 
ATOM      4  C   UNL     1      54.089   0.883 -10.269  1.00  0.00     0.157 A 
ATOM      5  C   UNL     1      55.492   2.084 -11.840  1.00  0.00     0.051 A 
ATOM      6  C   UNL     1      54.902   0.887 -11.409  1.00  0.00     0.157 A 
ENDROOT
BRANCH   1   7
ATOM      7  C   UNL     1      54.242   4.540  -9.264  1.00  0.00     0.010 C 
ATOM      8  C   UNL     1      53.095   5.232  -9.177  1.00  0.00     0.025 C 
BRANCH   8   9
ATOM      9  C   UNL     1      51.875   4.968  -9.962  1.00  0.00     0.064 C 
ATOM     10  O   UNL     1      50.793   4.744  -9.360  1.00  0.00    -0.545 OA
ATOM     11  O   UNL     1      51.877   5.031 -11.350  1.00  0.00    -0.545 OA
ENDBRANCH   8   9
ENDBRANCH   1   7
BRANCH   4  12
ATOM     12  O   UNL     1      53.515  -0.310  -9.835  1.00  0.00    -0.504 OA
ATOM     13  H   UNL     1      53.921  -1.210 -10.067  1.00  0.00     0.293 HD
ENDBRANCH   4  12
BRANCH   6  14
ATOM     14  O   UNL     1      55.124  -0.300 -12.105  1.00  0.00    -0.504 OA
ATOM     15  H   UNL     1      55.724  -0.331 -12.921  1.00  0.00     0.293 HD
ENDBRANCH   6  14
TORSDOF 4
ENDMDL
MODEL 2
REMARK VINA RESULT:    -5.732      3.169      4.910
REMARK INTER + INTRA:          -6.903
REMARK INTER:                  -6.749
REMARK INTRA:                  -0.154
REMARK UNBOUND:                -0.165
REMARK SMILES O=C([O-])C=Cc1ccc(O)c(O)c1
REMARK SMILES IDX 6 1 13 2 7 3 11 4 8 5 9 6 5 7 4 8 2 9 1 10 3 11 12 12 10 14
REMARK H PARENT 12 13 10 15
REMARK Flexibility Score: inf
ROOT
ATOM      1  C   UNL     1      54.305   3.311  -8.861  1.00  0.00    -0.022 A 
ATOM      2  C   UNL     1      54.278   2.436  -7.761  1.00  0.00     0.058 A 
ATOM      3  C   UNL     1      54.575   4.671  -8.650  1.00  0.00     0.012 A 
ATOM      4  C   UNL     1      54.572   2.907  -6.474  1.00  0.00     0.157 A 
ATOM      5  C   UNL     1      54.869   5.141  -7.367  1.00  0.00     0.051 A 
ATOM      6  C   UNL     1      54.873   4.260  -6.276  1.00  0.00     0.157 A 
ENDROOT
BRANCH   1   7
ATOM      7  C   UNL     1      53.947   2.848 -10.217  1.00  0.00     0.010 C 
ATOM      8  C   UNL     1      54.803   2.714 -11.243  1.00  0.00     0.025 C 
BRANCH   8   9
ATOM      9  C   UNL     1      56.202   3.180 -11.256  1.00  0.00     0.064 C 
ATOM     10  O   UNL     1      57.125   2.362 -11.007  1.00  0.00    -0.545 OA
ATOM     11  O   UNL     1      56.529   4.484 -11.607  1.00  0.00    -0.545 OA
ENDBRANCH   8   9
ENDBRANCH   1   7
BRANCH   4  12
ATOM     12  O   UNL     1      54.564   2.036  -5.386  1.00  0.00    -0.504 OA
ATOM     13  H   UNL     1      53.718   1.557  -5.096  1.00  0.00     0.293 HD
ENDBRANCH   4  12
BRANCH   6  14
ATOM     14  O   UNL     1      55.167   4.724  -4.995  1.00  0.00    -0.504 OA
ATOM     15  H   UNL     1      56.122   4.784  -4.660  1.00  0.00     0.293 HD
ENDBRANCH   6  14
TORSDOF 4
ENDMDL
MODEL 3
REMARK VINA RESULT:    -5.728      3.111      4.817
REMARK INTER + INTRA:          -6.897
REMARK INTER:                  -6.626
REMARK INTRA:                  -0.272
REMARK UNBOUND:                -0.165
REMARK SMILES O=C([O-])C=Cc1ccc(O)c(O)c1
REMARK SMILES IDX 6 1 13 2 7 3 11 4 8 5 9 6 5 7 4 8 2 9 1 10 3 11 12 12 10 14
REMARK H PARENT 12 13 10 15
REMARK Flexibility Score: inf
ROOT
ATOM      1  C   UNL     1      54.018   3.275  -9.076  1.00  0.00    -0.022 A 
ATOM      2  C   UNL     1      54.327   4.358  -8.236  1.00  0.00     0.058 A 
ATOM      3  C   UNL     1      54.092   1.970  -8.569  1.00  0.00     0.012 A 
ATOM      4  C   UNL     1      54.654   4.141  -6.890  1.00  0.00     0.157 A 
ATOM      5  C   UNL     1      54.417   1.752  -7.227  1.00  0.00     0.051 A 
ATOM      6  C   UNL     1      54.695   2.836  -6.383  1.00  0.00     0.157 A 
ENDROOT
BRANCH   1   7
ATOM      7  C   UNL     1      53.722   3.477 -10.509  1.00  0.00     0.010 C 
ATOM      8  C   UNL     1      54.635   3.514 -11.493  1.00  0.00     0.025 C 
BRANCH   8   9
ATOM      9  C   UNL     1      56.097   3.552 -11.302  1.00  0.00     0.064 C 
ATOM     10  O   UNL     1      56.763   2.494 -11.449  1.00  0.00    -0.545 OA
ATOM     11  O   UNL     1      56.764   4.740 -11.033  1.00  0.00    -0.545 OA
ENDBRANCH   8   9
ENDBRANCH   1   7
BRANCH   4  12
ATOM     12  O   UNL     1      54.943   5.216  -6.052  1.00  0.00    -0.504 OA
ATOM     13  H   UNL     1      55.037   5.097  -5.050  1.00  0.00     0.293 HD
ENDBRANCH   4  12
BRANCH   6  14
ATOM     14  O   UNL     1      55.018   2.623  -5.044  1.00  0.00    -0.504 OA
ATOM     15  H   UNL     1      55.484   1.776  -4.740  1.00  0.00     0.293 HD
ENDBRANCH   6  14
TORSDOF 4
ENDMDL
MODEL 4
REMARK VINA RESULT:    -5.564      2.938      3.824
REMARK INTER + INTRA:          -6.705
REMARK INTER:                  -6.611
REMARK INTRA:                  -0.094
REMARK UNBOUND:                -0.165
REMARK SMILES O=C([O-])C=Cc1ccc(O)c(O)c1
REMARK SMILES IDX 6 1 13 2 7 3 11 4 8 5 9 6 5 7 4 8 2 9 1 10 3 11 12 12 10 14
REMARK H PARENT 12 13 10 15
REMARK Flexibility Score: inf
ROOT
ATOM      1  C   UNL     1      53.827   2.915  -8.853  1.00  0.00    -0.022 A 
ATOM      2  C   UNL     1      54.141   1.867  -9.734  1.00  0.00     0.058 A 
ATOM      3  C   UNL     1      54.414   4.174  -9.045  1.00  0.00     0.012 A 
ATOM      4  C   UNL     1      54.990   2.090 -10.827  1.00  0.00     0.157 A 
ATOM      5  C   UNL     1      55.260   4.398 -10.135  1.00  0.00     0.051 A 
ATOM      6  C   UNL     1      55.548   3.359 -11.030  1.00  0.00     0.157 A 
ENDROOT
BRANCH   1   7
ATOM      7  C   UNL     1      52.977   2.689  -7.666  1.00  0.00     0.010 C 
ATOM      8  C   UNL     1      53.385   2.780  -6.390  1.00  0.00     0.025 C 
BRANCH   8   9
ATOM      9  C   UNL     1      54.784   2.930  -5.948  1.00  0.00     0.064 C 
ATOM     10  O   UNL     1      55.231   4.082  -5.705  1.00  0.00    -0.545 OA
ATOM     11  O   UNL     1      55.598   1.827  -5.725  1.00  0.00    -0.545 OA
ENDBRANCH   8   9
ENDBRANCH   1   7
BRANCH   4  12
ATOM     12  O   UNL     1      55.288   1.056 -11.712  1.00  0.00    -0.504 OA
ATOM     13  H   UNL     1      56.223   0.670 -11.782  1.00  0.00     0.293 HD
ENDBRANCH   4  12
BRANCH   6  14
ATOM     14  O   UNL     1      56.389   3.579 -12.120  1.00  0.00    -0.504 OA
ATOM     15  H   UNL     1      56.313   3.028 -12.968  1.00  0.00     0.293 HD
ENDBRANCH   6  14
TORSDOF 4
ENDMDL
MODEL 5
REMARK VINA RESULT:    -5.386      2.726      4.124
REMARK INTER + INTRA:          -6.496
REMARK INTER:                  -6.770
REMARK INTRA:                   0.274
REMARK UNBOUND:                -0.165
REMARK SMILES O=C([O-])C=Cc1ccc(O)c(O)c1
REMARK SMILES IDX 6 1 13 2 7 3 11 4 8 5 9 6 5 7 4 8 2 9 1 10 3 11 12 12 10 14
REMARK H PARENT 12 13 10 15
REMARK Flexibility Score: inf
ROOT
ATOM      1  C   UNL     1      54.352   3.474  -8.940  1.00  0.00    -0.022 A 
ATOM      2  C   UNL     1      54.180   2.594  -7.858  1.00  0.00     0.058 A 
ATOM      3  C   UNL     1      54.735   4.800  -8.692  1.00  0.00     0.012 A 
ATOM      4  C   UNL     1      54.441   3.021  -6.548  1.00  0.00     0.157 A 
ATOM      5  C   UNL     1      54.997   5.226  -7.387  1.00  0.00     0.051 A 
ATOM      6  C   UNL     1      54.854   4.338  -6.313  1.00  0.00     0.157 A 
ENDROOT
BRANCH   1   7
ATOM      7  C   UNL     1      54.033   3.061 -10.322  1.00  0.00     0.010 C 
ATOM      8  C   UNL     1      53.067   3.593 -11.088  1.00  0.00     0.025 C 
BRANCH   8   9
ATOM      9  C   UNL     1      52.037   4.543 -10.629  1.00  0.00     0.064 C 
ATOM     10  O   UNL     1      51.562   5.376 -11.444  1.00  0.00    -0.545 OA
ATOM     11  O   UNL     1      51.528   4.493  -9.337  1.00  0.00    -0.545 OA
ENDBRANCH   8   9
ENDBRANCH   1   7
BRANCH   4  12
ATOM     12  O   UNL     1      54.287   2.143  -5.477  1.00  0.00    -0.504 OA
ATOM     13  H   UNL     1      54.919   2.158  -4.684  1.00  0.00     0.293 HD
ENDBRANCH   4  12
BRANCH   6  14
ATOM     14  O   UNL     1      55.115   4.759  -5.010  1.00  0.00    -0.504 OA
ATOM     15  H   UNL     1      54.512   5.422  -4.536  1.00  0.00     0.293 HD
ENDBRANCH   6  14
TORSDOF 4
ENDMDL
MODEL 6
REMARK VINA RESULT:    -5.291      2.666      3.669
REMARK INTER + INTRA:          -6.384
REMARK INTER:                  -6.758
REMARK INTRA:                   0.374
REMARK UNBOUND:                -0.165
REMARK SMILES O=C([O-])C=Cc1ccc(O)c(O)c1
REMARK SMILES IDX 6 1 13 2 7 3 11 4 8 5 9 6 5 7 4 8 2 9 1 10 3 11 12 12 10 14
REMARK H PARENT 12 13 10 15
REMARK Flexibility Score: inf
ROOT
ATOM      1  C   UNL     1      54.779   3.878  -9.116  1.00  0.00    -0.022 A 
ATOM      2  C   UNL     1      55.613   4.197 -10.202  1.00  0.00     0.058 A 
ATOM      3  C   UNL     1      53.956   2.746  -9.193  1.00  0.00     0.012 A 
ATOM      4  C   UNL     1      55.662   3.363 -11.328  1.00  0.00     0.157 A 
ATOM      5  C   UNL     1      54.004   1.913 -10.314  1.00  0.00     0.051 A 
ATOM      6  C   UNL     1      54.859   2.217 -11.382  1.00  0.00     0.157 A 
ENDROOT
BRANCH   1   7
ATOM      7  C   UNL     1      54.673   4.770  -7.943  1.00  0.00     0.010 C 
ATOM      8  C   UNL     1      54.564   4.366  -6.668  1.00  0.00     0.025 C 
BRANCH   8   9
ATOM      9  C   UNL     1      54.339   2.977  -6.227  1.00  0.00     0.064 C 
ATOM     10  O   UNL     1      55.327   2.268  -5.901  1.00  0.00    -0.545 OA
ATOM     11  O   UNL     1      53.058   2.455  -6.096  1.00  0.00    -0.545 OA
ENDBRANCH   8   9
ENDBRANCH   1   7
BRANCH   4  12
ATOM     12  O   UNL     1      56.501   3.670 -12.397  1.00  0.00    -0.504 OA
ATOM     13  H   UNL     1      56.145   3.763 -13.341  1.00  0.00     0.293 HD
ENDBRANCH   4  12
BRANCH   6  14
ATOM     14  O   UNL     1      54.912   1.388 -12.502  1.00  0.00    -0.504 OA
ATOM     15  H   UNL     1      54.402   1.610 -13.350  1.00  0.00     0.293 HD
ENDBRANCH   6  14
TORSDOF 4
ENDMDL
MODEL 7
REMARK VINA RESULT:    -5.272     10.567     12.703
REMARK INTER + INTRA:          -6.362
REMARK INTER:                  -6.553
REMARK INTRA:                   0.191
REMARK UNBOUND:                -0.165
REMARK SMILES O=C([O-])C=Cc1ccc(O)c(O)c1
REMARK SMILES IDX 6 1 13 2 7 3 11 4 8 5 9 6 5 7 4 8 2 9 1 10 3 11 12 12 10 14
REMARK H PARENT 12 13 10 15
REMARK Flexibility Score: inf
ROOT
ATOM      1  C   UNL     1      42.898   8.670 -10.229  1.00  0.00    -0.022 A 
ATOM      2  C   UNL     1      43.872   8.623 -11.241  1.00  0.00     0.058 A 
ATOM      3  C   UNL     1      41.669   9.294 -10.487  1.00  0.00     0.012 A 
ATOM      4  C   UNL     1      43.599   9.146 -12.512  1.00  0.00     0.157 A 
ATOM      5  C   UNL     1      41.395   9.815 -11.755  1.00  0.00     0.051 A 
ATOM      6  C   UNL     1      42.357   9.739 -12.771  1.00  0.00     0.157 A 
ENDROOT
BRANCH   1   7
ATOM      7  C   UNL     1      43.183   8.172  -8.867  1.00  0.00     0.010 C 
ATOM      8  C   UNL     1      43.617   6.937  -8.567  1.00  0.00     0.025 C 
BRANCH   8   9
ATOM      9  C   UNL     1      43.702   5.808  -9.511  1.00  0.00     0.064 C 
ATOM     10  O   UNL     1      44.676   5.743 -10.305  1.00  0.00    -0.545 OA
ATOM     11  O   UNL     1      42.771   4.776  -9.495  1.00  0.00    -0.545 OA
ENDBRANCH   8   9
ENDBRANCH   1   7
BRANCH   4  12
ATOM     12  O   UNL     1      44.558   9.084 -13.522  1.00  0.00    -0.504 OA
ATOM     13  H   UNL     1      45.026   8.216 -13.756  1.00  0.00     0.293 HD
ENDBRANCH   4  12
BRANCH   6  14
ATOM     14  O   UNL     1      42.087  10.256 -14.038  1.00  0.00    -0.504 OA
ATOM     15  H   UNL     1      41.197  10.691 -14.254  1.00  0.00     0.293 HD
ENDBRANCH   6  14
TORSDOF 4
ENDMDL
MODEL 8
REMARK VINA RESULT:    -5.218      2.254      2.831
REMARK INTER + INTRA:          -6.299
REMARK INTER:                  -6.662
REMARK INTRA:                   0.363
REMARK UNBOUND:                -0.165
REMARK SMILES O=C([O-])C=Cc1ccc(O)c(O)c1
REMARK SMILES IDX 6 1 13 2 7 3 11 4 8 5 9 6 5 7 4 8 2 9 1 10 3 11 12 12 10 14
REMARK H PARENT 12 13 10 15
REMARK Flexibility Score: inf
ROOT
ATOM      1  C   UNL     1      54.658   3.377  -9.442  1.00  0.00    -0.022 A 
ATOM      2  C   UNL     1      53.954   2.169  -9.308  1.00  0.00     0.058 A 
ATOM      3  C   UNL     1      55.569   3.528 -10.498  1.00  0.00     0.012 A 
ATOM      4  C   UNL     1      54.119   1.144 -10.250  1.00  0.00     0.157 A 
ATOM      5  C   UNL     1      55.734   2.508 -11.438  1.00  0.00     0.051 A 
ATOM      6  C   UNL     1      55.007   1.315 -11.320  1.00  0.00     0.157 A 
ENDROOT
BRANCH   1   7
ATOM      7  C   UNL     1      54.539   4.449  -8.433  1.00  0.00     0.010 C 
ATOM      8  C   UNL     1      54.453   4.261  -7.106  1.00  0.00     0.025 C 
BRANCH   8   9
ATOM      9  C   UNL     1      54.269   2.959  -6.438  1.00  0.00     0.064 C 
ATOM     10  O   UNL     1      55.282   2.311  -6.067  1.00  0.00    -0.545 OA
ATOM     11  O   UNL     1      53.004   2.466  -6.144  1.00  0.00    -0.545 OA
ENDBRANCH   8   9
ENDBRANCH   1   7
BRANCH   4  12
ATOM     12  O   UNL     1      53.408  -0.048 -10.128  1.00  0.00    -0.504 OA
ATOM     13  H   UNL     1      52.838  -0.406 -10.886  1.00  0.00     0.293 HD
ENDBRANCH   4  12
BRANCH   6  14
ATOM     14  O   UNL     1      55.167   0.295 -12.256  1.00  0.00    -0.504 OA
ATOM     15  H   UNL     1      55.008   0.454 -13.245  1.00  0.00     0.293 HD
ENDBRANCH   6  14
TORSDOF 4
ENDMDL
MODEL 9
REMARK VINA RESULT:    -5.010      9.336     10.563
REMARK INTER + INTRA:          -6.054
REMARK INTER:                  -5.876
REMARK INTRA:                  -0.178
REMARK UNBOUND:                -0.165
REMARK SMILES O=C([O-])C=Cc1ccc(O)c(O)c1
REMARK SMILES IDX 6 1 13 2 7 3 11 4 8 5 9 6 5 7 4 8 2 9 1 10 3 11 12 12 10 14
REMARK H PARENT 12 13 10 15
REMARK Flexibility Score: inf
ROOT
ATOM      1  C   UNL     1      55.570  -1.672  -0.683  1.00  0.00    -0.022 A 
ATOM      2  C   UNL     1      55.923  -2.490  -1.770  1.00  0.00     0.058 A 
ATOM      3  C   UNL     1      55.631  -0.279  -0.824  1.00  0.00     0.012 A 
ATOM      4  C   UNL     1      56.281  -1.920  -3.000  1.00  0.00     0.157 A 
ATOM      5  C   UNL     1      55.986   0.292  -2.050  1.00  0.00     0.051 A 
ATOM      6  C   UNL     1      56.308  -0.527  -3.142  1.00  0.00     0.157 A 
ENDROOT
BRANCH   1   7
ATOM      7  C   UNL     1      55.242  -2.251   0.636  1.00  0.00     0.010 C 
ATOM      8  C   UNL     1      54.005  -2.367   1.147  1.00  0.00     0.025 C 
BRANCH   8   9
ATOM      9  C   UNL     1      52.784  -1.771   0.574  1.00  0.00     0.064 C 
ATOM     10  O   UNL     1      51.923  -2.522   0.047  1.00  0.00    -0.545 OA
ATOM     11  O   UNL     1      52.529  -0.408   0.667  1.00  0.00    -0.545 OA
ENDBRANCH   8   9
ENDBRANCH   1   7
BRANCH   4  12
ATOM     12  O   UNL     1      56.614  -2.731  -4.083  1.00  0.00    -0.504 OA
ATOM     13  H   UNL     1      55.967  -2.885  -4.849  1.00  0.00     0.293 HD
ENDBRANCH   4  12
BRANCH   6  14
ATOM     14  O   UNL     1      56.661   0.037  -4.367  1.00  0.00    -0.504 OA
ATOM     15  H   UNL     1      56.925  -0.538  -5.158  1.00  0.00     0.293 HD
ENDBRANCH   6  14
TORSDOF 4
ENDMDL
