MODEL 1
REMARK VINA RESULT:    -4.953      0.000      0.000
REMARK INTER + INTRA:          -9.166
REMARK INTER:                  -7.849
REMARK INTRA:                  -1.317
REMARK UNBOUND:                -1.317
REMARK SMILES CCCCCCCCCCCC(=O)[O-]
REMARK SMILES IDX 7 1 8 2 9 3 10 4 11 5 12 6 13 7 14 8 6 9 5 10 4 11 3 12 2 13
REMARK SMILES IDX 1 14
REMARK H PARENT
REMARK Flexibility Score: inf
ROOT
ATOM      1  C   UNL     1      19.204  22.012  10.389  1.00  0.00     0.000 C 
ENDROOT
BRANCH   1   2
ATOM      2  C   UNL     1      17.795  22.619  10.540  1.00  0.00     0.000 C 
BRANCH   2   3
ATOM      3  C   UNL     1      17.211  23.164   9.219  1.00  0.00     0.000 C 
BRANCH   3   4
ATOM      4  C   UNL     1      16.988  24.686   9.267  1.00  0.00     0.006 C 
BRANCH   4   5
ATOM      5  C   UNL     1      17.946  25.443   8.338  1.00  0.00     0.053 C 
BRANCH   5   6
ATOM      6  C   UNL     1      18.839  26.369   9.104  1.00  0.00     0.041 C 
ATOM      7  O   UNL     1      19.174  26.094  10.287  1.00  0.00    -0.550 OA
ATOM      8  O   UNL     1      19.330  27.520   8.502  1.00  0.00    -0.550 OA
ENDBRANCH   5   6
ENDBRANCH   4   5
ENDBRANCH   3   4
ENDBRANCH   2   3
ENDBRANCH   1   2
BRANCH   1   9
ATOM      9  C   UNL     1      20.355  23.028  10.479  1.00  0.00     0.000 C 
BRANCH   9  10
ATOM     10  C   UNL     1      21.433  22.797   9.406  1.00  0.00    -0.000 C 
BRANCH  10  11
ATOM     11  C   UNL     1      21.080  23.466   8.068  1.00  0.00    -0.000 C 
BRANCH  11  12
ATOM     12  C   UNL     1      20.749  22.442   6.967  1.00  0.00    -0.000 C 
BRANCH  12  13
ATOM     13  C   UNL     1      19.396  22.719   6.293  1.00  0.00    -0.003 C 
ATOM     14  C   UNL     1      19.213  21.936   4.994  1.00  0.00     0.004 C 
ENDBRANCH  12  13
ENDBRANCH  11  12
ENDBRANCH  10  11
ENDBRANCH   9  10
ENDBRANCH   1   9
TORSDOF 10
ENDMDL
MODEL 2
REMARK VINA RESULT:    -4.950      0.873      3.041
REMARK INTER + INTRA:          -9.161
REMARK INTER:                  -8.022
REMARK INTRA:                  -1.139
REMARK UNBOUND:                -1.317
REMARK SMILES CCCCCCCCCCCC(=O)[O-]
REMARK SMILES IDX 7 1 8 2 9 3 10 4 11 5 12 6 13 7 14 8 6 9 5 10 4 11 3 12 2 13
REMARK SMILES IDX 1 14
REMARK H PARENT
REMARK Flexibility Score: inf
ROOT
ATOM      1  C   UNL     1      19.137  22.894   6.140  1.00  0.00     0.000 C 
ENDROOT
BRANCH   1   2
ATOM      2  C   UNL     1      17.766  22.753   6.829  1.00  0.00     0.000 C 
BRANCH   2   3
ATOM      3  C   UNL     1      17.093  24.103   7.152  1.00  0.00     0.000 C 
BRANCH   3   4
ATOM      4  C   UNL     1      17.261  24.498   8.630  1.00  0.00     0.006 C 
BRANCH   4   5
ATOM      5  C   UNL     1      17.306  26.019   8.823  1.00  0.00     0.053 C 
BRANCH   5   6
ATOM      6  C   UNL     1      18.664  26.479   9.258  1.00  0.00     0.041 C 
ATOM      7  O   UNL     1      19.177  26.030  10.317  1.00  0.00    -0.550 OA
ATOM      8  O   UNL     1      19.377  27.380   8.477  1.00  0.00    -0.550 OA
ENDBRANCH   5   6
ENDBRANCH   4   5
ENDBRANCH   3   4
ENDBRANCH   2   3
ENDBRANCH   1   2
BRANCH   1   9
ATOM      9  C   UNL     1      20.330  22.393   6.971  1.00  0.00     0.000 C 
BRANCH   9  10
ATOM     10  C   UNL     1      20.841  23.446   7.969  1.00  0.00    -0.000 C 
BRANCH  10  11
ATOM     11  C   UNL     1      21.328  22.818   9.285  1.00  0.00    -0.000 C 
BRANCH  11  12
ATOM     12  C   UNL     1      20.288  22.935  10.414  1.00  0.00    -0.000 C 
BRANCH  12  13
ATOM     13  C   UNL     1      19.167  21.892  10.292  1.00  0.00    -0.003 C 
ATOM     14  C   UNL     1      18.263  21.852  11.523  1.00  0.00     0.004 C 
ENDBRANCH  12  13
ENDBRANCH  11  12
ENDBRANCH  10  11
ENDBRANCH   9  10
ENDBRANCH   1   9
TORSDOF 10
ENDMDL
MODEL 3
REMARK VINA RESULT:    -4.865      1.327      2.364
REMARK INTER + INTRA:          -9.026
REMARK INTER:                  -7.852
REMARK INTRA:                  -1.174
REMARK UNBOUND:                -1.317
REMARK SMILES CCCCCCCCCCCC(=O)[O-]
REMARK SMILES IDX 7 1 8 2 9 3 10 4 11 5 12 6 13 7 14 8 6 9 5 10 4 11 3 12 2 13
REMARK SMILES IDX 1 14
REMARK H PARENT
REMARK Flexibility Score: inf
ROOT
ATOM      1  C   UNL     1      21.798  22.649   9.247  1.00  0.00     0.000 C 
ENDROOT
BRANCH   1   2
ATOM      2  C   UNL     1      20.888  23.236  10.343  1.00  0.00     0.000 C 
BRANCH   2   3
ATOM      3  C   UNL     1      19.416  22.785  10.233  1.00  0.00     0.000 C 
BRANCH   3   4
ATOM      4  C   UNL     1      18.461  23.970  10.001  1.00  0.00     0.006 C 
BRANCH   4   5
ATOM      5  C   UNL     1      19.136  25.117   9.237  1.00  0.00     0.053 C 
BRANCH   5   6
ATOM      6  C   UNL     1      18.261  26.331   9.181  1.00  0.00     0.041 C 
ATOM      7  O   UNL     1      17.007  26.209   9.161  1.00  0.00    -0.550 OA
ATOM      8  O   UNL     1      18.828  27.599   9.185  1.00  0.00    -0.550 OA
ENDBRANCH   5   6
ENDBRANCH   4   5
ENDBRANCH   3   4
ENDBRANCH   2   3
ENDBRANCH   1   2
BRANCH   1   9
ATOM      9  C   UNL     1      21.064  21.835   8.168  1.00  0.00     0.000 C 
BRANCH   9  10
ATOM     10  C   UNL     1      20.853  22.631   6.868  1.00  0.00    -0.000 C 
BRANCH  10  11
ATOM     11  C   UNL     1      20.294  21.758   5.732  1.00  0.00    -0.000 C 
BRANCH  11  12
ATOM     12  C   UNL     1      18.947  22.277   5.199  1.00  0.00    -0.000 C 
BRANCH  12  13
ATOM     13  C   UNL     1      17.851  22.283   6.276  1.00  0.00    -0.003 C 
ATOM     14  C   UNL     1      17.211  23.658   6.458  1.00  0.00     0.004 C 
ENDBRANCH  12  13
ENDBRANCH  11  12
ENDBRANCH  10  11
ENDBRANCH   9  10
ENDBRANCH   1   9
TORSDOF 10
ENDMDL
MODEL 4
REMARK VINA RESULT:    -4.817      1.849      4.735
REMARK INTER + INTRA:          -8.950
REMARK INTER:                  -7.657
REMARK INTRA:                  -1.293
REMARK UNBOUND:                -1.317
REMARK SMILES CCCCCCCCCCCC(=O)[O-]
REMARK SMILES IDX 7 1 8 2 9 3 10 4 11 5 12 6 13 7 14 8 6 9 5 10 4 11 3 12 2 13
REMARK SMILES IDX 1 14
REMARK H PARENT
REMARK Flexibility Score: inf
ROOT
ATOM      1  C   UNL     1      18.459  22.557   5.584  1.00  0.00     0.000 C 
ENDROOT
BRANCH   1   2
ATOM      2  C   UNL     1      19.423  21.904   6.595  1.00  0.00     0.000 C 
BRANCH   2   3
ATOM      3  C   UNL     1      20.743  22.681   6.784  1.00  0.00     0.000 C 
BRANCH   3   4
ATOM      4  C   UNL     1      21.423  22.352   8.125  1.00  0.00     0.006 C 
BRANCH   4   5
ATOM      5  C   UNL     1      20.456  21.705   9.124  1.00  0.00     0.053 C 
BRANCH   5   6
ATOM      6  C   UNL     1      20.101  22.644  10.235  1.00  0.00     0.041 C 
ATOM      7  O   UNL     1      19.001  22.528  10.837  1.00  0.00    -0.550 OA
ATOM      8  O   UNL     1      20.999  23.628  10.629  1.00  0.00    -0.550 OA
ENDBRANCH   5   6
ENDBRANCH   4   5
ENDBRANCH   3   4
ENDBRANCH   2   3
ENDBRANCH   1   2
BRANCH   1   9
ATOM      9  C   UNL     1      17.479  23.573   6.194  1.00  0.00     0.000 C 
BRANCH   9  10
ATOM     10  C   UNL     1      17.235  23.334   7.694  1.00  0.00    -0.000 C 
BRANCH  10  11
ATOM     11  C   UNL     1      17.299  24.634   8.512  1.00  0.00    -0.000 C 
BRANCH  11  12
ATOM     12  C   UNL     1      18.654  25.352   8.370  1.00  0.00    -0.000 C 
BRANCH  12  13
ATOM     13  C   UNL     1      18.736  26.627   9.224  1.00  0.00    -0.003 C 
ATOM     14  C   UNL     1      17.612  27.616   8.917  1.00  0.00     0.004 C 
ENDBRANCH  12  13
ENDBRANCH  11  12
ENDBRANCH  10  11
ENDBRANCH   9  10
ENDBRANCH   1   9
TORSDOF 10
ENDMDL
MODEL 5
REMARK VINA RESULT:    -4.789      2.177      4.551
REMARK INTER + INTRA:          -8.905
REMARK INTER:                  -7.461
REMARK INTRA:                  -1.444
REMARK UNBOUND:                -1.317
REMARK SMILES CCCCCCCCCCCC(=O)[O-]
REMARK SMILES IDX 7 1 8 2 9 3 10 4 11 5 12 6 13 7 14 8 6 9 5 10 4 11 3 12 2 13
REMARK SMILES IDX 1 14
REMARK H PARENT
REMARK Flexibility Score: inf
ROOT
ATOM      1  C   UNL     1      21.339  22.337   6.941  1.00  0.00     0.000 C 
ENDROOT
BRANCH   1   2
ATOM      2  C   UNL     1      21.044  23.412   8.006  1.00  0.00     0.000 C 
BRANCH   2   3
ATOM      3  C   UNL     1      21.291  22.935   9.453  1.00  0.00     0.000 C 
BRANCH   3   4
ATOM      4  C   UNL     1      19.982  22.796  10.250  1.00  0.00     0.006 C 
BRANCH   4   5
ATOM      5  C   UNL     1      19.151  21.590   9.796  1.00  0.00     0.053 C 
BRANCH   5   6
ATOM      6  C   UNL     1      17.875  21.476  10.572  1.00  0.00     0.041 C 
ATOM      7  O   UNL     1      17.189  20.422  10.514  1.00  0.00    -0.550 OA
ATOM      8  O   UNL     1      17.459  22.522  11.386  1.00  0.00    -0.550 OA
ENDBRANCH   5   6
ENDBRANCH   4   5
ENDBRANCH   3   4
ENDBRANCH   2   3
ENDBRANCH   1   2
BRANCH   1   9
ATOM      9  C   UNL     1      20.096  21.782   6.225  1.00  0.00     0.000 C 
BRANCH   9  10
ATOM     10  C   UNL     1      19.059  22.872   5.908  1.00  0.00    -0.000 C 
BRANCH  10  11
ATOM     11  C   UNL     1      17.735  22.657   6.658  1.00  0.00    -0.000 C 
BRANCH  11  12
ATOM     12  C   UNL     1      16.967  23.972   6.888  1.00  0.00    -0.000 C 
BRANCH  12  13
ATOM     13  C   UNL     1      17.103  24.488   8.329  1.00  0.00    -0.003 C 
ATOM     14  C   UNL     1      18.153  25.588   8.465  1.00  0.00     0.004 C 
ENDBRANCH  12  13
ENDBRANCH  11  12
ENDBRANCH  10  11
ENDBRANCH   9  10
ENDBRANCH   1   9
TORSDOF 10
ENDMDL
MODEL 6
REMARK VINA RESULT:    -4.747      2.495      4.757
REMARK INTER + INTRA:          -8.839
REMARK INTER:                  -7.357
REMARK INTRA:                  -1.482
REMARK UNBOUND:                -1.317
REMARK SMILES CCCCCCCCCCCC(=O)[O-]
REMARK SMILES IDX 7 1 8 2 9 3 10 4 11 5 12 6 13 7 14 8 6 9 5 10 4 11 3 12 2 13
REMARK SMILES IDX 1 14
REMARK H PARENT
REMARK Flexibility Score: inf
ROOT
ATOM      1  C   UNL     1      17.143  24.243   6.877  1.00  0.00     0.000 C 
ENDROOT
BRANCH   1   2
ATOM      2  C   UNL     1      17.714  22.812   6.857  1.00  0.00     0.000 C 
BRANCH   2   3
ATOM      3  C   UNL     1      18.945  22.649   5.940  1.00  0.00     0.000 C 
BRANCH   3   4
ATOM      4  C   UNL     1      20.268  22.737   6.722  1.00  0.00     0.006 C 
BRANCH   4   5
ATOM      5  C   UNL     1      20.416  21.601   7.743  1.00  0.00     0.053 C 
BRANCH   5   6
ATOM      6  C   UNL     1      21.754  21.634   8.414  1.00  0.00     0.041 C 
ATOM      7  O   UNL     1      22.658  20.828   8.067  1.00  0.00    -0.550 OA
ATOM      8  O   UNL     1      22.016  22.577   9.400  1.00  0.00    -0.550 OA
ENDBRANCH   5   6
ENDBRANCH   4   5
ENDBRANCH   3   4
ENDBRANCH   2   3
ENDBRANCH   1   2
BRANCH   1   9
ATOM      9  C   UNL     1      17.242  24.957   8.236  1.00  0.00     0.000 C 
BRANCH   9  10
ATOM     10  C   UNL     1      18.687  25.337   8.602  1.00  0.00    -0.000 C 
BRANCH  10  11
ATOM     11  C   UNL     1      19.184  24.606   9.860  1.00  0.00    -0.000 C 
BRANCH  11  12
ATOM     12  C   UNL     1      18.137  23.627  10.424  1.00  0.00    -0.000 C 
BRANCH  12  13
ATOM     13  C   UNL     1      18.764  22.308  10.901  1.00  0.00    -0.003 C 
ATOM     14  C   UNL     1      17.895  21.093  10.579  1.00  0.00     0.004 C 
ENDBRANCH  12  13
ENDBRANCH  11  12
ENDBRANCH  10  11
ENDBRANCH   9  10
ENDBRANCH   1   9
TORSDOF 10
ENDMDL
MODEL 7
REMARK VINA RESULT:    -4.673      2.844      4.979
REMARK INTER + INTRA:          -8.721
REMARK INTER:                  -7.205
REMARK INTRA:                  -1.516
REMARK UNBOUND:                -1.317
REMARK SMILES CCCCCCCCCCCC(=O)[O-]
REMARK SMILES IDX 7 1 8 2 9 3 10 4 11 5 12 6 13 7 14 8 6 9 5 10 4 11 3 12 2 13
REMARK SMILES IDX 1 14
REMARK H PARENT
REMARK Flexibility Score: inf
ROOT
ATOM      1  C   UNL     1      20.320  23.127  10.517  1.00  0.00     0.000 C 
ENDROOT
BRANCH   1   2
ATOM      2  C   UNL     1      21.286  22.770   9.371  1.00  0.00     0.000 C 
BRANCH   2   3
ATOM      3  C   UNL     1      21.087  23.626   8.102  1.00  0.00     0.000 C 
BRANCH   3   4
ATOM      4  C   UNL     1      20.171  22.937   7.075  1.00  0.00     0.006 C 
BRANCH   4   5
ATOM      5  C   UNL     1      20.891  21.814   6.316  1.00  0.00     0.053 C 
BRANCH   5   6
ATOM      6  C   UNL     1      20.323  20.470   6.653  1.00  0.00     0.041 C 
ATOM      7  O   UNL     1      20.797  19.430   6.122  1.00  0.00    -0.550 OA
ATOM      8  O   UNL     1      19.293  20.360   7.578  1.00  0.00    -0.550 OA
ENDBRANCH   5   6
ENDBRANCH   4   5
ENDBRANCH   3   4
ENDBRANCH   2   3
ENDBRANCH   1   2
BRANCH   1   9
ATOM      9  C   UNL     1      19.136  22.160  10.686  1.00  0.00     0.000 C 
BRANCH   9  10
ATOM     10  C   UNL     1      17.835  22.704  10.070  1.00  0.00    -0.000 C 
BRANCH  10  11
ATOM     11  C   UNL     1      17.792  24.240  10.055  1.00  0.00    -0.000 C 
BRANCH  11  12
ATOM     12  C   UNL     1      17.357  24.804   8.690  1.00  0.00    -0.000 C 
BRANCH  12  13
ATOM     13  C   UNL     1      18.044  26.137   8.357  1.00  0.00    -0.003 C 
ATOM     14  C   UNL     1      18.961  26.624   9.478  1.00  0.00     0.004 C 
ENDBRANCH  12  13
ENDBRANCH  11  12
ENDBRANCH  10  11
ENDBRANCH   9  10
ENDBRANCH   1   9
TORSDOF 10
ENDMDL
MODEL 8
REMARK VINA RESULT:    -4.540      3.011      4.940
REMARK INTER + INTRA:          -8.511
REMARK INTER:                  -7.120
REMARK INTRA:                  -1.391
REMARK UNBOUND:                -1.317
REMARK SMILES CCCCCCCCCCCC(=O)[O-]
REMARK SMILES IDX 7 1 8 2 9 3 10 4 11 5 12 6 13 7 14 8 6 9 5 10 4 11 3 12 2 13
REMARK SMILES IDX 1 14
REMARK H PARENT
REMARK Flexibility Score: inf
ROOT
ATOM      1  C   UNL     1      16.928  24.455   8.015  1.00  0.00     0.000 C 
ENDROOT
BRANCH   1   2
ATOM      2  C   UNL     1      17.239  23.869   6.624  1.00  0.00     0.000 C 
BRANCH   2   3
ATOM      3  C   UNL     1      18.071  22.570   6.670  1.00  0.00     0.000 C 
BRANCH   3   4
ATOM      4  C   UNL     1      19.561  22.824   6.381  1.00  0.00     0.006 C 
BRANCH   4   5
ATOM      5  C   UNL     1      20.152  21.786   5.419  1.00  0.00     0.053 C 
BRANCH   5   6
ATOM      6  C   UNL     1      21.407  21.179   5.965  1.00  0.00     0.041 C 
ATOM      7  O   UNL     1      21.717  21.345   7.175  1.00  0.00    -0.550 OA
ATOM      8  O   UNL     1      22.219  20.403   5.148  1.00  0.00    -0.550 OA
ENDBRANCH   5   6
ENDBRANCH   4   5
ENDBRANCH   3   4
ENDBRANCH   2   3
ENDBRANCH   1   2
BRANCH   1   9
ATOM      9  C   UNL     1      17.662  25.766   8.340  1.00  0.00     0.000 C 
BRANCH   9  10
ATOM     10  C   UNL     1      19.098  25.534   8.840  1.00  0.00    -0.000 C 
BRANCH  10  11
ATOM     11  C   UNL     1      19.148  24.608  10.066  1.00  0.00    -0.000 C 
BRANCH  11  12
ATOM     12  C   UNL     1      20.198  23.491   9.918  1.00  0.00    -0.000 C 
BRANCH  12  13
ATOM     13  C   UNL     1      19.595  22.090  10.105  1.00  0.00    -0.003 C 
ATOM     14  C   UNL     1      18.295  22.109  10.907  1.00  0.00     0.004 C 
ENDBRANCH  12  13
ENDBRANCH  11  12
ENDBRANCH  10  11
ENDBRANCH   9  10
ENDBRANCH   1   9
TORSDOF 10
ENDMDL
MODEL 9
REMARK VINA RESULT:    -4.528      1.361      2.413
REMARK INTER + INTRA:          -8.493
REMARK INTER:                  -6.906
REMARK INTRA:                  -1.587
REMARK UNBOUND:                -1.317
REMARK SMILES CCCCCCCCCCCC(=O)[O-]
REMARK SMILES IDX 7 1 8 2 9 3 10 4 11 5 12 6 13 7 14 8 6 9 5 10 4 11 3 12 2 13
REMARK SMILES IDX 1 14
REMARK H PARENT
REMARK Flexibility Score: inf
ROOT
ATOM      1  C   UNL     1      18.443  21.890  10.359  1.00  0.00     0.000 C 
ENDROOT
BRANCH   1   2
ATOM      2  C   UNL     1      19.816  22.590  10.334  1.00  0.00     0.000 C 
BRANCH   2   3
ATOM      3  C   UNL     1      19.732  24.112  10.090  1.00  0.00     0.000 C 
BRANCH   3   4
ATOM      4  C   UNL     1      18.300  24.569   9.759  1.00  0.00     0.006 C 
BRANCH   4   5
ATOM      5  C   UNL     1      18.260  25.543   8.575  1.00  0.00     0.053 C 
BRANCH   5   6
ATOM      6  C   UNL     1      18.184  26.967   9.035  1.00  0.00     0.041 C 
ATOM      7  O   UNL     1      19.233  27.586   9.356  1.00  0.00    -0.550 OA
ATOM      8  O   UNL     1      16.960  27.620   9.080  1.00  0.00    -0.550 OA
ENDBRANCH   5   6
ENDBRANCH   4   5
ENDBRANCH   3   4
ENDBRANCH   2   3
ENDBRANCH   1   2
BRANCH   1   9
ATOM      9  C   UNL     1      18.233  20.847   9.250  1.00  0.00     0.000 C 
BRANCH   9  10
ATOM     10  C   UNL     1      17.464  21.412   8.043  1.00  0.00    -0.000 C 
BRANCH  10  11
ATOM     11  C   UNL     1      18.253  21.277   6.731  1.00  0.00    -0.000 C 
BRANCH  11  12
ATOM     12  C   UNL     1      18.843  22.619   6.259  1.00  0.00    -0.000 C 
BRANCH  12  13
ATOM     13  C   UNL     1      20.306  22.802   6.691  1.00  0.00    -0.003 C 
ATOM     14  C   UNL     1      21.072  21.482   6.756  1.00  0.00     0.004 C 
ENDBRANCH  12  13
ENDBRANCH  11  12
ENDBRANCH  10  11
ENDBRANCH   9  10
ENDBRANCH   1   9
TORSDOF 10
ENDMDL
