MODEL 1
REMARK VINA RESULT:    -6.680      0.000      0.000
REMARK INTER + INTRA:          -8.284
REMARK INTER:                  -8.046
REMARK INTRA:                  -0.237
REMARK UNBOUND:                -0.237
REMARK SMILES O=c1c(O)c(-c2ccc(O)c(O)c2)oc2cc(O)cc(O)c12
REMARK SMILES IDX 5 1 3 2 2 3 1 4 22 5 20 6 19 7 17 8 16 9 15 10 14 11 6 12
REMARK SMILES IDX 7 13 8 14 9 15 13 16 11 17 10 18 12 20 4 22 21 24 18 26
REMARK H PARENT 10 19 12 21 4 23 21 25 18 27
REMARK Flexibility Score: inf
ROOT
ATOM      1  C   UNL     1     -28.819  69.603 158.136  1.00  0.00     0.180 A 
ATOM      2  C   UNL     1     -28.704  70.934 157.696  1.00  0.00     0.208 A 
ATOM      3  C   UNL     1     -28.118  71.883 158.548  1.00  0.00     0.238 A 
ATOM      4  O   UNL     1     -27.968  73.061 158.129  1.00  0.00    -0.285 OA
ATOM      5  C   UNL     1     -27.670  71.495 159.834  1.00  0.00     0.111 A 
ATOM      6  C   UNL     1     -27.098  72.383 160.795  1.00  0.00     0.134 A 
ATOM      7  C   UNL     1     -26.569  71.866 161.984  1.00  0.00     0.093 A 
ATOM      8  C   UNL     1     -26.652  70.505 162.277  1.00  0.00     0.123 A 
ATOM      9  C   UNL     1     -27.263  69.637 161.371  1.00  0.00     0.094 A 
ATOM     10  C   UNL     1     -27.766  70.117 160.160  1.00  0.00     0.146 A 
ATOM     11  O   UNL     1     -28.330  69.257 159.321  1.00  0.00    -0.452 OA
ENDROOT
BRANCH   1  12
ATOM     12  C   UNL     1     -29.448  68.551 157.305  1.00  0.00     0.025 A 
ATOM     13  C   UNL     1     -30.837  68.568 157.104  1.00  0.00     0.016 A 
ATOM     14  C   UNL     1     -31.448  67.597 156.307  1.00  0.00     0.051 A 
ATOM     15  C   UNL     1     -30.681  66.606 155.686  1.00  0.00     0.157 A 
ATOM     16  C   UNL     1     -28.676  67.566 156.663  1.00  0.00     0.062 A 
ATOM     17  C   UNL     1     -29.288  66.591 155.861  1.00  0.00     0.158 A 
BRANCH  15  18
ATOM     18  O   UNL     1     -31.320  65.649 154.898  1.00  0.00    -0.504 OA
ATOM     19  H   UNL     1     -32.330  65.584 154.843  1.00  0.00     0.293 HD
ENDBRANCH  15  18
BRANCH  17  20
ATOM     20  O   UNL     1     -28.515  65.615 155.234  1.00  0.00    -0.504 OA
ATOM     21  H   UNL     1     -28.933  64.899 154.652  1.00  0.00     0.293 HD
ENDBRANCH  17  20
ENDBRANCH   1  12
BRANCH   2  22
ATOM     22  O   UNL     1     -29.133  71.291 156.415  1.00  0.00    -0.502 OA
ATOM     23  H   UNL     1     -30.112  71.319 156.158  1.00  0.00     0.293 HD
ENDBRANCH   2  22
BRANCH   6  24
ATOM     24  O   UNL     1     -27.049  73.772 160.642  1.00  0.00    -0.507 OA
ATOM     25  H   UNL     1     -26.852  74.425 161.385  1.00  0.00     0.293 HD
ENDBRANCH   6  24
BRANCH   8  26
ATOM     26  O   UNL     1     -26.129  70.028 163.477  1.00  0.00    -0.508 OA
ATOM     27  H   UNL     1     -26.040  70.625 164.291  1.00  0.00     0.293 HD
ENDBRANCH   8  26
TORSDOF 6
ENDMDL
MODEL 2
REMARK VINA RESULT:    -6.580     13.225     15.519
REMARK INTER + INTRA:          -8.163
REMARK INTER:                  -7.923
REMARK INTRA:                  -0.240
REMARK UNBOUND:                -0.237
REMARK SMILES O=c1c(O)c(-c2ccc(O)c(O)c2)oc2cc(O)cc(O)c12
REMARK SMILES IDX 5 1 3 2 2 3 1 4 22 5 20 6 19 7 17 8 16 9 15 10 14 11 6 12
REMARK SMILES IDX 7 13 8 14 9 15 13 16 11 17 10 18 12 20 4 22 21 24 18 26
REMARK H PARENT 10 19 12 21 4 23 21 25 18 27
REMARK Flexibility Score: inf
ROOT
ATOM      1  C   UNL     1     -25.940  57.172 152.094  1.00  0.00     0.180 A 
ATOM      2  C   UNL     1     -26.811  56.077 152.236  1.00  0.00     0.208 A 
ATOM      3  C   UNL     1     -28.137  56.201 151.792  1.00  0.00     0.238 A 
ATOM      4  O   UNL     1     -28.898  55.201 151.872  1.00  0.00    -0.285 OA
ATOM      5  C   UNL     1     -28.580  57.422 151.228  1.00  0.00     0.111 A 
ATOM      6  C   UNL     1     -29.913  57.672 150.782  1.00  0.00     0.134 A 
ATOM      7  C   UNL     1     -30.207  58.870 150.120  1.00  0.00     0.093 A 
ATOM      8  C   UNL     1     -29.235  59.854 149.947  1.00  0.00     0.123 A 
ATOM      9  C   UNL     1     -27.943  59.645 150.432  1.00  0.00     0.094 A 
ATOM     10  C   UNL     1     -27.610  58.444 151.064  1.00  0.00     0.146 A 
ATOM     11  O   UNL     1     -26.368  58.281 151.501  1.00  0.00    -0.452 OA
ENDROOT
BRANCH   1  12
ATOM     12  C   UNL     1     -24.535  57.126 152.560  1.00  0.00     0.025 A 
ATOM     13  C   UNL     1     -24.178  57.793 153.743  1.00  0.00     0.016 A 
ATOM     14  C   UNL     1     -22.864  57.745 154.213  1.00  0.00     0.051 A 
ATOM     15  C   UNL     1     -21.890  57.019 153.519  1.00  0.00     0.157 A 
ATOM     16  C   UNL     1     -23.560  56.379 151.875  1.00  0.00     0.062 A 
ATOM     17  C   UNL     1     -22.240  56.329 152.346  1.00  0.00     0.158 A 
BRANCH  15  18
ATOM     18  O   UNL     1     -20.586  56.993 154.010  1.00  0.00    -0.504 OA
ATOM     19  H   UNL     1     -19.781  57.124 153.409  1.00  0.00     0.293 HD
ENDBRANCH  15  18
BRANCH  17  20
ATOM     20  O   UNL     1     -21.278  55.592 151.657  1.00  0.00    -0.504 OA
ATOM     21  H   UNL     1     -20.958  55.866 150.735  1.00  0.00     0.293 HD
ENDBRANCH  17  20
ENDBRANCH   1  12
BRANCH   2  22
ATOM     22  O   UNL     1     -26.347  54.875 152.776  1.00  0.00    -0.502 OA
ATOM     23  H   UNL     1     -25.363  54.643 152.821  1.00  0.00     0.293 HD
ENDBRANCH   2  22
BRANCH   6  24
ATOM     24  O   UNL     1     -30.983  56.794 150.987  1.00  0.00    -0.507 OA
ATOM     25  H   UNL     1     -31.007  56.074 151.693  1.00  0.00     0.293 HD
ENDBRANCH   6  24
BRANCH   8  26
ATOM     26  O   UNL     1     -29.566  61.041 149.297  1.00  0.00    -0.508 OA
ATOM     27  H   UNL     1     -29.392  61.169 148.306  1.00  0.00     0.293 HD
ENDBRANCH   8  26
TORSDOF 6
ENDMDL
MODEL 3
REMARK VINA RESULT:    -6.466      1.136      1.723
REMARK INTER + INTRA:          -8.026
REMARK INTER:                  -7.733
REMARK INTRA:                  -0.293
REMARK UNBOUND:                -0.237
REMARK SMILES O=c1c(O)c(-c2ccc(O)c(O)c2)oc2cc(O)cc(O)c12
REMARK SMILES IDX 5 1 3 2 2 3 1 4 22 5 20 6 19 7 17 8 16 9 15 10 14 11 6 12
REMARK SMILES IDX 7 13 8 14 9 15 13 16 11 17 10 18 12 20 4 22 21 24 18 26
REMARK H PARENT 10 19 12 21 4 23 21 25 18 27
REMARK Flexibility Score: inf
ROOT
ATOM      1  C   UNL     1     -28.055  69.841 158.551  1.00  0.00     0.180 A 
ATOM      2  C   UNL     1     -28.140  71.127 157.989  1.00  0.00     0.208 A 
ATOM      3  C   UNL     1     -27.627  72.219 158.707  1.00  0.00     0.238 A 
ATOM      4  O   UNL     1     -27.657  73.360 158.177  1.00  0.00    -0.285 OA
ATOM      5  C   UNL     1     -27.051  72.014 159.985  1.00  0.00     0.111 A 
ATOM      6  C   UNL     1     -26.537  73.053 160.818  1.00  0.00     0.134 A 
ATOM      7  C   UNL     1     -25.871  72.722 162.004  1.00  0.00     0.093 A 
ATOM      8  C   UNL     1     -25.759  71.395 162.421  1.00  0.00     0.123 A 
ATOM      9  C   UNL     1     -26.310  70.376 161.643  1.00  0.00     0.094 A 
ATOM     10  C   UNL     1     -26.948  70.672 160.436  1.00  0.00     0.146 A 
ATOM     11  O   UNL     1     -27.450  69.673 159.721  1.00  0.00    -0.452 OA
ENDROOT
BRANCH   1  12
ATOM     12  C   UNL     1     -28.595  68.645 157.865  1.00  0.00     0.025 A 
ATOM     13  C   UNL     1     -27.711  67.734 157.266  1.00  0.00     0.016 A 
ATOM     14  C   UNL     1     -28.197  66.588 156.632  1.00  0.00     0.051 A 
ATOM     15  C   UNL     1     -29.571  66.326 156.601  1.00  0.00     0.157 A 
ATOM     16  C   UNL     1     -29.974  68.369 157.852  1.00  0.00     0.062 A 
ATOM     17  C   UNL     1     -30.464  67.218 157.217  1.00  0.00     0.158 A 
BRANCH  15  18
ATOM     18  O   UNL     1     -30.027  65.176 155.959  1.00  0.00    -0.504 OA
ATOM     19  H   UNL     1     -30.900  65.157 155.444  1.00  0.00     0.293 HD
ENDBRANCH  15  18
BRANCH  17  20
ATOM     20  O   UNL     1     -31.834  66.957 157.202  1.00  0.00    -0.504 OA
ATOM     21  H   UNL     1     -32.465  67.391 157.864  1.00  0.00     0.293 HD
ENDBRANCH  17  20
ENDBRANCH   1  12
BRANCH   2  22
ATOM     22  O   UNL     1     -28.693  71.304 156.718  1.00  0.00    -0.502 OA
ATOM     23  H   UNL     1     -28.369  70.791 155.907  1.00  0.00     0.293 HD
ENDBRANCH   2  22
BRANCH   6  24
ATOM     24  O   UNL     1     -26.677  74.417 160.541  1.00  0.00    -0.507 OA
ATOM     25  H   UNL     1     -27.325  74.803 159.872  1.00  0.00     0.293 HD
ENDBRANCH   6  24
BRANCH   8  26
ATOM     26  O   UNL     1     -25.103  71.103 163.614  1.00  0.00    -0.508 OA
ATOM     27  H   UNL     1     -25.492  70.452 164.287  1.00  0.00     0.293 HD
ENDBRANCH   8  26
TORSDOF 6
ENDMDL
MODEL 4
REMARK VINA RESULT:    -6.424     13.314     15.254
REMARK INTER + INTRA:          -7.976
REMARK INTER:                  -7.641
REMARK INTRA:                  -0.335
REMARK UNBOUND:                -0.237
REMARK SMILES O=c1c(O)c(-c2ccc(O)c(O)c2)oc2cc(O)cc(O)c12
REMARK SMILES IDX 5 1 3 2 2 3 1 4 22 5 20 6 19 7 17 8 16 9 15 10 14 11 6 12
REMARK SMILES IDX 7 13 8 14 9 15 13 16 11 17 10 18 12 20 4 22 21 24 18 26
REMARK H PARENT 10 19 12 21 4 23 21 25 18 27
REMARK Flexibility Score: inf
ROOT
ATOM      1  C   UNL     1     -26.308  57.757 151.862  1.00  0.00     0.180 A 
ATOM      2  C   UNL     1     -26.654  58.894 151.111  1.00  0.00     0.208 A 
ATOM      3  C   UNL     1     -27.954  58.996 150.591  1.00  0.00     0.238 A 
ATOM      4  O   UNL     1     -28.275  60.040 149.965  1.00  0.00    -0.285 OA
ATOM      5  C   UNL     1     -28.886  57.954 150.815  1.00  0.00     0.111 A 
ATOM      6  C   UNL     1     -30.218  57.934 150.301  1.00  0.00     0.134 A 
ATOM      7  C   UNL     1     -31.095  56.915 150.693  1.00  0.00     0.093 A 
ATOM      8  C   UNL     1     -30.670  55.881 151.527  1.00  0.00     0.123 A 
ATOM      9  C   UNL     1     -29.352  55.859 151.987  1.00  0.00     0.094 A 
ATOM     10  C   UNL     1     -28.465  56.881 151.642  1.00  0.00     0.146 A 
ATOM     11  O   UNL     1     -27.224  56.828 152.109  1.00  0.00    -0.452 OA
ENDROOT
BRANCH   1  12
ATOM     12  C   UNL     1     -24.950  57.567 152.421  1.00  0.00     0.025 A 
ATOM     13  C   UNL     1     -24.680  57.979 153.736  1.00  0.00     0.016 A 
ATOM     14  C   UNL     1     -23.412  57.790 154.291  1.00  0.00     0.051 A 
ATOM     15  C   UNL     1     -22.401  57.172 153.549  1.00  0.00     0.157 A 
ATOM     16  C   UNL     1     -23.937  56.927 151.684  1.00  0.00     0.062 A 
ATOM     17  C   UNL     1     -22.664  56.735 152.240  1.00  0.00     0.158 A 
BRANCH  15  18
ATOM     18  O   UNL     1     -21.144  56.999 154.128  1.00  0.00    -0.504 OA
ATOM     19  H   UNL     1     -20.689  56.095 154.168  1.00  0.00     0.293 HD
ENDBRANCH  15  18
BRANCH  17  20
ATOM     20  O   UNL     1     -21.664  56.106 151.499  1.00  0.00    -0.504 OA
ATOM     21  H   UNL     1     -20.986  56.636 150.965  1.00  0.00     0.293 HD
ENDBRANCH  17  20
ENDBRANCH   1  12
BRANCH   2  22
ATOM     22  O   UNL     1     -25.725  59.921 150.921  1.00  0.00    -0.502 OA
ATOM     23  H   UNL     1     -25.819  60.828 151.361  1.00  0.00     0.293 HD
ENDBRANCH   2  22
BRANCH   6  24
ATOM     24  O   UNL     1     -30.716  58.868 149.387  1.00  0.00    -0.507 OA
ATOM     25  H   UNL     1     -31.562  58.752 148.850  1.00  0.00     0.293 HD
ENDBRANCH   6  24
BRANCH   8  26
ATOM     26  O   UNL     1     -31.565  54.875 151.885  1.00  0.00    -0.508 OA
ATOM     27  H   UNL     1     -32.340  54.617 151.284  1.00  0.00     0.293 HD
ENDBRANCH   8  26
TORSDOF 6
ENDMDL
MODEL 5
REMARK VINA RESULT:    -6.324      2.067      6.911
REMARK INTER + INTRA:          -7.855
REMARK INTER:                  -7.532
REMARK INTRA:                  -0.323
REMARK UNBOUND:                -0.237
REMARK SMILES O=c1c(O)c(-c2ccc(O)c(O)c2)oc2cc(O)cc(O)c12
REMARK SMILES IDX 5 1 3 2 2 3 1 4 22 5 20 6 19 7 17 8 16 9 15 10 14 11 6 12
REMARK SMILES IDX 7 13 8 14 9 15 13 16 11 17 10 18 12 20 4 22 21 24 18 26
REMARK H PARENT 10 19 12 21 4 23 21 25 18 27
REMARK Flexibility Score: inf
ROOT
ATOM      1  C   UNL     1     -27.789  70.154 158.897  1.00  0.00     0.180 A 
ATOM      2  C   UNL     1     -29.123  70.180 159.341  1.00  0.00     0.208 A 
ATOM      3  C   UNL     1     -30.028  69.236 158.833  1.00  0.00     0.238 A 
ATOM      4  O   UNL     1     -31.207  69.230 159.274  1.00  0.00    -0.285 OA
ATOM      5  C   UNL     1     -29.594  68.288 157.875  1.00  0.00     0.111 A 
ATOM      6  C   UNL     1     -30.436  67.311 157.262  1.00  0.00     0.134 A 
ATOM      7  C   UNL     1     -29.872  66.340 156.426  1.00  0.00     0.093 A 
ATOM      8  C   UNL     1     -28.509  66.349 156.128  1.00  0.00     0.123 A 
ATOM      9  C   UNL     1     -27.687  67.336 156.675  1.00  0.00     0.094 A 
ATOM     10  C   UNL     1     -28.214  68.297 157.541  1.00  0.00     0.146 A 
ATOM     11  O   UNL     1     -27.397  69.211 158.047  1.00  0.00    -0.452 OA
ENDROOT
BRANCH   1  12
ATOM     12  C   UNL     1     -26.782  71.132 159.369  1.00  0.00     0.025 A 
ATOM     13  C   UNL     1     -26.037  70.853 160.526  1.00  0.00     0.016 A 
ATOM     14  C   UNL     1     -25.068  71.752 160.977  1.00  0.00     0.051 A 
ATOM     15  C   UNL     1     -24.816  72.933 160.272  1.00  0.00     0.157 A 
ATOM     16  C   UNL     1     -26.513  72.310 158.650  1.00  0.00     0.062 A 
ATOM     17  C   UNL     1     -25.538  73.213 159.100  1.00  0.00     0.158 A 
BRANCH  15  18
ATOM     18  O   UNL     1     -23.844  73.812 160.748  1.00  0.00    -0.504 OA
ATOM     19  H   UNL     1     -24.013  74.427 161.536  1.00  0.00     0.293 HD
ENDBRANCH  15  18
BRANCH  17  20
ATOM     20  O   UNL     1     -25.283  74.382 158.385  1.00  0.00    -0.504 OA
ATOM     21  H   UNL     1     -24.370  74.576 157.992  1.00  0.00     0.293 HD
ENDBRANCH  17  20
ENDBRANCH   1  12
BRANCH   2  22
ATOM     22  O   UNL     1     -29.524  71.111 160.303  1.00  0.00    -0.502 OA
ATOM     23  H   UNL     1     -28.944  71.361 161.094  1.00  0.00     0.293 HD
ENDBRANCH   2  22
BRANCH   6  24
ATOM     24  O   UNL     1     -31.825  67.269 157.419  1.00  0.00    -0.507 OA
ATOM     25  H   UNL     1     -32.313  67.494 158.271  1.00  0.00     0.293 HD
ENDBRANCH   6  24
BRANCH   8  26
ATOM     26  O   UNL     1     -27.985  65.377 155.280  1.00  0.00    -0.508 OA
ATOM     27  H   UNL     1     -28.487  65.064 154.457  1.00  0.00     0.293 HD
ENDBRANCH   8  26
TORSDOF 6
ENDMDL
MODEL 6
REMARK VINA RESULT:    -6.207      1.385      2.883
REMARK INTER + INTRA:          -7.715
REMARK INTER:                  -7.401
REMARK INTRA:                  -0.314
REMARK UNBOUND:                -0.237
REMARK SMILES O=c1c(O)c(-c2ccc(O)c(O)c2)oc2cc(O)cc(O)c12
REMARK SMILES IDX 5 1 3 2 2 3 1 4 22 5 20 6 19 7 17 8 16 9 15 10 14 11 6 12
REMARK SMILES IDX 7 13 8 14 9 15 13 16 11 17 10 18 12 20 4 22 21 24 18 26
REMARK H PARENT 10 19 12 21 4 23 21 25 18 27
REMARK Flexibility Score: inf
ROOT
ATOM      1  C   UNL     1     -28.420  68.925 158.677  1.00  0.00     0.180 A 
ATOM      2  C   UNL     1     -28.314  68.622 160.046  1.00  0.00     0.208 A 
ATOM      3  C   UNL     1     -27.600  69.493 160.882  1.00  0.00     0.238 A 
ATOM      4  O   UNL     1     -27.554  69.245 162.116  1.00  0.00    -0.285 OA
ATOM      5  C   UNL     1     -26.987  70.648 160.338  1.00  0.00     0.111 A 
ATOM      6  C   UNL     1     -26.205  71.579 161.087  1.00  0.00     0.134 A 
ATOM      7  C   UNL     1     -25.756  72.755 160.473  1.00  0.00     0.093 A 
ATOM      8  C   UNL     1     -26.004  73.002 159.123  1.00  0.00     0.123 A 
ATOM      9  C   UNL     1     -26.716  72.070 158.367  1.00  0.00     0.094 A 
ATOM     10  C   UNL     1     -27.208  70.905 158.960  1.00  0.00     0.146 A 
ATOM     11  O   UNL     1     -27.890  70.049 158.209  1.00  0.00    -0.452 OA
ENDROOT
BRANCH   1  12
ATOM     12  C   UNL     1     -29.136  68.042 157.727  1.00  0.00     0.025 A 
ATOM     13  C   UNL     1     -30.523  68.185 157.562  1.00  0.00     0.016 A 
ATOM     14  C   UNL     1     -31.214  67.376 156.657  1.00  0.00     0.051 A 
ATOM     15  C   UNL     1     -30.530  66.426 155.892  1.00  0.00     0.157 A 
ATOM     16  C   UNL     1     -28.447  67.100 156.942  1.00  0.00     0.062 A 
ATOM     17  C   UNL     1     -29.140  66.289 156.031  1.00  0.00     0.158 A 
BRANCH  15  18
ATOM     18  O   UNL     1     -31.248  65.632 154.998  1.00  0.00    -0.504 OA
ATOM     19  H   UNL     1     -31.802  66.030 154.249  1.00  0.00     0.293 HD
ENDBRANCH  15  18
BRANCH  17  20
ATOM     20  O   UNL     1     -28.450  65.353 155.262  1.00  0.00    -0.504 OA
ATOM     21  H   UNL     1     -27.471  65.148 155.425  1.00  0.00     0.293 HD
ENDBRANCH  17  20
ENDBRANCH   1  12
BRANCH   2  22
ATOM     22  O   UNL     1     -28.945  67.488 160.565  1.00  0.00    -0.502 OA
ATOM     23  H   UNL     1     -28.674  66.548 160.306  1.00  0.00     0.293 HD
ENDBRANCH   2  22
BRANCH   6  24
ATOM     24  O   UNL     1     -25.821  71.385 162.417  1.00  0.00    -0.507 OA
ATOM     25  H   UNL     1     -25.802  72.107 163.121  1.00  0.00     0.293 HD
ENDBRANCH   6  24
BRANCH   8  26
ATOM     26  O   UNL     1     -25.529  74.175 158.541  1.00  0.00    -0.508 OA
ATOM     27  H   UNL     1     -25.190  74.193 157.585  1.00  0.00     0.293 HD
ENDBRANCH   8  26
TORSDOF 6
ENDMDL
MODEL 7
REMARK VINA RESULT:    -6.198     13.400     16.045
REMARK INTER + INTRA:          -7.704
REMARK INTER:                  -7.387
REMARK INTRA:                  -0.316
REMARK UNBOUND:                -0.237
REMARK SMILES O=c1c(O)c(-c2ccc(O)c(O)c2)oc2cc(O)cc(O)c12
REMARK SMILES IDX 5 1 3 2 2 3 1 4 22 5 20 6 19 7 17 8 16 9 15 10 14 11 6 12
REMARK SMILES IDX 7 13 8 14 9 15 13 16 11 17 10 18 12 20 4 22 21 24 18 26
REMARK H PARENT 10 19 12 21 4 23 21 25 18 27
REMARK Flexibility Score: inf
ROOT
ATOM      1  C   UNL     1     -23.523  57.244 151.872  1.00  0.00     0.180 A 
ATOM      2  C   UNL     1     -24.180  56.062 152.260  1.00  0.00     0.208 A 
ATOM      3  C   UNL     1     -25.578  55.997 152.161  1.00  0.00     0.238 A 
ATOM      4  O   UNL     1     -26.156  54.919 152.459  1.00  0.00    -0.285 OA
ATOM      5  C   UNL     1     -26.304  57.118 151.691  1.00  0.00     0.111 A 
ATOM      6  C   UNL     1     -27.727  57.176 151.588  1.00  0.00     0.134 A 
ATOM      7  C   UNL     1     -28.331  58.287 150.986  1.00  0.00     0.093 A 
ATOM      8  C   UNL     1     -27.571  59.370 150.545  1.00  0.00     0.123 A 
ATOM      9  C   UNL     1     -26.183  59.348 150.695  1.00  0.00     0.094 A 
ATOM     10  C   UNL     1     -25.549  58.239 151.258  1.00  0.00     0.146 A 
ATOM     11  O   UNL     1     -24.227  58.254 151.373  1.00  0.00    -0.452 OA
ENDROOT
BRANCH   1  12
ATOM     12  C   UNL     1     -22.054  57.397 151.971  1.00  0.00     0.025 A 
ATOM     13  C   UNL     1     -21.480  57.779 153.194  1.00  0.00     0.016 A 
ATOM     14  C   UNL     1     -20.095  57.909 153.315  1.00  0.00     0.051 A 
ATOM     15  C   UNL     1     -19.261  57.646 152.224  1.00  0.00     0.157 A 
ATOM     16  C   UNL     1     -21.212  57.112 150.880  1.00  0.00     0.062 A 
ATOM     17  C   UNL     1     -19.821  57.242 151.001  1.00  0.00     0.158 A 
BRANCH  15  18
ATOM     18  O   UNL     1     -17.882  57.787 152.375  1.00  0.00    -0.504 OA
ATOM     19  H   UNL     1     -17.223  57.203 151.873  1.00  0.00     0.293 HD
ENDBRANCH  15  18
BRANCH  17  20
ATOM     20  O   UNL     1     -18.995  56.964 149.912  1.00  0.00    -0.504 OA
ATOM     21  H   UNL     1     -19.339  56.474 149.096  1.00  0.00     0.293 HD
ENDBRANCH  17  20
ENDBRANCH   1  12
BRANCH   2  22
ATOM     22  O   UNL     1     -23.442  54.961 152.701  1.00  0.00    -0.502 OA
ATOM     23  H   UNL     1     -23.703  54.423 153.518  1.00  0.00     0.293 HD
ENDBRANCH   2  22
BRANCH   6  24
ATOM     24  O   UNL     1     -28.587  56.190 152.081  1.00  0.00    -0.507 OA
ATOM     25  H   UNL     1     -29.432  55.883 151.624  1.00  0.00     0.293 HD
ENDBRANCH   6  24
BRANCH   8  26
ATOM     26  O   UNL     1     -28.206  60.465 149.965  1.00  0.00    -0.508 OA
ATOM     27  H   UNL     1     -28.461  61.281 150.511  1.00  0.00     0.293 HD
ENDBRANCH   8  26
TORSDOF 6
ENDMDL
MODEL 8
REMARK VINA RESULT:    -6.058     14.023     15.650
REMARK INTER + INTRA:          -7.534
REMARK INTER:                  -7.279
REMARK INTRA:                  -0.255
REMARK UNBOUND:                -0.237
REMARK SMILES O=c1c(O)c(-c2ccc(O)c(O)c2)oc2cc(O)cc(O)c12
REMARK SMILES IDX 5 1 3 2 2 3 1 4 22 5 20 6 19 7 17 8 16 9 15 10 14 11 6 12
REMARK SMILES IDX 7 13 8 14 9 15 13 16 11 17 10 18 12 20 4 22 21 24 18 26
REMARK H PARENT 10 19 12 21 4 23 21 25 18 27
REMARK Flexibility Score: inf
ROOT
ATOM      1  C   UNL     1     -23.043  57.463 152.357  1.00  0.00     0.180 A 
ATOM      2  C   UNL     1     -22.517  57.522 153.660  1.00  0.00     0.208 A 
ATOM      3  C   UNL     1     -21.126  57.606 153.828  1.00  0.00     0.238 A 
ATOM      4  O   UNL     1     -20.663  57.712 154.994  1.00  0.00    -0.285 OA
ATOM      5  C   UNL     1     -20.278  57.614 152.695  1.00  0.00     0.111 A 
ATOM      6  C   UNL     1     -18.852  57.655 152.750  1.00  0.00     0.134 A 
ATOM      7  C   UNL     1     -18.118  57.792 151.565  1.00  0.00     0.093 A 
ATOM      8  C   UNL     1     -18.754  57.821 150.324  1.00  0.00     0.123 A 
ATOM      9  C   UNL     1     -20.145  57.721 150.255  1.00  0.00     0.094 A 
ATOM     10  C   UNL     1     -20.906  57.621 151.422  1.00  0.00     0.146 A 
ATOM     11  O   UNL     1     -22.226  57.539 151.313  1.00  0.00    -0.452 OA
ENDROOT
BRANCH   1  12
ATOM     12  C   UNL     1     -24.497  57.349 152.100  1.00  0.00     0.025 A 
ATOM     13  C   UNL     1     -25.185  58.431 151.528  1.00  0.00     0.016 A 
ATOM     14  C   UNL     1     -26.552  58.337 151.257  1.00  0.00     0.051 A 
ATOM     15  C   UNL     1     -27.249  57.157 151.538  1.00  0.00     0.157 A 
ATOM     16  C   UNL     1     -25.195  56.156 152.362  1.00  0.00     0.062 A 
ATOM     17  C   UNL     1     -26.568  56.060 152.089  1.00  0.00     0.158 A 
BRANCH  15  18
ATOM     18  O   UNL     1     -28.614  57.094 151.259  1.00  0.00    -0.504 OA
ATOM     19  H   UNL     1     -29.148  57.915 150.998  1.00  0.00     0.293 HD
ENDBRANCH  15  18
BRANCH  17  20
ATOM     20  O   UNL     1     -27.253  54.876 152.359  1.00  0.00    -0.504 OA
ATOM     21  H   UNL     1     -26.986  53.998 151.931  1.00  0.00     0.293 HD
ENDBRANCH  17  20
ENDBRANCH   1  12
BRANCH   2  22
ATOM     22  O   UNL     1     -23.373  57.534 154.764  1.00  0.00    -0.502 OA
ATOM     23  H   UNL     1     -24.354  57.291 154.695  1.00  0.00     0.293 HD
ENDBRANCH   2  22
BRANCH   6  24
ATOM     24  O   UNL     1     -18.112  57.540 153.931  1.00  0.00    -0.507 OA
ATOM     25  H   UNL     1     -17.883  58.308 154.543  1.00  0.00     0.293 HD
ENDBRANCH   6  24
BRANCH   8  26
ATOM     26  O   UNL     1     -17.992  57.942 149.164  1.00  0.00    -0.508 OA
ATOM     27  H   UNL     1     -16.999  58.145 149.201  1.00  0.00     0.293 HD
ENDBRANCH   8  26
TORSDOF 6
ENDMDL
MODEL 9
REMARK VINA RESULT:    -5.921     12.729     15.324
REMARK INTER + INTRA:          -7.370
REMARK INTER:                  -7.042
REMARK INTRA:                  -0.328
REMARK UNBOUND:                -0.237
REMARK SMILES O=c1c(O)c(-c2ccc(O)c(O)c2)oc2cc(O)cc(O)c12
REMARK SMILES IDX 5 1 3 2 2 3 1 4 22 5 20 6 19 7 17 8 16 9 15 10 14 11 6 12
REMARK SMILES IDX 7 13 8 14 9 15 13 16 11 17 10 18 12 20 4 22 21 24 18 26
REMARK H PARENT 10 19 12 21 4 23 21 25 18 27
REMARK Flexibility Score: inf
ROOT
ATOM      1  C   UNL     1     -22.424  57.823 154.651  1.00  0.00     0.180 A 
ATOM      2  C   UNL     1     -21.850  57.313 153.473  1.00  0.00     0.208 A 
ATOM      3  C   UNL     1     -22.678  57.057 152.369  1.00  0.00     0.238 A 
ATOM      4  O   UNL     1     -22.152  56.650 151.300  1.00  0.00    -0.285 OA
ATOM      5  C   UNL     1     -24.070  57.298 152.461  1.00  0.00     0.111 A 
ATOM      6  C   UNL     1     -25.009  57.036 151.418  1.00  0.00     0.134 A 
ATOM      7  C   UNL     1     -26.342  57.436 151.571  1.00  0.00     0.093 A 
ATOM      8  C   UNL     1     -26.785  58.027 152.754  1.00  0.00     0.123 A 
ATOM      9  C   UNL     1     -25.888  58.233 153.804  1.00  0.00     0.094 A 
ATOM     10  C   UNL     1     -24.544  57.878 153.667  1.00  0.00     0.146 A 
ATOM     11  O   UNL     1     -23.722  58.101 154.684  1.00  0.00    -0.452 OA
ENDROOT
BRANCH   1  12
ATOM     12  C   UNL     1     -21.620  58.095 155.865  1.00  0.00     0.025 A 
ATOM     13  C   UNL     1     -21.054  59.367 156.048  1.00  0.00     0.016 A 
ATOM     14  C   UNL     1     -20.310  59.652 157.195  1.00  0.00     0.051 A 
ATOM     15  C   UNL     1     -20.133  58.678 158.183  1.00  0.00     0.157 A 
ATOM     16  C   UNL     1     -21.459  57.124 156.870  1.00  0.00     0.062 A 
ATOM     17  C   UNL     1     -20.713  57.409 158.023  1.00  0.00     0.158 A 
BRANCH  15  18
ATOM     18  O   UNL     1     -19.383  58.991 159.316  1.00  0.00    -0.504 OA
ATOM     19  H   UNL     1     -18.870  59.862 159.399  1.00  0.00     0.293 HD
ENDBRANCH  15  18
BRANCH  17  20
ATOM     20  O   UNL     1     -20.552  56.438 159.010  1.00  0.00    -0.504 OA
ATOM     21  H   UNL     1     -21.073  56.471 159.879  1.00  0.00     0.293 HD
ENDBRANCH  17  20
ENDBRANCH   1  12
BRANCH   2  22
ATOM     22  O   UNL     1     -20.471  57.102 153.398  1.00  0.00    -0.502 OA
ATOM     23  H   UNL     1     -19.933  57.314 152.566  1.00  0.00     0.293 HD
ENDBRANCH   2  22
BRANCH   6  24
ATOM     24  O   UNL     1     -24.691  56.367 150.231  1.00  0.00    -0.507 OA
ATOM     25  H   UNL     1     -23.790  56.398 149.778  1.00  0.00     0.293 HD
ENDBRANCH   6  24
BRANCH   8  26
ATOM     26  O   UNL     1     -28.122  58.398 152.878  1.00  0.00    -0.508 OA
ATOM     27  H   UNL     1     -28.846  57.969 152.313  1.00  0.00     0.293 HD
ENDBRANCH   8  26
TORSDOF 6
ENDMDL
