MODEL 1
REMARK VINA RESULT:    -6.381      0.000      0.000
REMARK INTER + INTRA:          -7.591
REMARK INTER:                  -7.500
REMARK INTRA:                  -0.091
REMARK UNBOUND:                -0.091
REMARK SMILES O=c1c(O)c(-c2ccc(O)cc2)oc2cc(O)cc(O)c12
REMARK SMILES IDX 5 1 3 2 2 3 1 4 21 5 19 6 18 7 16 8 15 9 14 10 13 11 6 12
REMARK SMILES IDX 7 13 8 14 9 15 12 16 11 17 10 18 4 20 20 22 17 24
REMARK H PARENT 10 19 4 21 20 23 17 25
REMARK Flexibility Score: inf
ROOT
ATOM      1  C   UNL     1      18.806  -1.236 -16.898  1.00  0.00     0.180 A 
ATOM      2  C   UNL     1      18.362  -0.344 -15.908  1.00  0.00     0.208 A 
ATOM      3  C   UNL     1      17.662  -0.848 -14.800  1.00  0.00     0.238 A 
ATOM      4  O   UNL     1      17.314  -0.051 -13.890  1.00  0.00    -0.285 OA
ATOM      5  C   UNL     1      17.401  -2.236 -14.705  1.00  0.00     0.111 A 
ATOM      6  C   UNL     1      16.665  -2.851 -13.646  1.00  0.00     0.134 A 
ATOM      7  C   UNL     1      16.581  -4.248 -13.587  1.00  0.00     0.093 A 
ATOM      8  C   UNL     1      17.149  -5.048 -14.582  1.00  0.00     0.123 A 
ATOM      9  C   UNL     1      17.817  -4.454 -15.649  1.00  0.00     0.094 A 
ATOM     10  C   UNL     1      17.949  -3.065 -15.718  1.00  0.00     0.146 A 
ATOM     11  O   UNL     1      18.603  -2.540 -16.747  1.00  0.00    -0.452 OA
ENDROOT
BRANCH   1  12
ATOM     12  C   UNL     1      19.527  -0.777 -18.106  1.00  0.00     0.021 A 
ATOM     13  C   UNL     1      20.763  -0.112 -18.014  1.00  0.00     0.016 A 
ATOM     14  C   UNL     1      21.414   0.334 -19.169  1.00  0.00     0.047 A 
ATOM     15  C   UNL     1      20.833   0.134 -20.427  1.00  0.00     0.115 A 
ATOM     16  C   UNL     1      18.942  -0.955 -19.371  1.00  0.00     0.016 A 
ATOM     17  C   UNL     1      19.594  -0.508 -20.524  1.00  0.00     0.047 A 
BRANCH  15  18
ATOM     18  O   UNL     1      21.472   0.573 -21.585  1.00  0.00    -0.508 OA
ATOM     19  H   UNL     1      21.020   1.213 -22.228  1.00  0.00     0.293 HD
ENDBRANCH  15  18
ENDBRANCH   1  12
BRANCH   2  20
ATOM     20  O   UNL     1      18.649   1.021 -16.010  1.00  0.00    -0.502 OA
ATOM     21  H   UNL     1      19.524   1.366 -16.386  1.00  0.00     0.293 HD
ENDBRANCH   2  20
BRANCH   6  22
ATOM     22  O   UNL     1      15.984  -2.141 -12.654  1.00  0.00    -0.507 OA
ATOM     23  H   UNL     1      16.317  -1.293 -12.222  1.00  0.00     0.293 HD
ENDBRANCH   6  22
BRANCH   8  24
ATOM     24  O   UNL     1      17.046  -6.436 -14.522  1.00  0.00    -0.508 OA
ATOM     25  H   UNL     1      16.471  -6.954 -15.177  1.00  0.00     0.293 HD
ENDBRANCH   8  24
TORSDOF 5
ENDMDL
MODEL 2
REMARK VINA RESULT:    -6.069      7.237      9.675
REMARK INTER + INTRA:          -7.224
REMARK INTER:                  -6.953
REMARK INTRA:                  -0.271
REMARK UNBOUND:                -0.091
REMARK SMILES O=c1c(O)c(-c2ccc(O)cc2)oc2cc(O)cc(O)c12
REMARK SMILES IDX 5 1 3 2 2 3 1 4 21 5 19 6 18 7 16 8 15 9 14 10 13 11 6 12
REMARK SMILES IDX 7 13 8 14 9 15 12 16 11 17 10 18 4 20 20 22 17 24
REMARK H PARENT 10 19 4 21 20 23 17 25
REMARK Flexibility Score: inf
ROOT
ATOM      1  C   UNL     1      18.909  -2.649  -8.497  1.00  0.00     0.180 A 
ATOM      2  C   UNL     1      18.862  -2.887  -7.113  1.00  0.00     0.208 A 
ATOM      3  C   UNL     1      20.066  -3.034  -6.406  1.00  0.00     0.238 A 
ATOM      4  O   UNL     1      20.019  -3.193  -5.158  1.00  0.00    -0.285 OA
ATOM      5  C   UNL     1      21.301  -2.960  -7.094  1.00  0.00     0.111 A 
ATOM      6  C   UNL     1      22.580  -3.136  -6.485  1.00  0.00     0.134 A 
ATOM      7  C   UNL     1      23.739  -2.910  -7.237  1.00  0.00     0.093 A 
ATOM      8  C   UNL     1      23.666  -2.580  -8.593  1.00  0.00     0.123 A 
ATOM      9  C   UNL     1      22.423  -2.465  -9.210  1.00  0.00     0.094 A 
ATOM     10  C   UNL     1      21.247  -2.648  -8.478  1.00  0.00     0.146 A 
ATOM     11  O   UNL     1      20.084  -2.519  -9.102  1.00  0.00    -0.452 OA
ENDROOT
BRANCH   1  12
ATOM     12  C   UNL     1      17.682  -2.508  -9.314  1.00  0.00     0.021 A 
ATOM     13  C   UNL     1      16.942  -3.630  -9.725  1.00  0.00     0.016 A 
ATOM     14  C   UNL     1      15.800  -3.473 -10.517  1.00  0.00     0.047 A 
ATOM     15  C   UNL     1      15.391  -2.195 -10.919  1.00  0.00     0.115 A 
ATOM     16  C   UNL     1      17.278  -1.231  -9.740  1.00  0.00     0.016 A 
ATOM     17  C   UNL     1      16.135  -1.076 -10.531  1.00  0.00     0.047 A 
BRANCH  15  18
ATOM     18  O   UNL     1      14.255  -2.025 -11.706  1.00  0.00    -0.508 OA
ATOM     19  H   UNL     1      13.626  -2.796 -11.900  1.00  0.00     0.293 HD
ENDBRANCH  15  18
ENDBRANCH   1  12
BRANCH   2  20
ATOM     20  O   UNL     1      17.632  -2.936  -6.449  1.00  0.00    -0.502 OA
ATOM     21  H   UNL     1      17.006  -3.728  -6.521  1.00  0.00     0.293 HD
ENDBRANCH   2  20
BRANCH   6  22
ATOM     22  O   UNL     1      22.764  -3.553  -5.164  1.00  0.00    -0.507 OA
ATOM     23  H   UNL     1      22.077  -4.046  -4.615  1.00  0.00     0.293 HD
ENDBRANCH   6  22
BRANCH   8  24
ATOM     24  O   UNL     1      24.824  -2.373  -9.338  1.00  0.00    -0.508 OA
ATOM     25  H   UNL     1      25.621  -1.876  -8.954  1.00  0.00     0.293 HD
ENDBRANCH   8  24
TORSDOF 5
ENDMDL
MODEL 3
REMARK VINA RESULT:    -5.984      7.381     12.458
REMARK INTER + INTRA:          -7.124
REMARK INTER:                  -6.870
REMARK INTRA:                  -0.254
REMARK UNBOUND:                -0.091
REMARK SMILES O=c1c(O)c(-c2ccc(O)cc2)oc2cc(O)cc(O)c12
REMARK SMILES IDX 5 1 3 2 2 3 1 4 21 5 19 6 18 7 16 8 15 9 14 10 13 11 6 12
REMARK SMILES IDX 7 13 8 14 9 15 12 16 11 17 10 18 4 20 20 22 17 24
REMARK H PARENT 10 19 4 21 20 23 17 25
REMARK Flexibility Score: inf
ROOT
ATOM      1  C   UNL     1      11.103  -6.497  -9.711  1.00  0.00     0.180 A 
ATOM      2  C   UNL     1      11.059  -7.694 -10.448  1.00  0.00     0.208 A 
ATOM      3  C   UNL     1      12.074  -7.957 -11.381  1.00  0.00     0.238 A 
ATOM      4  O   UNL     1      12.058  -9.054 -11.998  1.00  0.00    -0.285 OA
ATOM      5  C   UNL     1      13.111  -7.014 -11.579  1.00  0.00     0.111 A 
ATOM      6  C   UNL     1      14.168  -7.159 -12.528  1.00  0.00     0.134 A 
ATOM      7  C   UNL     1      15.211  -6.225 -12.546  1.00  0.00     0.093 A 
ATOM      8  C   UNL     1      15.202  -5.117 -11.695  1.00  0.00     0.123 A 
ATOM      9  C   UNL     1      14.145  -4.936 -10.807  1.00  0.00     0.094 A 
ATOM     10  C   UNL     1      13.107  -5.869 -10.740  1.00  0.00     0.146 A 
ATOM     11  O   UNL     1      12.124  -5.664  -9.873  1.00  0.00    -0.452 OA
ENDROOT
BRANCH   1  12
ATOM     12  C   UNL     1      10.057  -6.138  -8.728  1.00  0.00     0.021 A 
ATOM     13  C   UNL     1       8.796  -5.667  -9.138  1.00  0.00     0.016 A 
ATOM     14  C   UNL     1       7.832  -5.311  -8.190  1.00  0.00     0.047 A 
ATOM     15  C   UNL     1       8.118  -5.409  -6.822  1.00  0.00     0.115 A 
ATOM     16  C   UNL     1      10.342  -6.213  -7.354  1.00  0.00     0.016 A 
ATOM     17  C   UNL     1       9.377  -5.857  -6.408  1.00  0.00     0.047 A 
BRANCH  15  18
ATOM     18  O   UNL     1       7.166  -5.058  -5.868  1.00  0.00    -0.508 OA
ATOM     19  H   UNL     1       6.920  -4.090  -5.698  1.00  0.00     0.293 HD
ENDBRANCH  15  18
ENDBRANCH   1  12
BRANCH   2  20
ATOM     20  O   UNL     1      10.038  -8.622 -10.221  1.00  0.00    -0.502 OA
ATOM     21  H   UNL     1       9.926  -9.102  -9.337  1.00  0.00     0.293 HD
ENDBRANCH   2  20
BRANCH   6  22
ATOM     22  O   UNL     1      14.225  -8.178 -13.483  1.00  0.00    -0.507 OA
ATOM     23  H   UNL     1      14.585  -8.070 -14.419  1.00  0.00     0.293 HD
ENDBRANCH   6  22
BRANCH   8  24
ATOM     24  O   UNL     1      16.237  -4.185 -11.731  1.00  0.00    -0.508 OA
ATOM     25  H   UNL     1      16.192  -3.365 -12.325  1.00  0.00     0.293 HD
ENDBRANCH   8  24
TORSDOF 5
ENDMDL
MODEL 4
REMARK VINA RESULT:    -5.813      9.707     11.848
REMARK INTER + INTRA:          -6.924
REMARK INTER:                  -6.638
REMARK INTRA:                  -0.286
REMARK UNBOUND:                -0.091
REMARK SMILES O=c1c(O)c(-c2ccc(O)cc2)oc2cc(O)cc(O)c12
REMARK SMILES IDX 5 1 3 2 2 3 1 4 21 5 19 6 18 7 16 8 15 9 14 10 13 11 6 12
REMARK SMILES IDX 7 13 8 14 9 15 12 16 11 17 10 18 4 20 20 22 17 24
REMARK H PARENT 10 19 4 21 20 23 17 25
REMARK Flexibility Score: inf
ROOT
ATOM      1  C   UNL     1      10.810   4.244 -18.852  1.00  0.00     0.180 A 
ATOM      2  C   UNL     1      11.903   3.474 -18.419  1.00  0.00     0.208 A 
ATOM      3  C   UNL     1      13.151   4.097 -18.252  1.00  0.00     0.238 A 
ATOM      4  O   UNL     1      14.113   3.415 -17.812  1.00  0.00    -0.285 OA
ATOM      5  C   UNL     1      13.293   5.476 -18.537  1.00  0.00     0.111 A 
ATOM      6  C   UNL     1      14.521   6.200 -18.443  1.00  0.00     0.134 A 
ATOM      7  C   UNL     1      14.517   7.589 -18.623  1.00  0.00     0.093 A 
ATOM      8  C   UNL     1      13.343   8.270 -18.958  1.00  0.00     0.123 A 
ATOM      9  C   UNL     1      12.154   7.563 -19.110  1.00  0.00     0.094 A 
ATOM     10  C   UNL     1      12.117   6.182 -18.903  1.00  0.00     0.146 A 
ATOM     11  O   UNL     1      10.961   5.548 -19.048  1.00  0.00    -0.452 OA
ENDROOT
BRANCH   1  12
ATOM     12  C   UNL     1       9.470   3.654 -19.075  1.00  0.00     0.021 A 
ATOM     13  C   UNL     1       9.154   2.984 -20.270  1.00  0.00     0.016 A 
ATOM     14  C   UNL     1       7.874   2.456 -20.467  1.00  0.00     0.047 A 
ATOM     15  C   UNL     1       6.892   2.601 -19.479  1.00  0.00     0.115 A 
ATOM     16  C   UNL     1       8.473   3.813 -18.098  1.00  0.00     0.016 A 
ATOM     17  C   UNL     1       7.194   3.284 -18.297  1.00  0.00     0.047 A 
BRANCH  15  18
ATOM     18  O   UNL     1       5.614   2.079 -19.663  1.00  0.00    -0.508 OA
ATOM     19  H   UNL     1       5.441   1.080 -19.632  1.00  0.00     0.293 HD
ENDBRANCH  15  18
ENDBRANCH   1  12
BRANCH   2  20
ATOM     20  O   UNL     1      11.736   2.118 -18.122  1.00  0.00    -0.502 OA
ATOM     21  H   UNL     1      12.212   1.667 -17.350  1.00  0.00     0.293 HD
ENDBRANCH   2  20
BRANCH   6  22
ATOM     22  O   UNL     1      15.762   5.604 -18.204  1.00  0.00    -0.507 OA
ATOM     23  H   UNL     1      16.192   4.913 -18.798  1.00  0.00     0.293 HD
ENDBRANCH   6  22
BRANCH   8  24
ATOM     24  O   UNL     1      13.353   9.649 -19.150  1.00  0.00    -0.508 OA
ATOM     25  H   UNL     1      14.046  10.099 -19.738  1.00  0.00     0.293 HD
ENDBRANCH   8  24
TORSDOF 5
ENDMDL
MODEL 5
REMARK VINA RESULT:    -5.765      9.064     10.888
REMARK INTER + INTRA:          -6.867
REMARK INTER:                  -6.587
REMARK INTRA:                  -0.280
REMARK UNBOUND:                -0.091
REMARK SMILES O=c1c(O)c(-c2ccc(O)cc2)oc2cc(O)cc(O)c12
REMARK SMILES IDX 5 1 3 2 2 3 1 4 21 5 19 6 18 7 16 8 15 9 14 10 13 11 6 12
REMARK SMILES IDX 7 13 8 14 9 15 12 16 11 17 10 18 4 20 20 22 17 24
REMARK H PARENT 10 19 4 21 20 23 17 25
REMARK Flexibility Score: inf
ROOT
ATOM      1  C   UNL     1      20.683  -1.411  -7.372  1.00  0.00     0.180 A 
ATOM      2  C   UNL     1      19.415  -1.833  -7.806  1.00  0.00     0.208 A 
ATOM      3  C   UNL     1      18.433  -0.869  -8.083  1.00  0.00     0.238 A 
ATOM      4  O   UNL     1      17.317  -1.251  -8.523  1.00  0.00    -0.285 OA
ATOM      5  C   UNL     1      18.727   0.505  -7.908  1.00  0.00     0.111 A 
ATOM      6  C   UNL     1      17.794   1.566  -8.120  1.00  0.00     0.134 A 
ATOM      7  C   UNL     1      18.232   2.894  -8.042  1.00  0.00     0.093 A 
ATOM      8  C   UNL     1      19.551   3.199  -7.695  1.00  0.00     0.123 A 
ATOM      9  C   UNL     1      20.451   2.172  -7.429  1.00  0.00     0.094 A 
ATOM     10  C   UNL     1      20.055   0.836  -7.533  1.00  0.00     0.146 A 
ATOM     11  O   UNL     1      20.947  -0.113  -7.281  1.00  0.00    -0.452 OA
ENDROOT
BRANCH   1  12
ATOM     12  C   UNL     1      21.761  -2.369  -7.037  1.00  0.00     0.021 A 
ATOM     13  C   UNL     1      21.799  -3.022  -5.792  1.00  0.00     0.016 A 
ATOM     14  C   UNL     1      22.841  -3.905  -5.489  1.00  0.00     0.047 A 
ATOM     15  C   UNL     1      23.863  -4.135  -6.418  1.00  0.00     0.115 A 
ATOM     16  C   UNL     1      22.801  -2.590  -7.955  1.00  0.00     0.016 A 
ATOM     17  C   UNL     1      23.841  -3.473  -7.650  1.00  0.00     0.047 A 
BRANCH  15  18
ATOM     18  O   UNL     1      24.905  -5.013  -6.128  1.00  0.00    -0.508 OA
ATOM     19  H   UNL     1      25.794  -4.679  -5.775  1.00  0.00     0.293 HD
ENDBRANCH  15  18
ENDBRANCH   1  12
BRANCH   2  20
ATOM     20  O   UNL     1      19.153  -3.194  -7.994  1.00  0.00    -0.502 OA
ATOM     21  H   UNL     1      19.535  -3.910  -7.388  1.00  0.00     0.293 HD
ENDBRANCH   2  20
BRANCH   6  22
ATOM     22  O   UNL     1      16.435   1.370  -8.380  1.00  0.00    -0.507 OA
ATOM     23  H   UNL     1      15.797   0.882  -7.771  1.00  0.00     0.293 HD
ENDBRANCH   6  22
BRANCH   8  24
ATOM     24  O   UNL     1      19.972   4.524  -7.605  1.00  0.00    -0.508 OA
ATOM     25  H   UNL     1      19.327   5.272  -7.378  1.00  0.00     0.293 HD
ENDBRANCH   8  24
TORSDOF 5
ENDMDL
MODEL 6
REMARK VINA RESULT:    -5.765      1.148      3.097
REMARK INTER + INTRA:          -6.867
REMARK INTER:                  -6.797
REMARK INTRA:                  -0.070
REMARK UNBOUND:                -0.091
REMARK SMILES O=c1c(O)c(-c2ccc(O)cc2)oc2cc(O)cc(O)c12
REMARK SMILES IDX 5 1 3 2 2 3 1 4 21 5 19 6 18 7 16 8 15 9 14 10 13 11 6 12
REMARK SMILES IDX 7 13 8 14 9 15 12 16 11 17 10 18 4 20 20 22 17 24
REMARK H PARENT 10 19 4 21 20 23 17 25
REMARK Flexibility Score: inf
ROOT
ATOM      1  C   UNL     1      18.770  -2.056 -17.380  1.00  0.00     0.180 A 
ATOM      2  C   UNL     1      18.630  -3.444 -17.553  1.00  0.00     0.208 A 
ATOM      3  C   UNL     1      17.975  -4.192 -16.562  1.00  0.00     0.238 A 
ATOM      4  O   UNL     1      17.806  -5.425 -16.748  1.00  0.00    -0.285 OA
ATOM      5  C   UNL     1      17.482  -3.546 -15.403  1.00  0.00     0.111 A 
ATOM      6  C   UNL     1      16.838  -4.213 -14.316  1.00  0.00     0.134 A 
ATOM      7  C   UNL     1      16.275  -3.457 -13.281  1.00  0.00     0.093 A 
ATOM      8  C   UNL     1      16.389  -2.064 -13.260  1.00  0.00     0.123 A 
ATOM      9  C   UNL     1      17.067  -1.411 -14.285  1.00  0.00     0.094 A 
ATOM     10  C   UNL     1      17.610  -2.134 -15.350  1.00  0.00     0.146 A 
ATOM     11  O   UNL     1      18.239  -1.471 -16.312  1.00  0.00    -0.452 OA
ENDROOT
BRANCH   1  12
ATOM     12  C   UNL     1      19.470  -1.205 -18.368  1.00  0.00     0.021 A 
ATOM     13  C   UNL     1      19.034  -1.121 -19.702  1.00  0.00     0.016 A 
ATOM     14  C   UNL     1      19.727  -0.329 -20.623  1.00  0.00     0.047 A 
ATOM     15  C   UNL     1      20.870   0.377 -20.227  1.00  0.00     0.115 A 
ATOM     16  C   UNL     1      20.629  -0.510 -17.984  1.00  0.00     0.016 A 
ATOM     17  C   UNL     1      21.320   0.281 -18.907  1.00  0.00     0.047 A 
BRANCH  15  18
ATOM     18  O   UNL     1      21.568   1.170 -21.136  1.00  0.00    -0.508 OA
ATOM     19  H   UNL     1      22.168   1.925 -20.826  1.00  0.00     0.293 HD
ENDBRANCH  15  18
ENDBRANCH   1  12
BRANCH   2  20
ATOM     20  O   UNL     1      19.105  -4.059 -18.716  1.00  0.00    -0.502 OA
ATOM     21  H   UNL     1      18.719  -4.926 -19.069  1.00  0.00     0.293 HD
ENDBRANCH   2  20
BRANCH   6  22
ATOM     22  O   UNL     1      16.750  -5.602 -14.195  1.00  0.00    -0.507 OA
ATOM     23  H   UNL     1      17.540  -6.228 -14.160  1.00  0.00     0.293 HD
ENDBRANCH   6  22
BRANCH   8  24
ATOM     24  O   UNL     1      15.839  -1.322 -12.217  1.00  0.00    -0.508 OA
ATOM     25  H   UNL     1      15.305  -0.477 -12.391  1.00  0.00     0.293 HD
ENDBRANCH   8  24
TORSDOF 5
ENDMDL
MODEL 7
REMARK VINA RESULT:    -5.660      6.565      8.858
REMARK INTER + INTRA:          -6.743
REMARK INTER:                  -6.494
REMARK INTRA:                  -0.249
REMARK UNBOUND:                -0.091
REMARK SMILES O=c1c(O)c(-c2ccc(O)cc2)oc2cc(O)cc(O)c12
REMARK SMILES IDX 5 1 3 2 2 3 1 4 21 5 19 6 18 7 16 8 15 9 14 10 13 11 6 12
REMARK SMILES IDX 7 13 8 14 9 15 12 16 11 17 10 18 4 20 20 22 17 24
REMARK H PARENT 10 19 4 21 20 23 17 25
REMARK Flexibility Score: inf
ROOT
ATOM      1  C   UNL     1      18.253  -2.038  -8.757  1.00  0.00     0.180 A 
ATOM      2  C   UNL     1      17.612  -0.788  -8.702  1.00  0.00     0.208 A 
ATOM      3  C   UNL     1      16.555  -0.525  -9.587  1.00  0.00     0.238 A 
ATOM      4  O   UNL     1      15.950   0.576  -9.496  1.00  0.00    -0.285 OA
ATOM      5  C   UNL     1      16.163  -1.507 -10.528  1.00  0.00     0.111 A 
ATOM      6  C   UNL     1      15.131  -1.331 -11.501  1.00  0.00     0.134 A 
ATOM      7  C   UNL     1      14.740  -2.417 -12.294  1.00  0.00     0.093 A 
ATOM      8  C   UNL     1      15.386  -3.652 -12.196  1.00  0.00     0.123 A 
ATOM      9  C   UNL     1      16.433  -3.814 -11.292  1.00  0.00     0.094 A 
ATOM     10  C   UNL     1      16.823  -2.761 -10.461  1.00  0.00     0.146 A 
ATOM     11  O   UNL     1      17.818  -2.962  -9.607  1.00  0.00    -0.452 OA
ENDROOT
BRANCH   1  12
ATOM     12  C   UNL     1      19.390  -2.380  -7.874  1.00  0.00     0.021 A 
ATOM     13  C   UNL     1      20.714  -2.375  -8.349  1.00  0.00     0.016 A 
ATOM     14  C   UNL     1      21.770  -2.725  -7.501  1.00  0.00     0.047 A 
ATOM     15  C   UNL     1      21.516  -3.098  -6.175  1.00  0.00     0.115 A 
ATOM     16  C   UNL     1      19.143  -2.776  -6.549  1.00  0.00     0.016 A 
ATOM     17  C   UNL     1      20.200  -3.125  -5.704  1.00  0.00     0.047 A 
BRANCH  15  18
ATOM     18  O   UNL     1      22.560  -3.448  -5.322  1.00  0.00    -0.508 OA
ATOM     19  H   UNL     1      23.221  -4.176  -5.566  1.00  0.00     0.293 HD
ENDBRANCH  15  18
ENDBRANCH   1  12
BRANCH   2  20
ATOM     20  O   UNL     1      18.001   0.160  -7.750  1.00  0.00    -0.502 OA
ATOM     21  H   UNL     1      18.040  -0.048  -6.760  1.00  0.00     0.293 HD
ENDBRANCH   2  20
BRANCH   6  22
ATOM     22  O   UNL     1      14.485  -0.116 -11.742  1.00  0.00    -0.507 OA
ATOM     23  H   UNL     1      14.260   0.566 -11.034  1.00  0.00     0.293 HD
ENDBRANCH   6  22
BRANCH   8  24
ATOM     24  O   UNL     1      15.000  -4.721 -13.000  1.00  0.00    -0.508 OA
ATOM     25  H   UNL     1      15.034  -5.678 -12.665  1.00  0.00     0.293 HD
ENDBRANCH   8  24
TORSDOF 5
ENDMDL
MODEL 8
REMARK VINA RESULT:    -5.654      6.768      9.165
REMARK INTER + INTRA:          -6.736
REMARK INTER:                  -6.439
REMARK INTRA:                  -0.297
REMARK UNBOUND:                -0.091
REMARK SMILES O=c1c(O)c(-c2ccc(O)cc2)oc2cc(O)cc(O)c12
REMARK SMILES IDX 5 1 3 2 2 3 1 4 21 5 19 6 18 7 16 8 15 9 14 10 13 11 6 12
REMARK SMILES IDX 7 13 8 14 9 15 12 16 11 17 10 18 4 20 20 22 17 24
REMARK H PARENT 10 19 4 21 20 23 17 25
REMARK Flexibility Score: inf
ROOT
ATOM      1  C   UNL     1      13.565   2.699 -16.272  1.00  0.00     0.180 A 
ATOM      2  C   UNL     1      13.815   4.058 -16.016  1.00  0.00     0.208 A 
ATOM      3  C   UNL     1      13.325   5.022 -16.912  1.00  0.00     0.238 A 
ATOM      4  O   UNL     1      13.506   6.239 -16.648  1.00  0.00    -0.285 OA
ATOM      5  C   UNL     1      12.605   4.613 -18.060  1.00  0.00     0.111 A 
ATOM      6  C   UNL     1      12.098   5.502 -19.057  1.00  0.00     0.134 A 
ATOM      7  C   UNL     1      11.289   4.998 -20.082  1.00  0.00     0.093 A 
ATOM      8  C   UNL     1      11.023   3.630 -20.185  1.00  0.00     0.123 A 
ATOM      9  C   UNL     1      11.563   2.749 -19.252  1.00  0.00     0.094 A 
ATOM     10  C   UNL     1      12.345   3.225 -18.197  1.00  0.00     0.146 A 
ATOM     11  O   UNL     1      12.831   2.353 -17.323  1.00  0.00    -0.452 OA
ENDROOT
BRANCH   1  12
ATOM     12  C   UNL     1      14.071   1.625 -15.388  1.00  0.00     0.021 A 
ATOM     13  C   UNL     1      15.360   1.087 -15.551  1.00  0.00     0.016 A 
ATOM     14  C   UNL     1      15.807   0.056 -14.719  1.00  0.00     0.047 A 
ATOM     15  C   UNL     1      14.968  -0.460 -13.723  1.00  0.00     0.115 A 
ATOM     16  C   UNL     1      13.228   1.087 -14.401  1.00  0.00     0.016 A 
ATOM     17  C   UNL     1      13.677   0.056 -13.569  1.00  0.00     0.047 A 
BRANCH  15  18
ATOM     18  O   UNL     1      15.402  -1.486 -12.887  1.00  0.00    -0.508 OA
ATOM     19  H   UNL     1      16.169  -1.351 -12.239  1.00  0.00     0.293 HD
ENDBRANCH  15  18
ENDBRANCH   1  12
BRANCH   2  20
ATOM     20  O   UNL     1      14.509   4.441 -14.864  1.00  0.00    -0.502 OA
ATOM     21  H   UNL     1      15.422   4.878 -14.898  1.00  0.00     0.293 HD
ENDBRANCH   2  20
BRANCH   6  22
ATOM     22  O   UNL     1      12.380   6.870 -19.098  1.00  0.00    -0.507 OA
ATOM     23  H   UNL     1      12.387   7.431 -19.936  1.00  0.00     0.293 HD
ENDBRANCH   6  22
BRANCH   8  24
ATOM     24  O   UNL     1      10.230   3.136 -21.218  1.00  0.00    -0.508 OA
ATOM     25  H   UNL     1      10.438   2.254 -21.672  1.00  0.00     0.293 HD
ENDBRANCH   8  24
TORSDOF 5
ENDMDL
MODEL 9
REMARK VINA RESULT:    -5.633      6.691      9.554
REMARK INTER + INTRA:          -6.712
REMARK INTER:                  -6.554
REMARK INTRA:                  -0.158
REMARK UNBOUND:                -0.091
REMARK SMILES O=c1c(O)c(-c2ccc(O)cc2)oc2cc(O)cc(O)c12
REMARK SMILES IDX 5 1 3 2 2 3 1 4 21 5 19 6 18 7 16 8 15 9 14 10 13 11 6 12
REMARK SMILES IDX 7 13 8 14 9 15 12 16 11 17 10 18 4 20 20 22 17 24
REMARK H PARENT 10 19 4 21 20 23 17 25
REMARK Flexibility Score: inf
ROOT
ATOM      1  C   UNL     1      18.609  -2.073  -8.617  1.00  0.00     0.180 A 
ATOM      2  C   UNL     1      17.561  -2.948  -8.955  1.00  0.00     0.208 A 
ATOM      3  C   UNL     1      16.541  -2.492  -9.806  1.00  0.00     0.238 A 
ATOM      4  O   UNL     1      15.635  -3.297 -10.148  1.00  0.00    -0.285 OA
ATOM      5  C   UNL     1      16.572  -1.164 -10.294  1.00  0.00     0.111 A 
ATOM      6  C   UNL     1      15.568  -0.584 -11.129  1.00  0.00     0.134 A 
ATOM      7  C   UNL     1      15.768   0.697 -11.658  1.00  0.00     0.093 A 
ATOM      8  C   UNL     1      16.902   1.444 -11.330  1.00  0.00     0.123 A 
ATOM      9  C   UNL     1      17.857   0.909 -10.469  1.00  0.00     0.094 A 
ATOM     10  C   UNL     1      17.704  -0.379  -9.953  1.00  0.00     0.146 A 
ATOM     11  O   UNL     1      18.643  -0.855  -9.144  1.00  0.00    -0.452 OA
ENDROOT
BRANCH   1  12
ATOM     12  C   UNL     1      19.705  -2.473  -7.707  1.00  0.00     0.021 A 
ATOM     13  C   UNL     1      19.461  -2.788  -6.358  1.00  0.00     0.016 A 
ATOM     14  C   UNL     1      20.517  -3.139  -5.512  1.00  0.00     0.047 A 
ATOM     15  C   UNL     1      21.831  -3.167  -5.997  1.00  0.00     0.115 A 
ATOM     16  C   UNL     1      21.028  -2.482  -8.180  1.00  0.00     0.016 A 
ATOM     17  C   UNL     1      22.083  -2.834  -7.332  1.00  0.00     0.047 A 
BRANCH  15  18
ATOM     18  O   UNL     1      22.890  -3.516  -5.164  1.00  0.00    -0.508 OA
ATOM     19  H   UNL     1      23.071  -3.016  -4.301  1.00  0.00     0.293 HD
ENDBRANCH  15  18
ENDBRANCH   1  12
BRANCH   2  20
ATOM     20  O   UNL     1      17.562  -4.263  -8.480  1.00  0.00    -0.502 OA
ATOM     21  H   UNL     1      16.874  -4.947  -8.771  1.00  0.00     0.293 HD
ENDBRANCH   2  20
BRANCH   6  22
ATOM     22  O   UNL     1      14.358  -1.209 -11.443  1.00  0.00    -0.507 OA
ATOM     23  H   UNL     1      13.728  -0.908 -12.170  1.00  0.00     0.293 HD
ENDBRANCH   6  22
BRANCH   8  24
ATOM     24  O   UNL     1      17.084   2.723 -11.849  1.00  0.00    -0.508 OA
ATOM     25  H   UNL     1      17.563   2.876 -12.730  1.00  0.00     0.293 HD
ENDBRANCH   8  24
TORSDOF 5
ENDMDL
