MODEL 1
REMARK VINA RESULT:    -4.552      0.000      0.000
REMARK INTER + INTRA:          -4.873
REMARK INTER:                  -5.484
REMARK INTRA:                   0.611
REMARK UNBOUND:                 0.611
REMARK SMILES O=c1c(O)c(-c2ccc(O)cc2O)oc2cc(O)cc(O)c12
REMARK SMILES IDX 5 1 3 2 2 3 1 4 22 5 20 6 19 7 17 8 16 9 15 10 14 11 6 12
REMARK SMILES IDX 8 13 7 14 9 15 11 16 12 17 10 18 13 20 4 22 21 24 18 26
REMARK H PARENT 10 19 13 21 4 23 21 25 18 27
REMARK Flexibility Score: inf
ROOT
ATOM      1  C   UNL     1      -6.941  -2.312 -10.036  1.00  0.00     0.184 A 
ATOM      2  C   UNL     1      -8.307  -1.994 -10.046  1.00  0.00     0.208 A 
ATOM      3  C   UNL     1      -8.692  -0.645 -10.019  1.00  0.00     0.238 A 
ATOM      4  O   UNL     1      -9.917  -0.363 -10.083  1.00  0.00    -0.285 OA
ATOM      5  C   UNL     1      -7.703   0.368  -9.963  1.00  0.00     0.111 A 
ATOM      6  C   UNL     1      -7.979   1.766  -9.890  1.00  0.00     0.134 A 
ATOM      7  C   UNL     1      -6.922   2.683  -9.971  1.00  0.00     0.093 A 
ATOM      8  C   UNL     1      -5.597   2.250 -10.057  1.00  0.00     0.123 A 
ATOM      9  C   UNL     1      -5.314   0.886 -10.068  1.00  0.00     0.094 A 
ATOM     10  C   UNL     1      -6.348  -0.052 -10.026  1.00  0.00     0.146 A 
ATOM     11  O   UNL     1      -6.035  -1.342 -10.051  1.00  0.00    -0.451 OA
ENDROOT
BRANCH   1  12
ATOM     12  C   UNL     1      -6.469  -3.713 -10.048  1.00  0.00     0.063 A 
ATOM     13  C   UNL     1      -7.003  -6.085 -10.115  1.00  0.00     0.047 A 
ATOM     14  C   UNL     1      -7.415  -4.750 -10.098  1.00  0.00     0.020 A 
ATOM     15  C   UNL     1      -5.642  -6.401 -10.097  1.00  0.00     0.119 A 
ATOM     16  C   UNL     1      -4.690  -5.374 -10.070  1.00  0.00     0.093 A 
ATOM     17  C   UNL     1      -5.095  -4.031 -10.058  1.00  0.00     0.130 A 
BRANCH  15  18
ATOM     18  O   UNL     1      -5.247  -7.737 -10.110  1.00  0.00    -0.508 OA
ATOM     19  H   UNL     1      -5.303  -8.297 -10.952  1.00  0.00     0.293 HD
ENDBRANCH  15  18
BRANCH  17  20
ATOM     20  O   UNL     1      -4.137  -3.017 -10.081  1.00  0.00    -0.507 OA
ATOM     21  H   UNL     1      -4.389  -2.044  -9.956  1.00  0.00     0.293 HD
ENDBRANCH  17  20
ENDBRANCH   1  12
BRANCH   2  22
ATOM     22  O   UNL     1      -9.261  -3.013 -10.120  1.00  0.00    -0.502 OA
ATOM     23  H   UNL     1     -10.219  -2.841 -10.405  1.00  0.00     0.293 HD
ENDBRANCH   2  22
BRANCH   6  24
ATOM     24  O   UNL     1      -9.258   2.302  -9.712  1.00  0.00    -0.507 OA
ATOM     25  H   UNL     1      -9.524   2.912  -8.956  1.00  0.00     0.293 HD
ENDBRANCH   6  24
BRANCH   8  26
ATOM     26  O   UNL     1      -4.552   3.169 -10.121  1.00  0.00    -0.508 OA
ATOM     27  H   UNL     1      -3.663   2.991  -9.669  1.00  0.00     0.293 HD
ENDBRANCH   8  26
TORSDOF 6
ENDMDL
MODEL 2
REMARK VINA RESULT:    -4.508      1.097      3.221
REMARK INTER + INTRA:          -4.819
REMARK INTER:                  -5.430
REMARK INTRA:                   0.611
REMARK UNBOUND:                 0.611
REMARK SMILES O=c1c(O)c(-c2ccc(O)cc2O)oc2cc(O)cc(O)c12
REMARK SMILES IDX 5 1 3 2 2 3 1 4 22 5 20 6 19 7 17 8 16 9 15 10 14 11 6 12
REMARK SMILES IDX 8 13 7 14 9 15 11 16 12 17 10 18 13 20 4 22 21 24 18 26
REMARK H PARENT 10 19 13 21 4 23 21 25 18 27
REMARK Flexibility Score: inf
ROOT
ATOM      1  C   UNL     1      -5.897  -2.635  -9.971  1.00  0.00     0.184 A 
ATOM      2  C   UNL     1      -4.621  -2.053  -9.927  1.00  0.00     0.208 A 
ATOM      3  C   UNL     1      -4.511  -0.654  -9.897  1.00  0.00     0.238 A 
ATOM      4  O   UNL     1      -3.367  -0.138  -9.803  1.00  0.00    -0.285 OA
ATOM      5  C   UNL     1      -5.681   0.144  -9.930  1.00  0.00     0.111 A 
ATOM      6  C   UNL     1      -5.687   1.571  -9.946  1.00  0.00     0.134 A 
ATOM      7  C   UNL     1      -6.905   2.257  -9.848  1.00  0.00     0.093 A 
ATOM      8  C   UNL     1      -8.119   1.568  -9.799  1.00  0.00     0.123 A 
ATOM      9  C   UNL     1      -8.125   0.175  -9.844  1.00  0.00     0.094 A 
ATOM     10  C   UNL     1      -6.925  -0.538  -9.905  1.00  0.00     0.146 A 
ATOM     11  O   UNL     1      -6.977  -1.864  -9.934  1.00  0.00    -0.451 OA
ENDROOT
BRANCH   1  12
ATOM     12  C   UNL     1      -6.081  -4.100 -10.020  1.00  0.00     0.063 A 
ATOM     13  C   UNL     1      -5.091  -6.321  -9.996  1.00  0.00     0.047 A 
ATOM     14  C   UNL     1      -4.951  -4.931  -9.958  1.00  0.00     0.020 A 
ATOM     15  C   UNL     1      -6.360  -6.899 -10.083  1.00  0.00     0.119 A 
ATOM     16  C   UNL     1      -7.495  -6.078 -10.123  1.00  0.00     0.093 A 
ATOM     17  C   UNL     1      -7.364  -4.682 -10.078  1.00  0.00     0.130 A 
BRANCH  15  18
ATOM     18  O   UNL     1      -6.482  -8.285 -10.125  1.00  0.00    -0.508 OA
ATOM     19  H   UNL     1      -7.355  -8.747  -9.898  1.00  0.00     0.293 HD
ENDBRANCH  15  18
BRANCH  17  20
ATOM     20  O   UNL     1      -8.504  -3.879 -10.068  1.00  0.00    -0.507 OA
ATOM     21  H   UNL     1      -9.197  -3.949  -9.333  1.00  0.00     0.293 HD
ENDBRANCH  17  20
ENDBRANCH   1  12
BRANCH   2  22
ATOM     22  O   UNL     1      -3.484  -2.865  -9.876  1.00  0.00    -0.502 OA
ATOM     23  H   UNL     1      -2.551  -2.504 -10.036  1.00  0.00     0.293 HD
ENDBRANCH   2  22
BRANCH   6  24
ATOM     24  O   UNL     1      -4.538   2.356 -10.084  1.00  0.00    -0.507 OA
ATOM     25  H   UNL     1      -4.117   2.608 -10.964  1.00  0.00     0.293 HD
ENDBRANCH   6  24
BRANCH   8  26
ATOM     26  O   UNL     1      -9.326   2.258  -9.717  1.00  0.00    -0.508 OA
ATOM     27  H   UNL     1     -10.036   2.003  -9.041  1.00  0.00     0.293 HD
ENDBRANCH   8  26
TORSDOF 6
ENDMDL
MODEL 3
REMARK VINA RESULT:    -2.682      1.808      2.566
REMARK INTER + INTRA:          -2.621
REMARK INTER:                  -3.164
REMARK INTRA:                   0.543
REMARK UNBOUND:                 0.611
REMARK SMILES O=c1c(O)c(-c2ccc(O)cc2O)oc2cc(O)cc(O)c12
REMARK SMILES IDX 5 1 3 2 2 3 1 4 22 5 20 6 19 7 17 8 16 9 15 10 14 11 6 12
REMARK SMILES IDX 8 13 7 14 9 15 11 16 12 17 10 18 13 20 4 22 21 24 18 26
REMARK H PARENT 10 19 13 21 4 23 21 25 18 27
REMARK Flexibility Score: inf
ROOT
ATOM      1  C   UNL     1      -6.443  -4.001  -9.792  1.00  0.00     0.184 A 
ATOM      2  C   UNL     1      -7.530  -3.120  -9.893  1.00  0.00     0.208 A 
ATOM      3  C   UNL     1      -7.284  -1.741  -9.976  1.00  0.00     0.238 A 
ATOM      4  O   UNL     1      -8.259  -0.960 -10.122  1.00  0.00    -0.285 OA
ATOM      5  C   UNL     1      -5.951  -1.261  -9.939  1.00  0.00     0.111 A 
ATOM      6  C   UNL     1      -5.586   0.118  -9.975  1.00  0.00     0.134 A 
ATOM      7  C   UNL     1      -4.233   0.472 -10.063  1.00  0.00     0.093 A 
ATOM      8  C   UNL     1      -3.232  -0.501 -10.052  1.00  0.00     0.123 A 
ATOM      9  C   UNL     1      -3.577  -1.848  -9.957  1.00  0.00     0.094 A 
ATOM     10  C   UNL     1      -4.918  -2.234  -9.904  1.00  0.00     0.146 A 
ATOM     11  O   UNL     1      -5.202  -3.529  -9.825  1.00  0.00    -0.451 OA
ENDROOT
BRANCH   1  12
ATOM     12  C   UNL     1      -6.634  -5.463  -9.684  1.00  0.00     0.063 A 
ATOM     13  C   UNL     1      -8.143  -7.343  -9.369  1.00  0.00     0.047 A 
ATOM     14  C   UNL     1      -7.927  -5.967  -9.470  1.00  0.00     0.020 A 
ATOM     15  C   UNL     1      -7.075  -8.234  -9.494  1.00  0.00     0.119 A 
ATOM     16  C   UNL     1      -5.784  -7.743  -9.731  1.00  0.00     0.093 A 
ATOM     17  C   UNL     1      -5.559  -6.362  -9.840  1.00  0.00     0.130 A 
BRANCH  15  18
ATOM     18  O   UNL     1      -7.306  -9.604  -9.387  1.00  0.00    -0.508 OA
ATOM     19  H   UNL     1      -6.847 -10.267 -10.000  1.00  0.00     0.293 HD
ENDBRANCH  15  18
BRANCH  17  20
ATOM     20  O   UNL     1      -4.278  -5.889 -10.124  1.00  0.00    -0.507 OA
ATOM     21  H   UNL     1      -3.725  -6.274 -10.880  1.00  0.00     0.293 HD
ENDBRANCH  17  20
ENDBRANCH   1  12
BRANCH   2  22
ATOM     22  O   UNL     1      -8.833  -3.623  -9.947  1.00  0.00    -0.502 OA
ATOM     23  H   UNL     1      -9.149  -4.378  -9.349  1.00  0.00     0.293 HD
ENDBRANCH   2  22
BRANCH   6  24
ATOM     24  O   UNL     1      -6.503   1.171  -9.899  1.00  0.00    -0.507 OA
ATOM     25  H   UNL     1      -6.864   1.557  -9.041  1.00  0.00     0.293 HD
ENDBRANCH   6  24
BRANCH   8  26
ATOM     26  O   UNL     1      -1.888  -0.140 -10.124  1.00  0.00    -0.508 OA
ATOM     27  H   UNL     1      -1.278  -0.205  -9.318  1.00  0.00     0.293 HD
ENDBRANCH   8  26
TORSDOF 6
ENDMDL
