MODEL 1
REMARK VINA RESULT:    -2.997      0.000      0.000
REMARK INTER + INTRA:         -12.884
REMARK INTER:                  -7.552
REMARK INTRA:                  -5.332
REMARK UNBOUND:                -5.332
REMARK SMILES CCCCCCCCCCCCCCCCCCCCCCCCCCCC(=O)[O-]
REMARK SMILES IDX 15 1 16 2 17 3 18 4 19 5 20 6 21 7 22 8 23 9 24 10 25 11
REMARK SMILES IDX 26 12 27 13 28 14 29 15 30 16 14 17 13 18 12 19 11 20 10 21
REMARK SMILES IDX 9 22 8 23 7 24 6 25 5 26 4 27 3 28 2 29 1 30
REMARK H PARENT
REMARK Flexibility Score: inf
ROOT
ATOM      1  C   UNL     1      64.510  35.401  61.747  1.00  0.00     0.000 C 
ENDROOT
BRANCH   1   2
ATOM      2  C   UNL     1      64.184  33.952  61.341  1.00  0.00     0.000 C 
BRANCH   2   3
ATOM      3  C   UNL     1      64.094  33.706  59.819  1.00  0.00     0.000 C 
BRANCH   3   4
ATOM      4  C   UNL     1      62.776  33.075  59.332  1.00  0.00     0.000 C 
BRANCH   4   5
ATOM      5  C   UNL     1      61.694  33.033  60.424  1.00  0.00     0.000 C 
BRANCH   5   6
ATOM      6  C   UNL     1      60.635  31.941  60.188  1.00  0.00     0.000 C 
BRANCH   6   7
ATOM      7  C   UNL     1      60.353  31.022  61.395  1.00  0.00     0.000 C 
BRANCH   7   8
ATOM      8  C   UNL     1      61.608  30.435  62.078  1.00  0.00     0.000 C 
BRANCH   8   9
ATOM      9  C   UNL     1      62.003  29.032  61.576  1.00  0.00     0.000 C 
BRANCH   9  10
ATOM     10  C   UNL     1      63.335  28.956  60.807  1.00  0.00     0.000 C 
BRANCH  10  11
ATOM     11  C   UNL     1      64.279  30.161  61.008  1.00  0.00     0.000 C 
BRANCH  11  12
ATOM     12  C   UNL     1      65.671  30.008  60.371  1.00  0.00     0.006 C 
BRANCH  12  13
ATOM     13  C   UNL     1      66.028  28.544  60.071  1.00  0.00     0.053 C 
BRANCH  13  14
ATOM     14  C   UNL     1      67.210  28.114  60.882  1.00  0.00     0.041 C 
ATOM     15  O   UNL     1      67.591  28.802  61.867  1.00  0.00    -0.550 OA
ATOM     16  O   UNL     1      67.897  26.951  60.549  1.00  0.00    -0.550 OA
ENDBRANCH  13  14
ENDBRANCH  12  13
ENDBRANCH  11  12
ENDBRANCH  10  11
ENDBRANCH   9  10
ENDBRANCH   8   9
ENDBRANCH   7   8
ENDBRANCH   6   7
ENDBRANCH   5   6
ENDBRANCH   4   5
ENDBRANCH   3   4
ENDBRANCH   2   3
ENDBRANCH   1   2
BRANCH   1  17
ATOM     17  C   UNL     1      63.891  36.436  60.797  1.00  0.00     0.000 C 
BRANCH  17  18
ATOM     18  C   UNL     1      62.649  37.087  61.417  1.00  0.00     0.000 C 
BRANCH  18  19
ATOM     19  C   UNL     1      61.366  36.541  60.772  1.00  0.00     0.000 C 
BRANCH  19  20
ATOM     20  C   UNL     1      61.422  36.529  59.234  1.00  0.00     0.000 C 
BRANCH  20  21
ATOM     21  C   UNL     1      60.067  36.728  58.524  1.00  0.00     0.000 C 
BRANCH  21  22
ATOM     22  C   UNL     1      59.210  35.457  58.378  1.00  0.00    -0.000 C 
BRANCH  22  23
ATOM     23  C   UNL     1      59.284  34.841  56.972  1.00  0.00    -0.000 C 
BRANCH  23  24
ATOM     24  C   UNL     1      60.152  33.577  56.977  1.00  0.00    -0.000 C 
BRANCH  24  25
ATOM     25  C   UNL     1      61.155  33.589  55.812  1.00  0.00    -0.000 C 
BRANCH  25  26
ATOM     26  C   UNL     1      62.019  32.311  55.776  1.00  0.00    -0.000 C 
BRANCH  26  27
ATOM     27  C   UNL     1      61.218  31.016  55.995  1.00  0.00    -0.000 C 
BRANCH  27  28
ATOM     28  C   UNL     1      61.731  30.187  57.183  1.00  0.00    -0.000 C 
BRANCH  28  29
ATOM     29  C   UNL     1      63.266  30.121  57.237  1.00  0.00    -0.003 C 
ATOM     30  C   UNL     1      63.805  28.702  57.052  1.00  0.00     0.004 C 
ENDBRANCH  28  29
ENDBRANCH  27  28
ENDBRANCH  26  27
ENDBRANCH  25  26
ENDBRANCH  24  25
ENDBRANCH  23  24
ENDBRANCH  22  23
ENDBRANCH  21  22
ENDBRANCH  20  21
ENDBRANCH  19  20
ENDBRANCH  18  19
ENDBRANCH  17  18
ENDBRANCH   1  17
TORSDOF 26
ENDMDL
MODEL 2
REMARK VINA RESULT:    -2.924      3.272      4.164
REMARK INTER + INTRA:         -12.701
REMARK INTER:                  -8.566
REMARK INTRA:                  -4.135
REMARK UNBOUND:                -5.332
REMARK SMILES CCCCCCCCCCCCCCCCCCCCCCCCCCCC(=O)[O-]
REMARK SMILES IDX 15 1 16 2 17 3 18 4 19 5 20 6 21 7 22 8 23 9 24 10 25 11
REMARK SMILES IDX 26 12 27 13 28 14 29 15 30 16 14 17 13 18 12 19 11 20 10 21
REMARK SMILES IDX 9 22 8 23 7 24 6 25 5 26 4 27 3 28 2 29 1 30
REMARK H PARENT
REMARK Flexibility Score: inf
ROOT
ATOM      1  C   UNL     1      64.054  34.886  61.396  1.00  0.00     0.000 C 
ENDROOT
BRANCH   1   2
ATOM      2  C   UNL     1      63.940  33.410  60.976  1.00  0.00     0.000 C 
BRANCH   2   3
ATOM      3  C   UNL     1      63.204  33.166  59.641  1.00  0.00     0.000 C 
BRANCH   3   4
ATOM      4  C   UNL     1      62.013  32.192  59.715  1.00  0.00     0.000 C 
BRANCH   4   5
ATOM      5  C   UNL     1      61.089  32.468  60.913  1.00  0.00     0.000 C 
BRANCH   5   6
ATOM      6  C   UNL     1      60.690  31.193  61.679  1.00  0.00     0.000 C 
BRANCH   6   7
ATOM      7  C   UNL     1      61.845  30.217  61.983  1.00  0.00     0.000 C 
BRANCH   7   8
ATOM      8  C   UNL     1      61.848  28.923  61.139  1.00  0.00     0.000 C 
BRANCH   8   9
ATOM      9  C   UNL     1      63.249  28.465  60.688  1.00  0.00     0.000 C 
BRANCH   9  10
ATOM     10  C   UNL     1      63.532  26.959  60.839  1.00  0.00     0.000 C 
BRANCH  10  11
ATOM     11  C   UNL     1      62.280  26.059  60.907  1.00  0.00     0.000 C 
BRANCH  11  12
ATOM     12  C   UNL     1      62.182  25.176  62.163  1.00  0.00     0.006 C 
BRANCH  12  13
ATOM     13  C   UNL     1      61.069  25.629  63.119  1.00  0.00     0.053 C 
BRANCH  13  14
ATOM     14  C   UNL     1      60.624  24.493  63.986  1.00  0.00     0.041 C 
ATOM     15  O   UNL     1      61.438  23.930  64.765  1.00  0.00    -0.550 OA
ATOM     16  O   UNL     1      59.306  24.052  63.932  1.00  0.00    -0.550 OA
ENDBRANCH  13  14
ENDBRANCH  12  13
ENDBRANCH  11  12
ENDBRANCH  10  11
ENDBRANCH   9  10
ENDBRANCH   8   9
ENDBRANCH   7   8
ENDBRANCH   6   7
ENDBRANCH   5   6
ENDBRANCH   4   5
ENDBRANCH   3   4
ENDBRANCH   2   3
ENDBRANCH   1   2
BRANCH   1  17
ATOM     17  C   UNL     1      63.354  35.837  60.414  1.00  0.00     0.000 C 
BRANCH  17  18
ATOM     18  C   UNL     1      62.181  36.564  61.085  1.00  0.00     0.000 C 
BRANCH  18  19
ATOM     19  C   UNL     1      60.840  35.951  60.654  1.00  0.00     0.000 C 
BRANCH  19  20
ATOM     20  C   UNL     1      60.124  36.771  59.565  1.00  0.00     0.000 C 
BRANCH  20  21
ATOM     21  C   UNL     1      59.214  35.958  58.622  1.00  0.00     0.000 C 
BRANCH  21  22
ATOM     22  C   UNL     1      59.798  34.618  58.141  1.00  0.00    -0.000 C 
BRANCH  22  23
ATOM     23  C   UNL     1      58.732  33.525  57.965  1.00  0.00    -0.000 C 
BRANCH  23  24
ATOM     24  C   UNL     1      59.297  32.336  57.177  1.00  0.00    -0.000 C 
BRANCH  24  25
ATOM     25  C   UNL     1      58.622  31.022  57.598  1.00  0.00    -0.000 C 
BRANCH  25  26
ATOM     26  C   UNL     1      59.566  30.118  58.418  1.00  0.00    -0.000 C 
BRANCH  26  27
ATOM     27  C   UNL     1      59.400  28.618  58.120  1.00  0.00    -0.000 C 
BRANCH  27  28
ATOM     28  C   UNL     1      58.259  27.971  58.919  1.00  0.00    -0.000 C 
BRANCH  28  29
ATOM     29  C   UNL     1      58.229  28.432  60.386  1.00  0.00    -0.003 C 
ATOM     30  C   UNL     1      58.342  27.269  61.374  1.00  0.00     0.004 C 
ENDBRANCH  28  29
ENDBRANCH  27  28
ENDBRANCH  26  27
ENDBRANCH  25  26
ENDBRANCH  24  25
ENDBRANCH  23  24
ENDBRANCH  22  23
ENDBRANCH  21  22
ENDBRANCH  20  21
ENDBRANCH  19  20
ENDBRANCH  18  19
ENDBRANCH  17  18
ENDBRANCH   1  17
TORSDOF 26
ENDMDL
MODEL 3
REMARK VINA RESULT:    -2.923      2.506      5.701
REMARK INTER + INTRA:         -12.698
REMARK INTER:                  -8.326
REMARK INTRA:                  -4.371
REMARK UNBOUND:                -5.332
REMARK SMILES CCCCCCCCCCCCCCCCCCCCCCCCCCCC(=O)[O-]
REMARK SMILES IDX 15 1 16 2 17 3 18 4 19 5 20 6 21 7 22 8 23 9 24 10 25 11
REMARK SMILES IDX 26 12 27 13 28 14 29 15 30 16 14 17 13 18 12 19 11 20 10 21
REMARK SMILES IDX 9 22 8 23 7 24 6 25 5 26 4 27 3 28 2 29 1 30
REMARK H PARENT
REMARK Flexibility Score: inf
ROOT
ATOM      1  C   UNL     1      61.889  30.278  62.081  1.00  0.00     0.000 C 
ENDROOT
BRANCH   1   2
ATOM      2  C   UNL     1      60.604  31.032  61.695  1.00  0.00     0.000 C 
BRANCH   2   3
ATOM      3  C   UNL     1      60.827  32.342  60.909  1.00  0.00     0.000 C 
BRANCH   3   4
ATOM      4  C   UNL     1      60.912  32.184  59.379  1.00  0.00     0.000 C 
BRANCH   4   5
ATOM      5  C   UNL     1      59.631  31.592  58.768  1.00  0.00     0.000 C 
BRANCH   5   6
ATOM      6  C   UNL     1      59.890  30.339  57.911  1.00  0.00     0.000 C 
BRANCH   6   7
ATOM      7  C   UNL     1      59.778  28.994  58.658  1.00  0.00     0.000 C 
BRANCH   7   8
ATOM      8  C   UNL     1      58.502  28.824  59.512  1.00  0.00     0.000 C 
BRANCH   8   9
ATOM      9  C   UNL     1      58.723  28.063  60.834  1.00  0.00     0.000 C 
BRANCH   9  10
ATOM     10  C   UNL     1      59.707  26.881  60.758  1.00  0.00     0.000 C 
BRANCH  10  11
ATOM     11  C   UNL     1      60.036  26.210  62.109  1.00  0.00     0.000 C 
BRANCH  11  12
ATOM     12  C   UNL     1      61.513  26.292  62.532  1.00  0.00     0.006 C 
BRANCH  12  13
ATOM     13  C   UNL     1      62.471  25.812  61.432  1.00  0.00     0.053 C 
BRANCH  13  14
ATOM     14  C   UNL     1      62.950  24.423  61.719  1.00  0.00     0.041 C 
ATOM     15  O   UNL     1      63.681  23.818  60.890  1.00  0.00    -0.550 OA
ATOM     16  O   UNL     1      62.587  23.792  62.904  1.00  0.00    -0.550 OA
ENDBRANCH  13  14
ENDBRANCH  12  13
ENDBRANCH  11  12
ENDBRANCH  10  11
ENDBRANCH   9  10
ENDBRANCH   8   9
ENDBRANCH   7   8
ENDBRANCH   6   7
ENDBRANCH   5   6
ENDBRANCH   4   5
ENDBRANCH   3   4
ENDBRANCH   2   3
ENDBRANCH   1   2
BRANCH   1  17
ATOM     17  C   UNL     1      62.466  29.456  60.920  1.00  0.00     0.000 C 
BRANCH  17  18
ATOM     18  C   UNL     1      63.985  29.637  60.810  1.00  0.00     0.000 C 
BRANCH  18  19
ATOM     19  C   UNL     1      64.375  31.110  61.005  1.00  0.00     0.000 C 
BRANCH  19  20
ATOM     20  C   UNL     1      64.660  31.840  59.680  1.00  0.00     0.000 C 
BRANCH  20  21
ATOM     21  C   UNL     1      64.449  33.368  59.712  1.00  0.00     0.000 C 
BRANCH  21  22
ATOM     22  C   UNL     1      63.994  33.939  61.066  1.00  0.00    -0.000 C 
BRANCH  22  23
ATOM     23  C   UNL     1      64.605  35.315  61.375  1.00  0.00    -0.000 C 
BRANCH  23  24
ATOM     24  C   UNL     1      63.518  36.397  61.410  1.00  0.00    -0.000 C 
BRANCH  24  25
ATOM     25  C   UNL     1      62.148  35.820  61.021  1.00  0.00    -0.000 C 
BRANCH  25  26
ATOM     26  C   UNL     1      61.442  36.672  59.944  1.00  0.00    -0.000 C 
BRANCH  26  27
ATOM     27  C   UNL     1      59.939  36.374  59.809  1.00  0.00    -0.000 C 
BRANCH  27  28
ATOM     28  C   UNL     1      59.607  35.511  58.582  1.00  0.00    -0.000 C 
BRANCH  28  29
ATOM     29  C   UNL     1      58.528  36.145  57.689  1.00  0.00    -0.003 C 
ATOM     30  C   UNL     1      58.444  35.493  56.308  1.00  0.00     0.004 C 
ENDBRANCH  28  29
ENDBRANCH  27  28
ENDBRANCH  26  27
ENDBRANCH  25  26
ENDBRANCH  24  25
ENDBRANCH  23  24
ENDBRANCH  22  23
ENDBRANCH  21  22
ENDBRANCH  20  21
ENDBRANCH  19  20
ENDBRANCH  18  19
ENDBRANCH  17  18
ENDBRANCH   1  17
TORSDOF 26
ENDMDL
MODEL 4
REMARK VINA RESULT:    -2.902      1.785      4.105
REMARK INTER + INTRA:         -12.646
REMARK INTER:                  -7.587
REMARK INTRA:                  -5.059
REMARK UNBOUND:                -5.332
REMARK SMILES CCCCCCCCCCCCCCCCCCCCCCCCCCCC(=O)[O-]
REMARK SMILES IDX 15 1 16 2 17 3 18 4 19 5 20 6 21 7 22 8 23 9 24 10 25 11
REMARK SMILES IDX 26 12 27 13 28 14 29 15 30 16 14 17 13 18 12 19 11 20 10 21
REMARK SMILES IDX 9 22 8 23 7 24 6 25 5 26 4 27 3 28 2 29 1 30
REMARK H PARENT
REMARK Flexibility Score: inf
ROOT
ATOM      1  C   UNL     1      63.870  35.316  61.392  1.00  0.00     0.000 C 
ENDROOT
BRANCH   1   2
ATOM      2  C   UNL     1      65.238  35.973  61.136  1.00  0.00     0.000 C 
BRANCH   2   3
ATOM      3  C   UNL     1      65.383  36.664  59.762  1.00  0.00     0.000 C 
BRANCH   3   4
ATOM      4  C   UNL     1      65.574  35.714  58.566  1.00  0.00     0.000 C 
BRANCH   4   5
ATOM      5  C   UNL     1      64.295  35.540  57.731  1.00  0.00     0.000 C 
BRANCH   5   6
ATOM      6  C   UNL     1      63.986  34.069  57.392  1.00  0.00     0.000 C 
BRANCH   6   7
ATOM      7  C   UNL     1      64.893  33.029  58.079  1.00  0.00     0.000 C 
BRANCH   7   8
ATOM      8  C   UNL     1      64.147  31.880  58.795  1.00  0.00     0.000 C 
BRANCH   8   9
ATOM      9  C   UNL     1      64.484  31.745  60.293  1.00  0.00     0.000 C 
BRANCH   9  10
ATOM     10  C   UNL     1      65.076  30.388  60.716  1.00  0.00     0.000 C 
BRANCH  10  11
ATOM     11  C   UNL     1      65.267  29.368  59.573  1.00  0.00     0.000 C 
BRANCH  11  12
ATOM     12  C   UNL     1      66.674  29.344  58.951  1.00  0.00     0.006 C 
BRANCH  12  13
ATOM     13  C   UNL     1      67.784  29.562  59.991  1.00  0.00     0.053 C 
BRANCH  13  14
ATOM     14  C   UNL     1      67.818  28.431  60.970  1.00  0.00     0.041 C 
ATOM     15  O   UNL     1      67.797  28.661  62.209  1.00  0.00    -0.550 OA
ATOM     16  O   UNL     1      67.875  27.118  60.515  1.00  0.00    -0.550 OA
ENDBRANCH  13  14
ENDBRANCH  12  13
ENDBRANCH  11  12
ENDBRANCH  10  11
ENDBRANCH   9  10
ENDBRANCH   8   9
ENDBRANCH   7   8
ENDBRANCH   6   7
ENDBRANCH   5   6
ENDBRANCH   4   5
ENDBRANCH   3   4
ENDBRANCH   2   3
ENDBRANCH   1   2
BRANCH   1  17
ATOM     17  C   UNL     1      62.694  36.237  61.036  1.00  0.00     0.000 C 
BRANCH  17  18
ATOM     18  C   UNL     1      61.573  35.461  60.333  1.00  0.00     0.000 C 
BRANCH  18  19
ATOM     19  C   UNL     1      61.646  33.965  60.675  1.00  0.00     0.000 C 
BRANCH  19  20
ATOM     20  C   UNL     1      60.798  33.089  59.735  1.00  0.00     0.000 C 
BRANCH  20  21
ATOM     21  C   UNL     1      60.671  31.609  60.152  1.00  0.00     0.000 C 
BRANCH  21  22
ATOM     22  C   UNL     1      60.753  31.346  61.667  1.00  0.00    -0.000 C 
BRANCH  22  23
ATOM     23  C   UNL     1      61.605  30.116  62.018  1.00  0.00    -0.000 C 
BRANCH  23  24
ATOM     24  C   UNL     1      61.515  29.058  60.911  1.00  0.00    -0.000 C 
BRANCH  24  25
ATOM     25  C   UNL     1      62.165  27.738  61.352  1.00  0.00    -0.000 C 
BRANCH  25  26
ATOM     26  C   UNL     1      62.837  26.998  60.175  1.00  0.00    -0.000 C 
BRANCH  26  27
ATOM     27  C   UNL     1      61.842  26.489  59.117  1.00  0.00    -0.000 C 
BRANCH  27  28
ATOM     28  C   UNL     1      62.291  26.791  57.679  1.00  0.00    -0.000 C 
BRANCH  28  29
ATOM     29  C   UNL     1      62.595  28.282  57.456  1.00  0.00    -0.003 C 
ATOM     30  C   UNL     1      61.331  29.122  57.265  1.00  0.00     0.004 C 
ENDBRANCH  28  29
ENDBRANCH  27  28
ENDBRANCH  26  27
ENDBRANCH  25  26
ENDBRANCH  24  25
ENDBRANCH  23  24
ENDBRANCH  22  23
ENDBRANCH  21  22
ENDBRANCH  20  21
ENDBRANCH  19  20
ENDBRANCH  18  19
ENDBRANCH  17  18
ENDBRANCH   1  17
TORSDOF 26
ENDMDL
MODEL 5
REMARK VINA RESULT:    -2.880      3.299      5.831
REMARK INTER + INTRA:         -12.589
REMARK INTER:                  -7.218
REMARK INTRA:                  -5.371
REMARK UNBOUND:                -5.332
REMARK SMILES CCCCCCCCCCCCCCCCCCCCCCCCCCCC(=O)[O-]
REMARK SMILES IDX 15 1 16 2 17 3 18 4 19 5 20 6 21 7 22 8 23 9 24 10 25 11
REMARK SMILES IDX 26 12 27 13 28 14 29 15 30 16 14 17 13 18 12 19 11 20 10 21
REMARK SMILES IDX 9 22 8 23 7 24 6 25 5 26 4 27 3 28 2 29 1 30
REMARK H PARENT
REMARK Flexibility Score: inf
ROOT
ATOM      1  C   UNL     1      63.118  31.824  57.758  1.00  0.00     0.000 C 
ENDROOT
BRANCH   1   2
ATOM      2  C   UNL     1      62.762  30.367  57.413  1.00  0.00     0.000 C 
BRANCH   2   3
ATOM      3  C   UNL     1      63.741  29.308  57.966  1.00  0.00     0.000 C 
BRANCH   3   4
ATOM      4  C   UNL     1      63.098  28.206  58.828  1.00  0.00     0.000 C 
BRANCH   4   5
ATOM      5  C   UNL     1      63.785  28.040  60.195  1.00  0.00     0.000 C 
BRANCH   5   6
ATOM      6  C   UNL     1      63.869  29.353  60.996  1.00  0.00     0.000 C 
BRANCH   6   7
ATOM      7  C   UNL     1      62.581  29.755  61.742  1.00  0.00     0.000 C 
BRANCH   7   8
ATOM      8  C   UNL     1      61.995  31.128  61.346  1.00  0.00     0.000 C 
BRANCH   8   9
ATOM      9  C   UNL     1      60.484  31.106  61.040  1.00  0.00     0.000 C 
BRANCH   9  10
ATOM     10  C   UNL     1      60.105  30.660  59.616  1.00  0.00     0.000 C 
BRANCH  10  11
ATOM     11  C   UNL     1      59.218  29.399  59.537  1.00  0.00     0.000 C 
BRANCH  11  12
ATOM     12  C   UNL     1      59.411  28.395  60.687  1.00  0.00     0.006 C 
BRANCH  12  13
ATOM     13  C   UNL     1      58.755  27.036  60.403  1.00  0.00     0.053 C 
BRANCH  13  14
ATOM     14  C   UNL     1      58.024  26.540  61.611  1.00  0.00     0.041 C 
ATOM     15  O   UNL     1      58.404  25.491  62.197  1.00  0.00    -0.550 OA
ATOM     16  O   UNL     1      56.919  27.235  62.090  1.00  0.00    -0.550 OA
ENDBRANCH  13  14
ENDBRANCH  12  13
ENDBRANCH  11  12
ENDBRANCH  10  11
ENDBRANCH   9  10
ENDBRANCH   8   9
ENDBRANCH   7   8
ENDBRANCH   6   7
ENDBRANCH   5   6
ENDBRANCH   4   5
ENDBRANCH   3   4
ENDBRANCH   2   3
ENDBRANCH   1   2
BRANCH   1  17
ATOM     17  C   UNL     1      64.408  31.940  58.583  1.00  0.00     0.000 C 
BRANCH  17  18
ATOM     18  C   UNL     1      64.747  33.406  58.881  1.00  0.00     0.000 C 
BRANCH  18  19
ATOM     19  C   UNL     1      64.506  34.285  57.645  1.00  0.00     0.000 C 
BRANCH  19  20
ATOM     20  C   UNL     1      64.248  35.762  57.995  1.00  0.00     0.000 C 
BRANCH  20  21
ATOM     21  C   UNL     1      63.507  36.575  56.913  1.00  0.00     0.000 C 
BRANCH  21  22
ATOM     22  C   UNL     1      62.041  36.915  57.237  1.00  0.00    -0.000 C 
BRANCH  22  23
ATOM     23  C   UNL     1      61.115  35.690  57.190  1.00  0.00    -0.000 C 
BRANCH  23  24
ATOM     24  C   UNL     1      60.333  35.548  58.502  1.00  0.00    -0.000 C 
BRANCH  24  25
ATOM     25  C   UNL     1      60.800  34.319  59.296  1.00  0.00    -0.000 C 
BRANCH  25  26
ATOM     26  C   UNL     1      61.623  34.710  60.542  1.00  0.00    -0.000 C 
BRANCH  26  27
ATOM     27  C   UNL     1      61.582  36.213  60.863  1.00  0.00    -0.000 C 
BRANCH  27  28
ATOM     28  C   UNL     1      62.924  36.753  61.382  1.00  0.00    -0.000 C 
BRANCH  28  29
ATOM     29  C   UNL     1      63.967  35.642  61.586  1.00  0.00    -0.003 C 
ATOM     30  C   UNL     1      65.403  36.171  61.579  1.00  0.00     0.004 C 
ENDBRANCH  28  29
ENDBRANCH  27  28
ENDBRANCH  26  27
ENDBRANCH  25  26
ENDBRANCH  24  25
ENDBRANCH  23  24
ENDBRANCH  22  23
ENDBRANCH  21  22
ENDBRANCH  20  21
ENDBRANCH  19  20
ENDBRANCH  18  19
ENDBRANCH  17  18
ENDBRANCH   1  17
TORSDOF 26
ENDMDL
MODEL 6
REMARK VINA RESULT:    -2.875      2.773      6.096
REMARK INTER + INTRA:         -12.578
REMARK INTER:                  -7.458
REMARK INTRA:                  -5.119
REMARK UNBOUND:                -5.332
REMARK SMILES CCCCCCCCCCCCCCCCCCCCCCCCCCCC(=O)[O-]
REMARK SMILES IDX 15 1 16 2 17 3 18 4 19 5 20 6 21 7 22 8 23 9 24 10 25 11
REMARK SMILES IDX 26 12 27 13 28 14 29 15 30 16 14 17 13 18 12 19 11 20 10 21
REMARK SMILES IDX 9 22 8 23 7 24 6 25 5 26 4 27 3 28 2 29 1 30
REMARK H PARENT
REMARK Flexibility Score: inf
ROOT
ATOM      1  C   UNL     1      61.129  35.438  60.634  1.00  0.00     0.000 C 
ENDROOT
BRANCH   1   2
ATOM      2  C   UNL     1      62.345  36.383  60.635  1.00  0.00     0.000 C 
BRANCH   2   3
ATOM      3  C   UNL     1      63.553  35.891  61.462  1.00  0.00     0.000 C 
BRANCH   3   4
ATOM      4  C   UNL     1      64.459  34.866  60.756  1.00  0.00     0.000 C 
BRANCH   4   5
ATOM      5  C   UNL     1      64.552  35.096  59.238  1.00  0.00     0.000 C 
BRANCH   5   6
ATOM      6  C   UNL     1      64.960  33.833  58.456  1.00  0.00     0.000 C 
BRANCH   6   7
ATOM      7  C   UNL     1      64.673  32.495  59.166  1.00  0.00     0.000 C 
BRANCH   7   8
ATOM      8  C   UNL     1      65.433  31.276  58.599  1.00  0.00     0.000 C 
BRANCH   8   9
ATOM      9  C   UNL     1      64.624  30.441  57.587  1.00  0.00     0.000 C 
BRANCH   9  10
ATOM     10  C   UNL     1      63.125  30.783  57.499  1.00  0.00     0.000 C 
BRANCH  10  11
ATOM     11  C   UNL     1      62.174  29.734  58.115  1.00  0.00     0.000 C 
BRANCH  11  12
ATOM     12  C   UNL     1      60.685  29.935  57.787  1.00  0.00     0.006 C 
BRANCH  12  13
ATOM     13  C   UNL     1      59.874  28.634  57.895  1.00  0.00     0.053 C 
BRANCH  13  14
ATOM     14  C   UNL     1      59.304  28.482  59.270  1.00  0.00     0.041 C 
ATOM     15  O   UNL     1      58.148  28.912  59.530  1.00  0.00    -0.550 OA
ATOM     16  O   UNL     1      60.049  27.865  60.269  1.00  0.00    -0.550 OA
ENDBRANCH  13  14
ENDBRANCH  12  13
ENDBRANCH  11  12
ENDBRANCH  10  11
ENDBRANCH   9  10
ENDBRANCH   8   9
ENDBRANCH   7   8
ENDBRANCH   6   7
ENDBRANCH   5   6
ENDBRANCH   4   5
ENDBRANCH   3   4
ENDBRANCH   2   3
ENDBRANCH   1   2
BRANCH   1  17
ATOM     17  C   UNL     1      60.837  34.850  59.246  1.00  0.00     0.000 C 
BRANCH  17  18
ATOM     18  C   UNL     1      60.953  33.321  59.254  1.00  0.00     0.000 C 
BRANCH  18  19
ATOM     19  C   UNL     1      61.370  32.812  60.642  1.00  0.00     0.000 C 
BRANCH  19  20
ATOM     20  C   UNL     1      60.615  31.541  61.072  1.00  0.00     0.000 C 
BRANCH  20  21
ATOM     21  C   UNL     1      61.400  30.591  61.999  1.00  0.00     0.000 C 
BRANCH  21  22
ATOM     22  C   UNL     1      62.884  30.402  61.640  1.00  0.00    -0.000 C 
BRANCH  22  23
ATOM     23  C   UNL     1      63.218  28.969  61.197  1.00  0.00    -0.000 C 
BRANCH  23  24
ATOM     24  C   UNL     1      64.732  28.792  61.023  1.00  0.00    -0.000 C 
BRANCH  24  25
ATOM     25  C   UNL     1      65.048  27.641  60.056  1.00  0.00    -0.000 C 
BRANCH  25  26
ATOM     26  C   UNL     1      66.555  27.306  60.022  1.00  0.00    -0.000 C 
BRANCH  26  27
ATOM     27  C   UNL     1      67.392  28.128  61.016  1.00  0.00    -0.000 C 
BRANCH  27  28
ATOM     28  C   UNL     1      68.754  28.552  60.445  1.00  0.00    -0.000 C 
BRANCH  28  29
ATOM     29  C   UNL     1      68.642  29.730  59.463  1.00  0.00    -0.003 C 
ATOM     30  C   UNL     1      68.876  29.314  58.010  1.00  0.00     0.004 C 
ENDBRANCH  28  29
ENDBRANCH  27  28
ENDBRANCH  26  27
ENDBRANCH  25  26
ENDBRANCH  24  25
ENDBRANCH  23  24
ENDBRANCH  22  23
ENDBRANCH  21  22
ENDBRANCH  20  21
ENDBRANCH  19  20
ENDBRANCH  18  19
ENDBRANCH  17  18
ENDBRANCH   1  17
TORSDOF 26
ENDMDL
MODEL 7
REMARK VINA RESULT:    -2.846      1.449      5.156
REMARK INTER + INTRA:         -12.504
REMARK INTER:                  -7.080
REMARK INTRA:                  -5.424
REMARK UNBOUND:                -5.332
REMARK SMILES CCCCCCCCCCCCCCCCCCCCCCCCCCCC(=O)[O-]
REMARK SMILES IDX 15 1 16 2 17 3 18 4 19 5 20 6 21 7 22 8 23 9 24 10 25 11
REMARK SMILES IDX 26 12 27 13 28 14 29 15 30 16 14 17 13 18 12 19 11 20 10 21
REMARK SMILES IDX 9 22 8 23 7 24 6 25 5 26 4 27 3 28 2 29 1 30
REMARK H PARENT
REMARK Flexibility Score: inf
ROOT
ATOM      1  C   UNL     1      61.965  33.084  60.678  1.00  0.00     0.000 C 
ENDROOT
BRANCH   1   2
ATOM      2  C   UNL     1      61.606  34.563  60.451  1.00  0.00     0.000 C 
BRANCH   2   3
ATOM      3  C   UNL     1      62.604  35.577  61.051  1.00  0.00     0.000 C 
BRANCH   3   4
ATOM      4  C   UNL     1      63.973  34.995  61.449  1.00  0.00     0.000 C 
BRANCH   4   5
ATOM      5  C   UNL     1      65.151  35.730  60.786  1.00  0.00     0.000 C 
BRANCH   5   6
ATOM      6  C   UNL     1      64.768  36.423  59.465  1.00  0.00     0.000 C 
BRANCH   6   7
ATOM      7  C   UNL     1      65.113  35.638  58.183  1.00  0.00     0.000 C 
BRANCH   7   8
ATOM      8  C   UNL     1      63.923  34.905  57.524  1.00  0.00     0.000 C 
BRANCH   8   9
ATOM      9  C   UNL     1      63.958  33.372  57.684  1.00  0.00     0.000 C 
BRANCH   9  10
ATOM     10  C   UNL     1      65.191  32.813  58.417  1.00  0.00     0.000 C 
BRANCH  10  11
ATOM     11  C   UNL     1      64.883  31.840  59.575  1.00  0.00     0.000 C 
BRANCH  11  12
ATOM     12  C   UNL     1      65.269  30.374  59.312  1.00  0.00     0.006 C 
BRANCH  12  13
ATOM     13  C   UNL     1      65.569  29.600  60.604  1.00  0.00     0.053 C 
BRANCH  13  14
ATOM     14  C   UNL     1      67.002  29.167  60.639  1.00  0.00     0.041 C 
ATOM     15  O   UNL     1      67.818  29.602  59.783  1.00  0.00    -0.550 OA
ATOM     16  O   UNL     1      67.437  28.279  61.617  1.00  0.00    -0.550 OA
ENDBRANCH  13  14
ENDBRANCH  12  13
ENDBRANCH  11  12
ENDBRANCH  10  11
ENDBRANCH   9  10
ENDBRANCH   8   9
ENDBRANCH   7   8
ENDBRANCH   6   7
ENDBRANCH   5   6
ENDBRANCH   4   5
ENDBRANCH   3   4
ENDBRANCH   2   3
ENDBRANCH   1   2
BRANCH   1  17
ATOM     17  C   UNL     1      60.727  32.177  60.738  1.00  0.00     0.000 C 
BRANCH  17  18
ATOM     18  C   UNL     1      60.878  31.103  61.824  1.00  0.00     0.000 C 
BRANCH  18  19
ATOM     19  C   UNL     1      62.165  30.292  61.616  1.00  0.00     0.000 C 
BRANCH  19  20
ATOM     20  C   UNL     1      61.955  28.775  61.772  1.00  0.00     0.000 C 
BRANCH  20  21
ATOM     21  C   UNL     1      61.916  27.977  60.452  1.00  0.00     0.000 C 
BRANCH  21  22
ATOM     22  C   UNL     1      61.798  28.827  59.175  1.00  0.00    -0.000 C 
BRANCH  22  23
ATOM     23  C   UNL     1      62.592  28.250  57.993  1.00  0.00    -0.000 C 
BRANCH  23  24
ATOM     24  C   UNL     1      62.133  28.879  56.671  1.00  0.00    -0.000 C 
BRANCH  24  25
ATOM     25  C   UNL     1      62.388  30.394  56.660  1.00  0.00    -0.000 C 
BRANCH  25  26
ATOM     26  C   UNL     1      61.185  31.183  56.099  1.00  0.00    -0.000 C 
BRANCH  26  27
ATOM     27  C   UNL     1      60.363  31.906  57.179  1.00  0.00    -0.000 C 
BRANCH  27  28
ATOM     28  C   UNL     1      60.239  33.417  56.926  1.00  0.00    -0.000 C 
BRANCH  28  29
ATOM     29  C   UNL     1      59.112  34.062  57.750  1.00  0.00    -0.003 C 
ATOM     30  C   UNL     1      59.249  35.582  57.851  1.00  0.00     0.004 C 
ENDBRANCH  28  29
ENDBRANCH  27  28
ENDBRANCH  26  27
ENDBRANCH  25  26
ENDBRANCH  24  25
ENDBRANCH  23  24
ENDBRANCH  22  23
ENDBRANCH  21  22
ENDBRANCH  20  21
ENDBRANCH  19  20
ENDBRANCH  18  19
ENDBRANCH  17  18
ENDBRANCH   1  17
TORSDOF 26
ENDMDL
MODEL 8
REMARK VINA RESULT:    -2.843      3.510      6.853
REMARK INTER + INTRA:         -12.496
REMARK INTER:                  -6.619
REMARK INTRA:                  -5.878
REMARK UNBOUND:                -5.332
REMARK SMILES CCCCCCCCCCCCCCCCCCCCCCCCCCCC(=O)[O-]
REMARK SMILES IDX 15 1 16 2 17 3 18 4 19 5 20 6 21 7 22 8 23 9 24 10 25 11
REMARK SMILES IDX 26 12 27 13 28 14 29 15 30 16 14 17 13 18 12 19 11 20 10 21
REMARK SMILES IDX 9 22 8 23 7 24 6 25 5 26 4 27 3 28 2 29 1 30
REMARK H PARENT
REMARK Flexibility Score: inf
ROOT
ATOM      1  C   UNL     1      64.398  32.822  60.166  1.00  0.00     0.000 C 
ENDROOT
BRANCH   1   2
ATOM      2  C   UNL     1      64.372  34.360  60.221  1.00  0.00     0.000 C 
BRANCH   2   3
ATOM      3  C   UNL     1      63.392  34.959  61.254  1.00  0.00     0.000 C 
BRANCH   3   4
ATOM      4  C   UNL     1      63.228  36.489  61.193  1.00  0.00     0.000 C 
BRANCH   4   5
ATOM      5  C   UNL     1      61.776  36.924  60.931  1.00  0.00     0.000 C 
BRANCH   5   6
ATOM      6  C   UNL     1      60.863  35.763  60.494  1.00  0.00     0.000 C 
BRANCH   6   7
ATOM      7  C   UNL     1      60.014  36.029  59.234  1.00  0.00     0.000 C 
BRANCH   7   8
ATOM      8  C   UNL     1      60.820  36.261  57.937  1.00  0.00     0.000 C 
BRANCH   8   9
ATOM      9  C   UNL     1      61.926  35.216  57.686  1.00  0.00     0.000 C 
BRANCH   9  10
ATOM     10  C   UNL     1      61.561  34.095  56.695  1.00  0.00     0.000 C 
BRANCH  10  11
ATOM     11  C   UNL     1      61.238  34.565  55.260  1.00  0.00     0.000 C 
BRANCH  11  12
ATOM     12  C   UNL     1      59.913  34.035  54.687  1.00  0.00     0.006 C 
BRANCH  12  13
ATOM     13  C   UNL     1      58.702  34.877  55.119  1.00  0.00     0.053 C 
BRANCH  13  14
ATOM     14  C   UNL     1      57.792  34.078  55.998  1.00  0.00     0.041 C 
ATOM     15  O   UNL     1      57.837  34.213  57.250  1.00  0.00    -0.550 OA
ATOM     16  O   UNL     1      56.892  33.179  55.435  1.00  0.00    -0.550 OA
ENDBRANCH  13  14
ENDBRANCH  12  13
ENDBRANCH  11  12
ENDBRANCH  10  11
ENDBRANCH   9  10
ENDBRANCH   8   9
ENDBRANCH   7   8
ENDBRANCH   6   7
ENDBRANCH   5   6
ENDBRANCH   4   5
ENDBRANCH   3   4
ENDBRANCH   2   3
ENDBRANCH   1   2
BRANCH   1  17
ATOM     17  C   UNL     1      64.612  32.283  58.745  1.00  0.00     0.000 C 
BRANCH  17  18
ATOM     18  C   UNL     1      64.371  30.769  58.681  1.00  0.00     0.000 C 
BRANCH  18  19
ATOM     19  C   UNL     1      64.606  30.121  60.054  1.00  0.00     0.000 C 
BRANCH  19  20
ATOM     20  C   UNL     1      63.844  28.796  60.233  1.00  0.00     0.000 C 
BRANCH  20  21
ATOM     21  C   UNL     1      62.648  28.851  61.207  1.00  0.00     0.000 C 
BRANCH  21  22
ATOM     22  C   UNL     1      62.350  30.239  61.801  1.00  0.00    -0.000 C 
BRANCH  22  23
ATOM     23  C   UNL     1      60.893  30.681  61.597  1.00  0.00    -0.000 C 
BRANCH  23  24
ATOM     24  C   UNL     1      60.828  32.127  61.091  1.00  0.00    -0.000 C 
BRANCH  24  25
ATOM     25  C   UNL     1      60.945  32.185  59.560  1.00  0.00    -0.000 C 
BRANCH  25  26
ATOM     26  C   UNL     1      59.643  31.742  58.860  1.00  0.00    -0.000 C 
BRANCH  26  27
ATOM     27  C   UNL     1      59.876  30.838  57.638  1.00  0.00    -0.000 C 
BRANCH  27  28
ATOM     28  C   UNL     1      60.908  29.730  57.900  1.00  0.00    -0.000 C 
BRANCH  28  29
ATOM     29  C   UNL     1      61.613  29.264  56.615  1.00  0.00    -0.003 C 
ATOM     30  C   UNL     1      62.075  30.429  55.738  1.00  0.00     0.004 C 
ENDBRANCH  28  29
ENDBRANCH  27  28
ENDBRANCH  26  27
ENDBRANCH  25  26
ENDBRANCH  24  25
ENDBRANCH  23  24
ENDBRANCH  22  23
ENDBRANCH  21  22
ENDBRANCH  20  21
ENDBRANCH  19  20
ENDBRANCH  18  19
ENDBRANCH  17  18
ENDBRANCH   1  17
TORSDOF 26
ENDMDL
MODEL 9
REMARK VINA RESULT:    -2.839      3.456      4.993
REMARK INTER + INTRA:         -12.488
REMARK INTER:                  -7.317
REMARK INTRA:                  -5.170
REMARK UNBOUND:                -5.332
REMARK SMILES CCCCCCCCCCCCCCCCCCCCCCCCCCCC(=O)[O-]
REMARK SMILES IDX 15 1 16 2 17 3 18 4 19 5 20 6 21 7 22 8 23 9 24 10 25 11
REMARK SMILES IDX 26 12 27 13 28 14 29 15 30 16 14 17 13 18 12 19 11 20 10 21
REMARK SMILES IDX 9 22 8 23 7 24 6 25 5 26 4 27 3 28 2 29 1 30
REMARK H PARENT
REMARK Flexibility Score: inf
ROOT
ATOM      1  C   UNL     1      63.265  36.026  61.293  1.00  0.00     0.000 C 
ENDROOT
BRANCH   1   2
ATOM      2  C   UNL     1      63.331  34.563  60.818  1.00  0.00     0.000 C 
BRANCH   2   3
ATOM      3  C   UNL     1      64.094  34.340  59.494  1.00  0.00     0.000 C 
BRANCH   3   4
ATOM      4  C   UNL     1      64.523  32.887  59.218  1.00  0.00     0.000 C 
BRANCH   4   5
ATOM      5  C   UNL     1      64.551  32.022  60.489  1.00  0.00     0.000 C 
BRANCH   5   6
ATOM      6  C   UNL     1      64.698  30.517  60.195  1.00  0.00     0.000 C 
BRANCH   6   7
ATOM      7  C   UNL     1      64.116  29.575  61.269  1.00  0.00     0.000 C 
BRANCH   7   8
ATOM      8  C   UNL     1      63.510  28.261  60.729  1.00  0.00     0.000 C 
BRANCH   8   9
ATOM      9  C   UNL     1      62.141  27.899  61.339  1.00  0.00     0.000 C 
BRANCH   9  10
ATOM     10  C   UNL     1      61.059  27.477  60.328  1.00  0.00     0.000 C 
BRANCH  10  11
ATOM     11  C   UNL     1      59.647  27.280  60.920  1.00  0.00     0.000 C 
BRANCH  11  12
ATOM     12  C   UNL     1      58.687  28.465  60.721  1.00  0.00     0.006 C 
BRANCH  12  13
ATOM     13  C   UNL     1      57.249  28.018  60.420  1.00  0.00     0.053 C 
BRANCH  13  14
ATOM     14  C   UNL     1      56.597  27.477  61.654  1.00  0.00     0.041 C 
ATOM     15  O   UNL     1      56.303  28.246  62.608  1.00  0.00    -0.550 OA
ATOM     16  O   UNL     1      56.315  26.118  61.753  1.00  0.00    -0.550 OA
ENDBRANCH  13  14
ENDBRANCH  12  13
ENDBRANCH  11  12
ENDBRANCH  10  11
ENDBRANCH   9  10
ENDBRANCH   8   9
ENDBRANCH   7   8
ENDBRANCH   6   7
ENDBRANCH   5   6
ENDBRANCH   4   5
ENDBRANCH   3   4
ENDBRANCH   2   3
ENDBRANCH   1   2
BRANCH   1  17
ATOM     17  C   UNL     1      61.888  36.663  61.061  1.00  0.00     0.000 C 
BRANCH  17  18
ATOM     18  C   UNL     1      60.856  35.614  60.628  1.00  0.00     0.000 C 
BRANCH  18  19
ATOM     19  C   UNL     1      60.318  35.924  59.223  1.00  0.00     0.000 C 
BRANCH  19  20
ATOM     20  C   UNL     1      60.576  34.790  58.214  1.00  0.00     0.000 C 
BRANCH  20  21
ATOM     21  C   UNL     1      59.311  34.105  57.656  1.00  0.00     0.000 C 
BRANCH  21  22
ATOM     22  C   UNL     1      59.461  33.496  56.251  1.00  0.00    -0.000 C 
BRANCH  22  23
ATOM     23  C   UNL     1      60.925  33.368  55.804  1.00  0.00    -0.000 C 
BRANCH  23  24
ATOM     24  C   UNL     1      61.316  31.894  55.635  1.00  0.00    -0.000 C 
BRANCH  24  25
ATOM     25  C   UNL     1      62.311  31.456  56.721  1.00  0.00    -0.000 C 
BRANCH  25  26
ATOM     26  C   UNL     1      61.799  30.242  57.525  1.00  0.00    -0.000 C 
BRANCH  26  27
ATOM     27  C   UNL     1      60.765  30.607  58.604  1.00  0.00    -0.000 C 
BRANCH  27  28
ATOM     28  C   UNL     1      61.280  31.663  59.594  1.00  0.00    -0.000 C 
BRANCH  28  29
ATOM     29  C   UNL     1      60.348  31.843  60.803  1.00  0.00    -0.003 C 
ATOM     30  C   UNL     1      60.874  31.156  62.064  1.00  0.00     0.004 C 
ENDBRANCH  28  29
ENDBRANCH  27  28
ENDBRANCH  26  27
ENDBRANCH  25  26
ENDBRANCH  24  25
ENDBRANCH  23  24
ENDBRANCH  22  23
ENDBRANCH  21  22
ENDBRANCH  20  21
ENDBRANCH  19  20
ENDBRANCH  18  19
ENDBRANCH  17  18
ENDBRANCH   1  17
TORSDOF 26
ENDMDL
