MODEL 1
REMARK VINA RESULT:    -2.548      0.000      0.000
REMARK INTER + INTRA:          -5.837
REMARK INTER:                  -4.633
REMARK INTRA:                  -1.204
REMARK UNBOUND:                -1.204
REMARK SMILES CCCCCCCCCCCCCCCC(=O)[O-]
REMARK SMILES IDX 9 1 10 2 11 3 12 4 13 5 14 6 15 7 16 8 17 9 18 10 8 11 7 12
REMARK SMILES IDX 6 13 5 14 4 15 3 16 2 17 1 18
REMARK H PARENT
REMARK Flexibility Score: inf
ROOT
ATOM      1  C   UNL     1      37.582  22.892  12.691  1.00  0.00     0.000 C 
ENDROOT
BRANCH   1   2
ATOM      2  C   UNL     1      38.077  22.816  14.145  1.00  0.00     0.000 C 
BRANCH   2   3
ATOM      3  C   UNL     1      37.632  21.524  14.852  1.00  0.00     0.000 C 
BRANCH   3   4
ATOM      4  C   UNL     1      36.593  21.786  15.957  1.00  0.00     0.000 C 
BRANCH   4   5
ATOM      5  C   UNL     1      35.200  21.249  15.594  1.00  0.00     0.000 C 
BRANCH   5   6
ATOM      6  C   UNL     1      34.995  19.786  16.028  1.00  0.00     0.006 C 
BRANCH   6   7
ATOM      7  C   UNL     1      33.512  19.445  16.231  1.00  0.00     0.053 C 
BRANCH   7   8
ATOM      8  C   UNL     1      33.150  18.144  15.584  1.00  0.00     0.041 C 
ATOM      9  O   UNL     1      33.063  18.061  14.331  1.00  0.00    -0.550 OA
ATOM     10  O   UNL     1      32.876  17.031  16.368  1.00  0.00    -0.550 OA
ENDBRANCH   7   8
ENDBRANCH   6   7
ENDBRANCH   5   6
ENDBRANCH   4   5
ENDBRANCH   3   4
ENDBRANCH   2   3
ENDBRANCH   1   2
BRANCH   1  11
ATOM     11  C   UNL     1      36.064  23.120  12.594  1.00  0.00     0.000 C 
BRANCH  11  12
ATOM     12  C   UNL     1      35.257  21.819  12.383  1.00  0.00    -0.000 C 
BRANCH  12  13
ATOM     13  C   UNL     1      33.873  22.058  11.755  1.00  0.00    -0.000 C 
BRANCH  13  14
ATOM     14  C   UNL     1      33.922  23.096  10.618  1.00  0.00    -0.000 C 
BRANCH  14  15
ATOM     15  C   UNL     1      33.639  22.465   9.243  1.00  0.00    -0.000 C 
BRANCH  15  16
ATOM     16  C   UNL     1      34.825  22.584   8.260  1.00  0.00    -0.000 C 
BRANCH  16  17
ATOM     17  C   UNL     1      36.198  22.572   8.953  1.00  0.00    -0.003 C 
ATOM     18  C   UNL     1      36.712  21.161   9.229  1.00  0.00     0.004 C 
ENDBRANCH  16  17
ENDBRANCH  15  16
ENDBRANCH  14  15
ENDBRANCH  13  14
ENDBRANCH  12  13
ENDBRANCH  11  12
ENDBRANCH   1  11
TORSDOF 14
ENDMDL
MODEL 2
REMARK VINA RESULT:    -2.384     14.492     16.870
REMARK INTER + INTRA:          -5.538
REMARK INTER:                  -4.645
REMARK INTRA:                  -0.893
REMARK UNBOUND:                -1.204
REMARK SMILES CCCCCCCCCCCCCCCC(=O)[O-]
REMARK SMILES IDX 9 1 10 2 11 3 12 4 13 5 14 6 15 7 16 8 17 9 18 10 8 11 7 12
REMARK SMILES IDX 6 13 5 14 4 15 3 16 2 17 1 18
REMARK H PARENT
REMARK Flexibility Score: inf
ROOT
ATOM      1  C   UNL     1      52.011  22.101  18.003  1.00  0.00     0.000 C 
ENDROOT
BRANCH   1   2
ATOM      2  C   UNL     1      53.125  21.569  18.919  1.00  0.00     0.000 C 
BRANCH   2   3
ATOM      3  C   UNL     1      52.957  22.026  20.379  1.00  0.00     0.000 C 
BRANCH   3   4
ATOM      4  C   UNL     1      52.816  20.843  21.353  1.00  0.00     0.000 C 
BRANCH   4   5
ATOM      5  C   UNL     1      52.161  21.249  22.682  1.00  0.00     0.000 C 
BRANCH   5   6
ATOM      6  C   UNL     1      51.941  22.768  22.797  1.00  0.00     0.006 C 
BRANCH   6   7
ATOM      7  C   UNL     1      50.465  23.125  23.013  1.00  0.00     0.053 C 
BRANCH   7   8
ATOM      8  C   UNL     1      49.574  22.402  22.050  1.00  0.00     0.041 C 
ATOM      9  O   UNL     1      49.335  22.893  20.916  1.00  0.00    -0.550 OA
ATOM     10  O   UNL     1      48.980  21.202  22.419  1.00  0.00    -0.550 OA
ENDBRANCH   7   8
ENDBRANCH   6   7
ENDBRANCH   5   6
ENDBRANCH   4   5
ENDBRANCH   3   4
ENDBRANCH   2   3
ENDBRANCH   1   2
BRANCH   1  11
ATOM     11  C   UNL     1      52.429  22.139  16.523  1.00  0.00     0.000 C 
BRANCH  11  12
ATOM     12  C   UNL     1      52.338  20.765  15.821  1.00  0.00    -0.000 C 
BRANCH  12  13
ATOM     13  C   UNL     1      51.778  20.850  14.390  1.00  0.00    -0.000 C 
BRANCH  13  14
ATOM     14  C   UNL     1      50.374  21.480  14.352  1.00  0.00    -0.000 C 
BRANCH  14  15
ATOM     15  C   UNL     1      49.438  20.877  15.414  1.00  0.00    -0.000 C 
BRANCH  15  16
ATOM     16  C   UNL     1      48.593  21.937  16.157  1.00  0.00    -0.000 C 
BRANCH  16  17
ATOM     17  C   UNL     1      47.182  21.448  16.525  1.00  0.00    -0.003 C 
ATOM     18  C   UNL     1      46.187  22.591  16.710  1.00  0.00     0.004 C 
ENDBRANCH  16  17
ENDBRANCH  15  16
ENDBRANCH  14  15
ENDBRANCH  13  14
ENDBRANCH  12  13
ENDBRANCH  11  12
ENDBRANCH   1  11
TORSDOF 14
ENDMDL
MODEL 3
REMARK VINA RESULT:    -1.901     13.282     16.388
REMARK INTER + INTRA:          -4.661
REMARK INTER:                  -3.598
REMARK INTRA:                  -1.063
REMARK UNBOUND:                -1.204
REMARK SMILES CCCCCCCCCCCCCCCC(=O)[O-]
REMARK SMILES IDX 9 1 10 2 11 3 12 4 13 5 14 6 15 7 16 8 17 9 18 10 8 11 7 12
REMARK SMILES IDX 6 13 5 14 4 15 3 16 2 17 1 18
REMARK H PARENT
REMARK Flexibility Score: inf
ROOT
ATOM      1  C   UNL     1      51.511  20.386  15.512  1.00  0.00     0.000 C 
ENDROOT
BRANCH   1   2
ATOM      2  C   UNL     1      50.624  21.196  14.553  1.00  0.00     0.000 C 
BRANCH   2   3
ATOM      3  C   UNL     1      49.570  22.037  15.293  1.00  0.00     0.000 C 
BRANCH   3   4
ATOM      4  C   UNL     1      49.652  21.871  16.821  1.00  0.00     0.000 C 
BRANCH   4   5
ATOM      5  C   UNL     1      48.847  22.942  17.574  1.00  0.00     0.000 C 
BRANCH   5   6
ATOM      6  C   UNL     1      47.399  22.505  17.860  1.00  0.00     0.006 C 
BRANCH   6   7
ATOM      7  C   UNL     1      46.473  22.746  16.660  1.00  0.00     0.053 C 
BRANCH   7   8
ATOM      8  C   UNL     1      45.813  21.481  16.207  1.00  0.00     0.041 C 
ATOM      9  O   UNL     1      44.602  21.266  16.475  1.00  0.00    -0.550 OA
ATOM     10  O   UNL     1      46.545  20.522  15.518  1.00  0.00    -0.550 OA
ENDBRANCH   7   8
ENDBRANCH   6   7
ENDBRANCH   5   6
ENDBRANCH   4   5
ENDBRANCH   3   4
ENDBRANCH   2   3
ENDBRANCH   1   2
BRANCH   1  11
ATOM     11  C   UNL     1      52.889  21.033  15.733  1.00  0.00     0.000 C 
BRANCH  11  12
ATOM     12  C   UNL     1      52.842  22.576  15.806  1.00  0.00    -0.000 C 
BRANCH  12  13
ATOM     13  C   UNL     1      53.097  23.125  17.221  1.00  0.00    -0.000 C 
BRANCH  13  14
ATOM     14  C   UNL     1      52.920  22.045  18.304  1.00  0.00    -0.000 C 
BRANCH  14  15
ATOM     15  C   UNL     1      52.187  22.581  19.546  1.00  0.00    -0.000 C 
BRANCH  15  16
ATOM     16  C   UNL     1      52.419  21.724  20.810  1.00  0.00    -0.000 C 
BRANCH  16  17
ATOM     17  C   UNL     1      51.205  20.863  21.197  1.00  0.00    -0.003 C 
ATOM     18  C   UNL     1      50.382  21.472  22.331  1.00  0.00     0.004 C 
ENDBRANCH  16  17
ENDBRANCH  15  16
ENDBRANCH  14  15
ENDBRANCH  13  14
ENDBRANCH  12  13
ENDBRANCH  11  12
ENDBRANCH   1  11
TORSDOF 14
ENDMDL
MODEL 4
REMARK VINA RESULT:    -1.724     14.467     16.888
REMARK INTER + INTRA:          -4.339
REMARK INTER:                  -3.665
REMARK INTRA:                  -0.674
REMARK UNBOUND:                -1.204
REMARK SMILES CCCCCCCCCCCCCCCC(=O)[O-]
REMARK SMILES IDX 9 1 10 2 11 3 12 4 13 5 14 6 15 7 16 8 17 9 18 10 8 11 7 12
REMARK SMILES IDX 6 13 5 14 4 15 3 16 2 17 1 18
REMARK H PARENT
REMARK Flexibility Score: inf
ROOT
ATOM      1  C   UNL     1      52.320  21.449  19.584  1.00  0.00     0.000 C 
ENDROOT
BRANCH   1   2
ATOM      2  C   UNL     1      53.099  21.868  20.842  1.00  0.00     0.000 C 
BRANCH   2   3
ATOM      3  C   UNL     1      52.441  23.047  21.578  1.00  0.00     0.000 C 
BRANCH   3   4
ATOM      4  C   UNL     1      51.845  22.634  22.936  1.00  0.00     0.000 C 
BRANCH   4   5
ATOM      5  C   UNL     1      50.318  22.476  22.885  1.00  0.00     0.000 C 
BRANCH   5   6
ATOM      6  C   UNL     1      49.696  23.108  21.627  1.00  0.00     0.006 C 
BRANCH   6   7
ATOM      7  C   UNL     1      49.382  22.062  20.549  1.00  0.00     0.053 C 
BRANCH   7   8
ATOM      8  C   UNL     1      48.757  22.685  19.339  1.00  0.00     0.041 C 
ATOM      9  O   UNL     1      49.479  23.125  18.407  1.00  0.00    -0.550 OA
ATOM     10  O   UNL     1      47.376  22.809  19.257  1.00  0.00    -0.550 OA
ENDBRANCH   7   8
ENDBRANCH   6   7
ENDBRANCH   5   6
ENDBRANCH   4   5
ENDBRANCH   3   4
ENDBRANCH   2   3
ENDBRANCH   1   2
BRANCH   1  11
ATOM     11  C   UNL     1      52.653  22.324  18.363  1.00  0.00     0.000 C 
BRANCH  11  12
ATOM     12  C   UNL     1      53.113  21.513  17.130  1.00  0.00    -0.000 C 
BRANCH  12  13
ATOM     13  C   UNL     1      52.811  22.216  15.795  1.00  0.00    -0.000 C 
BRANCH  13  14
ATOM     14  C   UNL     1      52.559  21.212  14.654  1.00  0.00    -0.000 C 
BRANCH  14  15
ATOM     15  C   UNL     1      51.218  20.474  14.815  1.00  0.00    -0.000 C 
BRANCH  15  16
ATOM     16  C   UNL     1      50.137  21.319  15.525  1.00  0.00    -0.000 C 
BRANCH  16  17
ATOM     17  C   UNL     1      48.722  21.098  14.962  1.00  0.00    -0.003 C 
ATOM     18  C   UNL     1      47.626  21.348  15.997  1.00  0.00     0.004 C 
ENDBRANCH  16  17
ENDBRANCH  15  16
ENDBRANCH  14  15
ENDBRANCH  13  14
ENDBRANCH  12  13
ENDBRANCH  11  12
ENDBRANCH   1  11
TORSDOF 14
ENDMDL
MODEL 5
REMARK VINA RESULT:    -1.053     14.477     17.629
REMARK INTER + INTRA:          -3.118
REMARK INTER:                  -2.364
REMARK INTRA:                  -0.754
REMARK UNBOUND:                -1.204
REMARK SMILES CCCCCCCCCCCCCCCC(=O)[O-]
REMARK SMILES IDX 9 1 10 2 11 3 12 4 13 5 14 6 15 7 16 8 17 9 18 10 8 11 7 12
REMARK SMILES IDX 6 13 5 14 4 15 3 16 2 17 1 18
REMARK H PARENT
REMARK Flexibility Score: inf
ROOT
ATOM      1  C   UNL     1      52.857  20.689  20.057  1.00  0.00     0.000 C 
ENDROOT
BRANCH   1   2
ATOM      2  C   UNL     1      52.651  22.163  19.671  1.00  0.00     0.000 C 
BRANCH   2   3
ATOM      3  C   UNL     1      52.957  22.432  18.187  1.00  0.00     0.000 C 
BRANCH   3   4
ATOM      4  C   UNL     1      51.696  22.789  17.382  1.00  0.00     0.000 C 
BRANCH   4   5
ATOM      5  C   UNL     1      51.667  22.113  16.002  1.00  0.00     0.000 C 
BRANCH   5   6
ATOM      6  C   UNL     1      50.247  21.712  15.566  1.00  0.00     0.006 C 
BRANCH   6   7
ATOM      7  C   UNL     1      49.228  21.860  16.704  1.00  0.00     0.053 C 
BRANCH   7   8
ATOM      8  C   UNL     1      47.828  21.958  16.184  1.00  0.00     0.041 C 
ATOM      9  O   UNL     1      47.212  23.055  16.222  1.00  0.00    -0.550 OA
ATOM     10  O   UNL     1      47.189  20.828  15.688  1.00  0.00    -0.550 OA
ENDBRANCH   7   8
ENDBRANCH   6   7
ENDBRANCH   5   6
ENDBRANCH   4   5
ENDBRANCH   3   4
ENDBRANCH   2   3
ENDBRANCH   1   2
BRANCH   1  11
ATOM     11  C   UNL     1      52.636  20.433  21.557  1.00  0.00     0.000 C 
BRANCH  11  12
ATOM     12  C   UNL     1      53.125  21.589  22.460  1.00  0.00    -0.000 C 
BRANCH  12  13
ATOM     13  C   UNL     1      52.333  22.893  22.259  1.00  0.00    -0.000 C 
BRANCH  13  14
ATOM     14  C   UNL     1      51.301  23.124  23.378  1.00  0.00    -0.000 C 
BRANCH  14  15
ATOM     15  C   UNL     1      49.854  23.045  22.860  1.00  0.00    -0.000 C 
BRANCH  15  16
ATOM     16  C   UNL     1      49.478  21.652  22.307  1.00  0.00    -0.000 C 
BRANCH  16  17
ATOM     17  C   UNL     1      48.754  21.707  20.951  1.00  0.00    -0.003 C 
ATOM     18  C   UNL     1      49.160  22.915  20.110  1.00  0.00     0.004 C 
ENDBRANCH  16  17
ENDBRANCH  15  16
ENDBRANCH  14  15
ENDBRANCH  13  14
ENDBRANCH  12  13
ENDBRANCH  11  12
ENDBRANCH   1  11
TORSDOF 14
ENDMDL
MODEL 6
REMARK VINA RESULT:    -0.135     13.775     16.179
REMARK INTER + INTRA:          -1.448
REMARK INTER:                  -1.768
REMARK INTRA:                   0.320
REMARK UNBOUND:                -1.204
REMARK SMILES CCCCCCCCCCCCCCCC(=O)[O-]
REMARK SMILES IDX 9 1 10 2 11 3 12 4 13 5 14 6 15 7 16 8 17 9 18 10 8 11 7 12
REMARK SMILES IDX 6 13 5 14 4 15 3 16 2 17 1 18
REMARK H PARENT
REMARK Flexibility Score: inf
ROOT
ATOM      1  C   UNL     1      51.792  21.710  19.878  1.00  0.00     0.000 C 
ENDROOT
BRANCH   1   2
ATOM      2  C   UNL     1      53.106  21.851  20.663  1.00  0.00     0.000 C 
BRANCH   2   3
ATOM      3  C   UNL     1      53.117  23.088  21.577  1.00  0.00     0.000 C 
BRANCH   3   4
ATOM      4  C   UNL     1      52.415  22.832  22.922  1.00  0.00     0.000 C 
BRANCH   4   5
ATOM      5  C   UNL     1      51.044  22.159  22.752  1.00  0.00     0.000 C 
BRANCH   5   6
ATOM      6  C   UNL     1      49.873  23.109  23.065  1.00  0.00     0.006 C 
BRANCH   6   7
ATOM      7  C   UNL     1      48.524  22.531  22.618  1.00  0.00     0.053 C 
BRANCH   7   8
ATOM      8  C   UNL     1      48.249  22.820  21.175  1.00  0.00     0.041 C 
ATOM      9  O   UNL     1      49.191  23.121  20.397  1.00  0.00    -0.550 OA
ATOM     10  O   UNL     1      46.945  22.790  20.696  1.00  0.00    -0.550 OA
ENDBRANCH   7   8
ENDBRANCH   6   7
ENDBRANCH   5   6
ENDBRANCH   4   5
ENDBRANCH   3   4
ENDBRANCH   2   3
ENDBRANCH   1   2
BRANCH   1  11
ATOM     11  C   UNL     1      51.601  22.824  18.836  1.00  0.00     0.000 C 
BRANCH  11  12
ATOM     12  C   UNL     1      51.352  22.295  17.405  1.00  0.00    -0.000 C 
BRANCH  12  13
ATOM     13  C   UNL     1      49.997  22.736  16.822  1.00  0.00    -0.000 C 
BRANCH  13  14
ATOM     14  C   UNL     1      49.566  21.863  15.630  1.00  0.00    -0.000 C 
BRANCH  14  15
ATOM     15  C   UNL     1      48.120  21.358  15.772  1.00  0.00    -0.000 C 
BRANCH  15  16
ATOM     16  C   UNL     1      47.105  22.485  16.069  1.00  0.00    -0.000 C 
BRANCH  16  17
ATOM     17  C   UNL     1      46.117  22.138  17.196  1.00  0.00    -0.003 C 
ATOM     18  C   UNL     1      44.826  22.950  17.125  1.00  0.00     0.004 C 
ENDBRANCH  16  17
ENDBRANCH  15  16
ENDBRANCH  14  15
ENDBRANCH  13  14
ENDBRANCH  12  13
ENDBRANCH  11  12
ENDBRANCH   1  11
TORSDOF 14
ENDMDL
MODEL 7
REMARK VINA RESULT:     0.054     14.327     17.553
REMARK INTER + INTRA:          -1.106
REMARK INTER:                  -0.639
REMARK INTRA:                  -0.467
REMARK UNBOUND:                -1.204
REMARK SMILES CCCCCCCCCCCCCCCC(=O)[O-]
REMARK SMILES IDX 9 1 10 2 11 3 12 4 13 5 14 6 15 7 16 8 17 9 18 10 8 11 7 12
REMARK SMILES IDX 6 13 5 14 4 15 3 16 2 17 1 18
REMARK H PARENT
REMARK Flexibility Score: inf
ROOT
ATOM      1  C   UNL     1      47.903  22.351  18.173  1.00  0.00     0.000 C 
ENDROOT
BRANCH   1   2
ATOM      2  C   UNL     1      46.842  21.946  17.136  1.00  0.00     0.000 C 
BRANCH   2   3
ATOM      3  C   UNL     1      47.456  21.606  15.767  1.00  0.00     0.000 C 
BRANCH   3   4
ATOM      4  C   UNL     1      48.788  20.845  15.891  1.00  0.00     0.000 C 
BRANCH   4   5
ATOM      5  C   UNL     1      49.938  21.546  15.152  1.00  0.00     0.000 C 
BRANCH   5   6
ATOM      6  C   UNL     1      50.725  20.593  14.236  1.00  0.00     0.006 C 
BRANCH   6   7
ATOM      7  C   UNL     1      52.227  20.907  14.225  1.00  0.00     0.053 C 
BRANCH   7   8
ATOM      8  C   UNL     1      52.661  21.577  15.492  1.00  0.00     0.041 C 
ATOM      9  O   UNL     1      52.796  22.828  15.534  1.00  0.00    -0.550 OA
ATOM     10  O   UNL     1      52.949  20.816  16.618  1.00  0.00    -0.550 OA
ENDBRANCH   7   8
ENDBRANCH   6   7
ENDBRANCH   5   6
ENDBRANCH   4   5
ENDBRANCH   3   4
ENDBRANCH   2   3
ENDBRANCH   1   2
BRANCH   1  11
ATOM     11  C   UNL     1      47.390  22.240  19.618  1.00  0.00     0.000 C 
BRANCH  11  12
ATOM     12  C   UNL     1      48.168  23.124  20.619  1.00  0.00    -0.000 C 
BRANCH  12  13
ATOM     13  C   UNL     1      49.688  23.121  20.378  1.00  0.00    -0.000 C 
BRANCH  13  14
ATOM     14  C   UNL     1      50.477  22.755  21.648  1.00  0.00    -0.000 C 
BRANCH  14  15
ATOM     15  C   UNL     1      50.586  21.233  21.847  1.00  0.00    -0.000 C 
BRANCH  15  16
ATOM     16  C   UNL     1      51.928  20.793  22.473  1.00  0.00    -0.000 C 
BRANCH  16  17
ATOM     17  C   UNL     1      52.951  21.936  22.593  1.00  0.00    -0.003 C 
ATOM     18  C   UNL     1      52.843  22.692  23.915  1.00  0.00     0.004 C 
ENDBRANCH  16  17
ENDBRANCH  15  16
ENDBRANCH  14  15
ENDBRANCH  13  14
ENDBRANCH  12  13
ENDBRANCH  11  12
ENDBRANCH   1  11
TORSDOF 14
ENDMDL
