MODEL 1
REMARK VINA RESULT:    -4.611      0.000      0.000
REMARK INTER + INTRA:         -11.254
REMARK INTER:                  -8.655
REMARK INTRA:                  -2.599
REMARK UNBOUND:                -2.599
REMARK SMILES CCCCCCCCC=CCCCCCCCC(=O)[O-]
REMARK SMILES IDX 10 1 9 2 11 3 12 4 13 5 14 6 15 7 16 8 17 9 18 10 19 11
REMARK SMILES IDX 20 12 8 13 7 14 6 15 5 16 4 17 3 18 2 19 1 20
REMARK H PARENT
REMARK Flexibility Score: inf
ROOT
ATOM      1  C   UNL     1     190.202 244.081 134.374  1.00  0.00    -0.031 C 
ATOM      2  C   UNL     1     190.286 242.739 134.448  1.00  0.00    -0.031 C 
ENDROOT
BRANCH   1   3
ATOM      3  C   UNL     1     191.038 245.043 135.183  1.00  0.00     0.027 C 
BRANCH   3   4
ATOM      4  C   UNL     1     191.705 246.116 134.304  1.00  0.00     0.004 C 
BRANCH   4   5
ATOM      5  C   UNL     1     191.726 245.778 132.802  1.00  0.00     0.000 C 
BRANCH   5   6
ATOM      6  C   UNL     1     192.627 246.727 131.992  1.00  0.00     0.000 C 
BRANCH   6   7
ATOM      7  C   UNL     1     193.454 247.663 132.887  1.00  0.00     0.000 C 
BRANCH   7   8
ATOM      8  C   UNL     1     194.958 247.623 132.563  1.00  0.00     0.006 C 
BRANCH   8   9
ATOM      9  C   UNL     1     195.456 246.196 132.298  1.00  0.00     0.053 C 
BRANCH   9  10
ATOM     10  C   UNL     1     196.599 246.177 131.330  1.00  0.00     0.041 C 
ATOM     11  O   UNL     1     197.294 245.135 131.191  1.00  0.00    -0.550 OA
ATOM     12  O   UNL     1     196.873 247.296 130.555  1.00  0.00    -0.550 OA
ENDBRANCH   9  10
ENDBRANCH   8   9
ENDBRANCH   7   8
ENDBRANCH   6   7
ENDBRANCH   5   6
ENDBRANCH   4   5
ENDBRANCH   3   4
ENDBRANCH   1   3
BRANCH   2  13
ATOM     13  C   UNL     1     191.165 241.984 135.413  1.00  0.00     0.027 C 
BRANCH  13  14
ATOM     14  C   UNL     1     192.312 241.282 134.670  1.00  0.00     0.004 C 
BRANCH  14  15
ATOM     15  C   UNL     1     193.653 242.025 134.800  1.00  0.00     0.000 C 
BRANCH  15  16
ATOM     16  C   UNL     1     193.937 243.063 133.695  1.00  0.00     0.000 C 
BRANCH  16  17
ATOM     17  C   UNL     1     193.553 242.622 132.269  1.00  0.00    -0.000 C 
BRANCH  17  18
ATOM     18  C   UNL     1     194.681 242.735 131.227  1.00  0.00    -0.000 C 
BRANCH  18  19
ATOM     19  C   UNL     1     195.888 241.816 131.514  1.00  0.00    -0.003 C 
ATOM     20  C   UNL     1     195.478 240.372 131.802  1.00  0.00     0.004 C 
ENDBRANCH  18  19
ENDBRANCH  17  18
ENDBRANCH  16  17
ENDBRANCH  15  16
ENDBRANCH  14  15
ENDBRANCH  13  14
ENDBRANCH   2  13
TORSDOF 15
ENDMDL
MODEL 2
REMARK VINA RESULT:    -4.571      1.759      5.475
REMARK INTER + INTRA:         -11.179
REMARK INTER:                  -8.694
REMARK INTRA:                  -2.485
REMARK UNBOUND:                -2.599
REMARK SMILES CCCCCCCCC=CCCCCCCCC(=O)[O-]
REMARK SMILES IDX 10 1 9 2 11 3 12 4 13 5 14 6 15 7 16 8 17 9 18 10 19 11
REMARK SMILES IDX 20 12 8 13 7 14 6 15 5 16 4 17 3 18 2 19 1 20
REMARK H PARENT
REMARK Flexibility Score: inf
ROOT
ATOM      1  C   UNL     1     191.401 245.673 134.244  1.00  0.00    -0.031 C 
ATOM      2  C   UNL     1     192.269 246.423 133.540  1.00  0.00    -0.031 C 
ENDROOT
BRANCH   1   3
ATOM      3  C   UNL     1     190.528 244.588 133.659  1.00  0.00     0.027 C 
BRANCH   3   4
ATOM      4  C   UNL     1     189.853 243.734 134.747  1.00  0.00     0.004 C 
BRANCH   4   5
ATOM      5  C   UNL     1     190.439 242.318 134.892  1.00  0.00     0.000 C 
BRANCH   5   6
ATOM      6  C   UNL     1     191.784 242.303 135.639  1.00  0.00     0.000 C 
BRANCH   6   7
ATOM      7  C   UNL     1     192.921 241.707 134.793  1.00  0.00     0.000 C 
BRANCH   7   8
ATOM      8  C   UNL     1     193.719 242.777 134.028  1.00  0.00     0.006 C 
BRANCH   8   9
ATOM      9  C   UNL     1     193.712 242.533 132.513  1.00  0.00     0.053 C 
BRANCH   9  10
ATOM     10  C   UNL     1     195.074 242.180 131.999  1.00  0.00     0.041 C 
ATOM     11  O   UNL     1     195.586 241.063 132.278  1.00  0.00    -0.550 OA
ATOM     12  O   UNL     1     195.762 243.069 131.184  1.00  0.00    -0.550 OA
ENDBRANCH   9  10
ENDBRANCH   8   9
ENDBRANCH   7   8
ENDBRANCH   6   7
ENDBRANCH   5   6
ENDBRANCH   4   5
ENDBRANCH   3   4
ENDBRANCH   1   3
BRANCH   2  13
ATOM     13  C   UNL     1     192.445 246.361 132.044  1.00  0.00     0.027 C 
BRANCH  13  14
ATOM     14  C   UNL     1     193.909 246.074 131.678  1.00  0.00     0.004 C 
BRANCH  14  15
ATOM     15  C   UNL     1     194.891 246.457 132.799  1.00  0.00     0.000 C 
BRANCH  15  16
ATOM     16  C   UNL     1     195.957 247.502 132.408  1.00  0.00     0.000 C 
BRANCH  16  17
ATOM     17  C   UNL     1     195.830 248.064 130.979  1.00  0.00    -0.000 C 
BRANCH  17  18
ATOM     18  C   UNL     1     195.433 249.549 130.898  1.00  0.00    -0.000 C 
BRANCH  18  19
ATOM     19  C   UNL     1     193.941 249.813 131.193  1.00  0.00    -0.003 C 
ATOM     20  C   UNL     1     193.700 250.331 132.610  1.00  0.00     0.004 C 
ENDBRANCH  18  19
ENDBRANCH  17  18
ENDBRANCH  16  17
ENDBRANCH  15  16
ENDBRANCH  14  15
ENDBRANCH  13  14
ENDBRANCH   2  13
TORSDOF 15
ENDMDL
MODEL 3
REMARK VINA RESULT:    -4.553      4.176      7.545
REMARK INTER + INTRA:         -11.144
REMARK INTER:                  -8.715
REMARK INTRA:                  -2.429
REMARK UNBOUND:                -2.599
REMARK SMILES CCCCCCCCC=CCCCCCCCC(=O)[O-]
REMARK SMILES IDX 10 1 9 2 11 3 12 4 13 5 14 6 15 7 16 8 17 9 18 10 19 11
REMARK SMILES IDX 20 12 8 13 7 14 6 15 5 16 4 17 3 18 2 19 1 20
REMARK H PARENT
REMARK Flexibility Score: inf
ROOT
ATOM      1  C   UNL     1     195.848 252.532 135.042  1.00  0.00    -0.031 C 
ATOM      2  C   UNL     1     197.043 252.665 134.437  1.00  0.00    -0.031 C 
ENDROOT
BRANCH   1   3
ATOM      3  C   UNL     1     194.527 252.403 134.321  1.00  0.00     0.027 C 
BRANCH   3   4
ATOM      4  C   UNL     1     193.881 251.023 134.532  1.00  0.00     0.004 C 
BRANCH   4   5
ATOM      5  C   UNL     1     194.331 250.305 135.819  1.00  0.00     0.000 C 
BRANCH   5   6
ATOM      6  C   UNL     1     194.416 248.778 135.649  1.00  0.00     0.000 C 
BRANCH   6   7
ATOM      7  C   UNL     1     195.309 248.365 134.469  1.00  0.00     0.000 C 
BRANCH   7   8
ATOM      8  C   UNL     1     194.658 247.295 133.574  1.00  0.00     0.006 C 
BRANCH   8   9
ATOM      9  C   UNL     1     193.219 247.661 133.187  1.00  0.00     0.053 C 
BRANCH   9  10
ATOM     10  C   UNL     1     192.776 246.944 131.949  1.00  0.00     0.041 C 
ATOM     11  O   UNL     1     192.696 245.686 131.940  1.00  0.00    -0.550 OA
ATOM     12  O   UNL     1     192.418 247.664 130.817  1.00  0.00    -0.550 OA
ENDBRANCH   9  10
ENDBRANCH   8   9
ENDBRANCH   7   8
ENDBRANCH   6   7
ENDBRANCH   5   6
ENDBRANCH   4   5
ENDBRANCH   3   4
ENDBRANCH   1   3
BRANCH   2  13
ATOM     13  C   UNL     1     197.245 252.796 132.949  1.00  0.00     0.027 C 
BRANCH  13  14
ATOM     14  C   UNL     1     197.715 251.465 132.343  1.00  0.00     0.004 C 
BRANCH  14  15
ATOM     15  C   UNL     1     197.573 251.421 130.812  1.00  0.00     0.000 C 
BRANCH  15  16
ATOM     16  C   UNL     1     196.188 250.979 130.295  1.00  0.00     0.000 C 
BRANCH  16  17
ATOM     17  C   UNL     1     195.617 249.709 130.955  1.00  0.00    -0.000 C 
BRANCH  17  18
ATOM     18  C   UNL     1     195.940 248.394 130.221  1.00  0.00    -0.000 C 
BRANCH  18  19
ATOM     19  C   UNL     1     197.281 247.758 130.645  1.00  0.00    -0.003 C 
ATOM     20  C   UNL     1     197.146 246.282 131.016  1.00  0.00     0.004 C 
ENDBRANCH  18  19
ENDBRANCH  17  18
ENDBRANCH  16  17
ENDBRANCH  15  16
ENDBRANCH  14  15
ENDBRANCH  13  14
ENDBRANCH   2  13
TORSDOF 15
ENDMDL
MODEL 4
REMARK VINA RESULT:    -4.538      4.529      7.593
REMARK INTER + INTRA:         -11.117
REMARK INTER:                  -8.770
REMARK INTRA:                  -2.348
REMARK UNBOUND:                -2.599
REMARK SMILES CCCCCCCCC=CCCCCCCCC(=O)[O-]
REMARK SMILES IDX 10 1 9 2 11 3 12 4 13 5 14 6 15 7 16 8 17 9 18 10 19 11
REMARK SMILES IDX 20 12 8 13 7 14 6 15 5 16 4 17 3 18 2 19 1 20
REMARK H PARENT
REMARK Flexibility Score: inf
ROOT
ATOM      1  C   UNL     1     194.725 247.550 133.775  1.00  0.00    -0.031 C 
ATOM      2  C   UNL     1     195.238 248.432 134.652  1.00  0.00    -0.031 C 
ENDROOT
BRANCH   1   3
ATOM      3  C   UNL     1     193.250 247.295 133.572  1.00  0.00     0.027 C 
BRANCH   3   4
ATOM      4  C   UNL     1     192.880 247.174 132.084  1.00  0.00     0.004 C 
BRANCH   4   5
ATOM      5  C   UNL     1     193.837 247.915 131.132  1.00  0.00     0.000 C 
BRANCH   5   6
ATOM      6  C   UNL     1     193.586 249.433 131.100  1.00  0.00     0.000 C 
BRANCH   6   7
ATOM      7  C   UNL     1     194.891 250.245 131.052  1.00  0.00     0.000 C 
BRANCH   7   8
ATOM      8  C   UNL     1     196.125 249.373 130.764  1.00  0.00     0.006 C 
BRANCH   8   9
ATOM      9  C   UNL     1     197.359 249.836 131.551  1.00  0.00     0.053 C 
BRANCH   9  10
ATOM     10  C   UNL     1     197.775 251.222 131.167  1.00  0.00     0.041 C 
ATOM     11  O   UNL     1     197.997 252.087 132.057  1.00  0.00    -0.550 OA
ATOM     12  O   UNL     1     197.954 251.550 129.830  1.00  0.00    -0.550 OA
ENDBRANCH   9  10
ENDBRANCH   8   9
ENDBRANCH   7   8
ENDBRANCH   6   7
ENDBRANCH   5   6
ENDBRANCH   4   5
ENDBRANCH   3   4
ENDBRANCH   1   3
BRANCH   2  13
ATOM     13  C   UNL     1     194.429 249.241 135.634  1.00  0.00     0.027 C 
BRANCH  13  14
ATOM     14  C   UNL     1     194.088 250.621 135.054  1.00  0.00     0.004 C 
BRANCH  14  15
ATOM     15  C   UNL     1     195.269 251.263 134.305  1.00  0.00     0.000 C 
BRANCH  15  16
ATOM     16  C   UNL     1     195.864 252.520 134.973  1.00  0.00     0.000 C 
BRANCH  16  17
ATOM     17  C   UNL     1     197.199 252.299 135.710  1.00  0.00    -0.000 C 
BRANCH  17  18
ATOM     18  C   UNL     1     197.113 251.401 136.958  1.00  0.00    -0.000 C 
BRANCH  18  19
ATOM     19  C   UNL     1     198.487 251.051 137.569  1.00  0.00    -0.003 C 
ATOM     20  C   UNL     1     198.744 251.763 138.896  1.00  0.00     0.004 C 
ENDBRANCH  18  19
ENDBRANCH  17  18
ENDBRANCH  16  17
ENDBRANCH  15  16
ENDBRANCH  14  15
ENDBRANCH  13  14
ENDBRANCH   2  13
TORSDOF 15
ENDMDL
MODEL 5
REMARK VINA RESULT:    -4.523      1.996      5.379
REMARK INTER + INTRA:         -11.089
REMARK INTER:                  -8.613
REMARK INTRA:                  -2.476
REMARK UNBOUND:                -2.599
REMARK SMILES CCCCCCCCC=CCCCCCCCC(=O)[O-]
REMARK SMILES IDX 10 1 9 2 11 3 12 4 13 5 14 6 15 7 16 8 17 9 18 10 19 11
REMARK SMILES IDX 20 12 8 13 7 14 6 15 5 16 4 17 3 18 2 19 1 20
REMARK H PARENT
REMARK Flexibility Score: inf
ROOT
ATOM      1  C   UNL     1     192.190 246.294 132.300  1.00  0.00    -0.031 C 
ATOM      2  C   UNL     1     193.438 246.780 132.157  1.00  0.00    -0.031 C 
ENDROOT
BRANCH   1   3
ATOM      3  C   UNL     1     191.688 245.554 133.516  1.00  0.00     0.027 C 
BRANCH   3   4
ATOM      4  C   UNL     1     191.567 244.040 133.268  1.00  0.00     0.004 C 
BRANCH   4   5
ATOM      5  C   UNL     1     192.437 243.176 134.199  1.00  0.00     0.000 C 
BRANCH   5   6
ATOM      6  C   UNL     1     193.738 242.702 133.526  1.00  0.00     0.000 C 
BRANCH   6   7
ATOM      7  C   UNL     1     193.664 242.761 131.992  1.00  0.00     0.000 C 
BRANCH   7   8
ATOM      8  C   UNL     1     194.878 243.466 131.364  1.00  0.00     0.006 C 
BRANCH   8   9
ATOM      9  C   UNL     1     195.916 242.470 130.829  1.00  0.00     0.053 C 
BRANCH   9  10
ATOM     10  C   UNL     1     196.011 242.514 129.335  1.00  0.00     0.041 C 
ATOM     11  O   UNL     1     197.020 243.025 128.780  1.00  0.00    -0.550 OA
ATOM     12  O   UNL     1     195.005 241.958 128.557  1.00  0.00    -0.550 OA
ENDBRANCH   9  10
ENDBRANCH   8   9
ENDBRANCH   7   8
ENDBRANCH   6   7
ENDBRANCH   5   6
ENDBRANCH   4   5
ENDBRANCH   3   4
ENDBRANCH   1   3
BRANCH   2  13
ATOM     13  C   UNL     1     194.557 246.584 133.149  1.00  0.00     0.027 C 
BRANCH  13  14
ATOM     14  C   UNL     1     195.072 247.938 133.662  1.00  0.00     0.004 C 
BRANCH  14  15
ATOM     15  C   UNL     1     194.774 249.097 132.695  1.00  0.00     0.000 C 
BRANCH  15  16
ATOM     16  C   UNL     1     195.988 249.977 132.334  1.00  0.00     0.000 C 
BRANCH  16  17
ATOM     17  C   UNL     1     196.543 249.775 130.912  1.00  0.00    -0.000 C 
BRANCH  17  18
ATOM     18  C   UNL     1     196.269 248.390 130.297  1.00  0.00    -0.000 C 
BRANCH  18  19
ATOM     19  C   UNL     1     197.532 247.514 130.148  1.00  0.00    -0.003 C 
ATOM     20  C   UNL     1     197.354 246.113 130.731  1.00  0.00     0.004 C 
ENDBRANCH  18  19
ENDBRANCH  17  18
ENDBRANCH  16  17
ENDBRANCH  15  16
ENDBRANCH  14  15
ENDBRANCH  13  14
ENDBRANCH   2  13
TORSDOF 15
ENDMDL
MODEL 6
REMARK VINA RESULT:    -4.515      2.961      6.013
REMARK INTER + INTRA:         -11.073
REMARK INTER:                  -8.616
REMARK INTRA:                  -2.457
REMARK UNBOUND:                -2.599
REMARK SMILES CCCCCCCCC=CCCCCCCCC(=O)[O-]
REMARK SMILES IDX 10 1 9 2 11 3 12 4 13 5 14 6 15 7 16 8 17 9 18 10 19 11
REMARK SMILES IDX 20 12 8 13 7 14 6 15 5 16 4 17 3 18 2 19 1 20
REMARK H PARENT
REMARK Flexibility Score: inf
ROOT
ATOM      1  C   UNL     1     193.874 249.816 131.748  1.00  0.00    -0.031 C 
ATOM      2  C   UNL     1     195.123 250.249 131.496  1.00  0.00    -0.031 C 
ENDROOT
BRANCH   1   3
ATOM      3  C   UNL     1     193.194 248.677 131.026  1.00  0.00     0.027 C 
BRANCH   3   4
ATOM      4  C   UNL     1     192.806 247.532 131.978  1.00  0.00     0.004 C 
BRANCH   4   5
ATOM      5  C   UNL     1     193.891 247.174 133.010  1.00  0.00     0.000 C 
BRANCH   5   6
ATOM      6  C   UNL     1     194.435 245.746 132.830  1.00  0.00     0.000 C 
BRANCH   6   7
ATOM      7  C   UNL     1     193.675 244.957 131.751  1.00  0.00     0.000 C 
BRANCH   7   8
ATOM      8  C   UNL     1     192.893 243.763 132.326  1.00  0.00     0.006 C 
BRANCH   8   9
ATOM      9  C   UNL     1     191.429 244.116 132.622  1.00  0.00     0.053 C 
BRANCH   9  10
ATOM     10  C   UNL     1     191.211 244.412 134.074  1.00  0.00     0.041 C 
ATOM     11  O   UNL     1     191.358 243.504 134.934  1.00  0.00    -0.550 OA
ATOM     12  O   UNL     1     190.882 245.698 134.481  1.00  0.00    -0.550 OA
ENDBRANCH   9  10
ENDBRANCH   8   9
ENDBRANCH   7   8
ENDBRANCH   6   7
ENDBRANCH   5   6
ENDBRANCH   4   5
ENDBRANCH   3   4
ENDBRANCH   1   3
BRANCH   2  13
ATOM     13  C   UNL     1     196.010 249.726 130.394  1.00  0.00     0.027 C 
BRANCH  13  14
ATOM     14  C   UNL     1     196.969 248.652 130.929  1.00  0.00     0.004 C 
BRANCH  14  15
ATOM     15  C   UNL     1     196.699 247.259 130.335  1.00  0.00     0.000 C 
BRANCH  15  16
ATOM     16  C   UNL     1     197.580 246.124 130.898  1.00  0.00     0.000 C 
BRANCH  16  17
ATOM     17  C   UNL     1     197.620 244.842 130.045  1.00  0.00    -0.000 C 
BRANCH  17  18
ATOM     18  C   UNL     1     196.753 243.683 130.571  1.00  0.00    -0.000 C 
BRANCH  18  19
ATOM     19  C   UNL     1     196.402 242.632 129.496  1.00  0.00    -0.003 C 
ATOM     20  C   UNL     1     194.920 242.257 129.495  1.00  0.00     0.004 C 
ENDBRANCH  18  19
ENDBRANCH  17  18
ENDBRANCH  16  17
ENDBRANCH  15  16
ENDBRANCH  14  15
ENDBRANCH  13  14
ENDBRANCH   2  13
TORSDOF 15
ENDMDL
MODEL 7
REMARK VINA RESULT:    -4.505      2.157      4.801
REMARK INTER + INTRA:         -11.055
REMARK INTER:                  -8.671
REMARK INTRA:                  -2.384
REMARK UNBOUND:                -2.599
REMARK SMILES CCCCCCCCC=CCCCCCCCC(=O)[O-]
REMARK SMILES IDX 10 1 9 2 11 3 12 4 13 5 14 6 15 7 16 8 17 9 18 10 19 11
REMARK SMILES IDX 20 12 8 13 7 14 6 15 5 16 4 17 3 18 2 19 1 20
REMARK H PARENT
REMARK Flexibility Score: inf
ROOT
ATOM      1  C   UNL     1     190.475 242.703 134.707  1.00  0.00    -0.031 C 
ATOM      2  C   UNL     1     190.304 244.002 134.397  1.00  0.00    -0.031 C 
ENDROOT
BRANCH   1   3
ATOM      3  C   UNL     1     191.255 242.197 135.897  1.00  0.00     0.027 C 
BRANCH   3   4
ATOM      4  C   UNL     1     192.762 242.093 135.604  1.00  0.00     0.004 C 
BRANCH   4   5
ATOM      5  C   UNL     1     193.097 241.687 134.157  1.00  0.00     0.000 C 
BRANCH   5   6
ATOM      6  C   UNL     1     193.937 242.746 133.421  1.00  0.00     0.000 C 
BRANCH   6   7
ATOM      7  C   UNL     1     193.617 242.814 131.920  1.00  0.00     0.000 C 
BRANCH   7   8
ATOM      8  C   UNL     1     194.880 242.884 131.043  1.00  0.00     0.006 C 
BRANCH   8   9
ATOM      9  C   UNL     1     195.900 241.796 131.408  1.00  0.00     0.053 C 
BRANCH   9  10
ATOM     10  C   UNL     1     195.452 240.440 130.956  1.00  0.00     0.041 C 
ATOM     11  O   UNL     1     195.637 239.434 131.692  1.00  0.00    -0.550 OA
ATOM     12  O   UNL     1     194.800 240.292 129.739  1.00  0.00    -0.550 OA
ENDBRANCH   9  10
ENDBRANCH   8   9
ENDBRANCH   7   8
ENDBRANCH   6   7
ENDBRANCH   5   6
ENDBRANCH   4   5
ENDBRANCH   3   4
ENDBRANCH   1   3
BRANCH   2  13
ATOM     13  C   UNL     1     190.936 245.154 135.136  1.00  0.00     0.027 C 
BRANCH  13  14
ATOM     14  C   UNL     1     192.032 245.812 134.284  1.00  0.00     0.004 C 
BRANCH  14  15
ATOM     15  C   UNL     1     191.740 245.740 132.775  1.00  0.00     0.000 C 
BRANCH  15  16
ATOM     16  C   UNL     1     192.731 246.513 131.879  1.00  0.00     0.000 C 
BRANCH  16  17
ATOM     17  C   UNL     1     193.960 247.088 132.607  1.00  0.00    -0.000 C 
BRANCH  17  18
ATOM     18  C   UNL     1     195.283 246.350 132.333  1.00  0.00    -0.000 C 
BRANCH  18  19
ATOM     19  C   UNL     1     196.424 247.274 131.853  1.00  0.00    -0.003 C 
ATOM     20  C   UNL     1     196.025 248.134 130.655  1.00  0.00     0.004 C 
ENDBRANCH  18  19
ENDBRANCH  17  18
ENDBRANCH  16  17
ENDBRANCH  15  16
ENDBRANCH  14  15
ENDBRANCH  13  14
ENDBRANCH   2  13
TORSDOF 15
ENDMDL
MODEL 8
REMARK VINA RESULT:    -4.498      2.225      5.746
REMARK INTER + INTRA:         -11.041
REMARK INTER:                  -8.556
REMARK INTRA:                  -2.485
REMARK UNBOUND:                -2.599
REMARK SMILES CCCCCCCCC=CCCCCCCCC(=O)[O-]
REMARK SMILES IDX 10 1 9 2 11 3 12 4 13 5 14 6 15 7 16 8 17 9 18 10 19 11
REMARK SMILES IDX 20 12 8 13 7 14 6 15 5 16 4 17 3 18 2 19 1 20
REMARK H PARENT
REMARK Flexibility Score: inf
ROOT
ATOM      1  C   UNL     1     193.705 240.505 135.354  1.00  0.00    -0.031 C 
ATOM      2  C   UNL     1     193.925 241.691 134.755  1.00  0.00    -0.031 C 
ENDROOT
BRANCH   1   3
ATOM      3  C   UNL     1     192.724 239.464 134.869  1.00  0.00     0.027 C 
BRANCH   3   4
ATOM      4  C   UNL     1     193.413 238.341 134.075  1.00  0.00     0.004 C 
BRANCH   4   5
ATOM      5  C   UNL     1     194.905 238.593 133.789  1.00  0.00     0.000 C 
BRANCH   5   6
ATOM      6  C   UNL     1     195.228 238.613 132.284  1.00  0.00     0.000 C 
BRANCH   6   7
ATOM      7  C   UNL     1     195.483 240.033 131.754  1.00  0.00     0.000 C 
BRANCH   7   8
ATOM      8  C   UNL     1     194.978 240.232 130.315  1.00  0.00     0.006 C 
BRANCH   8   9
ATOM      9  C   UNL     1     194.561 241.683 130.042  1.00  0.00     0.053 C 
BRANCH   9  10
ATOM     10  C   UNL     1     195.743 242.559 129.761  1.00  0.00     0.041 C 
ATOM     11  O   UNL     1     196.092 243.438 130.594  1.00  0.00    -0.550 OA
ATOM     12  O   UNL     1     196.481 242.380 128.599  1.00  0.00    -0.550 OA
ENDBRANCH   9  10
ENDBRANCH   8   9
ENDBRANCH   7   8
ENDBRANCH   6   7
ENDBRANCH   5   6
ENDBRANCH   4   5
ENDBRANCH   3   4
ENDBRANCH   1   3
BRANCH   2  13
ATOM     13  C   UNL     1     193.165 242.206 133.559  1.00  0.00     0.027 C 
BRANCH  13  14
ATOM     14  C   UNL     1     193.651 243.609 133.167  1.00  0.00     0.004 C 
BRANCH  14  15
ATOM     15  C   UNL     1     192.502 244.622 133.024  1.00  0.00     0.000 C 
BRANCH  15  16
ATOM     16  C   UNL     1     191.087 244.007 132.988  1.00  0.00     0.000 C 
BRANCH  16  17
ATOM     17  C   UNL     1     190.222 244.286 134.231  1.00  0.00    -0.000 C 
BRANCH  17  18
ATOM     18  C   UNL     1     190.993 244.806 135.458  1.00  0.00    -0.000 C 
BRANCH  18  19
ATOM     19  C   UNL     1     191.351 243.707 136.481  1.00  0.00    -0.003 C 
ATOM     20  C   UNL     1     190.556 242.419 136.269  1.00  0.00     0.004 C 
ENDBRANCH  18  19
ENDBRANCH  17  18
ENDBRANCH  16  17
ENDBRANCH  15  16
ENDBRANCH  14  15
ENDBRANCH  13  14
ENDBRANCH   2  13
TORSDOF 15
ENDMDL
MODEL 9
REMARK VINA RESULT:    -4.450      4.096      7.993
REMARK INTER + INTRA:         -10.951
REMARK INTER:                  -8.557
REMARK INTRA:                  -2.393
REMARK UNBOUND:                -2.599
REMARK SMILES CCCCCCCCC=CCCCCCCCC(=O)[O-]
REMARK SMILES IDX 10 1 9 2 11 3 12 4 13 5 14 6 15 7 16 8 17 9 18 10 19 11
REMARK SMILES IDX 20 12 8 13 7 14 6 15 5 16 4 17 3 18 2 19 1 20
REMARK H PARENT
REMARK Flexibility Score: inf
ROOT
ATOM      1  C   UNL     1     195.641 251.241 134.232  1.00  0.00    -0.031 C 
ATOM      2  C   UNL     1     195.937 252.512 133.900  1.00  0.00    -0.031 C 
ENDROOT
BRANCH   1   3
ATOM      3  C   UNL     1     196.616 250.089 134.182  1.00  0.00     0.027 C 
BRANCH   3   4
ATOM      4  C   UNL     1     195.943 248.744 134.507  1.00  0.00     0.004 C 
BRANCH   4   5
ATOM      5  C   UNL     1     194.497 248.620 133.992  1.00  0.00     0.000 C 
BRANCH   5   6
ATOM      6  C   UNL     1     194.177 247.216 133.449  1.00  0.00     0.000 C 
BRANCH   6   7
ATOM      7  C   UNL     1     192.966 247.212 132.503  1.00  0.00     0.000 C 
BRANCH   7   8
ATOM      8  C   UNL     1     192.114 245.937 132.631  1.00  0.00     0.006 C 
BRANCH   8   9
ATOM      9  C   UNL     1     191.487 245.797 134.025  1.00  0.00     0.053 C 
BRANCH   9  10
ATOM     10  C   UNL     1     190.781 244.486 134.187  1.00  0.00     0.041 C 
ATOM     11  O   UNL     1     190.289 244.166 135.303  1.00  0.00    -0.550 OA
ATOM     12  O   UNL     1     190.634 243.634 133.101  1.00  0.00    -0.550 OA
ENDBRANCH   9  10
ENDBRANCH   8   9
ENDBRANCH   7   8
ENDBRANCH   6   7
ENDBRANCH   5   6
ENDBRANCH   4   5
ENDBRANCH   3   4
ENDBRANCH   1   3
BRANCH   2  13
ATOM     13  C   UNL     1     197.260 252.971 133.343  1.00  0.00     0.027 C 
BRANCH  13  14
ATOM     14  C   UNL     1     197.177 253.150 131.819  1.00  0.00     0.004 C 
BRANCH  14  15
ATOM     15  C   UNL     1     197.920 252.046 131.046  1.00  0.00     0.000 C 
BRANCH  15  16
ATOM     16  C   UNL     1     197.062 251.272 130.024  1.00  0.00     0.000 C 
BRANCH  16  17
ATOM     17  C   UNL     1     195.780 250.636 130.593  1.00  0.00    -0.000 C 
BRANCH  17  18
ATOM     18  C   UNL     1     195.749 249.097 130.566  1.00  0.00    -0.000 C 
BRANCH  18  19
ATOM     19  C   UNL     1     197.105 248.441 130.906  1.00  0.00    -0.003 C 
ATOM     20  C   UNL     1     196.991 246.936 131.143  1.00  0.00     0.004 C 
ENDBRANCH  18  19
ENDBRANCH  17  18
ENDBRANCH  16  17
ENDBRANCH  15  16
ENDBRANCH  14  15
ENDBRANCH  13  14
ENDBRANCH   2  13
TORSDOF 15
ENDMDL
