MODEL 1
REMARK VINA RESULT:    -7.476      0.000      0.000
REMARK INTER + INTRA:          -9.570
REMARK INTER:                  -9.225
REMARK INTRA:                  -0.345
REMARK UNBOUND:                -0.345
REMARK SMILES Oc1cc(O)c2cc(O)c(-c3cc(O)c(O)c(O)c3)[o+]c2c1
REMARK SMILES IDX 10 1 20 2 21 3 22 4 2 5 3 6 4 7 6 8 7 9 8 10 11 11 12 12
REMARK SMILES IDX 13 13 19 14 15 15 17 16 14 17 16 19 18 21 9 23 1 25 5 27
REMARK H PARENT 14 18 16 20 18 22 9 24 1 26 5 28
REMARK Flexibility Score: inf
ROOT
ATOM      1  C   UNL     1     -14.265 -31.840 -13.021  1.00  0.00     0.402 A 
ATOM      2  O   UNL     1     -14.754 -30.720 -13.550  1.00  0.00    -0.202 OA
ATOM      3  C   UNL     1     -14.554 -29.517 -13.022  1.00  0.00     0.368 A 
ATOM      4  C   UNL     1     -15.111 -28.400 -13.649  1.00  0.00     0.162 A 
ATOM      5  C   UNL     1     -14.920 -27.122 -13.114  1.00  0.00     0.128 A 
ATOM      6  C   UNL     1     -14.170 -26.962 -11.947  1.00  0.00     0.093 A 
ATOM      7  C   UNL     1     -13.601 -28.066 -11.299  1.00  0.00     0.136 A 
ATOM      8  C   UNL     1     -13.790 -29.365 -11.840  1.00  0.00     0.125 A 
ATOM      9  C   UNL     1     -13.247 -30.527 -11.267  1.00  0.00     0.078 A 
ATOM     10  C   UNL     1     -13.472 -31.772 -11.860  1.00  0.00     0.223 A 
ENDROOT
BRANCH   1  11
ATOM     11  C   UNL     1     -14.565 -33.123 -13.697  1.00  0.00     0.091 A 
ATOM     12  C   UNL     1     -15.811 -33.752 -13.553  1.00  0.00     0.068 A 
ATOM     13  C   UNL     1     -16.083 -34.953 -14.219  1.00  0.00     0.162 A 
ATOM     14  C   UNL     1     -13.607 -33.696 -14.546  1.00  0.00     0.068 A 
ATOM     15  C   UNL     1     -15.115 -35.536 -15.049  1.00  0.00     0.200 A 
ATOM     16  C   UNL     1     -13.864 -34.897 -15.217  1.00  0.00     0.162 A 
BRANCH  13  17
ATOM     17  O   UNL     1     -17.321 -35.575 -14.065  1.00  0.00    -0.504 OA
ATOM     18  H   UNL     1     -17.591 -36.010 -13.191  1.00  0.00     0.293 HD
ENDBRANCH  13  17
BRANCH  15  19
ATOM     19  O   UNL     1     -15.435 -36.740 -15.684  1.00  0.00    -0.502 OA
ATOM     20  H   UNL     1     -15.162 -37.649 -15.342  1.00  0.00     0.293 HD
ENDBRANCH  15  19
BRANCH  16  21
ATOM     21  O   UNL     1     -12.857 -35.413 -16.035  1.00  0.00    -0.504 OA
ATOM     22  H   UNL     1     -12.874 -35.379 -17.044  1.00  0.00     0.293 HD
ENDBRANCH  16  21
ENDBRANCH   1  11
BRANCH  10  23
ATOM     23  O   UNL     1     -12.893 -32.920 -11.319  1.00  0.00    -0.500 OA
ATOM     24  H   UNL     1     -12.848 -33.790 -11.837  1.00  0.00     0.294 HD
ENDBRANCH  10  23
BRANCH   5  25
ATOM     25  O   UNL     1     -15.472 -26.004 -13.734  1.00  0.00    -0.507 OA
ATOM     26  H   UNL     1     -15.286 -25.065 -13.400  1.00  0.00     0.293 HD
ENDBRANCH   5  25
BRANCH   7  27
ATOM     27  O   UNL     1     -12.867 -27.822 -10.135  1.00  0.00    -0.507 OA
ATOM     28  H   UNL     1     -12.368 -28.530  -9.616  1.00  0.00     0.293 HD
ENDBRANCH   7  27
TORSDOF 7
ENDMDL
MODEL 2
REMARK VINA RESULT:    -7.476      0.131      1.802
REMARK INTER + INTRA:          -9.569
REMARK INTER:                  -9.231
REMARK INTRA:                  -0.339
REMARK UNBOUND:                -0.345
REMARK SMILES Oc1cc(O)c2cc(O)c(-c3cc(O)c(O)c(O)c3)[o+]c2c1
REMARK SMILES IDX 10 1 20 2 21 3 22 4 2 5 3 6 4 7 6 8 7 9 8 10 11 11 12 12
REMARK SMILES IDX 13 13 19 14 15 15 17 16 14 17 16 19 18 21 9 23 1 25 5 27
REMARK H PARENT 14 18 16 20 18 22 9 24 1 26 5 28
REMARK Flexibility Score: inf
ROOT
ATOM      1  C   UNL     1     -14.286 -31.869 -13.033  1.00  0.00     0.402 A 
ATOM      2  O   UNL     1     -14.748 -30.730 -13.543  1.00  0.00    -0.202 OA
ATOM      3  C   UNL     1     -14.521 -29.540 -12.995  1.00  0.00     0.368 A 
ATOM      4  C   UNL     1     -15.051 -28.400 -13.603  1.00  0.00     0.162 A 
ATOM      5  C   UNL     1     -14.830 -27.136 -13.046  1.00  0.00     0.128 A 
ATOM      6  C   UNL     1     -14.078 -27.014 -11.877  1.00  0.00     0.093 A 
ATOM      7  C   UNL     1     -13.535 -28.142 -11.248  1.00  0.00     0.136 A 
ATOM      8  C   UNL     1     -13.754 -29.426 -11.810  1.00  0.00     0.125 A 
ATOM      9  C   UNL     1     -13.239 -30.610 -11.257  1.00  0.00     0.078 A 
ATOM     10  C   UNL     1     -13.493 -31.840 -11.871  1.00  0.00     0.223 A 
ENDROOT
BRANCH   1  11
ATOM     11  C   UNL     1     -14.615 -33.133 -13.731  1.00  0.00     0.091 A 
ATOM     12  C   UNL     1     -13.681 -33.778 -14.555  1.00  0.00     0.068 A 
ATOM     13  C   UNL     1     -14.004 -34.984 -15.188  1.00  0.00     0.162 A 
ATOM     14  C   UNL     1     -15.867 -33.731 -13.522  1.00  0.00     0.068 A 
ATOM     15  C   UNL     1     -15.263 -35.569 -14.997  1.00  0.00     0.200 A 
ATOM     16  C   UNL     1     -16.204 -34.936 -14.150  1.00  0.00     0.162 A 
BRANCH  13  17
ATOM     17  O   UNL     1     -13.072 -35.614 -16.012  1.00  0.00    -0.504 OA
ATOM     18  H   UNL     1     -12.245 -36.062 -15.633  1.00  0.00     0.293 HD
ENDBRANCH  13  17
BRANCH  15  19
ATOM     19  O   UNL     1     -15.537 -36.769 -15.658  1.00  0.00    -0.502 OA
ATOM     20  H   UNL     1     -14.867 -37.515 -15.776  1.00  0.00     0.293 HD
ENDBRANCH  15  19
BRANCH  16  21
ATOM     21  O   UNL     1     -17.473 -35.465 -13.902  1.00  0.00    -0.504 OA
ATOM     22  H   UNL     1     -18.174 -35.609 -14.614  1.00  0.00     0.293 HD
ENDBRANCH  16  21
ENDBRANCH   1  11
BRANCH  10  23
ATOM     23  O   UNL     1     -12.940 -33.009 -11.350  1.00  0.00    -0.500 OA
ATOM     24  H   UNL     1     -12.893 -33.864 -11.891  1.00  0.00     0.294 HD
ENDBRANCH  10  23
BRANCH   5  25
ATOM     25  O   UNL     1     -15.356 -25.995 -13.647  1.00  0.00    -0.507 OA
ATOM     26  H   UNL     1     -16.012 -26.055 -14.417  1.00  0.00     0.293 HD
ENDBRANCH   5  25
BRANCH   7  27
ATOM     27  O   UNL     1     -12.796 -27.934 -10.079  1.00  0.00    -0.507 OA
ATOM     28  H   UNL     1     -12.403 -28.673  -9.514  1.00  0.00     0.293 HD
ENDBRANCH   7  27
TORSDOF 7
ENDMDL
MODEL 3
REMARK VINA RESULT:    -7.256      2.566      4.521
REMARK INTER + INTRA:          -9.297
REMARK INTER:                  -8.975
REMARK INTRA:                  -0.323
REMARK UNBOUND:                -0.345
REMARK SMILES Oc1cc(O)c2cc(O)c(-c3cc(O)c(O)c(O)c3)[o+]c2c1
REMARK SMILES IDX 10 1 20 2 21 3 22 4 2 5 3 6 4 7 6 8 7 9 8 10 11 11 12 12
REMARK SMILES IDX 13 13 19 14 15 15 17 16 14 17 16 19 18 21 9 23 1 25 5 27
REMARK H PARENT 14 18 16 20 18 22 9 24 1 26 5 28
REMARK Flexibility Score: inf
ROOT
ATOM      1  C   UNL     1     -13.324 -31.726 -12.236  1.00  0.00     0.402 A 
ATOM      2  O   UNL     1     -13.145 -30.408 -12.235  1.00  0.00    -0.202 OA
ATOM      3  C   UNL     1     -14.097 -29.543 -12.571  1.00  0.00     0.368 A 
ATOM      4  C   UNL     1     -13.812 -28.175 -12.543  1.00  0.00     0.162 A 
ATOM      5  C   UNL     1     -14.794 -27.243 -12.895  1.00  0.00     0.128 A 
ATOM      6  C   UNL     1     -16.063 -27.682 -13.276  1.00  0.00     0.093 A 
ATOM      7  C   UNL     1     -16.374 -29.047 -13.313  1.00  0.00     0.136 A 
ATOM      8  C   UNL     1     -15.382 -29.997 -12.954  1.00  0.00     0.125 A 
ATOM      9  C   UNL     1     -15.606 -31.384 -12.949  1.00  0.00     0.078 A 
ATOM     10  C   UNL     1     -14.581 -32.258 -12.578  1.00  0.00     0.223 A 
ENDROOT
BRANCH   1  11
ATOM     11  C   UNL     1     -12.182 -32.588 -11.850  1.00  0.00     0.091 A 
ATOM     12  C   UNL     1     -11.492 -33.356 -12.801  1.00  0.00     0.068 A 
ATOM     13  C   UNL     1     -10.401 -34.146 -12.420  1.00  0.00     0.162 A 
ATOM     14  C   UNL     1     -11.742 -32.596 -10.518  1.00  0.00     0.068 A 
ATOM     15  C   UNL     1      -9.977 -34.171 -11.084  1.00  0.00     0.200 A 
ATOM     16  C   UNL     1     -10.654 -33.383 -10.123  1.00  0.00     0.162 A 
BRANCH  13  17
ATOM     17  O   UNL     1      -9.725 -34.911 -13.370  1.00  0.00    -0.504 OA
ATOM     18  H   UNL     1     -10.199 -35.289 -14.182  1.00  0.00     0.293 HD
ENDBRANCH  13  17
BRANCH  15  19
ATOM     19  O   UNL     1      -8.887 -34.983 -10.757  1.00  0.00    -0.502 OA
ATOM     20  H   UNL     1      -8.808 -35.501  -9.894  1.00  0.00     0.293 HD
ENDBRANCH  15  19
BRANCH  16  21
ATOM     21  O   UNL     1     -10.282 -33.348  -8.778  1.00  0.00    -0.504 OA
ATOM     22  H   UNL     1     -10.664 -33.957  -8.069  1.00  0.00     0.293 HD
ENDBRANCH  16  21
ENDBRANCH   1  11
BRANCH  10  23
ATOM     23  O   UNL     1     -14.818 -33.632 -12.525  1.00  0.00    -0.500 OA
ATOM     24  H   UNL     1     -14.121 -34.280 -12.179  1.00  0.00     0.294 HD
ENDBRANCH  10  23
BRANCH   5  25
ATOM     25  O   UNL     1     -14.517 -25.879 -12.869  1.00  0.00    -0.507 OA
ATOM     26  H   UNL     1     -14.987 -25.230 -13.491  1.00  0.00     0.293 HD
ENDBRANCH   5  25
BRANCH   7  27
ATOM     27  O   UNL     1     -17.667 -29.403 -13.708  1.00  0.00    -0.507 OA
ATOM     28  H   UNL     1     -18.231 -30.103 -13.249  1.00  0.00     0.293 HD
ENDBRANCH   7  27
TORSDOF 7
ENDMDL
MODEL 4
REMARK VINA RESULT:    -7.202      2.559      4.326
REMARK INTER + INTRA:          -9.231
REMARK INTER:                  -8.937
REMARK INTRA:                  -0.294
REMARK UNBOUND:                -0.345
REMARK SMILES Oc1cc(O)c2cc(O)c(-c3cc(O)c(O)c(O)c3)[o+]c2c1
REMARK SMILES IDX 10 1 20 2 21 3 22 4 2 5 3 6 4 7 6 8 7 9 8 10 11 11 12 12
REMARK SMILES IDX 13 13 19 14 15 15 17 16 14 17 16 19 18 21 9 23 1 25 5 27
REMARK H PARENT 14 18 16 20 18 22 9 24 1 26 5 28
REMARK Flexibility Score: inf
ROOT
ATOM      1  C   UNL     1     -13.284 -31.714 -12.239  1.00  0.00     0.402 A 
ATOM      2  O   UNL     1     -13.125 -30.393 -12.230  1.00  0.00    -0.202 OA
ATOM      3  C   UNL     1     -14.090 -29.540 -12.557  1.00  0.00     0.368 A 
ATOM      4  C   UNL     1     -13.826 -28.169 -12.521  1.00  0.00     0.162 A 
ATOM      5  C   UNL     1     -14.823 -27.249 -12.863  1.00  0.00     0.128 A 
ATOM      6  C   UNL     1     -16.087 -27.704 -13.243  1.00  0.00     0.093 A 
ATOM      7  C   UNL     1     -16.377 -29.074 -13.288  1.00  0.00     0.136 A 
ATOM      8  C   UNL     1     -15.370 -30.011 -12.939  1.00  0.00     0.125 A 
ATOM      9  C   UNL     1     -15.573 -31.401 -12.942  1.00  0.00     0.078 A 
ATOM     10  C   UNL     1     -14.534 -32.262 -12.581  1.00  0.00     0.223 A 
ENDROOT
BRANCH   1  11
ATOM     11  C   UNL     1     -12.128 -32.561 -11.863  1.00  0.00     0.091 A 
ATOM     12  C   UNL     1     -11.693 -32.656 -10.532  1.00  0.00     0.068 A 
ATOM     13  C   UNL     1     -10.613 -33.481 -10.195  1.00  0.00     0.162 A 
ATOM     14  C   UNL     1     -11.487 -33.329 -12.846  1.00  0.00     0.068 A 
ATOM     15  C   UNL     1      -9.958 -34.229 -11.182  1.00  0.00     0.200 A 
ATOM     16  C   UNL     1     -10.404 -34.156 -12.523  1.00  0.00     0.162 A 
BRANCH  13  17
ATOM     17  O   UNL     1     -10.183 -33.564  -8.871  1.00  0.00    -0.504 OA
ATOM     18  H   UNL     1      -9.250 -33.879  -8.634  1.00  0.00     0.293 HD
ENDBRANCH  13  17
BRANCH  15  19
ATOM     19  O   UNL     1      -8.881 -35.030 -10.792  1.00  0.00    -0.502 OA
ATOM     20  H   UNL     1      -8.278 -34.824 -10.009  1.00  0.00     0.293 HD
ENDBRANCH  15  19
BRANCH  16  21
ATOM     21  O   UNL     1      -9.809 -34.881 -13.558  1.00  0.00    -0.504 OA
ATOM     22  H   UNL     1      -9.130 -35.614 -13.417  1.00  0.00     0.293 HD
ENDBRANCH  16  21
ENDBRANCH   1  11
BRANCH  10  23
ATOM     23  O   UNL     1     -14.750 -33.639 -12.536  1.00  0.00    -0.500 OA
ATOM     24  H   UNL     1     -15.647 -34.030 -12.274  1.00  0.00     0.294 HD
ENDBRANCH  10  23
BRANCH   5  25
ATOM     25  O   UNL     1     -14.567 -25.881 -12.829  1.00  0.00    -0.507 OA
ATOM     26  H   UNL     1     -14.136 -25.441 -12.024  1.00  0.00     0.293 HD
ENDBRANCH   5  25
BRANCH   7  27
ATOM     27  O   UNL     1     -17.666 -29.447 -13.681  1.00  0.00    -0.507 OA
ATOM     28  H   UNL     1     -18.492 -28.886 -13.534  1.00  0.00     0.293 HD
ENDBRANCH   7  27
TORSDOF 7
ENDMDL
MODEL 5
REMARK VINA RESULT:    -7.153      3.978      5.335
REMARK INTER + INTRA:          -9.170
REMARK INTER:                  -8.795
REMARK INTRA:                  -0.375
REMARK UNBOUND:                -0.345
REMARK SMILES Oc1cc(O)c2cc(O)c(-c3cc(O)c(O)c(O)c3)[o+]c2c1
REMARK SMILES IDX 10 1 20 2 21 3 22 4 2 5 3 6 4 7 6 8 7 9 8 10 11 11 12 12
REMARK SMILES IDX 13 13 19 14 15 15 17 16 14 17 16 19 18 21 9 23 1 25 5 27
REMARK H PARENT 14 18 16 20 18 22 9 24 1 26 5 28
REMARK Flexibility Score: inf
ROOT
ATOM      1  C   UNL     1     -12.333 -29.691 -11.006  1.00  0.00     0.402 A 
ATOM      2  O   UNL     1     -13.466 -30.036 -11.612  1.00  0.00    -0.202 OA
ATOM      3  C   UNL     1     -14.312 -29.153 -12.134  1.00  0.00     0.368 A 
ATOM      4  C   UNL     1     -15.479 -29.613 -12.749  1.00  0.00     0.162 A 
ATOM      5  C   UNL     1     -16.388 -28.706 -13.303  1.00  0.00     0.128 A 
ATOM      6  C   UNL     1     -16.128 -27.336 -13.242  1.00  0.00     0.093 A 
ATOM      7  C   UNL     1     -14.964 -26.849 -12.632  1.00  0.00     0.136 A 
ATOM      8  C   UNL     1     -14.037 -27.765 -12.070  1.00  0.00     0.125 A 
ATOM      9  C   UNL     1     -12.840 -27.371 -11.450  1.00  0.00     0.078 A 
ATOM     10  C   UNL     1     -11.973 -28.333 -10.923  1.00  0.00     0.223 A 
ENDROOT
BRANCH   1  11
ATOM     11  C   UNL     1     -11.477 -30.767 -10.456  1.00  0.00     0.091 A 
ATOM     12  C   UNL     1     -11.512 -31.105  -9.094  1.00  0.00     0.068 A 
ATOM     13  C   UNL     1     -10.712 -32.142  -8.598  1.00  0.00     0.162 A 
ATOM     14  C   UNL     1     -10.655 -31.506 -11.320  1.00  0.00     0.068 A 
ATOM     15  C   UNL     1      -9.874 -32.863  -9.458  1.00  0.00     0.200 A 
ATOM     16  C   UNL     1      -9.849 -32.543 -10.837  1.00  0.00     0.162 A 
BRANCH  13  17
ATOM     17  O   UNL     1     -10.748 -32.466  -7.242  1.00  0.00    -0.504 OA
ATOM     18  H   UNL     1     -10.211 -31.947  -6.557  1.00  0.00     0.293 HD
ENDBRANCH  13  17
BRANCH  15  19
ATOM     19  O   UNL     1      -9.091 -33.882  -8.910  1.00  0.00    -0.502 OA
ATOM     20  H   UNL     1      -9.143 -34.179  -7.946  1.00  0.00     0.293 HD
ENDBRANCH  15  19
BRANCH  16  21
ATOM     21  O   UNL     1      -9.048 -33.225 -11.755  1.00  0.00    -0.504 OA
ATOM     22  H   UNL     1      -8.733 -32.833 -12.631  1.00  0.00     0.293 HD
ENDBRANCH  16  21
ENDBRANCH   1  11
BRANCH  10  23
ATOM     23  O   UNL     1     -10.762 -27.944 -10.352  1.00  0.00    -0.500 OA
ATOM     24  H   UNL     1     -10.537 -26.970 -10.190  1.00  0.00     0.294 HD
ENDBRANCH  10  23
BRANCH   5  25
ATOM     25  O   UNL     1     -17.554 -29.157 -13.917  1.00  0.00    -0.507 OA
ATOM     26  H   UNL     1     -17.580 -30.029 -14.432  1.00  0.00     0.293 HD
ENDBRANCH   5  25
BRANCH   7  27
ATOM     27  O   UNL     1     -14.779 -25.464 -12.609  1.00  0.00    -0.507 OA
ATOM     28  H   UNL     1     -14.275 -24.967 -11.890  1.00  0.00     0.293 HD
ENDBRANCH   7  27
TORSDOF 7
ENDMDL
MODEL 6
REMARK VINA RESULT:    -6.870      1.481      3.497
REMARK INTER + INTRA:          -8.822
REMARK INTER:                  -8.497
REMARK INTRA:                  -0.325
REMARK UNBOUND:                -0.345
REMARK SMILES Oc1cc(O)c2cc(O)c(-c3cc(O)c(O)c(O)c3)[o+]c2c1
REMARK SMILES IDX 10 1 20 2 21 3 22 4 2 5 3 6 4 7 6 8 7 9 8 10 11 11 12 12
REMARK SMILES IDX 13 13 19 14 15 15 17 16 14 17 16 19 18 21 9 23 1 25 5 27
REMARK H PARENT 14 18 16 20 18 22 9 24 1 26 5 28
REMARK Flexibility Score: inf
ROOT
ATOM      1  C   UNL     1     -13.699 -31.737 -12.800  1.00  0.00     0.402 A 
ATOM      2  O   UNL     1     -13.328 -31.810 -11.524  1.00  0.00    -0.202 OA
ATOM      3  C   UNL     1     -12.979 -30.748 -10.805  1.00  0.00     0.368 A 
ATOM      4  C   UNL     1     -12.601 -30.925  -9.472  1.00  0.00     0.162 A 
ATOM      5  C   UNL     1     -12.225 -29.826  -8.693  1.00  0.00     0.128 A 
ATOM      6  C   UNL     1     -12.227 -28.546  -9.250  1.00  0.00     0.093 A 
ATOM      7  C   UNL     1     -12.602 -28.342 -10.584  1.00  0.00     0.136 A 
ATOM      8  C   UNL     1     -12.987 -29.453 -11.378  1.00  0.00     0.125 A 
ATOM      9  C   UNL     1     -13.389 -29.343 -12.720  1.00  0.00     0.078 A 
ATOM     10  C   UNL     1     -13.759 -30.484 -13.437  1.00  0.00     0.223 A 
ENDROOT
BRANCH   1  11
ATOM     11  C   UNL     1     -14.057 -32.994 -13.497  1.00  0.00     0.091 A 
ATOM     12  C   UNL     1     -13.213 -33.558 -14.466  1.00  0.00     0.068 A 
ATOM     13  C   UNL     1     -13.559 -34.759 -15.098  1.00  0.00     0.162 A 
ATOM     14  C   UNL     1     -15.235 -33.668 -13.145  1.00  0.00     0.068 A 
ATOM     15  C   UNL     1     -14.748 -35.419 -14.761  1.00  0.00     0.200 A 
ATOM     16  C   UNL     1     -15.594 -34.869 -13.769  1.00  0.00     0.162 A 
BRANCH  13  17
ATOM     17  O   UNL     1     -12.717 -35.309 -16.065  1.00  0.00    -0.504 OA
ATOM     18  H   UNL     1     -11.811 -35.692 -15.825  1.00  0.00     0.293 HD
ENDBRANCH  13  17
BRANCH  15  19
ATOM     19  O   UNL     1     -15.049 -36.611 -15.428  1.00  0.00    -0.502 OA
ATOM     20  H   UNL     1     -14.652 -36.876 -16.317  1.00  0.00     0.293 HD
ENDBRANCH  15  19
BRANCH  16  21
ATOM     21  O   UNL     1     -16.788 -35.475 -13.374  1.00  0.00    -0.504 OA
ATOM     22  H   UNL     1     -17.594 -35.583 -13.974  1.00  0.00     0.293 HD
ENDBRANCH  16  21
ENDBRANCH   1  11
BRANCH  10  23
ATOM     23  O   UNL     1     -14.206 -30.368 -14.753  1.00  0.00    -0.500 OA
ATOM     24  H   UNL     1     -14.794 -31.074 -15.181  1.00  0.00     0.294 HD
ENDBRANCH  10  23
BRANCH   5  25
ATOM     25  O   UNL     1     -11.847 -29.995  -7.363  1.00  0.00    -0.507 OA
ATOM     26  H   UNL     1     -11.684 -29.203  -6.752  1.00  0.00     0.293 HD
ENDBRANCH   5  25
BRANCH   7  27
ATOM     27  O   UNL     1     -12.575 -27.030 -11.067  1.00  0.00    -0.507 OA
ATOM     28  H   UNL     1     -12.350 -26.221 -10.508  1.00  0.00     0.293 HD
ENDBRANCH   7  27
TORSDOF 7
ENDMDL
MODEL 7
REMARK VINA RESULT:    -6.802      1.617      3.042
REMARK INTER + INTRA:          -8.737
REMARK INTER:                  -8.405
REMARK INTRA:                  -0.332
REMARK UNBOUND:                -0.345
REMARK SMILES Oc1cc(O)c2cc(O)c(-c3cc(O)c(O)c(O)c3)[o+]c2c1
REMARK SMILES IDX 10 1 20 2 21 3 22 4 2 5 3 6 4 7 6 8 7 9 8 10 11 11 12 12
REMARK SMILES IDX 13 13 19 14 15 15 17 16 14 17 16 19 18 21 9 23 1 25 5 27
REMARK H PARENT 14 18 16 20 18 22 9 24 1 26 5 28
REMARK Flexibility Score: inf
ROOT
ATOM      1  C   UNL     1     -13.851 -31.678 -12.669  1.00  0.00     0.402 A 
ATOM      2  O   UNL     1     -13.490 -31.717 -11.389  1.00  0.00    -0.202 OA
ATOM      3  C   UNL     1     -13.010 -30.665 -10.734  1.00  0.00     0.368 A 
ATOM      4  C   UNL     1     -12.654 -30.806  -9.390  1.00  0.00     0.162 A 
ATOM      5  C   UNL     1     -12.144 -29.716  -8.678  1.00  0.00     0.128 A 
ATOM      6  C   UNL     1     -11.989 -28.482  -9.313  1.00  0.00     0.093 A 
ATOM      7  C   UNL     1     -12.337 -28.315 -10.659  1.00  0.00     0.136 A 
ATOM      8  C   UNL     1     -12.858 -29.417 -11.386  1.00  0.00     0.125 A 
ATOM      9  C   UNL     1     -13.246 -29.340 -12.733  1.00  0.00     0.078 A 
ATOM     10  C   UNL     1     -13.756 -30.468 -13.382  1.00  0.00     0.223 A 
ENDROOT
BRANCH   1  11
ATOM     11  C   UNL     1     -14.363 -32.921 -13.291  1.00  0.00     0.091 A 
ATOM     12  C   UNL     1     -15.735 -33.119 -13.507  1.00  0.00     0.068 A 
ATOM     13  C   UNL     1     -16.197 -34.292 -14.118  1.00  0.00     0.162 A 
ATOM     14  C   UNL     1     -13.456 -33.899 -13.726  1.00  0.00     0.068 A 
ATOM     15  C   UNL     1     -15.291 -35.278 -14.530  1.00  0.00     0.200 A 
ATOM     16  C   UNL     1     -13.904 -35.077 -14.336  1.00  0.00     0.162 A 
BRANCH  13  17
ATOM     17  O   UNL     1     -17.563 -34.483 -14.322  1.00  0.00    -0.504 OA
ATOM     18  H   UNL     1     -18.244 -33.782 -14.055  1.00  0.00     0.293 HD
ENDBRANCH  13  17
BRANCH  15  19
ATOM     19  O   UNL     1     -15.806 -36.433 -15.127  1.00  0.00    -0.502 OA
ATOM     20  H   UNL     1     -16.775 -36.711 -15.077  1.00  0.00     0.293 HD
ENDBRANCH  15  19
BRANCH  16  21
ATOM     21  O   UNL     1     -12.943 -36.010 -14.731  1.00  0.00    -0.504 OA
ATOM     22  H   UNL     1     -12.617 -36.768 -14.149  1.00  0.00     0.293 HD
ENDBRANCH  16  21
ENDBRANCH   1  11
BRANCH  10  23
ATOM     23  O   UNL     1     -14.188 -30.379 -14.705  1.00  0.00    -0.500 OA
ATOM     24  H   UNL     1     -13.762 -30.926 -15.444  1.00  0.00     0.294 HD
ENDBRANCH  10  23
BRANCH   5  25
ATOM     25  O   UNL     1     -11.788 -29.849  -7.338  1.00  0.00    -0.507 OA
ATOM     26  H   UNL     1     -10.989 -29.360  -6.950  1.00  0.00     0.293 HD
ENDBRANCH   5  25
BRANCH   7  27
ATOM     27  O   UNL     1     -12.148 -27.049 -11.221  1.00  0.00    -0.507 OA
ATOM     28  H   UNL     1     -12.864 -26.340 -11.284  1.00  0.00     0.293 HD
ENDBRANCH   7  27
TORSDOF 7
ENDMDL
MODEL 8
REMARK VINA RESULT:    -6.764      1.524      7.321
REMARK INTER + INTRA:          -8.691
REMARK INTER:                  -8.461
REMARK INTRA:                  -0.230
REMARK UNBOUND:                -0.345
REMARK SMILES Oc1cc(O)c2cc(O)c(-c3cc(O)c(O)c(O)c3)[o+]c2c1
REMARK SMILES IDX 10 1 20 2 21 3 22 4 2 5 3 6 4 7 6 8 7 9 8 10 11 11 12 12
REMARK SMILES IDX 13 13 19 14 15 15 17 16 14 17 16 19 18 21 9 23 1 25 5 27
REMARK H PARENT 14 18 16 20 18 22 9 24 1 26 5 28
REMARK Flexibility Score: inf
ROOT
ATOM      1  C   UNL     1     -14.202 -31.720 -12.541  1.00  0.00     0.402 A 
ATOM      2  O   UNL     1     -13.385 -32.725 -12.848  1.00  0.00    -0.202 OA
ATOM      3  C   UNL     1     -13.778 -33.804 -13.518  1.00  0.00     0.368 A 
ATOM      4  C   UNL     1     -12.847 -34.810 -13.791  1.00  0.00     0.162 A 
ATOM      5  C   UNL     1     -13.233 -35.957 -14.491  1.00  0.00     0.128 A 
ATOM      6  C   UNL     1     -14.554 -36.099 -14.918  1.00  0.00     0.093 A 
ATOM      7  C   UNL     1     -15.507 -35.106 -14.657  1.00  0.00     0.136 A 
ATOM      8  C   UNL     1     -15.120 -33.938 -13.949  1.00  0.00     0.125 A 
ATOM      9  C   UNL     1     -16.002 -32.886 -13.653  1.00  0.00     0.078 A 
ATOM     10  C   UNL     1     -15.545 -31.763 -12.956  1.00  0.00     0.223 A 
ENDROOT
BRANCH   1  11
ATOM     11  C   UNL     1     -13.648 -30.576 -11.782  1.00  0.00     0.091 A 
ATOM     12  C   UNL     1     -13.176 -30.728 -10.469  1.00  0.00     0.068 A 
ATOM     13  C   UNL     1     -12.635 -29.637  -9.776  1.00  0.00     0.162 A 
ATOM     14  C   UNL     1     -13.537 -29.323 -12.404  1.00  0.00     0.068 A 
ATOM     15  C   UNL     1     -12.547 -28.382 -10.392  1.00  0.00     0.200 A 
ATOM     16  C   UNL     1     -13.000 -28.224 -11.723  1.00  0.00     0.162 A 
BRANCH  13  17
ATOM     17  O   UNL     1     -12.176 -29.796  -8.470  1.00  0.00    -0.504 OA
ATOM     18  H   UNL     1     -12.632 -29.343  -7.687  1.00  0.00     0.293 HD
ENDBRANCH  13  17
BRANCH  15  19
ATOM     19  O   UNL     1     -12.006 -27.325  -9.653  1.00  0.00    -0.502 OA
ATOM     20  H   UNL     1     -11.509 -27.442  -8.782  1.00  0.00     0.293 HD
ENDBRANCH  15  19
BRANCH  16  21
ATOM     21  O   UNL     1     -12.934 -27.007 -12.405  1.00  0.00    -0.504 OA
ATOM     22  H   UNL     1     -13.650 -26.671 -13.033  1.00  0.00     0.293 HD
ENDBRANCH  16  21
ENDBRANCH   1  11
BRANCH  10  23
ATOM     23  O   UNL     1     -16.409 -30.697 -12.706  1.00  0.00    -0.500 OA
ATOM     24  H   UNL     1     -16.311 -30.113 -11.883  1.00  0.00     0.294 HD
ENDBRANCH  10  23
BRANCH   5  25
ATOM     25  O   UNL     1     -12.310 -36.963 -14.767  1.00  0.00    -0.507 OA
ATOM     26  H   UNL     1     -12.190 -37.331 -15.704  1.00  0.00     0.293 HD
ENDBRANCH   5  25
BRANCH   7  27
ATOM     27  O   UNL     1     -16.809 -35.325 -15.115  1.00  0.00    -0.507 OA
ATOM     28  H   UNL     1     -17.559 -34.653 -15.047  1.00  0.00     0.293 HD
ENDBRANCH   7  27
TORSDOF 7
ENDMDL
MODEL 9
REMARK VINA RESULT:    -6.685      1.578      7.115
REMARK INTER + INTRA:          -8.593
REMARK INTER:                  -8.244
REMARK INTRA:                  -0.349
REMARK UNBOUND:                -0.345
REMARK SMILES Oc1cc(O)c2cc(O)c(-c3cc(O)c(O)c(O)c3)[o+]c2c1
REMARK SMILES IDX 10 1 20 2 21 3 22 4 2 5 3 6 4 7 6 8 7 9 8 10 11 11 12 12
REMARK SMILES IDX 13 13 19 14 15 15 17 16 14 17 16 19 18 21 9 23 1 25 5 27
REMARK H PARENT 14 18 16 20 18 22 9 24 1 26 5 28
REMARK Flexibility Score: inf
ROOT
ATOM      1  C   UNL     1     -13.023 -31.859 -12.283  1.00  0.00     0.402 A 
ATOM      2  O   UNL     1     -14.232 -32.314 -12.601  1.00  0.00    -0.202 OA
ATOM      3  C   UNL     1     -14.432 -33.425 -13.304  1.00  0.00     0.368 A 
ATOM      4  C   UNL     1     -15.741 -33.820 -13.591  1.00  0.00     0.162 A 
ATOM      5  C   UNL     1     -15.980 -34.983 -14.332  1.00  0.00     0.128 A 
ATOM      6  C   UNL     1     -14.906 -35.750 -14.787  1.00  0.00     0.093 A 
ATOM      7  C   UNL     1     -13.585 -35.375 -14.513  1.00  0.00     0.136 A 
ATOM      8  C   UNL     1     -13.337 -34.198 -13.759  1.00  0.00     0.125 A 
ATOM      9  C   UNL     1     -12.047 -33.751 -13.426  1.00  0.00     0.078 A 
ATOM     10  C   UNL     1     -11.882 -32.584 -12.675  1.00  0.00     0.223 A 
ENDROOT
BRANCH   1  11
ATOM     11  C   UNL     1     -12.930 -30.604 -11.504  1.00  0.00     0.091 A 
ATOM     12  C   UNL     1     -12.709 -30.618 -10.118  1.00  0.00     0.068 A 
ATOM     13  C   UNL     1     -12.601 -29.419  -9.402  1.00  0.00     0.162 A 
ATOM     14  C   UNL     1     -13.007 -29.371 -12.168  1.00  0.00     0.068 A 
ATOM     15  C   UNL     1     -12.702 -28.188 -10.065  1.00  0.00     0.200 A 
ATOM     16  C   UNL     1     -12.904 -28.165 -11.465  1.00  0.00     0.162 A 
BRANCH  13  17
ATOM     17  O   UNL     1     -12.388 -29.443  -8.025  1.00  0.00    -0.504 OA
ATOM     18  H   UNL     1     -13.005 -28.959  -7.383  1.00  0.00     0.293 HD
ENDBRANCH  13  17
BRANCH  15  19
ATOM     19  O   UNL     1     -12.595 -27.022  -9.302  1.00  0.00    -0.502 OA
ATOM     20  H   UNL     1     -13.380 -26.443  -9.042  1.00  0.00     0.293 HD
ENDBRANCH  15  19
BRANCH  16  21
ATOM     21  O   UNL     1     -13.003 -26.977 -12.194  1.00  0.00    -0.504 OA
ATOM     22  H   UNL     1     -13.582 -26.863 -13.013  1.00  0.00     0.293 HD
ENDBRANCH  16  21
ENDBRANCH   1  11
BRANCH  10  23
ATOM     23  O   UNL     1     -10.604 -32.168 -12.301  1.00  0.00    -0.500 OA
ATOM     24  H   UNL     1     -10.460 -31.469 -11.582  1.00  0.00     0.294 HD
ENDBRANCH  10  23
BRANCH   5  25
ATOM     25  O   UNL     1     -17.282 -35.383 -14.622  1.00  0.00    -0.507 OA
ATOM     26  H   UNL     1     -17.769 -36.061 -14.047  1.00  0.00     0.293 HD
ENDBRANCH   5  25
BRANCH   7  27
ATOM     27  O   UNL     1     -12.566 -36.195 -15.006  1.00  0.00    -0.507 OA
ATOM     28  H   UNL     1     -12.639 -37.197 -15.104  1.00  0.00     0.293 HD
ENDBRANCH   7  27
TORSDOF 7
ENDMDL
