MODEL 1
REMARK VINA RESULT:    -2.944      0.000      0.000
REMARK INTER + INTRA:          -5.401
REMARK INTER:                  -4.665
REMARK INTRA:                  -0.736
REMARK UNBOUND:                -0.736
REMARK SMILES CCCCCCCCCCCC(=O)[O-]
REMARK SMILES IDX 7 1 8 2 9 3 10 4 11 5 12 6 13 7 14 8 6 9 5 10 4 11 3 12 2 13
REMARK SMILES IDX 1 14
REMARK H PARENT
REMARK Flexibility Score: inf
ROOT
ATOM      1  C   UNL     1      -2.258   6.036   8.533  1.00  0.00     0.000 C 
ENDROOT
BRANCH   1   2
ATOM      2  C   UNL     1      -0.925   6.794   8.555  1.00  0.00     0.000 C 
BRANCH   2   3
ATOM      3  C   UNL     1      -1.073   8.188   7.927  1.00  0.00     0.000 C 
BRANCH   3   4
ATOM      4  C   UNL     1      -2.533   8.536   7.596  1.00  0.00     0.006 C 
BRANCH   4   5
ATOM      5  C   UNL     1      -2.763   8.754   6.095  1.00  0.00     0.053 C 
BRANCH   5   6
ATOM      6  C   UNL     1      -3.993   8.032   5.646  1.00  0.00     0.041 C 
ATOM      7  O   UNL     1      -4.805   7.576   6.494  1.00  0.00    -0.550 OA
ATOM      8  O   UNL     1      -4.270   7.906   4.290  1.00  0.00    -0.550 OA
ENDBRANCH   5   6
ENDBRANCH   4   5
ENDBRANCH   3   4
ENDBRANCH   2   3
ENDBRANCH   1   2
BRANCH   1   9
ATOM      9  C   UNL     1      -2.048   4.545   8.838  1.00  0.00     0.000 C 
BRANCH   9  10
ATOM     10  C   UNL     1      -1.827   4.272  10.334  1.00  0.00    -0.000 C 
BRANCH  10  11
ATOM     11  C   UNL     1      -0.677   3.287  10.592  1.00  0.00    -0.000 C 
BRANCH  11  12
ATOM     12  C   UNL     1       0.676   3.915  10.234  1.00  0.00    -0.000 C 
BRANCH  12  13
ATOM     13  C   UNL     1       1.632   2.867   9.652  1.00  0.00    -0.003 C 
ATOM     14  C   UNL     1       1.108   1.454   9.888  1.00  0.00     0.004 C 
ENDBRANCH  12  13
ENDBRANCH  11  12
ENDBRANCH  10  11
ENDBRANCH   9  10
ENDBRANCH   1   9
TORSDOF 10
ENDMDL
MODEL 2
REMARK VINA RESULT:    -2.925      7.442     10.621
REMARK INTER + INTRA:          -5.370
REMARK INTER:                  -4.854
REMARK INTRA:                  -0.516
REMARK UNBOUND:                -0.736
REMARK SMILES CCCCCCCCCCCC(=O)[O-]
REMARK SMILES IDX 7 1 8 2 9 3 10 4 11 5 12 6 13 7 14 8 6 9 5 10 4 11 3 12 2 13
REMARK SMILES IDX 1 14
REMARK H PARENT
REMARK Flexibility Score: inf
ROOT
ATOM      1  C   UNL     1      -5.741   5.604   1.167  1.00  0.00     0.000 C 
ENDROOT
BRANCH   1   2
ATOM      2  C   UNL     1      -4.252   5.642   0.802  1.00  0.00     0.000 C 
BRANCH   2   3
ATOM      3  C   UNL     1      -3.391   5.081   1.943  1.00  0.00     0.000 C 
BRANCH   3   4
ATOM      4  C   UNL     1      -3.961   3.781   2.532  1.00  0.00     0.006 C 
BRANCH   4   5
ATOM      5  C   UNL     1      -3.355   3.436   3.899  1.00  0.00     0.053 C 
BRANCH   5   6
ATOM      6  C   UNL     1      -3.160   1.959   4.024  1.00  0.00     0.041 C 
ATOM      7  O   UNL     1      -2.606   1.477   5.048  1.00  0.00    -0.550 OA
ATOM      8  O   UNL     1      -3.633   1.108   3.033  1.00  0.00    -0.550 OA
ENDBRANCH   5   6
ENDBRANCH   4   5
ENDBRANCH   3   4
ENDBRANCH   2   3
ENDBRANCH   1   2
BRANCH   1   9
ATOM      9  C   UNL     1      -6.607   6.108   0.003  1.00  0.00     0.000 C 
BRANCH   9  10
ATOM     10  C   UNL     1      -5.817   6.237  -1.309  1.00  0.00    -0.000 C 
BRANCH  10  11
ATOM     11  C   UNL     1      -6.498   5.517  -2.483  1.00  0.00    -0.000 C 
BRANCH  11  12
ATOM     12  C   UNL     1      -5.553   4.488  -3.117  1.00  0.00    -0.000 C 
BRANCH  12  13
ATOM     13  C   UNL     1      -6.343   3.386  -3.834  1.00  0.00    -0.003 C 
ATOM     14  C   UNL     1      -5.428   2.239  -4.255  1.00  0.00     0.004 C 
ENDBRANCH  12  13
ENDBRANCH  11  12
ENDBRANCH  10  11
ENDBRANCH   9  10
ENDBRANCH   1   9
TORSDOF 10
ENDMDL
MODEL 3
REMARK VINA RESULT:    -2.807      4.173      6.661
REMARK INTER + INTRA:          -5.184
REMARK INTER:                  -4.160
REMARK INTRA:                  -1.024
REMARK UNBOUND:                -0.736
REMARK SMILES CCCCCCCCCCCC(=O)[O-]
REMARK SMILES IDX 7 1 8 2 9 3 10 4 11 5 12 6 13 7 14 8 6 9 5 10 4 11 3 12 2 13
REMARK SMILES IDX 1 14
REMARK H PARENT
REMARK Flexibility Score: inf
ROOT
ATOM      1  C   UNL     1      -1.388   3.792  10.990  1.00  0.00     0.000 C 
ENDROOT
BRANCH   1   2
ATOM      2  C   UNL     1      -0.254   3.406  10.032  1.00  0.00     0.000 C 
BRANCH   2   3
ATOM      3  C   UNL     1       0.416   2.096  10.471  1.00  0.00     0.000 C 
BRANCH   3   4
ATOM      4  C   UNL     1       1.691   1.785   9.672  1.00  0.00     0.006 C 
BRANCH   4   5
ATOM      5  C   UNL     1       2.467   3.050   9.283  1.00  0.00     0.053 C 
BRANCH   5   6
ATOM      6  C   UNL     1       3.752   2.686   8.610  1.00  0.00     0.041 C 
ATOM      7  O   UNL     1       4.799   2.519   9.290  1.00  0.00    -0.550 OA
ATOM      8  O   UNL     1       3.785   2.484   7.236  1.00  0.00    -0.550 OA
ENDBRANCH   5   6
ENDBRANCH   4   5
ENDBRANCH   3   4
ENDBRANCH   2   3
ENDBRANCH   1   2
BRANCH   1   9
ATOM      9  C   UNL     1      -2.610   4.307  10.217  1.00  0.00     0.000 C 
BRANCH   9  10
ATOM     10  C   UNL     1      -2.260   4.772   8.795  1.00  0.00    -0.000 C 
BRANCH  10  11
ATOM     11  C   UNL     1      -2.362   6.295   8.627  1.00  0.00    -0.000 C 
BRANCH  11  12
ATOM     12  C   UNL     1      -0.988   6.908   8.328  1.00  0.00    -0.000 C 
BRANCH  12  13
ATOM     13  C   UNL     1      -0.179   7.101   9.617  1.00  0.00    -0.003 C 
ATOM     14  C   UNL     1       1.289   6.741   9.404  1.00  0.00     0.004 C 
ENDBRANCH  12  13
ENDBRANCH  11  12
ENDBRANCH  10  11
ENDBRANCH   9  10
ENDBRANCH   1   9
TORSDOF 10
ENDMDL
MODEL 4
REMARK VINA RESULT:    -2.775      1.680      3.247
REMARK INTER + INTRA:          -5.134
REMARK INTER:                  -3.833
REMARK INTRA:                  -1.301
REMARK UNBOUND:                -0.736
REMARK SMILES CCCCCCCCCCCC(=O)[O-]
REMARK SMILES IDX 7 1 8 2 9 3 10 4 11 5 12 6 13 7 14 8 6 9 5 10 4 11 3 12 2 13
REMARK SMILES IDX 1 14
REMARK H PARENT
REMARK Flexibility Score: inf
ROOT
ATOM      1  C   UNL     1      -1.181   4.509   9.263  1.00  0.00     0.000 C 
ENDROOT
BRANCH   1   2
ATOM      2  C   UNL     1      -0.449   5.855   9.331  1.00  0.00     0.000 C 
BRANCH   2   3
ATOM      3  C   UNL     1      -1.191   6.926   8.518  1.00  0.00     0.000 C 
BRANCH   3   4
ATOM      4  C   UNL     1      -2.584   6.466   8.062  1.00  0.00     0.006 C 
BRANCH   4   5
ATOM      5  C   UNL     1      -3.614   7.603   8.072  1.00  0.00     0.053 C 
BRANCH   5   6
ATOM      6  C   UNL     1      -3.930   8.031   6.674  1.00  0.00     0.041 C 
ATOM      7  O   UNL     1      -3.971   7.183   5.745  1.00  0.00    -0.550 OA
ATOM      8  O   UNL     1      -4.229   9.362   6.405  1.00  0.00    -0.550 OA
ENDBRANCH   5   6
ENDBRANCH   4   5
ENDBRANCH   3   4
ENDBRANCH   2   3
ENDBRANCH   1   2
BRANCH   1   9
ATOM      9  C   UNL     1      -0.581   3.505  10.259  1.00  0.00     0.000 C 
BRANCH   9  10
ATOM     10  C   UNL     1      -1.059   3.743  11.700  1.00  0.00    -0.000 C 
BRANCH  10  11
ATOM     11  C   UNL     1      -2.575   3.556  11.860  1.00  0.00    -0.000 C 
BRANCH  11  12
ATOM     12  C   UNL     1      -3.232   4.831  12.403  1.00  0.00    -0.000 C 
BRANCH  12  13
ATOM     13  C   UNL     1      -4.103   5.499  11.332  1.00  0.00    -0.003 C 
ATOM     14  C   UNL     1      -4.750   4.460  10.422  1.00  0.00     0.004 C 
ENDBRANCH  12  13
ENDBRANCH  11  12
ENDBRANCH  10  11
ENDBRANCH   9  10
ENDBRANCH   1   9
TORSDOF 10
ENDMDL
MODEL 5
REMARK VINA RESULT:    -2.774      2.800      4.118
REMARK INTER + INTRA:          -5.132
REMARK INTER:                  -4.129
REMARK INTRA:                  -1.003
REMARK UNBOUND:                -0.736
REMARK SMILES CCCCCCCCCCCC(=O)[O-]
REMARK SMILES IDX 7 1 8 2 9 3 10 4 11 5 12 6 13 7 14 8 6 9 5 10 4 11 3 12 2 13
REMARK SMILES IDX 1 14
REMARK H PARENT
REMARK Flexibility Score: inf
ROOT
ATOM      1  C   UNL     1       1.687   6.016  10.083  1.00  0.00     0.000 C 
ENDROOT
BRANCH   1   2
ATOM      2  C   UNL     1       0.332   5.507   9.575  1.00  0.00     0.000 C 
BRANCH   2   3
ATOM      3  C   UNL     1      -0.462   6.635   8.899  1.00  0.00     0.000 C 
BRANCH   3   4
ATOM      4  C   UNL     1      -1.869   6.194   8.468  1.00  0.00     0.006 C 
BRANCH   4   5
ATOM      5  C   UNL     1      -2.198   4.760   8.904  1.00  0.00     0.053 C 
BRANCH   5   6
ATOM      6  C   UNL     1      -3.257   4.765   9.960  1.00  0.00     0.041 C 
ATOM      7  O   UNL     1      -2.969   5.077  11.145  1.00  0.00    -0.550 OA
ATOM      8  O   UNL     1      -4.574   4.473   9.625  1.00  0.00    -0.550 OA
ENDBRANCH   5   6
ENDBRANCH   4   5
ENDBRANCH   3   4
ENDBRANCH   2   3
ENDBRANCH   1   2
BRANCH   1   9
ATOM      9  C   UNL     1       2.844   5.376   9.302  1.00  0.00     0.000 C 
BRANCH   9  10
ATOM     10  C   UNL     1       3.262   4.013   9.875  1.00  0.00    -0.000 C 
BRANCH  10  11
ATOM     11  C   UNL     1       2.863   2.841   8.966  1.00  0.00    -0.000 C 
BRANCH  11  12
ATOM     12  C   UNL     1       2.281   1.683   9.787  1.00  0.00    -0.000 C 
BRANCH  12  13
ATOM     13  C   UNL     1       0.750   1.756   9.831  1.00  0.00    -0.003 C 
ATOM     14  C   UNL     1       0.259   2.188  11.210  1.00  0.00     0.004 C 
ENDBRANCH  12  13
ENDBRANCH  11  12
ENDBRANCH  10  11
ENDBRANCH   9  10
ENDBRANCH   1   9
TORSDOF 10
ENDMDL
MODEL 6
REMARK VINA RESULT:    -2.770      1.424      2.413
REMARK INTER + INTRA:          -5.126
REMARK INTER:                  -4.373
REMARK INTRA:                  -0.753
REMARK UNBOUND:                -0.736
REMARK SMILES CCCCCCCCCCCC(=O)[O-]
REMARK SMILES IDX 7 1 8 2 9 3 10 4 11 5 12 6 13 7 14 8 6 9 5 10 4 11 3 12 2 13
REMARK SMILES IDX 1 14
REMARK H PARENT
REMARK Flexibility Score: inf
ROOT
ATOM      1  C   UNL     1      -1.100   4.178   9.628  1.00  0.00     0.000 C 
ENDROOT
BRANCH   1   2
ATOM      2  C   UNL     1      -1.890   5.286   8.921  1.00  0.00     0.000 C 
BRANCH   2   3
ATOM      3  C   UNL     1      -0.985   6.482   8.589  1.00  0.00     0.000 C 
BRANCH   3   4
ATOM      4  C   UNL     1      -1.781   7.755   8.261  1.00  0.00     0.006 C 
BRANCH   4   5
ATOM      5  C   UNL     1      -3.206   7.453   7.781  1.00  0.00     0.053 C 
BRANCH   5   6
ATOM      6  C   UNL     1      -3.392   7.922   6.373  1.00  0.00     0.041 C 
ATOM      7  O   UNL     1      -4.247   7.372   5.629  1.00  0.00    -0.550 OA
ATOM      8  O   UNL     1      -2.655   8.999   5.896  1.00  0.00    -0.550 OA
ENDBRANCH   5   6
ENDBRANCH   4   5
ENDBRANCH   3   4
ENDBRANCH   2   3
ENDBRANCH   1   2
BRANCH   1   9
ATOM      9  C   UNL     1       0.350   4.615   9.887  1.00  0.00     0.000 C 
BRANCH   9  10
ATOM     10  C   UNL     1       1.298   3.425  10.097  1.00  0.00    -0.000 C 
BRANCH  10  11
ATOM     11  C   UNL     1       0.593   2.070   9.937  1.00  0.00    -0.000 C 
BRANCH  11  12
ATOM     12  C   UNL     1       1.010   1.098  11.048  1.00  0.00    -0.000 C 
BRANCH  12  13
ATOM     13  C   UNL     1      -0.217   0.540  11.779  1.00  0.00    -0.003 C 
ATOM     14  C   UNL     1      -1.015   1.657  12.446  1.00  0.00     0.004 C 
ENDBRANCH  12  13
ENDBRANCH  11  12
ENDBRANCH  10  11
ENDBRANCH   9  10
ENDBRANCH   1   9
TORSDOF 10
ENDMDL
MODEL 7
REMARK VINA RESULT:    -2.730      6.210      8.213
REMARK INTER + INTRA:          -5.062
REMARK INTER:                  -4.189
REMARK INTRA:                  -0.873
REMARK UNBOUND:                -0.736
REMARK SMILES CCCCCCCCCCCC(=O)[O-]
REMARK SMILES IDX 7 1 8 2 9 3 10 4 11 5 12 6 13 7 14 8 6 9 5 10 4 11 3 12 2 13
REMARK SMILES IDX 1 14
REMARK H PARENT
REMARK Flexibility Score: inf
ROOT
ATOM      1  C   UNL     1      -5.195   8.205   0.877  1.00  0.00     0.000 C 
ENDROOT
BRANCH   1   2
ATOM      2  C   UNL     1      -5.082   6.869   1.622  1.00  0.00     0.000 C 
BRANCH   2   3
ATOM      3  C   UNL     1      -3.669   6.283   1.492  1.00  0.00     0.000 C 
BRANCH   3   4
ATOM      4  C   UNL     1      -3.373   5.208   2.550  1.00  0.00     0.006 C 
BRANCH   4   5
ATOM      5  C   UNL     1      -3.993   3.849   2.199  1.00  0.00     0.053 C 
BRANCH   5   6
ATOM      6  C   UNL     1      -3.695   2.849   3.271  1.00  0.00     0.041 C 
ATOM      7  O   UNL     1      -3.842   3.156   4.483  1.00  0.00    -0.550 OA
ATOM      8  O   UNL     1      -3.302   1.560   2.929  1.00  0.00    -0.550 OA
ENDBRANCH   5   6
ENDBRANCH   4   5
ENDBRANCH   3   4
ENDBRANCH   2   3
ENDBRANCH   1   2
BRANCH   1   9
ATOM      9  C   UNL     1      -4.101   9.182   1.332  1.00  0.00     0.000 C 
BRANCH   9  10
ATOM     10  C   UNL     1      -4.320   9.693   2.764  1.00  0.00    -0.000 C 
BRANCH  10  11
ATOM     11  C   UNL     1      -3.022  10.187   3.421  1.00  0.00    -0.000 C 
BRANCH  11  12
ATOM     12  C   UNL     1      -1.921   9.122   3.331  1.00  0.00    -0.000 C 
BRANCH  12  13
ATOM     13  C   UNL     1      -0.695   9.663   2.586  1.00  0.00    -0.003 C 
ATOM     14  C   UNL     1       0.093   8.532   1.930  1.00  0.00     0.004 C 
ENDBRANCH  12  13
ENDBRANCH  11  12
ENDBRANCH  10  11
ENDBRANCH   9  10
ENDBRANCH   1   9
TORSDOF 10
ENDMDL
MODEL 8
REMARK VINA RESULT:    -2.668      1.728      3.363
REMARK INTER + INTRA:          -4.964
REMARK INTER:                  -4.066
REMARK INTRA:                  -0.898
REMARK UNBOUND:                -0.736
REMARK SMILES CCCCCCCCCCCC(=O)[O-]
REMARK SMILES IDX 7 1 8 2 9 3 10 4 11 5 12 6 13 7 14 8 6 9 5 10 4 11 3 12 2 13
REMARK SMILES IDX 1 14
REMARK H PARENT
REMARK Flexibility Score: inf
ROOT
ATOM      1  C   UNL     1      -1.102   4.010  11.459  1.00  0.00     0.000 C 
ENDROOT
BRANCH   1   2
ATOM      2  C   UNL     1      -2.600   3.793  11.216  1.00  0.00     0.000 C 
BRANCH   2   3
ATOM      3  C   UNL     1      -3.117   4.719  10.105  1.00  0.00     0.000 C 
BRANCH   3   4
ATOM      4  C   UNL     1      -2.194   4.746   8.877  1.00  0.00     0.006 C 
BRANCH   4   5
ATOM      5  C   UNL     1      -1.678   6.155   8.557  1.00  0.00     0.053 C 
BRANCH   5   6
ATOM      6  C   UNL     1      -2.804   7.033   8.112  1.00  0.00     0.041 C 
ATOM      7  O   UNL     1      -3.110   8.057   8.777  1.00  0.00    -0.550 OA
ATOM      8  O   UNL     1      -3.485   6.748   6.934  1.00  0.00    -0.550 OA
ENDBRANCH   5   6
ENDBRANCH   4   5
ENDBRANCH   3   4
ENDBRANCH   2   3
ENDBRANCH   1   2
BRANCH   1   9
ATOM      9  C   UNL     1      -0.321   2.699  11.291  1.00  0.00     0.000 C 
BRANCH   9  10
ATOM     10  C   UNL     1       0.710   2.764  10.153  1.00  0.00    -0.000 C 
BRANCH  10  11
ATOM     11  C   UNL     1       1.502   4.081  10.147  1.00  0.00    -0.000 C 
BRANCH  11  12
ATOM     12  C   UNL     1       2.766   3.957   9.287  1.00  0.00    -0.000 C 
BRANCH  12  13
ATOM     13  C   UNL     1       2.959   2.516   8.798  1.00  0.00    -0.003 C 
ATOM     14  C   UNL     1       3.862   2.469   7.569  1.00  0.00     0.004 C 
ENDBRANCH  12  13
ENDBRANCH  11  12
ENDBRANCH  10  11
ENDBRANCH   9  10
ENDBRANCH   1   9
TORSDOF 10
ENDMDL
MODEL 9
REMARK VINA RESULT:    -2.650      2.483      4.032
REMARK INTER + INTRA:          -4.935
REMARK INTER:                  -3.451
REMARK INTRA:                  -1.485
REMARK UNBOUND:                -0.736
REMARK SMILES CCCCCCCCCCCC(=O)[O-]
REMARK SMILES IDX 7 1 8 2 9 3 10 4 11 5 12 6 13 7 14 8 6 9 5 10 4 11 3 12 2 13
REMARK SMILES IDX 1 14
REMARK H PARENT
REMARK Flexibility Score: inf
ROOT
ATOM      1  C   UNL     1       0.160   2.707  11.347  1.00  0.00     0.000 C 
ENDROOT
BRANCH   1   2
ATOM      2  C   UNL     1      -0.407   4.115  11.129  1.00  0.00     0.000 C 
BRANCH   2   3
ATOM      3  C   UNL     1      -0.496   4.447   9.632  1.00  0.00     0.000 C 
BRANCH   3   4
ATOM      4  C   UNL     1      -0.231   5.932   9.337  1.00  0.00     0.006 C 
BRANCH   4   5
ATOM      5  C   UNL     1      -1.340   6.574   8.494  1.00  0.00     0.053 C 
BRANCH   5   6
ATOM      6  C   UNL     1      -2.610   6.657   9.280  1.00  0.00     0.041 C 
ATOM      7  O   UNL     1      -2.699   7.442  10.261  1.00  0.00    -0.550 OA
ATOM      8  O   UNL     1      -3.714   5.904   8.899  1.00  0.00    -0.550 OA
ENDBRANCH   5   6
ENDBRANCH   4   5
ENDBRANCH   3   4
ENDBRANCH   2   3
ENDBRANCH   1   2
BRANCH   1   9
ATOM      9  C   UNL     1       0.493   2.034  10.007  1.00  0.00     0.000 C 
BRANCH   9  10
ATOM     10  C   UNL     1       1.830   1.276  10.041  1.00  0.00    -0.000 C 
BRANCH  10  11
ATOM     11  C   UNL     1       3.041   2.217  10.123  1.00  0.00    -0.000 C 
BRANCH  11  12
ATOM     12  C   UNL     1       3.152   3.081   8.859  1.00  0.00    -0.000 C 
BRANCH  12  13
ATOM     13  C   UNL     1       3.208   4.571   9.215  1.00  0.00    -0.003 C 
ATOM     14  C   UNL     1       3.316   4.773  10.724  1.00  0.00     0.004 C 
ENDBRANCH  12  13
ENDBRANCH  11  12
ENDBRANCH  10  11
ENDBRANCH   9  10
ENDBRANCH   1   9
TORSDOF 10
ENDMDL
