MODEL 1
REMARK VINA RESULT:    -5.160      0.000      0.000
REMARK INTER + INTRA:          -8.285
REMARK INTER:                  -6.819
REMARK INTRA:                  -1.466
REMARK UNBOUND:                -1.466
REMARK SMILES CC[C@@H](C=C[C@@H](C)[C@@H]1CC[C@H]2C3=CC[C@H]4C[C@H](O)CC[C@@]4(C)[C@@H]3CC[C@]21C)C(C)C
REMARK SMILES IDX 6 1 7 2 5 3 4 4 3 5 2 6 1 7 28 8 29 9 30 10 8 11 9 12 26 13
REMARK SMILES IDX 10 14 11 15 25 16 27 17 12 18 24 19 23 20 13 21 21 22 14 23
REMARK SMILES IDX 15 24 20 25 22 26 16 27 19 28 17 29 18 30
REMARK H PARENT 18 31
REMARK Flexibility Score: inf
ROOT
ATOM      1  C   UNL     1      -9.367  21.862  15.137  1.00  0.00     0.012 C 
ATOM      2  C   UNL     1     -10.770  21.467  15.635  1.00  0.00     0.012 C 
ENDROOT
BRANCH   1   3
ATOM      3  C   UNL     1      -8.650  22.608  16.244  1.00  0.00    -0.028 C 
ATOM      4  C   UNL     1      -7.888  23.683  15.995  1.00  0.00    -0.027 C 
BRANCH   4   5
ATOM      5  C   UNL     1      -7.173  24.426  17.106  1.00  0.00     0.014 C 
BRANCH   5   6
ATOM      6  C   UNL     1      -7.312  23.614  18.422  1.00  0.00     0.004 C 
ATOM      7  C   UNL     1      -6.017  22.954  18.891  1.00  0.00     0.004 C 
ENDBRANCH   5   6
BRANCH   5   8
ATOM      8  C   UNL     1      -7.677  25.906  17.161  1.00  0.00    -0.011 C 
ATOM      9  C   UNL     1      -8.292  26.289  18.517  1.00  0.00     0.008 C 
ATOM     10  C   UNL     1      -8.621  26.277  16.007  1.00  0.00     0.008 C 
ENDBRANCH   5   8
ENDBRANCH   4   5
ENDBRANCH   1   3
BRANCH   1  11
ATOM     11  C   UNL     1      -9.340  22.704  13.812  1.00  0.00     0.002 C 
ATOM     12  C   UNL     1     -10.606  23.485  13.479  1.00  0.00     0.005 C 
ATOM     13  C   UNL     1      -8.951  21.962  12.506  1.00  0.00    -0.023 C 
ATOM     14  C   UNL     1     -10.508  23.806  11.989  1.00  0.00     0.009 C 
ATOM     15  C   UNL     1      -9.301  23.018  11.400  1.00  0.00     0.021 C 
ATOM     16  C   UNL     1      -7.449  21.531  12.560  1.00  0.00     0.008 C 
ATOM     17  C   UNL     1      -9.818  20.700  12.269  1.00  0.00     0.012 C 
ATOM     18  C   UNL     1      -8.105  23.886  10.964  1.00  0.00    -0.067 C 
ATOM     19  C   UNL     1      -6.727  21.782  11.245  1.00  0.00     0.009 C 
ATOM     20  C   UNL     1      -6.695  23.291  10.944  1.00  0.00     0.021 C 
ATOM     21  C   UNL     1      -8.257  25.144  10.490  1.00  0.00    -0.027 C 
ATOM     22  C   UNL     1      -5.809  23.681   9.667  1.00  0.00    -0.023 C 
ATOM     23  C   UNL     1      -7.072  25.901   9.966  1.00  0.00     0.031 C 
ATOM     24  C   UNL     1      -6.362  24.986   8.961  1.00  0.00     0.002 C 
ATOM     25  C   UNL     1      -4.342  23.890  10.178  1.00  0.00     0.010 C 
ATOM     26  C   UNL     1      -5.812  22.549   8.601  1.00  0.00     0.012 C 
ATOM     27  C   UNL     1      -5.335  25.752   8.088  1.00  0.00     0.036 C 
ATOM     28  C   UNL     1      -3.412  24.561   9.167  1.00  0.00     0.032 C 
ATOM     29  C   UNL     1      -3.977  25.926   8.772  1.00  0.00     0.114 C 
BRANCH  29  30
ATOM     30  O   UNL     1      -3.080  26.608   7.929  1.00  0.00    -0.393 OA
ATOM     31  H   UNL     1      -3.603  27.248   7.379  1.00  0.00     0.210 HD
ENDBRANCH  29  30
ENDBRANCH   1  11
TORSDOF 6
ENDMDL
MODEL 2
REMARK VINA RESULT:    -5.075      2.931      7.110
REMARK INTER + INTRA:          -8.172
REMARK INTER:                  -6.508
REMARK INTRA:                  -1.664
REMARK UNBOUND:                -1.466
REMARK SMILES CC[C@@H](C=C[C@@H](C)[C@@H]1CC[C@H]2C3=CC[C@H]4C[C@H](O)CC[C@@]4(C)[C@@H]3CC[C@]21C)C(C)C
REMARK SMILES IDX 6 1 7 2 5 3 4 4 3 5 2 6 1 7 28 8 29 9 30 10 8 11 9 12 26 13
REMARK SMILES IDX 10 14 11 15 25 16 27 17 12 18 24 19 23 20 13 21 21 22 14 23
REMARK SMILES IDX 15 24 20 25 22 26 16 27 19 28 17 29 18 30
REMARK H PARENT 18 31
REMARK Flexibility Score: inf
ROOT
ATOM      1  C   UNL     1      -6.482  23.297  10.175  1.00  0.00     0.012 C 
ATOM      2  C   UNL     1      -6.651  22.096   9.224  1.00  0.00     0.012 C 
ENDROOT
BRANCH   1   3
ATOM      3  C   UNL     1      -5.021  23.699  10.195  1.00  0.00    -0.028 C 
ATOM      4  C   UNL     1      -4.469  24.306  11.256  1.00  0.00    -0.027 C 
BRANCH   4   5
ATOM      5  C   UNL     1      -3.007  24.706  11.271  1.00  0.00     0.014 C 
BRANCH   5   6
ATOM      6  C   UNL     1      -2.217  23.685  12.133  1.00  0.00     0.004 C 
ATOM      7  C   UNL     1      -1.088  24.300  12.958  1.00  0.00     0.004 C 
ENDBRANCH   5   6
BRANCH   5   8
ATOM      8  C   UNL     1      -2.875  26.205  11.698  1.00  0.00    -0.011 C 
ATOM      9  C   UNL     1      -4.200  26.822  12.173  1.00  0.00     0.008 C 
ATOM     10  C   UNL     1      -2.209  27.091  10.634  1.00  0.00     0.008 C 
ENDBRANCH   5   8
ENDBRANCH   4   5
ENDBRANCH   1   3
BRANCH   1  11
ATOM     11  C   UNL     1      -7.001  23.069  11.639  1.00  0.00     0.002 C 
ATOM     12  C   UNL     1      -7.285  21.627  12.041  1.00  0.00     0.005 C 
ATOM     13  C   UNL     1      -8.245  23.881  12.087  1.00  0.00    -0.023 C 
ATOM     14  C   UNL     1      -8.188  21.714  13.269  1.00  0.00     0.009 C 
ATOM     15  C   UNL     1      -8.620  23.200  13.450  1.00  0.00     0.021 C 
ATOM     16  C   UNL     1      -7.890  25.400  12.180  1.00  0.00     0.008 C 
ATOM     17  C   UNL     1      -9.437  23.711  11.111  1.00  0.00     0.012 C 
ATOM     18  C   UNL     1      -8.029  23.906  14.685  1.00  0.00    -0.067 C 
ATOM     19  C   UNL     1      -8.471  26.055  13.424  1.00  0.00     0.009 C 
ATOM     20  C   UNL     1      -7.853  25.426  14.685  1.00  0.00     0.021 C 
ATOM     21  C   UNL     1      -7.747  23.246  15.831  1.00  0.00    -0.027 C 
ATOM     22  C   UNL     1      -8.269  26.160  16.048  1.00  0.00    -0.023 C 
ATOM     23  C   UNL     1      -7.287  24.001  17.043  1.00  0.00     0.031 C 
ATOM     24  C   UNL     1      -8.282  25.147  17.264  1.00  0.00     0.002 C 
ATOM     25  C   UNL     1      -7.232  27.311  16.280  1.00  0.00     0.010 C 
ATOM     26  C   UNL     1      -9.692  26.778  15.954  1.00  0.00     0.012 C 
ATOM     27  C   UNL     1      -8.137  25.793  18.666  1.00  0.00     0.036 C 
ATOM     28  C   UNL     1      -7.278  27.929  17.677  1.00  0.00     0.032 C 
ATOM     29  C   UNL     1      -7.029  26.847  18.730  1.00  0.00     0.114 C 
BRANCH  29  30
ATOM     30  O   UNL     1      -6.955  27.414  20.015  1.00  0.00    -0.393 OA
ATOM     31  H   UNL     1      -7.443  26.817  20.641  1.00  0.00     0.210 HD
ENDBRANCH  29  30
ENDBRANCH   1  11
TORSDOF 6
ENDMDL
MODEL 3
REMARK VINA RESULT:    -5.061      2.470      6.902
REMARK INTER + INTRA:          -8.155
REMARK INTER:                  -6.251
REMARK INTRA:                  -1.903
REMARK UNBOUND:                -1.466
REMARK SMILES CC[C@@H](C=C[C@@H](C)[C@@H]1CC[C@H]2C3=CC[C@H]4C[C@H](O)CC[C@@]4(C)[C@@H]3CC[C@]21C)C(C)C
REMARK SMILES IDX 6 1 7 2 5 3 4 4 3 5 2 6 1 7 28 8 29 9 30 10 8 11 9 12 26 13
REMARK SMILES IDX 10 14 11 15 25 16 27 17 12 18 24 19 23 20 13 21 21 22 14 23
REMARK SMILES IDX 15 24 20 25 22 26 16 27 19 28 17 29 18 30
REMARK H PARENT 18 31
REMARK Flexibility Score: inf
ROOT
ATOM      1  C   UNL     1     -10.094  21.498  11.348  1.00  0.00     0.012 C 
ATOM      2  C   UNL     1     -10.512  20.051  11.022  1.00  0.00     0.012 C 
ENDROOT
BRANCH   1   3
ATOM      3  C   UNL     1      -8.906  21.868  10.483  1.00  0.00    -0.028 C 
ATOM      4  C   UNL     1      -7.688  22.079  11.004  1.00  0.00    -0.027 C 
BRANCH   4   5
ATOM      5  C   UNL     1      -6.504  22.449  10.134  1.00  0.00     0.014 C 
BRANCH   5   6
ATOM      6  C   UNL     1      -5.666  23.533  10.864  1.00  0.00     0.004 C 
ATOM      7  C   UNL     1      -6.407  24.243  11.995  1.00  0.00     0.004 C 
ENDBRANCH   5   6
BRANCH   5   8
ATOM      8  C   UNL     1      -6.999  22.821   8.698  1.00  0.00    -0.011 C 
ATOM      9  C   UNL     1      -6.493  21.859   7.612  1.00  0.00     0.008 C 
ATOM     10  C   UNL     1      -6.720  24.281   8.311  1.00  0.00     0.008 C 
ENDBRANCH   5   8
ENDBRANCH   4   5
ENDBRANCH   1   3
BRANCH   1  11
ATOM     11  C   UNL     1      -9.769  21.776  12.859  1.00  0.00     0.002 C 
ATOM     12  C   UNL     1      -9.850  20.580  13.801  1.00  0.00     0.005 C 
ATOM     13  C   UNL     1     -10.559  22.912  13.559  1.00  0.00    -0.023 C 
ATOM     14  C   UNL     1      -9.966  21.171  15.204  1.00  0.00     0.009 C 
ATOM     15  C   UNL     1     -10.183  22.707  15.068  1.00  0.00     0.021 C 
ATOM     16  C   UNL     1     -10.154  24.298  12.957  1.00  0.00     0.008 C 
ATOM     17  C   UNL     1     -12.092  22.739  13.409  1.00  0.00     0.012 C 
ATOM     18  C   UNL     1      -9.004  23.579  15.542  1.00  0.00    -0.067 C 
ATOM     19  C   UNL     1      -9.968  25.362  14.027  1.00  0.00     0.009 C 
ATOM     20  C   UNL     1      -8.800  24.975  14.953  1.00  0.00     0.021 C 
ATOM     21  C   UNL     1      -8.184  23.201  16.549  1.00  0.00    -0.027 C 
ATOM     22  C   UNL     1      -8.407  26.112  16.013  1.00  0.00    -0.023 C 
ATOM     23  C   UNL     1      -7.126  24.139  17.053  1.00  0.00     0.031 C 
ATOM     24  C   UNL     1      -7.813  25.480  17.337  1.00  0.00     0.002 C 
ATOM     25  C   UNL     1      -7.363  27.047  15.312  1.00  0.00     0.010 C 
ATOM     26  C   UNL     1      -9.643  26.960  16.426  1.00  0.00     0.012 C 
ATOM     27  C   UNL     1      -6.927  26.429  18.184  1.00  0.00     0.036 C 
ATOM     28  C   UNL     1      -6.643  28.007  16.257  1.00  0.00     0.032 C 
ATOM     29  C   UNL     1      -5.915  27.215  17.345  1.00  0.00     0.114 C 
BRANCH  29  30
ATOM     30  O   UNL     1      -5.154  28.073  18.158  1.00  0.00    -0.393 OA
ATOM     31  H   UNL     1      -4.315  28.290  17.674  1.00  0.00     0.210 HD
ENDBRANCH  29  30
ENDBRANCH   1  11
TORSDOF 6
ENDMDL
MODEL 4
REMARK VINA RESULT:    -4.958      2.655      4.724
REMARK INTER + INTRA:          -8.019
REMARK INTER:                  -6.197
REMARK INTRA:                  -1.822
REMARK UNBOUND:                -1.466
REMARK SMILES CC[C@@H](C=C[C@@H](C)[C@@H]1CC[C@H]2C3=CC[C@H]4C[C@H](O)CC[C@@]4(C)[C@@H]3CC[C@]21C)C(C)C
REMARK SMILES IDX 6 1 7 2 5 3 4 4 3 5 2 6 1 7 28 8 29 9 30 10 8 11 9 12 26 13
REMARK SMILES IDX 10 14 11 15 25 16 27 17 12 18 24 19 23 20 13 21 21 22 14 23
REMARK SMILES IDX 15 24 20 25 22 26 16 27 19 28 17 29 18 30
REMARK H PARENT 18 31
REMARK Flexibility Score: inf
ROOT
ATOM      1  C   UNL     1     -10.302  21.722   8.847  1.00  0.00     0.012 C 
ATOM      2  C   UNL     1     -11.815  21.892   8.609  1.00  0.00     0.012 C 
ENDROOT
BRANCH   1   3
ATOM      3  C   UNL     1     -10.093  21.032  10.179  1.00  0.00    -0.028 C 
ATOM      4  C   UNL     1      -9.376  21.594  11.163  1.00  0.00    -0.027 C 
BRANCH   4   5
ATOM      5  C   UNL     1      -9.170  20.900  12.495  1.00  0.00     0.014 C 
BRANCH   5   6
ATOM      6  C   UNL     1     -10.460  21.056  13.345  1.00  0.00     0.004 C 
ATOM      7  C   UNL     1     -10.741  19.880  14.279  1.00  0.00     0.004 C 
ENDBRANCH   5   6
BRANCH   5   8
ATOM      8  C   UNL     1      -7.849  21.412  13.158  1.00  0.00    -0.011 C 
ATOM      9  C   UNL     1      -8.059  22.630  14.071  1.00  0.00     0.008 C 
ATOM     10  C   UNL     1      -6.716  21.669  12.153  1.00  0.00     0.008 C 
ENDBRANCH   5   8
ENDBRANCH   4   5
ENDBRANCH   1   3
BRANCH   1  11
ATOM     11  C   UNL     1      -9.463  23.047   8.787  1.00  0.00     0.002 C 
ATOM     12  C   UNL     1     -10.234  24.325   8.474  1.00  0.00     0.005 C 
ATOM     13  C   UNL     1      -8.228  23.065   7.849  1.00  0.00    -0.023 C 
ATOM     14  C   UNL     1      -9.185  25.334   8.015  1.00  0.00     0.009 C 
ATOM     15  C   UNL     1      -7.832  24.583   7.839  1.00  0.00     0.021 C 
ATOM     16  C   UNL     1      -7.127  22.096   8.391  1.00  0.00     0.008 C 
ATOM     17  C   UNL     1      -8.586  22.644   6.401  1.00  0.00     0.012 C 
ATOM     18  C   UNL     1      -6.741  24.951   8.864  1.00  0.00    -0.067 C 
ATOM     19  C   UNL     1      -5.733  22.698   8.307  1.00  0.00     0.009 C 
ATOM     20  C   UNL     1      -5.644  23.942   9.208  1.00  0.00     0.021 C 
ATOM     21  C   UNL     1      -6.647  26.185   9.410  1.00  0.00    -0.027 C 
ATOM     22  C   UNL     1      -4.168  24.555   9.327  1.00  0.00    -0.023 C 
ATOM     23  C   UNL     1      -5.496  26.526  10.309  1.00  0.00     0.031 C 
ATOM     24  C   UNL     1      -4.214  26.118   9.574  1.00  0.00     0.002 C 
ATOM     25  C   UNL     1      -3.461  23.814  10.512  1.00  0.00     0.010 C 
ATOM     26  C   UNL     1      -3.346  24.322   8.028  1.00  0.00     0.012 C 
ATOM     27  C   UNL     1      -2.943  26.723  10.224  1.00  0.00     0.036 C 
ATOM     28  C   UNL     1      -2.159  24.465  10.977  1.00  0.00     0.032 C 
ATOM     29  C   UNL     1      -2.428  25.907  11.412  1.00  0.00     0.114 C 
BRANCH  29  30
ATOM     30  O   UNL     1      -1.265  26.488  11.948  1.00  0.00    -0.393 OA
ATOM     31  H   UNL     1      -0.685  26.766  11.192  1.00  0.00     0.210 HD
ENDBRANCH  29  30
ENDBRANCH   1  11
TORSDOF 6
ENDMDL
MODEL 5
REMARK VINA RESULT:    -4.919      3.491      7.375
REMARK INTER + INTRA:          -7.967
REMARK INTER:                  -6.595
REMARK INTRA:                  -1.372
REMARK UNBOUND:                -1.466
REMARK SMILES CC[C@@H](C=C[C@@H](C)[C@@H]1CC[C@H]2C3=CC[C@H]4C[C@H](O)CC[C@@]4(C)[C@@H]3CC[C@]21C)C(C)C
REMARK SMILES IDX 6 1 7 2 5 3 4 4 3 5 2 6 1 7 28 8 29 9 30 10 8 11 9 12 26 13
REMARK SMILES IDX 10 14 11 15 25 16 27 17 12 18 24 19 23 20 13 21 21 22 14 23
REMARK SMILES IDX 15 24 20 25 22 26 16 27 19 28 17 29 18 30
REMARK H PARENT 18 31
REMARK Flexibility Score: inf
ROOT
ATOM      1  C   UNL     1      -3.681  27.110   9.991  1.00  0.00     0.012 C 
ATOM      2  C   UNL     1      -3.022  27.494   8.652  1.00  0.00     0.012 C 
ENDROOT
BRANCH   1   3
ATOM      3  C   UNL     1      -2.643  27.211  11.090  1.00  0.00    -0.028 C 
ATOM      4  C   UNL     1      -2.635  26.370  12.135  1.00  0.00    -0.027 C 
BRANCH   4   5
ATOM      5  C   UNL     1      -1.595  26.474  13.232  1.00  0.00     0.014 C 
BRANCH   5   6
ATOM      6  C   UNL     1      -0.770  27.772  13.018  1.00  0.00     0.004 C 
ATOM      7  C   UNL     1      -0.984  28.836  14.094  1.00  0.00     0.004 C 
ENDBRANCH   5   6
BRANCH   5   8
ATOM      8  C   UNL     1      -0.771  25.147  13.307  1.00  0.00    -0.011 C 
ATOM      9  C   UNL     1      -1.427  23.980  12.550  1.00  0.00     0.008 C 
ATOM     10  C   UNL     1      -0.402  24.732  14.739  1.00  0.00     0.008 C 
ENDBRANCH   5   8
ENDBRANCH   4   5
ENDBRANCH   1   3
BRANCH   1  11
ATOM     11  C   UNL     1      -4.364  25.697  10.019  1.00  0.00     0.002 C 
ATOM     12  C   UNL     1      -3.774  24.640   9.092  1.00  0.00     0.005 C 
ATOM     13  C   UNL     1      -5.897  25.643   9.791  1.00  0.00    -0.023 C 
ATOM     14  C   UNL     1      -4.854  23.569   8.953  1.00  0.00     0.009 C 
ATOM     15  C   UNL     1      -6.160  24.107   9.611  1.00  0.00     0.021 C 
ATOM     16  C   UNL     1      -6.643  26.306  10.995  1.00  0.00     0.008 C 
ATOM     17  C   UNL     1      -6.322  26.368   8.489  1.00  0.00     0.012 C 
ATOM     18  C   UNL     1      -6.582  23.388  10.907  1.00  0.00    -0.067 C 
ATOM     19  C   UNL     1      -7.861  25.508  11.433  1.00  0.00     0.009 C 
ATOM     20  C   UNL     1      -7.424  24.126  11.950  1.00  0.00     0.021 C 
ATOM     21  C   UNL     1      -6.325  22.079  11.126  1.00  0.00    -0.027 C 
ATOM     22  C   UNL     1      -8.613  23.267  12.596  1.00  0.00    -0.023 C 
ATOM     23  C   UNL     1      -6.864  21.399  12.350  1.00  0.00     0.031 C 
ATOM     24  C   UNL     1      -8.363  21.714  12.418  1.00  0.00     0.002 C 
ATOM     25  C   UNL     1      -8.688  23.660  14.111  1.00  0.00     0.010 C 
ATOM     26  C   UNL     1      -9.979  23.589  11.927  1.00  0.00     0.012 C 
ATOM     27  C   UNL     1      -9.113  20.803  13.422  1.00  0.00     0.036 C 
ATOM     28  C   UNL     1      -9.553  22.731  14.962  1.00  0.00     0.032 C 
ATOM     29  C   UNL     1      -9.023  21.299  14.867  1.00  0.00     0.114 C 
BRANCH  29  30
ATOM     30  O   UNL     1      -9.737  20.449  15.730  1.00  0.00    -0.393 OA
ATOM     31  H   UNL     1      -9.787  20.887  16.620  1.00  0.00     0.210 HD
ENDBRANCH  29  30
ENDBRANCH   1  11
TORSDOF 6
ENDMDL
MODEL 6
REMARK VINA RESULT:    -4.873      2.694      7.384
REMARK INTER + INTRA:          -7.907
REMARK INTER:                  -6.084
REMARK INTRA:                  -1.823
REMARK UNBOUND:                -1.466
REMARK SMILES CC[C@@H](C=C[C@@H](C)[C@@H]1CC[C@H]2C3=CC[C@H]4C[C@H](O)CC[C@@]4(C)[C@@H]3CC[C@]21C)C(C)C
REMARK SMILES IDX 6 1 7 2 5 3 4 4 3 5 2 6 1 7 28 8 29 9 30 10 8 11 9 12 26 13
REMARK SMILES IDX 10 14 11 15 25 16 27 17 12 18 24 19 23 20 13 21 21 22 14 23
REMARK SMILES IDX 15 24 20 25 22 26 16 27 19 28 17 29 18 30
REMARK H PARENT 18 31
REMARK Flexibility Score: inf
ROOT
ATOM      1  C   UNL     1      -4.381  25.335   7.188  1.00  0.00     0.012 C 
ATOM      2  C   UNL     1      -3.780  24.865   5.850  1.00  0.00     0.012 C 
ENDROOT
BRANCH   1   3
ATOM      3  C   UNL     1      -3.266  25.879   8.058  1.00  0.00    -0.028 C 
ATOM      4  C   UNL     1      -3.267  25.723   9.390  1.00  0.00    -0.027 C 
BRANCH   4   5
ATOM      5  C   UNL     1      -2.149  26.269  10.256  1.00  0.00     0.014 C 
BRANCH   5   6
ATOM      6  C   UNL     1      -1.831  25.239  11.373  1.00  0.00     0.004 C 
ATOM      7  C   UNL     1      -2.842  24.098  11.481  1.00  0.00     0.004 C 
ENDBRANCH   5   6
BRANCH   5   8
ATOM      8  C   UNL     1      -2.514  27.711  10.741  1.00  0.00    -0.011 C 
ATOM      9  C   UNL     1      -4.015  27.900  11.011  1.00  0.00     0.008 C 
ATOM     10  C   UNL     1      -1.978  28.821   9.825  1.00  0.00     0.008 C 
ENDBRANCH   5   8
ENDBRANCH   4   5
ENDBRANCH   1   3
BRANCH   1  11
ATOM     11  C   UNL     1      -5.197  24.248   7.973  1.00  0.00     0.002 C 
ATOM     12  C   UNL     1      -5.222  22.849   7.367  1.00  0.00     0.005 C 
ATOM     13  C   UNL     1      -6.673  24.578   8.320  1.00  0.00    -0.023 C 
ATOM     14  C   UNL     1      -6.411  22.143   8.014  1.00  0.00     0.009 C 
ATOM     15  C   UNL     1      -7.219  23.197   8.826  1.00  0.00     0.021 C 
ATOM     16  C   UNL     1      -6.732  25.739   9.365  1.00  0.00     0.008 C 
ATOM     17  C   UNL     1      -7.488  24.998   7.070  1.00  0.00     0.012 C 
ATOM     18  C   UNL     1      -7.163  23.027  10.357  1.00  0.00    -0.067 C 
ATOM     19  C   UNL     1      -7.760  25.484  10.456  1.00  0.00     0.009 C 
ATOM     20  C   UNL     1      -7.365  24.238  11.269  1.00  0.00     0.021 C 
ATOM     21  C   UNL     1      -7.043  21.815  10.946  1.00  0.00    -0.027 C 
ATOM     22  C   UNL     1      -8.289  23.978  12.552  1.00  0.00    -0.023 C 
ATOM     23  C   UNL     1      -7.115  21.693  12.440  1.00  0.00     0.031 C 
ATOM     24  C   UNL     1      -8.379  22.435  12.892  1.00  0.00     0.002 C 
ATOM     25  C   UNL     1      -7.659  24.785  13.739  1.00  0.00     0.010 C 
ATOM     26  C   UNL     1      -9.743  24.480  12.321  1.00  0.00     0.012 C 
ATOM     27  C   UNL     1      -8.769  22.100  14.355  1.00  0.00     0.036 C 
ATOM     28  C   UNL     1      -8.219  24.425  15.114  1.00  0.00     0.032 C 
ATOM     29  C   UNL     1      -8.005  22.935  15.386  1.00  0.00     0.114 C 
BRANCH  29  30
ATOM     30  O   UNL     1      -8.411  22.606  16.691  1.00  0.00    -0.393 OA
ATOM     31  H   UNL     1      -7.670  22.837  17.311  1.00  0.00     0.210 HD
ENDBRANCH  29  30
ENDBRANCH   1  11
TORSDOF 6
ENDMDL
MODEL 7
REMARK VINA RESULT:    -4.868     13.468     15.407
REMARK INTER + INTRA:          -7.899
REMARK INTER:                  -6.256
REMARK INTRA:                  -1.643
REMARK UNBOUND:                -1.466
REMARK SMILES CC[C@@H](C=C[C@@H](C)[C@@H]1CC[C@H]2C3=CC[C@H]4C[C@H](O)CC[C@@]4(C)[C@@H]3CC[C@]21C)C(C)C
REMARK SMILES IDX 6 1 7 2 5 3 4 4 3 5 2 6 1 7 28 8 29 9 30 10 8 11 9 12 26 13
REMARK SMILES IDX 10 14 11 15 25 16 27 17 12 18 24 19 23 20 13 21 21 22 14 23
REMARK SMILES IDX 15 24 20 25 22 26 16 27 19 28 17 29 18 30
REMARK H PARENT 18 31
REMARK Flexibility Score: inf
ROOT
ATOM      1  C   UNL     1     -10.665  38.728  13.133  1.00  0.00     0.012 C 
ATOM      2  C   UNL     1     -11.773  39.177  12.161  1.00  0.00     0.012 C 
ENDROOT
BRANCH   1   3
ATOM      3  C   UNL     1     -10.895  39.394  14.474  1.00  0.00    -0.028 C 
ATOM      4  C   UNL     1     -10.250  38.998  15.581  1.00  0.00    -0.027 C 
BRANCH   4   5
ATOM      5  C   UNL     1     -10.484  39.668  16.921  1.00  0.00     0.014 C 
BRANCH   5   6
ATOM      6  C   UNL     1      -9.118  39.847  17.636  1.00  0.00     0.004 C 
ATOM      7  C   UNL     1      -7.964  39.082  16.988  1.00  0.00     0.004 C 
ENDBRANCH   5   6
BRANCH   5   8
ATOM      8  C   UNL     1     -11.575  38.882  17.720  1.00  0.00    -0.011 C 
ATOM      9  C   UNL     1     -11.502  37.361  17.515  1.00  0.00     0.008 C 
ATOM     10  C   UNL     1     -13.002  39.400  17.483  1.00  0.00     0.008 C 
ENDBRANCH   5   8
ENDBRANCH   4   5
ENDBRANCH   1   3
BRANCH   1  11
ATOM     11  C   UNL     1      -9.198  38.992  12.642  1.00  0.00     0.002 C 
ATOM     12  C   UNL     1      -9.045  39.834  11.380  1.00  0.00     0.005 C 
ATOM     13  C   UNL     1      -8.284  37.756  12.432  1.00  0.00    -0.023 C 
ATOM     14  C   UNL     1      -7.635  39.551  10.867  1.00  0.00     0.009 C 
ATOM     15  C   UNL     1      -7.044  38.372  11.695  1.00  0.00     0.021 C 
ATOM     16  C   UNL     1      -7.971  37.080  13.806  1.00  0.00     0.008 C 
ATOM     17  C   UNL     1      -8.932  36.701  11.499  1.00  0.00     0.012 C 
ATOM     18  C   UNL     1      -5.884  38.753  12.636  1.00  0.00    -0.067 C 
ATOM     19  C   UNL     1      -6.512  36.671  13.932  1.00  0.00     0.009 C 
ATOM     20  C   UNL     1      -5.612  37.920  13.890  1.00  0.00     0.021 C 
ATOM     21  C   UNL     1      -5.013  39.747  12.347  1.00  0.00    -0.027 C 
ATOM     22  C   UNL     1      -4.066  37.618  14.186  1.00  0.00    -0.023 C 
ATOM     23  C   UNL     1      -3.831  39.996  13.237  1.00  0.00     0.031 C 
ATOM     24  C   UNL     1      -3.127  38.649  13.438  1.00  0.00     0.002 C 
ATOM     25  C   UNL     1      -3.875  37.699  15.739  1.00  0.00     0.010 C 
ATOM     26  C   UNL     1      -3.659  36.197  13.704  1.00  0.00     0.012 C 
ATOM     27  C   UNL     1      -1.707  38.810  14.041  1.00  0.00     0.036 C 
ATOM     28  C   UNL     1      -2.417  37.741  16.194  1.00  0.00     0.032 C 
ATOM     29  C   UNL     1      -1.714  38.945  15.566  1.00  0.00     0.114 C 
BRANCH  29  30
ATOM     30  O   UNL     1      -0.403  39.067  16.060  1.00  0.00    -0.393 OA
ATOM     31  H   UNL     1      -0.260  40.015  16.319  1.00  0.00     0.210 HD
ENDBRANCH  29  30
ENDBRANCH   1  11
TORSDOF 6
ENDMDL
MODEL 8
REMARK VINA RESULT:    -4.842      2.493      6.846
REMARK INTER + INTRA:          -7.866
REMARK INTER:                  -6.090
REMARK INTRA:                  -1.775
REMARK UNBOUND:                -1.466
REMARK SMILES CC[C@@H](C=C[C@@H](C)[C@@H]1CC[C@H]2C3=CC[C@H]4C[C@H](O)CC[C@@]4(C)[C@@H]3CC[C@]21C)C(C)C
REMARK SMILES IDX 6 1 7 2 5 3 4 4 3 5 2 6 1 7 28 8 29 9 30 10 8 11 9 12 26 13
REMARK SMILES IDX 10 14 11 15 25 16 27 17 12 18 24 19 23 20 13 21 21 22 14 23
REMARK SMILES IDX 15 24 20 25 22 26 16 27 19 28 17 29 18 30
REMARK H PARENT 18 31
REMARK Flexibility Score: inf
ROOT
ATOM      1  C   UNL     1     -10.156  21.569  11.412  1.00  0.00     0.012 C 
ATOM      2  C   UNL     1     -10.529  20.111  11.076  1.00  0.00     0.012 C 
ENDROOT
BRANCH   1   3
ATOM      3  C   UNL     1      -9.018  22.000  10.509  1.00  0.00    -0.028 C 
ATOM      4  C   UNL     1      -8.162  22.970  10.864  1.00  0.00    -0.027 C 
BRANCH   4   5
ATOM      5  C   UNL     1      -7.025  23.397   9.958  1.00  0.00     0.014 C 
BRANCH   5   6
ATOM      6  C   UNL     1      -6.444  22.140   9.256  1.00  0.00     0.004 C 
ATOM      7  C   UNL     1      -6.450  22.214   7.730  1.00  0.00     0.004 C 
ENDBRANCH   5   6
BRANCH   5   8
ATOM      8  C   UNL     1      -6.002  24.262  10.766  1.00  0.00    -0.011 C 
ATOM      9  C   UNL     1      -4.616  23.609  10.887  1.00  0.00     0.008 C 
ATOM     10  C   UNL     1      -6.523  24.701  12.143  1.00  0.00     0.008 C 
ENDBRANCH   5   8
ENDBRANCH   4   5
ENDBRANCH   1   3
BRANCH   1  11
ATOM     11  C   UNL     1      -9.787  21.835  12.914  1.00  0.00     0.002 C 
ATOM     12  C   UNL     1      -9.774  20.621  13.836  1.00  0.00     0.005 C 
ATOM     13  C   UNL     1     -10.602  22.921  13.665  1.00  0.00    -0.023 C 
ATOM     14  C   UNL     1      -9.862  21.182  15.253  1.00  0.00     0.009 C 
ATOM     15  C   UNL     1     -10.157  22.708  15.155  1.00  0.00     0.021 C 
ATOM     16  C   UNL     1     -10.286  24.334  13.074  1.00  0.00     0.008 C 
ATOM     17  C   UNL     1     -12.129  22.676  13.571  1.00  0.00     0.012 C 
ATOM     18  C   UNL     1      -9.003  23.627  15.600  1.00  0.00    -0.067 C 
ATOM     19  C   UNL     1     -10.108  25.387  14.156  1.00  0.00     0.009 C 
ATOM     20  C   UNL     1      -8.889  25.042  15.029  1.00  0.00     0.021 C 
ATOM     21  C   UNL     1      -8.127  23.272  16.567  1.00  0.00    -0.027 C 
ATOM     22  C   UNL     1      -8.508  26.177  16.095  1.00  0.00    -0.023 C 
ATOM     23  C   UNL     1      -7.096  24.251  17.047  1.00  0.00     0.031 C 
ATOM     24  C   UNL     1      -7.834  25.553  17.383  1.00  0.00     0.002 C 
ATOM     25  C   UNL     1      -7.538  27.173  15.372  1.00  0.00     0.010 C 
ATOM     26  C   UNL     1      -9.766  26.958  16.571  1.00  0.00     0.012 C 
ATOM     27  C   UNL     1      -6.961  26.529  18.213  1.00  0.00     0.036 C 
ATOM     28  C   UNL     1      -6.828  28.151  16.307  1.00  0.00     0.032 C 
ATOM     29  C   UNL     1      -6.021  27.376  17.350  1.00  0.00     0.114 C 
BRANCH  29  30
ATOM     30  O   UNL     1      -5.270  28.255  18.150  1.00  0.00    -0.393 OA
ATOM     31  H   UNL     1      -5.631  29.172  18.020  1.00  0.00     0.210 HD
ENDBRANCH  29  30
ENDBRANCH   1  11
TORSDOF 6
ENDMDL
MODEL 9
REMARK VINA RESULT:    -4.817      2.809      7.885
REMARK INTER + INTRA:          -7.832
REMARK INTER:                  -6.827
REMARK INTRA:                  -1.006
REMARK UNBOUND:                -1.466
REMARK SMILES CC[C@@H](C=C[C@@H](C)[C@@H]1CC[C@H]2C3=CC[C@H]4C[C@H](O)CC[C@@]4(C)[C@@H]3CC[C@]21C)C(C)C
REMARK SMILES IDX 6 1 7 2 5 3 4 4 3 5 2 6 1 7 28 8 29 9 30 10 8 11 9 12 26 13
REMARK SMILES IDX 10 14 11 15 25 16 27 17 12 18 24 19 23 20 13 21 21 22 14 23
REMARK SMILES IDX 15 24 20 25 22 26 16 27 19 28 17 29 18 30
REMARK H PARENT 18 31
REMARK Flexibility Score: inf
ROOT
ATOM      1  C   UNL     1      -7.090  23.228  10.923  1.00  0.00     0.012 C 
ATOM      2  C   UNL     1      -7.664  22.112  10.028  1.00  0.00     0.012 C 
ENDROOT
BRANCH   1   3
ATOM      3  C   UNL     1      -5.592  23.299  10.711  1.00  0.00    -0.028 C 
ATOM      4  C   UNL     1      -5.059  23.807   9.589  1.00  0.00    -0.027 C 
BRANCH   4   5
ATOM      5  C   UNL     1      -3.559  23.876   9.382  1.00  0.00     0.014 C 
BRANCH   5   6
ATOM      6  C   UNL     1      -3.001  25.097  10.161  1.00  0.00     0.004 C 
ATOM      7  C   UNL     1      -2.034  24.734  11.287  1.00  0.00     0.004 C 
ENDBRANCH   5   6
BRANCH   5   8
ATOM      8  C   UNL     1      -3.236  23.837   7.852  1.00  0.00    -0.011 C 
ATOM      9  C   UNL     1      -2.963  25.226   7.252  1.00  0.00     0.008 C 
ATOM     10  C   UNL     1      -4.283  23.079   7.021  1.00  0.00     0.008 C 
ENDBRANCH   5   8
ENDBRANCH   4   5
ENDBRANCH   1   3
BRANCH   1  11
ATOM     11  C   UNL     1      -7.414  23.090  12.453  1.00  0.00     0.002 C 
ATOM     12  C   UNL     1      -7.782  21.695  12.947  1.00  0.00     0.005 C 
ATOM     13  C   UNL     1      -8.492  24.039  13.040  1.00  0.00    -0.023 C 
ATOM     14  C   UNL     1      -8.487  21.907  14.284  1.00  0.00     0.009 C 
ATOM     15  C   UNL     1      -8.736  23.434  14.467  1.00  0.00     0.021 C 
ATOM     16  C   UNL     1      -7.976  25.514  13.024  1.00  0.00     0.008 C 
ATOM     17  C   UNL     1      -9.823  23.973  12.248  1.00  0.00     0.012 C 
ATOM     18  C   UNL     1      -7.905  24.103  15.579  1.00  0.00    -0.067 C 
ATOM     19  C   UNL     1      -8.303  26.256  14.311  1.00  0.00     0.009 C 
ATOM     20  C   UNL     1      -7.578  25.595  15.497  1.00  0.00     0.021 C 
ATOM     21  C   UNL     1      -7.529  23.443  16.699  1.00  0.00    -0.027 C 
ATOM     22  C   UNL     1      -7.717  26.400  16.875  1.00  0.00    -0.023 C 
ATOM     23  C   UNL     1      -6.826  24.174  17.804  1.00  0.00     0.031 C 
ATOM     24  C   UNL     1      -7.659  25.423  18.119  1.00  0.00     0.002 C 
ATOM     25  C   UNL     1      -6.547  27.441  16.915  1.00  0.00     0.010 C 
ATOM     26  C   UNL     1      -9.070  27.163  16.958  1.00  0.00     0.012 C 
ATOM     27  C   UNL     1      -7.249  26.083  19.461  1.00  0.00     0.036 C 
ATOM     28  C   UNL     1      -6.329  28.093  18.280  1.00  0.00     0.032 C 
ATOM     29  C   UNL     1      -6.043  27.016  19.328  1.00  0.00     0.114 C 
BRANCH  29  30
ATOM     30  O   UNL     1      -5.729  27.602  20.567  1.00  0.00    -0.393 OA
ATOM     31  H   UNL     1      -6.103  28.522  20.575  1.00  0.00     0.210 HD
ENDBRANCH  29  30
ENDBRANCH   1  11
TORSDOF 6
ENDMDL
