MODEL 1
REMARK VINA RESULT:    -5.266      0.000      0.000
REMARK INTER + INTRA:         -14.901
REMARK INTER:                 -11.422
REMARK INTRA:                  -3.478
REMARK UNBOUND:                -3.478
REMARK SMILES CCCCCCCCCCCCCCCCCCCCCC(=O)[O-]
REMARK SMILES IDX 12 1 11 2 10 3 9 4 8 5 7 6 6 7 5 8 4 9 3 10 2 11 1 12 13 13
REMARK SMILES IDX 14 14 15 15 16 16 17 17 18 18 19 19 20 20 21 21 22 22 23 23
REMARK SMILES IDX 24 24
REMARK H PARENT
REMARK Flexibility Score: inf
ROOT
ATOM      1  C   UNL     1     120.112 179.787 125.373  1.00  0.00     0.000 C 
ENDROOT
BRANCH   1   2
ATOM      2  C   UNL     1     120.114 178.826 124.166  1.00  0.00     0.000 C 
BRANCH   2   3
ATOM      3  C   UNL     1     121.477 178.186 123.842  1.00  0.00     0.000 C 
BRANCH   3   4
ATOM      4  C   UNL     1     121.571 176.675 124.125  1.00  0.00    -0.000 C 
BRANCH   4   5
ATOM      5  C   UNL     1     122.954 176.223 124.643  1.00  0.00    -0.000 C 
BRANCH   5   6
ATOM      6  C   UNL     1     123.954 177.384 124.747  1.00  0.00    -0.000 C 
BRANCH   6   7
ATOM      7  C   UNL     1     125.356 176.943 124.315  1.00  0.00    -0.000 C 
BRANCH   7   8
ATOM      8  C   UNL     1     125.356 176.454 122.861  1.00  0.00    -0.000 C 
BRANCH   8   9
ATOM      9  C   UNL     1     125.085 177.609 121.890  1.00  0.00    -0.000 C 
BRANCH   9  10
ATOM     10  C   UNL     1     123.824 177.339 121.055  1.00  0.00    -0.000 C 
BRANCH  10  11
ATOM     11  C   UNL     1     124.016 177.682 119.570  1.00  0.00    -0.003 C 
ATOM     12  C   UNL     1     125.234 178.569 119.320  1.00  0.00     0.004 C 
ENDBRANCH  10  11
ENDBRANCH   9  10
ENDBRANCH   8   9
ENDBRANCH   7   8
ENDBRANCH   6   7
ENDBRANCH   5   6
ENDBRANCH   4   5
ENDBRANCH   3   4
ENDBRANCH   2   3
ENDBRANCH   1   2
BRANCH   1  13
ATOM     13  C   UNL     1     121.289 179.608 126.348  1.00  0.00     0.000 C 
BRANCH  13  14
ATOM     14  C   UNL     1     120.911 178.792 127.596  1.00  0.00     0.000 C 
BRANCH  14  15
ATOM     15  C   UNL     1     121.875 177.623 127.848  1.00  0.00     0.000 C 
BRANCH  15  16
ATOM     16  C   UNL     1     121.136 176.309 128.157  1.00  0.00     0.000 C 
BRANCH  16  17
ATOM     17  C   UNL     1     119.843 176.533 128.956  1.00  0.00     0.000 C 
BRANCH  17  18
ATOM     18  C   UNL     1     118.590 176.086 128.189  1.00  0.00     0.000 C 
BRANCH  18  19
ATOM     19  C   UNL     1     118.907 175.853 126.707  1.00  0.00     0.000 C 
BRANCH  19  20
ATOM     20  C   UNL     1     117.972 176.673 125.808  1.00  0.00     0.006 C 
BRANCH  20  21
ATOM     21  C   UNL     1     117.125 177.671 126.608  1.00  0.00     0.053 C 
BRANCH  21  22
ATOM     22  C   UNL     1     116.073 178.317 125.758  1.00  0.00     0.041 C 
ATOM     23  O   UNL     1     115.145 178.979 126.294  1.00  0.00    -0.550 OA
ATOM     24  O   UNL     1     116.099 178.161 124.379  1.00  0.00    -0.550 OA
ENDBRANCH  21  22
ENDBRANCH  20  21
ENDBRANCH  19  20
ENDBRANCH  18  19
ENDBRANCH  17  18
ENDBRANCH  16  17
ENDBRANCH  15  16
ENDBRANCH  14  15
ENDBRANCH  13  14
ENDBRANCH   1  13
TORSDOF 20
ENDMDL
MODEL 2
REMARK VINA RESULT:    -5.179      3.989      7.954
REMARK INTER + INTRA:         -14.713
REMARK INTER:                 -11.519
REMARK INTRA:                  -3.194
REMARK UNBOUND:                -3.478
REMARK SMILES CCCCCCCCCCCCCCCCCCCCCC(=O)[O-]
REMARK SMILES IDX 12 1 11 2 10 3 9 4 8 5 7 6 6 7 5 8 4 9 3 10 2 11 1 12 13 13
REMARK SMILES IDX 14 14 15 15 16 16 17 17 18 18 19 19 20 20 21 21 22 22 23 23
REMARK SMILES IDX 24 24
REMARK H PARENT
REMARK Flexibility Score: inf
ROOT
ATOM      1  C   UNL     1     119.704 173.870 125.811  1.00  0.00     0.000 C 
ENDROOT
BRANCH   1   2
ATOM      2  C   UNL     1     118.971 175.169 126.205  1.00  0.00     0.000 C 
BRANCH   2   3
ATOM      3  C   UNL     1     118.922 175.460 127.717  1.00  0.00     0.000 C 
BRANCH   3   4
ATOM      4  C   UNL     1     119.163 176.931 128.106  1.00  0.00    -0.000 C 
BRANCH   4   5
ATOM      5  C   UNL     1     120.645 177.358 128.041  1.00  0.00    -0.000 C 
BRANCH   5   6
ATOM      6  C   UNL     1     120.817 178.877 127.887  1.00  0.00    -0.000 C 
BRANCH   6   7
ATOM      7  C   UNL     1     121.291 179.236 126.474  1.00  0.00    -0.000 C 
BRANCH   7   8
ATOM      8  C   UNL     1     120.120 179.712 125.605  1.00  0.00    -0.000 C 
BRANCH   8   9
ATOM      9  C   UNL     1     119.957 178.826 124.365  1.00  0.00    -0.000 C 
BRANCH   9  10
ATOM     10  C   UNL     1     118.518 178.303 124.249  1.00  0.00    -0.000 C 
BRANCH  10  11
ATOM     11  C   UNL     1     117.593 178.874 125.335  1.00  0.00    -0.003 C 
ATOM     12  C   UNL     1     116.487 177.902 125.742  1.00  0.00     0.004 C 
ENDBRANCH  10  11
ENDBRANCH   9  10
ENDBRANCH   8   9
ENDBRANCH   7   8
ENDBRANCH   6   7
ENDBRANCH   5   6
ENDBRANCH   4   5
ENDBRANCH   3   4
ENDBRANCH   2   3
ENDBRANCH   1   2
BRANCH   1  13
ATOM     13  C   UNL     1     121.128 174.069 125.260  1.00  0.00     0.000 C 
BRANCH  13  14
ATOM     14  C   UNL     1     121.352 175.477 124.683  1.00  0.00     0.000 C 
BRANCH  14  15
ATOM     15  C   UNL     1     122.711 176.069 125.091  1.00  0.00     0.000 C 
BRANCH  15  16
ATOM     16  C   UNL     1     123.220 177.115 124.083  1.00  0.00     0.000 C 
BRANCH  16  17
ATOM     17  C   UNL     1     124.694 176.900 123.706  1.00  0.00     0.000 C 
BRANCH  17  18
ATOM     18  C   UNL     1     125.006 177.347 122.270  1.00  0.00     0.000 C 
BRANCH  18  19
ATOM     19  C   UNL     1     126.432 177.902 122.164  1.00  0.00     0.000 C 
BRANCH  19  20
ATOM     20  C   UNL     1     126.980 178.280 123.548  1.00  0.00     0.006 C 
BRANCH  20  21
ATOM     21  C   UNL     1     128.447 177.868 123.724  1.00  0.00     0.053 C 
BRANCH  21  22
ATOM     22  C   UNL     1     128.592 176.708 124.661  1.00  0.00     0.041 C 
ATOM     23  O   UNL     1     129.400 176.770 125.625  1.00  0.00    -0.550 OA
ATOM     24  O   UNL     1     127.861 175.546 124.449  1.00  0.00    -0.550 OA
ENDBRANCH  21  22
ENDBRANCH  20  21
ENDBRANCH  19  20
ENDBRANCH  18  19
ENDBRANCH  17  18
ENDBRANCH  16  17
ENDBRANCH  15  16
ENDBRANCH  14  15
ENDBRANCH  13  14
ENDBRANCH   1  13
TORSDOF 20
ENDMDL
MODEL 3
REMARK VINA RESULT:    -5.099      2.438      4.962
REMARK INTER + INTRA:         -14.539
REMARK INTER:                 -10.923
REMARK INTRA:                  -3.616
REMARK UNBOUND:                -3.478
REMARK SMILES CCCCCCCCCCCCCCCCCCCCCC(=O)[O-]
REMARK SMILES IDX 12 1 11 2 10 3 9 4 8 5 7 6 6 7 5 8 4 9 3 10 2 11 1 12 13 13
REMARK SMILES IDX 14 14 15 15 16 16 17 17 18 18 19 19 20 20 21 21 22 22 23 23
REMARK SMILES IDX 24 24
REMARK H PARENT
REMARK Flexibility Score: inf
ROOT
ATOM      1  C   UNL     1     120.624 178.871 124.094  1.00  0.00     0.000 C 
ENDROOT
BRANCH   1   2
ATOM      2  C   UNL     1     121.776 177.847 124.163  1.00  0.00     0.000 C 
BRANCH   2   3
ATOM      3  C   UNL     1     121.347 176.371 124.065  1.00  0.00     0.000 C 
BRANCH   3   4
ATOM      4  C   UNL     1     122.089 175.412 125.015  1.00  0.00    -0.000 C 
BRANCH   4   5
ATOM      5  C   UNL     1     121.185 174.327 125.636  1.00  0.00    -0.000 C 
BRANCH   5   6
ATOM      6  C   UNL     1     121.719 173.813 126.982  1.00  0.00    -0.000 C 
BRANCH   6   7
ATOM      7  C   UNL     1     120.606 173.141 127.795  1.00  0.00    -0.000 C 
BRANCH   7   8
ATOM      8  C   UNL     1     119.274 173.170 127.035  1.00  0.00    -0.000 C 
BRANCH   8   9
ATOM      9  C   UNL     1     118.392 171.977 127.423  1.00  0.00    -0.000 C 
BRANCH   9  10
ATOM     10  C   UNL     1     118.361 170.930 126.299  1.00  0.00    -0.000 C 
BRANCH  10  11
ATOM     11  C   UNL     1     119.144 171.375 125.055  1.00  0.00    -0.003 C 
ATOM     12  C   UNL     1     120.265 170.406 124.684  1.00  0.00     0.004 C 
ENDBRANCH  10  11
ENDBRANCH   9  10
ENDBRANCH   8   9
ENDBRANCH   7   8
ENDBRANCH   6   7
ENDBRANCH   5   6
ENDBRANCH   4   5
ENDBRANCH   3   4
ENDBRANCH   2   3
ENDBRANCH   1   2
BRANCH   1  13
ATOM     13  C   UNL     1     120.348 179.629 125.405  1.00  0.00     0.000 C 
BRANCH  13  14
ATOM     14  C   UNL     1     121.353 179.282 126.516  1.00  0.00     0.000 C 
BRANCH  14  15
ATOM     15  C   UNL     1     120.666 178.768 127.791  1.00  0.00     0.000 C 
BRANCH  15  16
ATOM     16  C   UNL     1     120.825 177.248 127.971  1.00  0.00     0.000 C 
BRANCH  16  17
ATOM     17  C   UNL     1     119.585 176.596 128.601  1.00  0.00     0.000 C 
BRANCH  17  18
ATOM     18  C   UNL     1     118.292 176.934 127.844  1.00  0.00     0.000 C 
BRANCH  18  19
ATOM     19  C   UNL     1     118.450 176.670 126.342  1.00  0.00     0.000 C 
BRANCH  19  20
ATOM     20  C   UNL     1     117.315 177.328 125.545  1.00  0.00     0.006 C 
BRANCH  20  21
ATOM     21  C   UNL     1     116.308 178.046 126.453  1.00  0.00     0.053 C 
BRANCH  21  22
ATOM     22  C   UNL     1     115.556 179.114 125.718  1.00  0.00     0.041 C 
ATOM     23  O   UNL     1     115.079 180.097 126.343  1.00  0.00    -0.550 OA
ATOM     24  O   UNL     1     115.354 179.005 124.348  1.00  0.00    -0.550 OA
ENDBRANCH  21  22
ENDBRANCH  20  21
ENDBRANCH  19  20
ENDBRANCH  18  19
ENDBRANCH  17  18
ENDBRANCH  16  17
ENDBRANCH  15  16
ENDBRANCH  14  15
ENDBRANCH  13  14
ENDBRANCH   1  13
TORSDOF 20
ENDMDL
MODEL 4
REMARK VINA RESULT:    -5.088      1.390      2.909
REMARK INTER + INTRA:         -14.515
REMARK INTER:                 -11.145
REMARK INTRA:                  -3.370
REMARK UNBOUND:                -3.478
REMARK SMILES CCCCCCCCCCCCCCCCCCCCCC(=O)[O-]
REMARK SMILES IDX 12 1 11 2 10 3 9 4 8 5 7 6 6 7 5 8 4 9 3 10 2 11 1 12 13 13
REMARK SMILES IDX 14 14 15 15 16 16 17 17 18 18 19 19 20 20 21 21 22 22 23 23
REMARK SMILES IDX 24 24
REMARK H PARENT
REMARK Flexibility Score: inf
ROOT
ATOM      1  C   UNL     1     120.801 175.171 125.240  1.00  0.00     0.000 C 
ENDROOT
BRANCH   1   2
ATOM      2  C   UNL     1     122.272 175.597 125.426  1.00  0.00     0.000 C 
BRANCH   2   3
ATOM      3  C   UNL     1     122.839 176.497 124.313  1.00  0.00     0.000 C 
BRANCH   3   4
ATOM      4  C   UNL     1     124.085 177.314 124.706  1.00  0.00    -0.000 C 
BRANCH   4   5
ATOM      5  C   UNL     1     125.406 176.742 124.149  1.00  0.00    -0.000 C 
BRANCH   5   6
ATOM      6  C   UNL     1     126.415 177.840 123.778  1.00  0.00    -0.000 C 
BRANCH   6   7
ATOM      7  C   UNL     1     127.653 177.244 123.101  1.00  0.00    -0.000 C 
BRANCH   7   8
ATOM      8  C   UNL     1     127.257 176.202 122.048  1.00  0.00    -0.000 C 
BRANCH   8   9
ATOM      9  C   UNL     1     127.113 176.843 120.663  1.00  0.00    -0.000 C 
BRANCH   9  10
ATOM     10  C   UNL     1     125.659 176.769 120.173  1.00  0.00    -0.000 C 
BRANCH  10  11
ATOM     11  C   UNL     1     124.914 178.105 120.330  1.00  0.00    -0.003 C 
ATOM     12  C   UNL     1     123.560 177.949 121.019  1.00  0.00     0.004 C 
ENDBRANCH  10  11
ENDBRANCH   9  10
ENDBRANCH   8   9
ENDBRANCH   7   8
ENDBRANCH   6   7
ENDBRANCH   5   6
ENDBRANCH   4   5
ENDBRANCH   3   4
ENDBRANCH   2   3
ENDBRANCH   1   2
BRANCH   1  13
ATOM     13  C   UNL     1     119.857 175.572 126.388  1.00  0.00     0.000 C 
BRANCH  13  14
ATOM     14  C   UNL     1     120.592 176.263 127.549  1.00  0.00     0.000 C 
BRANCH  14  15
ATOM     15  C   UNL     1     119.960 177.612 127.925  1.00  0.00     0.000 C 
BRANCH  15  16
ATOM     16  C   UNL     1     121.002 178.740 128.024  1.00  0.00     0.000 C 
BRANCH  16  17
ATOM     17  C   UNL     1     121.509 179.196 126.647  1.00  0.00     0.000 C 
BRANCH  17  18
ATOM     18  C   UNL     1     120.397 179.807 125.781  1.00  0.00     0.000 C 
BRANCH  18  19
ATOM     19  C   UNL     1     120.233 179.032 124.468  1.00  0.00     0.000 C 
BRANCH  19  20
ATOM     20  C   UNL     1     118.842 178.389 124.378  1.00  0.00     0.006 C 
BRANCH  20  21
ATOM     21  C   UNL     1     117.789 179.171 125.175  1.00  0.00     0.053 C 
BRANCH  21  22
ATOM     22  C   UNL     1     116.634 178.302 125.574  1.00  0.00     0.041 C 
ATOM     23  O   UNL     1     115.602 178.252 124.855  1.00  0.00    -0.550 OA
ATOM     24  O   UNL     1     116.685 177.576 126.756  1.00  0.00    -0.550 OA
ENDBRANCH  21  22
ENDBRANCH  20  21
ENDBRANCH  19  20
ENDBRANCH  18  19
ENDBRANCH  17  18
ENDBRANCH  16  17
ENDBRANCH  15  16
ENDBRANCH  14  15
ENDBRANCH  13  14
ENDBRANCH   1  13
TORSDOF 20
ENDMDL
MODEL 5
REMARK VINA RESULT:    -5.059      3.570      8.007
REMARK INTER + INTRA:         -14.452
REMARK INTER:                 -11.353
REMARK INTRA:                  -3.099
REMARK UNBOUND:                -3.478
REMARK SMILES CCCCCCCCCCCCCCCCCCCCCC(=O)[O-]
REMARK SMILES IDX 12 1 11 2 10 3 9 4 8 5 7 6 6 7 5 8 4 9 3 10 2 11 1 12 13 13
REMARK SMILES IDX 14 14 15 15 16 16 17 17 18 18 19 19 20 20 21 21 22 22 23 23
REMARK SMILES IDX 24 24
REMARK H PARENT
REMARK Flexibility Score: inf
ROOT
ATOM      1  C   UNL     1     119.200 175.539 126.120  1.00  0.00     0.000 C 
ENDROOT
BRANCH   1   2
ATOM      2  C   UNL     1     119.263 176.269 127.478  1.00  0.00     0.000 C 
BRANCH   2   3
ATOM      3  C   UNL     1     120.682 176.509 128.028  1.00  0.00     0.000 C 
BRANCH   3   4
ATOM      4  C   UNL     1     121.046 177.986 128.268  1.00  0.00    -0.000 C 
BRANCH   4   5
ATOM      5  C   UNL     1     120.265 178.974 127.376  1.00  0.00    -0.000 C 
BRANCH   5   6
ATOM      6  C   UNL     1     120.962 179.235 126.033  1.00  0.00    -0.000 C 
BRANCH   6   7
ATOM      7  C   UNL     1     119.974 179.115 124.867  1.00  0.00    -0.000 C 
BRANCH   7   8
ATOM      8  C   UNL     1     118.525 179.194 125.363  1.00  0.00    -0.000 C 
BRANCH   8   9
ATOM      9  C   UNL     1     117.573 178.472 124.403  1.00  0.00    -0.000 C 
BRANCH   9  10
ATOM     10  C   UNL     1     116.481 177.718 125.176  1.00  0.00    -0.000 C 
BRANCH  10  11
ATOM     11  C   UNL     1     115.811 178.588 126.251  1.00  0.00    -0.003 C 
ATOM     12  C   UNL     1     114.544 179.279 125.749  1.00  0.00     0.004 C 
ENDBRANCH  10  11
ENDBRANCH   9  10
ENDBRANCH   8   9
ENDBRANCH   7   8
ENDBRANCH   6   7
ENDBRANCH   5   6
ENDBRANCH   4   5
ENDBRANCH   3   4
ENDBRANCH   2   3
ENDBRANCH   1   2
BRANCH   1  13
ATOM     13  C   UNL     1     120.498 174.819 125.710  1.00  0.00     0.000 C 
BRANCH  13  14
ATOM     14  C   UNL     1     121.303 175.596 124.655  1.00  0.00     0.000 C 
BRANCH  14  15
ATOM     15  C   UNL     1     122.784 175.745 125.038  1.00  0.00     0.000 C 
BRANCH  15  16
ATOM     16  C   UNL     1     123.398 177.052 124.509  1.00  0.00     0.000 C 
BRANCH  16  17
ATOM     17  C   UNL     1     122.775 177.500 123.177  1.00  0.00     0.000 C 
BRANCH  17  18
ATOM     18  C   UNL     1     123.780 177.466 122.016  1.00  0.00     0.000 C 
BRANCH  18  19
ATOM     19  C   UNL     1     125.191 177.136 122.519  1.00  0.00     0.000 C 
BRANCH  19  20
ATOM     20  C   UNL     1     126.260 177.747 121.602  1.00  0.00     0.006 C 
BRANCH  20  21
ATOM     21  C   UNL     1     126.391 176.987 120.276  1.00  0.00     0.053 C 
BRANCH  21  22
ATOM     22  C   UNL     1     126.246 177.898 119.095  1.00  0.00     0.041 C 
ATOM     23  O   UNL     1     127.051 177.817 118.130  1.00  0.00    -0.550 OA
ATOM     24  O   UNL     1     125.243 178.858 119.075  1.00  0.00    -0.550 OA
ENDBRANCH  21  22
ENDBRANCH  20  21
ENDBRANCH  19  20
ENDBRANCH  18  19
ENDBRANCH  17  18
ENDBRANCH  16  17
ENDBRANCH  15  16
ENDBRANCH  14  15
ENDBRANCH  13  14
ENDBRANCH   1  13
TORSDOF 20
ENDMDL
MODEL 6
REMARK VINA RESULT:    -5.055      1.826      3.642
REMARK INTER + INTRA:         -14.443
REMARK INTER:                 -11.473
REMARK INTRA:                  -2.971
REMARK UNBOUND:                -3.478
REMARK SMILES CCCCCCCCCCCCCCCCCCCCCC(=O)[O-]
REMARK SMILES IDX 12 1 11 2 10 3 9 4 8 5 7 6 6 7 5 8 4 9 3 10 2 11 1 12 13 13
REMARK SMILES IDX 14 14 15 15 16 16 17 17 18 18 19 19 20 20 21 21 22 22 23 23
REMARK SMILES IDX 24 24
REMARK H PARENT
REMARK Flexibility Score: inf
ROOT
ATOM      1  C   UNL     1     122.619 177.166 123.763  1.00  0.00     0.000 C 
ENDROOT
BRANCH   1   2
ATOM      2  C   UNL     1     123.818 177.078 122.796  1.00  0.00     0.000 C 
BRANCH   2   3
ATOM      3  C   UNL     1     123.606 177.751 121.427  1.00  0.00     0.000 C 
BRANCH   3   4
ATOM      4  C   UNL     1     124.881 177.912 120.577  1.00  0.00    -0.000 C 
BRANCH   4   5
ATOM      5  C   UNL     1     125.346 176.607 119.896  1.00  0.00    -0.000 C 
BRANCH   5   6
ATOM      6  C   UNL     1     126.682 176.095 120.454  1.00  0.00    -0.000 C 
BRANCH   6   7
ATOM      7  C   UNL     1     126.488 174.794 121.240  1.00  0.00    -0.000 C 
BRANCH   7   8
ATOM      8  C   UNL     1     127.378 174.766 122.489  1.00  0.00    -0.000 C 
BRANCH   8   9
ATOM      9  C   UNL     1     126.619 175.273 123.720  1.00  0.00    -0.000 C 
BRANCH   9  10
ATOM     10  C   UNL     1     127.491 176.227 124.549  1.00  0.00    -0.000 C 
BRANCH  10  11
ATOM     11  C   UNL     1     128.145 177.323 123.693  1.00  0.00    -0.003 C 
ATOM     12  C   UNL     1     127.197 178.483 123.394  1.00  0.00     0.004 C 
ENDBRANCH  10  11
ENDBRANCH   9  10
ENDBRANCH   8   9
ENDBRANCH   7   8
ENDBRANCH   6   7
ENDBRANCH   5   6
ENDBRANCH   4   5
ENDBRANCH   3   4
ENDBRANCH   2   3
ENDBRANCH   1   2
BRANCH   1  13
ATOM     13  C   UNL     1     122.972 177.009 125.253  1.00  0.00     0.000 C 
BRANCH  13  14
ATOM     14  C   UNL     1     124.025 178.026 125.726  1.00  0.00     0.000 C 
BRANCH  14  15
ATOM     15  C   UNL     1     123.507 178.923 126.861  1.00  0.00     0.000 C 
BRANCH  15  16
ATOM     16  C   UNL     1     122.933 178.112 128.035  1.00  0.00     0.000 C 
BRANCH  16  17
ATOM     17  C   UNL     1     121.605 178.685 128.555  1.00  0.00     0.000 C 
BRANCH  17  18
ATOM     18  C   UNL     1     120.513 178.716 127.475  1.00  0.00     0.000 C 
BRANCH  18  19
ATOM     19  C   UNL     1     119.707 177.411 127.470  1.00  0.00     0.000 C 
BRANCH  19  20
ATOM     20  C   UNL     1     119.366 176.981 126.037  1.00  0.00     0.006 C 
BRANCH  20  21
ATOM     21  C   UNL     1     118.954 178.168 125.156  1.00  0.00     0.053 C 
BRANCH  21  22
ATOM     22  C   UNL     1     117.486 178.452 125.254  1.00  0.00     0.041 C 
ATOM     23  O   UNL     1     117.045 179.603 124.998  1.00  0.00    -0.550 OA
ATOM     24  O   UNL     1     116.609 177.453 125.660  1.00  0.00    -0.550 OA
ENDBRANCH  21  22
ENDBRANCH  20  21
ENDBRANCH  19  20
ENDBRANCH  18  19
ENDBRANCH  17  18
ENDBRANCH  16  17
ENDBRANCH  15  16
ENDBRANCH  14  15
ENDBRANCH  13  14
ENDBRANCH   1  13
TORSDOF 20
ENDMDL
MODEL 7
REMARK VINA RESULT:    -5.045      1.400      2.474
REMARK INTER + INTRA:         -14.422
REMARK INTER:                 -10.899
REMARK INTRA:                  -3.522
REMARK UNBOUND:                -3.478
REMARK SMILES CCCCCCCCCCCCCCCCCCCCCC(=O)[O-]
REMARK SMILES IDX 12 1 11 2 10 3 9 4 8 5 7 6 6 7 5 8 4 9 3 10 2 11 1 12 13 13
REMARK SMILES IDX 14 14 15 15 16 16 17 17 18 18 19 19 20 20 21 21 22 22 23 23
REMARK SMILES IDX 24 24
REMARK H PARENT
REMARK Flexibility Score: inf
ROOT
ATOM      1  C   UNL     1     121.035 179.106 127.841  1.00  0.00     0.000 C 
ENDROOT
BRANCH   1   2
ATOM      2  C   UNL     1     121.386 179.310 126.352  1.00  0.00     0.000 C 
BRANCH   2   3
ATOM      3  C   UNL     1     120.177 179.453 125.409  1.00  0.00     0.000 C 
BRANCH   3   4
ATOM      4  C   UNL     1     120.345 178.788 124.029  1.00  0.00    -0.000 C 
BRANCH   4   5
ATOM      5  C   UNL     1     121.743 178.176 123.798  1.00  0.00    -0.000 C 
BRANCH   5   6
ATOM      6  C   UNL     1     121.765 176.656 124.017  1.00  0.00    -0.000 C 
BRANCH   6   7
ATOM      7  C   UNL     1     123.168 176.177 124.406  1.00  0.00    -0.000 C 
BRANCH   7   8
ATOM      8  C   UNL     1     124.002 177.326 124.985  1.00  0.00    -0.000 C 
BRANCH   8   9
ATOM      9  C   UNL     1     125.376 177.406 124.311  1.00  0.00    -0.000 C 
BRANCH   9  10
ATOM     10  C   UNL     1     125.768 176.052 123.701  1.00  0.00    -0.000 C 
BRANCH  10  11
ATOM     11  C   UNL     1     125.922 176.115 122.174  1.00  0.00    -0.003 C 
ATOM     12  C   UNL     1     126.485 177.450 121.690  1.00  0.00     0.004 C 
ENDBRANCH  10  11
ENDBRANCH   9  10
ENDBRANCH   8   9
ENDBRANCH   7   8
ENDBRANCH   6   7
ENDBRANCH   5   6
ENDBRANCH   4   5
ENDBRANCH   3   4
ENDBRANCH   2   3
ENDBRANCH   1   2
BRANCH   1  13
ATOM     13  C   UNL     1     121.903 178.068 128.577  1.00  0.00     0.000 C 
BRANCH  13  14
ATOM     14  C   UNL     1     121.878 176.686 127.903  1.00  0.00     0.000 C 
BRANCH  14  15
ATOM     15  C   UNL     1     121.089 175.649 128.718  1.00  0.00     0.000 C 
BRANCH  15  16
ATOM     16  C   UNL     1     119.764 175.256 128.041  1.00  0.00     0.000 C 
BRANCH  16  17
ATOM     17  C   UNL     1     119.786 175.490 126.523  1.00  0.00     0.000 C 
BRANCH  17  18
ATOM     18  C   UNL     1     118.532 176.223 126.021  1.00  0.00     0.000 C 
BRANCH  18  19
ATOM     19  C   UNL     1     117.932 177.103 127.125  1.00  0.00     0.000 C 
BRANCH  19  20
ATOM     20  C   UNL     1     116.643 177.786 126.644  1.00  0.00     0.006 C 
BRANCH  20  21
ATOM     21  C   UNL     1     116.650 178.040 125.131  1.00  0.00     0.053 C 
BRANCH  21  22
ATOM     22  C   UNL     1     116.141 179.408 124.793  1.00  0.00     0.041 C 
ATOM     23  O   UNL     1     115.215 179.549 123.951  1.00  0.00    -0.550 OA
ATOM     24  O   UNL     1     116.711 180.529 125.382  1.00  0.00    -0.550 OA
ENDBRANCH  21  22
ENDBRANCH  20  21
ENDBRANCH  19  20
ENDBRANCH  18  19
ENDBRANCH  17  18
ENDBRANCH  16  17
ENDBRANCH  15  16
ENDBRANCH  14  15
ENDBRANCH  13  14
ENDBRANCH   1  13
TORSDOF 20
ENDMDL
MODEL 8
REMARK VINA RESULT:    -4.975      3.764      7.318
REMARK INTER + INTRA:         -14.270
REMARK INTER:                 -10.750
REMARK INTRA:                  -3.520
REMARK UNBOUND:                -3.478
REMARK SMILES CCCCCCCCCCCCCCCCCCCCCC(=O)[O-]
REMARK SMILES IDX 12 1 11 2 10 3 9 4 8 5 7 6 6 7 5 8 4 9 3 10 2 11 1 12 13 13
REMARK SMILES IDX 14 14 15 15 16 16 17 17 18 18 19 19 20 20 21 21 22 22 23 23
REMARK SMILES IDX 24 24
REMARK H PARENT
REMARK Flexibility Score: inf
ROOT
ATOM      1  C   UNL     1     119.212 174.697 127.657  1.00  0.00     0.000 C 
ENDROOT
BRANCH   1   2
ATOM      2  C   UNL     1     119.501 176.085 128.268  1.00  0.00     0.000 C 
BRANCH   2   3
ATOM      3  C   UNL     1     120.880 176.231 128.937  1.00  0.00     0.000 C 
BRANCH   3   4
ATOM      4  C   UNL     1     121.643 177.521 128.582  1.00  0.00    -0.000 C 
BRANCH   4   5
ATOM      5  C   UNL     1     120.750 178.629 127.984  1.00  0.00    -0.000 C 
BRANCH   5   6
ATOM      6  C   UNL     1     121.339 179.234 126.701  1.00  0.00    -0.000 C 
BRANCH   6   7
ATOM      7  C   UNL     1     120.232 179.782 125.793  1.00  0.00    -0.000 C 
BRANCH   7   8
ATOM      8  C   UNL     1     120.384 179.254 124.361  1.00  0.00    -0.000 C 
BRANCH   8   9
ATOM      9  C   UNL     1     119.123 178.508 123.911  1.00  0.00    -0.000 C 
BRANCH   9  10
ATOM     10  C   UNL     1     118.518 177.702 125.070  1.00  0.00    -0.000 C 
BRANCH  10  11
ATOM     11  C   UNL     1     117.021 177.986 125.269  1.00  0.00    -0.003 C 
ATOM     12  C   UNL     1     116.566 177.774 126.711  1.00  0.00     0.004 C 
ENDBRANCH  10  11
ENDBRANCH   9  10
ENDBRANCH   8   9
ENDBRANCH   7   8
ENDBRANCH   6   7
ENDBRANCH   5   6
ENDBRANCH   4   5
ENDBRANCH   3   4
ENDBRANCH   2   3
ENDBRANCH   1   2
BRANCH   1  13
ATOM     13  C   UNL     1     119.552 174.563 126.161  1.00  0.00     0.000 C 
BRANCH  13  14
ATOM     14  C   UNL     1     120.696 173.571 125.896  1.00  0.00     0.000 C 
BRANCH  14  15
ATOM     15  C   UNL     1     122.037 174.275 125.637  1.00  0.00     0.000 C 
BRANCH  15  16
ATOM     16  C   UNL     1     121.862 175.769 125.315  1.00  0.00     0.000 C 
BRANCH  16  17
ATOM     17  C   UNL     1     121.813 176.045 123.804  1.00  0.00     0.000 C 
BRANCH  17  18
ATOM     18  C   UNL     1     122.949 176.966 123.335  1.00  0.00     0.000 C 
BRANCH  18  19
ATOM     19  C   UNL     1     123.843 177.379 124.511  1.00  0.00     0.000 C 
BRANCH  19  20
ATOM     20  C   UNL     1     125.311 177.023 124.239  1.00  0.00     0.006 C 
BRANCH  20  21
ATOM     21  C   UNL     1     125.564 176.693 122.762  1.00  0.00     0.053 C 
BRANCH  21  22
ATOM     22  C   UNL     1     126.907 177.177 122.305  1.00  0.00     0.041 C 
ATOM     23  O   UNL     1     127.941 176.504 122.556  1.00  0.00    -0.550 OA
ATOM     24  O   UNL     1     127.019 178.386 121.632  1.00  0.00    -0.550 OA
ENDBRANCH  21  22
ENDBRANCH  20  21
ENDBRANCH  19  20
ENDBRANCH  18  19
ENDBRANCH  17  18
ENDBRANCH  16  17
ENDBRANCH  15  16
ENDBRANCH  14  15
ENDBRANCH  13  14
ENDBRANCH   1  13
TORSDOF 20
ENDMDL
MODEL 9
REMARK VINA RESULT:    -4.973      3.910      7.550
REMARK INTER + INTRA:         -14.266
REMARK INTER:                 -10.714
REMARK INTRA:                  -3.552
REMARK UNBOUND:                -3.478
REMARK SMILES CCCCCCCCCCCCCCCCCCCCCC(=O)[O-]
REMARK SMILES IDX 12 1 11 2 10 3 9 4 8 5 7 6 6 7 5 8 4 9 3 10 2 11 1 12 13 13
REMARK SMILES IDX 14 14 15 15 16 16 17 17 18 18 19 19 20 20 21 21 22 22 23 23
REMARK SMILES IDX 24 24
REMARK H PARENT
REMARK Flexibility Score: inf
ROOT
ATOM      1  C   UNL     1     119.612 177.850 124.861  1.00  0.00     0.000 C 
ENDROOT
BRANCH   1   2
ATOM      2  C   UNL     1     120.200 179.130 125.491  1.00  0.00     0.000 C 
BRANCH   2   3
ATOM      3  C   UNL     1     120.748 178.964 126.921  1.00  0.00     0.000 C 
BRANCH   3   4
ATOM      4  C   UNL     1     122.270 179.159 127.062  1.00  0.00    -0.000 C 
BRANCH   4   5
ATOM      5  C   UNL     1     122.932 178.191 128.066  1.00  0.00    -0.000 C 
BRANCH   5   6
ATOM      6  C   UNL     1     121.904 177.424 128.911  1.00  0.00    -0.000 C 
BRANCH   6   7
ATOM      7  C   UNL     1     122.041 175.911 128.705  1.00  0.00    -0.000 C 
BRANCH   7   8
ATOM      8  C   UNL     1     120.695 175.204 128.902  1.00  0.00    -0.000 C 
BRANCH   8   9
ATOM      9  C   UNL     1     120.612 173.929 128.056  1.00  0.00    -0.000 C 
BRANCH   9  10
ATOM     10  C   UNL     1     122.012 173.361 127.779  1.00  0.00    -0.000 C 
BRANCH  10  11
ATOM     11  C   UNL     1     122.105 172.659 126.415  1.00  0.00    -0.003 C 
ATOM     12  C   UNL     1     120.736 172.382 125.797  1.00  0.00     0.004 C 
ENDBRANCH  10  11
ENDBRANCH   9  10
ENDBRANCH   8   9
ENDBRANCH   7   8
ENDBRANCH   6   7
ENDBRANCH   5   6
ENDBRANCH   4   5
ENDBRANCH   3   4
ENDBRANCH   2   3
ENDBRANCH   1   2
BRANCH   1  13
ATOM     13  C   UNL     1     120.185 176.532 125.414  1.00  0.00     0.000 C 
BRANCH  13  14
ATOM     14  C   UNL     1     121.223 175.893 124.476  1.00  0.00     0.000 C 
BRANCH  14  15
ATOM     15  C   UNL     1     122.645 175.936 125.056  1.00  0.00     0.000 C 
BRANCH  15  16
ATOM     16  C   UNL     1     123.503 177.047 124.427  1.00  0.00     0.000 C 
BRANCH  16  17
ATOM     17  C   UNL     1     122.916 177.568 123.106  1.00  0.00     0.000 C 
BRANCH  17  18
ATOM     18  C   UNL     1     123.883 177.399 121.924  1.00  0.00     0.000 C 
BRANCH  18  19
ATOM     19  C   UNL     1     125.233 176.844 122.394  1.00  0.00     0.000 C 
BRANCH  19  20
ATOM     20  C   UNL     1     126.195 176.662 121.211  1.00  0.00     0.006 C 
BRANCH  20  21
ATOM     21  C   UNL     1     125.453 176.384 119.897  1.00  0.00     0.053 C 
BRANCH  21  22
ATOM     22  C   UNL     1     125.733 177.435 118.866  1.00  0.00     0.041 C 
ATOM     23  O   UNL     1     125.215 177.352 117.721  1.00  0.00    -0.550 OA
ATOM     24  O   UNL     1     126.592 178.486 119.158  1.00  0.00    -0.550 OA
ENDBRANCH  21  22
ENDBRANCH  20  21
ENDBRANCH  19  20
ENDBRANCH  18  19
ENDBRANCH  17  18
ENDBRANCH  16  17
ENDBRANCH  15  16
ENDBRANCH  14  15
ENDBRANCH  13  14
ENDBRANCH   1  13
TORSDOF 20
ENDMDL
