MODEL 1
REMARK VINA RESULT:    -2.324      0.000      0.000
REMARK INTER + INTRA:          -5.673
REMARK INTER:                  -5.313
REMARK INTRA:                  -0.360
REMARK UNBOUND:                -0.360
REMARK SMILES CCCCCCCCCCCCCCCCCCCCCCCC(=O)[O-]
REMARK SMILES IDX 13 1 14 2 15 3 16 4 17 5 18 6 19 7 20 8 21 9 22 10 23 11
REMARK SMILES IDX 24 12 25 13 26 14 12 15 11 16 10 17 9 18 8 19 7 20 6 21 5 22
REMARK SMILES IDX 4 23 3 24 2 25 1 26
REMARK H PARENT
REMARK Flexibility Score: inf
ROOT
ATOM      1  C   UNL     1    -117.218 -99.472  37.783  1.00  0.00     0.000 C 
ENDROOT
BRANCH   1   2
ATOM      2  C   UNL     1    -118.490-100.124  38.353  1.00  0.00     0.000 C 
BRANCH   2   3
ATOM      3  C   UNL     1    -118.585-100.013  39.882  1.00  0.00     0.000 C 
BRANCH   3   4
ATOM      4  C   UNL     1    -117.484 -99.107  40.441  1.00  0.00     0.000 C 
BRANCH   4   5
ATOM      5  C   UNL     1    -118.071 -97.781  40.946  1.00  0.00     0.000 C 
BRANCH   5   6
ATOM      6  C   UNL     1    -118.030 -97.648  42.480  1.00  0.00     0.000 C 
BRANCH   6   7
ATOM      7  C   UNL     1    -117.466 -98.874  43.224  1.00  0.00     0.000 C 
BRANCH   7   8
ATOM      8  C   UNL     1    -118.530 -99.947  43.503  1.00  0.00     0.000 C 
BRANCH   8   9
ATOM      9  C   UNL     1    -118.961 -99.929  44.974  1.00  0.00     0.000 C 
BRANCH   9  10
ATOM     10  C   UNL     1    -118.292 -98.770  45.728  1.00  0.00     0.006 C 
BRANCH  10  11
ATOM     11  C   UNL     1    -117.480 -99.254  46.936  1.00  0.00     0.053 C 
BRANCH  11  12
ATOM     12  C   UNL     1    -118.012 -98.700  48.222  1.00  0.00     0.041 C 
ATOM     13  O   UNL     1    -117.436 -97.731  48.783  1.00  0.00    -0.550 OA
ATOM     14  O   UNL     1    -119.125 -99.279  48.819  1.00  0.00    -0.550 OA
ENDBRANCH  11  12
ENDBRANCH  10  11
ENDBRANCH   9  10
ENDBRANCH   8   9
ENDBRANCH   7   8
ENDBRANCH   6   7
ENDBRANCH   5   6
ENDBRANCH   4   5
ENDBRANCH   3   4
ENDBRANCH   2   3
ENDBRANCH   1   2
BRANCH   1  15
ATOM     15  C   UNL     1    -117.258 -99.180  36.273  1.00  0.00     0.000 C 
BRANCH  15  16
ATOM     16  C   UNL     1    -115.924 -98.645  35.724  1.00  0.00     0.000 C 
BRANCH  16  17
ATOM     17  C   UNL     1    -115.280 -99.627  34.720  1.00  0.00     0.000 C 
BRANCH  17  18
ATOM     18  C   UNL     1    -116.018 -99.697  33.374  1.00  0.00    -0.000 C 
BRANCH  18  19
ATOM     19  C   UNL     1    -117.496-100.104  33.522  1.00  0.00    -0.000 C 
BRANCH  19  20
ATOM     20  C   UNL     1    -118.290 -99.956  32.207  1.00  0.00    -0.000 C 
BRANCH  20  21
ATOM     21  C   UNL     1    -119.022 -98.608  32.062  1.00  0.00    -0.000 C 
BRANCH  21  22
ATOM     22  C   UNL     1    -118.987 -97.990  30.655  1.00  0.00    -0.000 C 
BRANCH  22  23
ATOM     23  C   UNL     1    -118.489 -96.534  30.654  1.00  0.00    -0.000 C 
BRANCH  23  24
ATOM     24  C   UNL     1    -117.118 -96.423  31.338  1.00  0.00    -0.000 C 
BRANCH  24  25
ATOM     25  C   UNL     1    -117.229 -96.355  32.870  1.00  0.00    -0.003 C 
ATOM     26  C   UNL     1    -115.872 -96.230  33.557  1.00  0.00     0.004 C 
ENDBRANCH  24  25
ENDBRANCH  23  24
ENDBRANCH  22  23
ENDBRANCH  21  22
ENDBRANCH  20  21
ENDBRANCH  19  20
ENDBRANCH  18  19
ENDBRANCH  17  18
ENDBRANCH  16  17
ENDBRANCH  15  16
ENDBRANCH   1  15
TORSDOF 22
ENDMDL
MODEL 2
REMARK VINA RESULT:    -1.899      5.051     12.410
REMARK INTER + INTRA:          -4.701
REMARK INTER:                  -6.496
REMARK INTRA:                   1.795
REMARK UNBOUND:                -0.360
REMARK SMILES CCCCCCCCCCCCCCCCCCCCCCCC(=O)[O-]
REMARK SMILES IDX 13 1 14 2 15 3 16 4 17 5 18 6 19 7 20 8 21 9 22 10 23 11
REMARK SMILES IDX 24 12 25 13 26 14 12 15 11 16 10 17 9 18 8 19 7 20 6 21 5 22
REMARK SMILES IDX 4 23 3 24 2 25 1 26
REMARK H PARENT
REMARK Flexibility Score: inf
ROOT
ATOM      1  C   UNL     1    -115.941 -98.852  41.709  1.00  0.00     0.000 C 
ENDROOT
BRANCH   1   2
ATOM      2  C   UNL     1    -116.702-100.118  41.279  1.00  0.00     0.000 C 
BRANCH   2   3
ATOM      3  C   UNL     1    -118.204 -99.874  41.077  1.00  0.00     0.000 C 
BRANCH   3   4
ATOM      4  C   UNL     1    -118.608-100.090  39.615  1.00  0.00     0.000 C 
BRANCH   4   5
ATOM      5  C   UNL     1    -117.376-100.080  38.700  1.00  0.00     0.000 C 
BRANCH   5   6
ATOM      6  C   UNL     1    -117.736-100.067  37.203  1.00  0.00     0.000 C 
BRANCH   6   7
ATOM      7  C   UNL     1    -116.534 -99.965  36.245  1.00  0.00     0.000 C 
BRANCH   7   8
ATOM      8  C   UNL     1    -116.767 -98.978  35.092  1.00  0.00     0.000 C 
BRANCH   8   9
ATOM      9  C   UNL     1    -115.708 -99.145  33.996  1.00  0.00     0.000 C 
BRANCH   9  10
ATOM     10  C   UNL     1    -116.341 -99.046  32.601  1.00  0.00     0.006 C 
BRANCH  10  11
ATOM     11  C   UNL     1    -117.668 -98.276  32.617  1.00  0.00     0.053 C 
BRANCH  11  12
ATOM     12  C   UNL     1    -117.545 -96.942  31.947  1.00  0.00     0.041 C 
ATOM     13  O   UNL     1    -117.272 -95.916  32.622  1.00  0.00    -0.550 OA
ATOM     14  O   UNL     1    -117.767 -96.828  30.581  1.00  0.00    -0.550 OA
ENDBRANCH  11  12
ENDBRANCH  10  11
ENDBRANCH   9  10
ENDBRANCH   8   9
ENDBRANCH   7   8
ENDBRANCH   6   7
ENDBRANCH   5   6
ENDBRANCH   4   5
ENDBRANCH   3   4
ENDBRANCH   2   3
ENDBRANCH   1   2
BRANCH   1  15
ATOM     15  C   UNL     1    -116.831 -97.653  42.083  1.00  0.00     0.000 C 
BRANCH  15  16
ATOM     16  C   UNL     1    -118.227 -98.067  42.578  1.00  0.00     0.000 C 
BRANCH  16  17
ATOM     17  C   UNL     1    -118.151 -99.178  43.648  1.00  0.00     0.000 C 
BRANCH  17  18
ATOM     18  C   UNL     1    -117.758 -98.661  45.041  1.00  0.00    -0.000 C 
BRANCH  18  19
ATOM     19  C   UNL     1    -118.287 -99.551  46.181  1.00  0.00    -0.000 C 
BRANCH  19  20
ATOM     20  C   UNL     1    -117.218 -99.841  47.256  1.00  0.00    -0.000 C 
BRANCH  20  21
ATOM     21  C   UNL     1    -117.556 -99.273  48.648  1.00  0.00    -0.000 C 
BRANCH  21  22
ATOM     22  C   UNL     1    -119.006 -98.797  48.829  1.00  0.00    -0.000 C 
BRANCH  22  23
ATOM     23  C   UNL     1    -119.120 -97.273  48.996  1.00  0.00    -0.000 C 
BRANCH  23  24
ATOM     24  C   UNL     1    -117.956 -96.556  48.296  1.00  0.00    -0.000 C 
BRANCH  24  25
ATOM     25  C   UNL     1    -118.347 -95.161  47.783  1.00  0.00    -0.003 C 
ATOM     26  C   UNL     1    -118.776 -94.216  48.903  1.00  0.00     0.004 C 
ENDBRANCH  24  25
ENDBRANCH  23  24
ENDBRANCH  22  23
ENDBRANCH  21  22
ENDBRANCH  20  21
ENDBRANCH  19  20
ENDBRANCH  18  19
ENDBRANCH  17  18
ENDBRANCH  16  17
ENDBRANCH  15  16
ENDBRANCH   1  15
TORSDOF 22
ENDMDL
MODEL 3
REMARK VINA RESULT:    -1.441      1.508      2.082
REMARK INTER + INTRA:          -3.655
REMARK INTER:                  -3.661
REMARK INTRA:                   0.007
REMARK UNBOUND:                -0.360
REMARK SMILES CCCCCCCCCCCCCCCCCCCCCCCC(=O)[O-]
REMARK SMILES IDX 13 1 14 2 15 3 16 4 17 5 18 6 19 7 20 8 21 9 22 10 23 11
REMARK SMILES IDX 24 12 25 13 26 14 12 15 11 16 10 17 9 18 8 19 7 20 6 21 5 22
REMARK SMILES IDX 4 23 3 24 2 25 1 26
REMARK H PARENT
REMARK Flexibility Score: inf
ROOT
ATOM      1  C   UNL     1    -116.869 -99.691  37.025  1.00  0.00     0.000 C 
ENDROOT
BRANCH   1   2
ATOM      2  C   UNL     1    -118.208 -99.961  37.734  1.00  0.00     0.000 C 
BRANCH   2   3
ATOM      3  C   UNL     1    -118.111 -99.844  39.262  1.00  0.00     0.000 C 
BRANCH   3   4
ATOM      4  C   UNL     1    -117.378 -98.563  39.673  1.00  0.00     0.000 C 
BRANCH   4   5
ATOM      5  C   UNL     1    -117.765 -98.145  41.099  1.00  0.00     0.000 C 
BRANCH   5   6
ATOM      6  C   UNL     1    -116.664 -98.439  42.134  1.00  0.00     0.000 C 
BRANCH   6   7
ATOM      7  C   UNL     1    -116.962 -99.614  43.086  1.00  0.00     0.000 C 
BRANCH   7   8
ATOM      8  C   UNL     1    -118.275 -99.437  43.863  1.00  0.00     0.000 C 
BRANCH   8   9
ATOM      9  C   UNL     1    -118.033 -99.485  45.376  1.00  0.00     0.000 C 
BRANCH   9  10
ATOM     10  C   UNL     1    -117.568 -98.118  45.901  1.00  0.00     0.006 C 
BRANCH  10  11
ATOM     11  C   UNL     1    -118.739 -97.157  46.141  1.00  0.00     0.053 C 
BRANCH  11  12
ATOM     12  C   UNL     1    -118.405 -96.118  47.167  1.00  0.00     0.041 C 
ATOM     13  O   UNL     1    -118.370 -96.420  48.388  1.00  0.00    -0.550 OA
ATOM     14  O   UNL     1    -118.166 -94.807  46.775  1.00  0.00    -0.550 OA
ENDBRANCH  11  12
ENDBRANCH  10  11
ENDBRANCH   9  10
ENDBRANCH   8   9
ENDBRANCH   7   8
ENDBRANCH   6   7
ENDBRANCH   5   6
ENDBRANCH   4   5
ENDBRANCH   3   4
ENDBRANCH   2   3
ENDBRANCH   1   2
BRANCH   1  15
ATOM     15  C   UNL     1    -116.990 -99.182  35.578  1.00  0.00     0.000 C 
BRANCH  15  16
ATOM     16  C   UNL     1    -115.762 -98.380  35.114  1.00  0.00     0.000 C 
BRANCH  16  17
ATOM     17  C   UNL     1    -114.873 -99.196  34.150  1.00  0.00     0.000 C 
BRANCH  17  18
ATOM     18  C   UNL     1    -115.653 -99.833  32.990  1.00  0.00    -0.000 C 
BRANCH  18  19
ATOM     19  C   UNL     1    -117.172 -99.869  33.239  1.00  0.00    -0.000 C 
BRANCH  19  20
ATOM     20  C   UNL     1    -117.982-100.117  31.948  1.00  0.00    -0.000 C 
BRANCH  20  21
ATOM     21  C   UNL     1    -118.133 -98.873  31.051  1.00  0.00    -0.000 C 
BRANCH  21  22
ATOM     22  C   UNL     1    -118.273 -97.537  31.799  1.00  0.00    -0.000 C 
BRANCH  22  23
ATOM     23  C   UNL     1    -118.286 -96.322  30.857  1.00  0.00    -0.000 C 
BRANCH  23  24
ATOM     24  C   UNL     1    -119.121 -95.177  31.449  1.00  0.00    -0.000 C 
BRANCH  24  25
ATOM     25  C   UNL     1    -119.079 -93.909  30.582  1.00  0.00    -0.003 C 
ATOM     26  C   UNL     1    -119.113 -94.213  29.086  1.00  0.00     0.004 C 
ENDBRANCH  24  25
ENDBRANCH  23  24
ENDBRANCH  22  23
ENDBRANCH  21  22
ENDBRANCH  20  21
ENDBRANCH  19  20
ENDBRANCH  18  19
ENDBRANCH  17  18
ENDBRANCH  16  17
ENDBRANCH  15  16
ENDBRANCH   1  15
TORSDOF 22
ENDMDL
MODEL 4
REMARK VINA RESULT:    -0.091      1.462      3.114
REMARK INTER + INTRA:          -0.569
REMARK INTER:                   1.469
REMARK INTRA:                  -2.038
REMARK UNBOUND:                -0.360
REMARK SMILES CCCCCCCCCCCCCCCCCCCCCCCC(=O)[O-]
REMARK SMILES IDX 13 1 14 2 15 3 16 4 17 5 18 6 19 7 20 8 21 9 22 10 23 11
REMARK SMILES IDX 24 12 25 13 26 14 12 15 11 16 10 17 9 18 8 19 7 20 6 21 5 22
REMARK SMILES IDX 4 23 3 24 2 25 1 26
REMARK H PARENT
REMARK Flexibility Score: inf
ROOT
ATOM      1  C   UNL     1    -115.201 -97.325  35.571  1.00  0.00     0.000 C 
ENDROOT
BRANCH   1   2
ATOM      2  C   UNL     1    -115.102 -98.552  36.496  1.00  0.00     0.000 C 
BRANCH   2   3
ATOM      3  C   UNL     1    -116.146 -99.630  36.175  1.00  0.00     0.000 C 
BRANCH   3   4
ATOM      4  C   UNL     1    -117.326 -99.566  37.150  1.00  0.00     0.000 C 
BRANCH   4   5
ATOM      5  C   UNL     1    -116.927-100.112  38.529  1.00  0.00     0.000 C 
BRANCH   5   6
ATOM      6  C   UNL     1    -116.731 -99.006  39.582  1.00  0.00     0.000 C 
BRANCH   6   7
ATOM      7  C   UNL     1    -117.968 -98.123  39.836  1.00  0.00     0.000 C 
BRANCH   7   8
ATOM      8  C   UNL     1    -117.851 -97.282  41.116  1.00  0.00     0.000 C 
BRANCH   8   9
ATOM      9  C   UNL     1    -118.636 -97.918  42.270  1.00  0.00     0.000 C 
BRANCH   9  10
ATOM     10  C   UNL     1    -117.744 -98.869  43.081  1.00  0.00     0.006 C 
BRANCH  10  11
ATOM     11  C   UNL     1    -118.394 -99.288  44.406  1.00  0.00     0.053 C 
BRANCH  11  12
ATOM     12  C   UNL     1    -118.211 -98.248  45.469  1.00  0.00     0.041 C 
ATOM     13  O   UNL     1    -117.985 -98.590  46.659  1.00  0.00    -0.550 OA
ATOM     14  O   UNL     1    -118.324 -96.901  45.148  1.00  0.00    -0.550 OA
ENDBRANCH  11  12
ENDBRANCH  10  11
ENDBRANCH   9  10
ENDBRANCH   8   9
ENDBRANCH   7   8
ENDBRANCH   6   7
ENDBRANCH   5   6
ENDBRANCH   4   5
ENDBRANCH   3   4
ENDBRANCH   2   3
ENDBRANCH   1   2
BRANCH   1  15
ATOM     15  C   UNL     1    -116.062 -97.528  34.312  1.00  0.00     0.000 C 
BRANCH  15  16
ATOM     16  C   UNL     1    -115.359 -97.078  33.020  1.00  0.00     0.000 C 
BRANCH  16  17
ATOM     17  C   UNL     1    -115.086 -98.265  32.071  1.00  0.00     0.000 C 
BRANCH  17  18
ATOM     18  C   UNL     1    -115.533 -99.621  32.642  1.00  0.00    -0.000 C 
BRANCH  18  19
ATOM     19  C   UNL     1    -116.876-100.101  32.060  1.00  0.00    -0.000 C 
BRANCH  19  20
ATOM     20  C   UNL     1    -118.063 -99.842  33.011  1.00  0.00    -0.000 C 
BRANCH  20  21
ATOM     21  C   UNL     1    -119.086 -98.820  32.477  1.00  0.00    -0.000 C 
BRANCH  21  22
ATOM     22  C   UNL     1    -119.125 -97.477  33.224  1.00  0.00    -0.000 C 
BRANCH  22  23
ATOM     23  C   UNL     1    -118.870 -96.272  32.303  1.00  0.00    -0.000 C 
BRANCH  23  24
ATOM     24  C   UNL     1    -118.357 -96.730  30.930  1.00  0.00    -0.000 C 
BRANCH  24  25
ATOM     25  C   UNL     1    -118.932 -95.892  29.777  1.00  0.00    -0.003 C 
ATOM     26  C   UNL     1    -119.125 -94.424  30.150  1.00  0.00     0.004 C 
ENDBRANCH  24  25
ENDBRANCH  23  24
ENDBRANCH  22  23
ENDBRANCH  21  22
ENDBRANCH  20  21
ENDBRANCH  19  20
ENDBRANCH  18  19
ENDBRANCH  17  18
ENDBRANCH  16  17
ENDBRANCH  15  16
ENDBRANCH   1  15
TORSDOF 22
ENDMDL
MODEL 5
REMARK VINA RESULT:     0.596      5.378     11.721
REMARK INTER + INTRA:           1.003
REMARK INTER:                   0.462
REMARK INTRA:                   0.542
REMARK UNBOUND:                -0.360
REMARK SMILES CCCCCCCCCCCCCCCCCCCCCCCC(=O)[O-]
REMARK SMILES IDX 13 1 14 2 15 3 16 4 17 5 18 6 19 7 20 8 21 9 22 10 23 11
REMARK SMILES IDX 24 12 25 13 26 14 12 15 11 16 10 17 9 18 8 19 7 20 6 21 5 22
REMARK SMILES IDX 4 23 3 24 2 25 1 26
REMARK H PARENT
REMARK Flexibility Score: inf
ROOT
ATOM      1  C   UNL     1    -115.239 -97.720  36.232  1.00  0.00     0.000 C 
ENDROOT
BRANCH   1   2
ATOM      2  C   UNL     1    -115.665 -97.799  34.755  1.00  0.00     0.000 C 
BRANCH   2   3
ATOM      3  C   UNL     1    -115.347 -99.157  34.112  1.00  0.00     0.000 C 
BRANCH   3   4
ATOM      4  C   UNL     1    -116.611 -99.810  33.543  1.00  0.00     0.000 C 
BRANCH   4   5
ATOM      5  C   UNL     1    -117.617-100.121  34.660  1.00  0.00     0.000 C 
BRANCH   5   6
ATOM      6  C   UNL     1    -118.949 -99.365  34.500  1.00  0.00     0.000 C 
BRANCH   6   7
ATOM      7  C   UNL     1    -119.124 -98.631  33.157  1.00  0.00     0.000 C 
BRANCH   7   8
ATOM      8  C   UNL     1    -118.132 -99.102  32.083  1.00  0.00     0.000 C 
BRANCH   8   9
ATOM      9  C   UNL     1    -118.564 -98.636  30.688  1.00  0.00     0.000 C 
BRANCH   9  10
ATOM     10  C   UNL     1    -118.117 -97.189  30.430  1.00  0.00     0.006 C 
BRANCH  10  11
ATOM     11  C   UNL     1    -119.122 -96.164  30.970  1.00  0.00     0.053 C 
BRANCH  11  12
ATOM     12  C   UNL     1    -118.894 -94.801  30.391  1.00  0.00     0.041 C 
ATOM     13  O   UNL     1    -118.542 -94.674  29.189  1.00  0.00    -0.550 OA
ATOM     14  O   UNL     1    -119.039 -93.674  31.190  1.00  0.00    -0.550 OA
ENDBRANCH  11  12
ENDBRANCH  10  11
ENDBRANCH   9  10
ENDBRANCH   8   9
ENDBRANCH   7   8
ENDBRANCH   6   7
ENDBRANCH   5   6
ENDBRANCH   4   5
ENDBRANCH   3   4
ENDBRANCH   2   3
ENDBRANCH   1   2
BRANCH   1  15
ATOM     15  C   UNL     1    -115.637 -98.933  37.090  1.00  0.00     0.000 C 
BRANCH  15  16
ATOM     16  C   UNL     1    -116.915 -98.699  37.915  1.00  0.00     0.000 C 
BRANCH  16  17
ATOM     17  C   UNL     1    -117.754 -99.987  38.053  1.00  0.00     0.000 C 
BRANCH  17  18
ATOM     18  C   UNL     1    -118.556-100.059  39.362  1.00  0.00    -0.000 C 
BRANCH  18  19
ATOM     19  C   UNL     1    -118.673 -98.695  40.067  1.00  0.00    -0.000 C 
BRANCH  19  20
ATOM     20  C   UNL     1    -118.682 -98.817  41.605  1.00  0.00    -0.000 C 
BRANCH  20  21
ATOM     21  C   UNL     1    -117.295 -99.078  42.224  1.00  0.00    -0.000 C 
BRANCH  21  22
ATOM     22  C   UNL     1    -117.118 -98.585  43.669  1.00  0.00    -0.000 C 
BRANCH  22  23
ATOM     23  C   UNL     1    -117.760 -99.525  44.705  1.00  0.00    -0.000 C 
BRANCH  23  24
ATOM     24  C   UNL     1    -118.613 -98.734  45.708  1.00  0.00    -0.000 C 
BRANCH  24  25
ATOM     25  C   UNL     1    -117.767 -97.823  46.610  1.00  0.00    -0.003 C 
ATOM     26  C   UNL     1    -117.721 -98.301  48.059  1.00  0.00     0.004 C 
ENDBRANCH  24  25
ENDBRANCH  23  24
ENDBRANCH  22  23
ENDBRANCH  21  22
ENDBRANCH  20  21
ENDBRANCH  19  20
ENDBRANCH  18  19
ENDBRANCH  17  18
ENDBRANCH  16  17
ENDBRANCH  15  16
ENDBRANCH   1  15
TORSDOF 22
ENDMDL
MODEL 6
REMARK VINA RESULT:     0.663      4.108     10.540
REMARK INTER + INTRA:           1.156
REMARK INTER:                   0.367
REMARK INTRA:                   0.788
REMARK UNBOUND:                -0.360
REMARK SMILES CCCCCCCCCCCCCCCCCCCCCCCC(=O)[O-]
REMARK SMILES IDX 13 1 14 2 15 3 16 4 17 5 18 6 19 7 20 8 21 9 22 10 23 11
REMARK SMILES IDX 24 12 25 13 26 14 12 15 11 16 10 17 9 18 8 19 7 20 6 21 5 22
REMARK SMILES IDX 4 23 3 24 2 25 1 26
REMARK H PARENT
REMARK Flexibility Score: inf
ROOT
ATOM      1  C   UNL     1    -114.224 -96.309  35.446  1.00  0.00     0.000 C 
ENDROOT
BRANCH   1   2
ATOM      2  C   UNL     1    -115.061 -95.922  34.214  1.00  0.00     0.000 C 
BRANCH   2   3
ATOM      3  C   UNL     1    -115.131 -97.040  33.164  1.00  0.00     0.000 C 
BRANCH   3   4
ATOM      4  C   UNL     1    -116.584 -97.407  32.842  1.00  0.00     0.000 C 
BRANCH   4   5
ATOM      5  C   UNL     1    -117.340 -96.198  32.274  1.00  0.00     0.000 C 
BRANCH   5   6
ATOM      6  C   UNL     1    -117.754 -96.382  30.802  1.00  0.00     0.000 C 
BRANCH   6   7
ATOM      7  C   UNL     1    -119.125 -97.053  30.590  1.00  0.00     0.000 C 
BRANCH   7   8
ATOM      8  C   UNL     1    -119.068 -98.237  29.615  1.00  0.00     0.000 C 
BRANCH   8   9
ATOM      9  C   UNL     1    -119.072 -99.574  30.366  1.00  0.00     0.000 C 
BRANCH   9  10
ATOM     10  C   UNL     1    -118.331 -99.452  31.706  1.00  0.00     0.006 C 
BRANCH  10  11
ATOM     11  C   UNL     1    -119.093-100.125  32.856  1.00  0.00     0.053 C 
BRANCH  11  12
ATOM     12  C   UNL     1    -119.039 -99.309  34.111  1.00  0.00     0.041 C 
ATOM     13  O   UNL     1    -118.966 -98.054  34.050  1.00  0.00    -0.550 OA
ATOM     14  O   UNL     1    -119.037 -99.940  35.349  1.00  0.00    -0.550 OA
ENDBRANCH  11  12
ENDBRANCH  10  11
ENDBRANCH   9  10
ENDBRANCH   8   9
ENDBRANCH   7   8
ENDBRANCH   6   7
ENDBRANCH   5   6
ENDBRANCH   4   5
ENDBRANCH   3   4
ENDBRANCH   2   3
ENDBRANCH   1   2
BRANCH   1  15
ATOM     15  C   UNL     1    -114.341 -97.781  35.877  1.00  0.00     0.000 C 
BRANCH  15  16
ATOM     16  C   UNL     1    -115.775 -98.330  35.772  1.00  0.00     0.000 C 
BRANCH  16  17
ATOM     17  C   UNL     1    -115.842 -99.832  36.125  1.00  0.00     0.000 C 
BRANCH  17  18
ATOM     18  C   UNL     1    -116.580-100.118  37.443  1.00  0.00    -0.000 C 
BRANCH  18  19
ATOM     19  C   UNL     1    -116.546 -98.927  38.418  1.00  0.00    -0.000 C 
BRANCH  19  20
ATOM     20  C   UNL     1    -117.839 -98.803  39.252  1.00  0.00    -0.000 C 
BRANCH  20  21
ATOM     21  C   UNL     1    -118.187-100.066  40.064  1.00  0.00    -0.000 C 
BRANCH  21  22
ATOM     22  C   UNL     1    -117.585-100.124  41.478  1.00  0.00    -0.000 C 
BRANCH  22  23
ATOM     23  C   UNL     1    -118.536 -99.579  42.556  1.00  0.00    -0.000 C 
BRANCH  23  24
ATOM     24  C   UNL     1    -118.014 -99.906  43.964  1.00  0.00    -0.000 C 
BRANCH  24  25
ATOM     25  C   UNL     1    -118.261 -98.764  44.962  1.00  0.00    -0.003 C 
ATOM     26  C   UNL     1    -118.533 -97.426  44.277  1.00  0.00     0.004 C 
ENDBRANCH  24  25
ENDBRANCH  23  24
ENDBRANCH  22  23
ENDBRANCH  21  22
ENDBRANCH  20  21
ENDBRANCH  19  20
ENDBRANCH  18  19
ENDBRANCH  17  18
ENDBRANCH  16  17
ENDBRANCH  15  16
ENDBRANCH   1  15
TORSDOF 22
ENDMDL
