MODEL 1
REMARK VINA RESULT:    -7.407      0.000      0.000
REMARK INTER + INTRA:         -11.682
REMARK INTER:                 -10.654
REMARK INTRA:                  -1.027
REMARK UNBOUND:                -1.027
REMARK SMILES O=c1cc(-c2ccc(O)c(O)c2)oc2cc(O[C@@H]3O[C@@H](CO)[C@H](O)[C@@H](O)[C@@H]3O)cc(O)c12
REMARK SMILES IDX 17 1 16 2 4 3 3 4 13 5 2 6 14 7 1 8 32 9 15 10 30 11 29 12
REMARK SMILES IDX 5 13 6 14 7 15 8 16 12 17 10 18 9 19 11 21 31 23 18 25 27 26
REMARK SMILES IDX 19 27 25 28 20 29 23 30 28 31 26 33 21 35 22 36 24 38
REMARK H PARENT 9 20 11 22 31 24 28 32 26 34 22 37 24 39
REMARK Flexibility Score: inf
ROOT
ATOM      1  O   UNL     1      16.001  47.706  44.646  1.00  0.00    -0.462 OA
ENDROOT
BRANCH   1   2
ATOM      2  C   UNL     1      17.397  47.925  44.629  1.00  0.00     0.130 A 
ATOM      3  C   UNL     1      21.252  49.990  46.586  1.00  0.00     0.138 A 
ATOM      4  C   UNL     1      22.019  49.732  45.434  1.00  0.00     0.100 A 
ATOM      5  O   UNL     1      19.962  49.623  46.638  1.00  0.00    -0.456 OA
ATOM      6  C   UNL     1      21.465  49.006  44.405  1.00  0.00     0.197 A 
ATOM      7  C   UNL     1      19.380  48.942  45.642  1.00  0.00     0.146 A 
ATOM      8  O   UNL     1      22.147  48.850  43.354  1.00  0.00    -0.289 OA
ATOM      9  C   UNL     1      20.153  48.517  44.525  1.00  0.00     0.107 A 
ATOM     10  C   UNL     1      18.010  48.649  45.673  1.00  0.00     0.094 A 
ATOM     11  C   UNL     1      19.569  47.677  43.558  1.00  0.00     0.134 A 
ATOM     12  C   UNL     1      18.210  47.415  43.600  1.00  0.00     0.093 A 
BRANCH   3  13
ATOM     13  C   UNL     1      21.952  50.631  47.707  1.00  0.00     0.021 A 
ATOM     14  C   UNL     1      23.356  50.799  47.593  1.00  0.00     0.016 A 
ATOM     15  C   UNL     1      23.986  51.922  48.154  1.00  0.00     0.051 A 
ATOM     16  C   UNL     1      23.210  52.904  48.782  1.00  0.00     0.157 A 
ATOM     17  C   UNL     1      21.228  51.508  48.522  1.00  0.00     0.062 A 
ATOM     18  C   UNL     1      21.841  52.682  48.999  1.00  0.00     0.158 A 
BRANCH  16  19
ATOM     19  O   UNL     1      23.774  54.128  49.144  1.00  0.00    -0.504 OA
ATOM     20  H   UNL     1      23.556  54.552  50.037  1.00  0.00     0.293 HD
ENDBRANCH  16  19
BRANCH  18  21
ATOM     21  O   UNL     1      21.064  53.653  49.638  1.00  0.00    -0.504 OA
ATOM     22  H   UNL     1      21.387  54.626  49.712  1.00  0.00     0.293 HD
ENDBRANCH  18  21
ENDBRANCH   3  13
BRANCH  11  23
ATOM     23  O   UNL     1      20.317  47.051  42.558  1.00  0.00    -0.507 OA
ATOM     24  H   UNL     1      20.024  46.203  42.089  1.00  0.00     0.293 HD
ENDBRANCH  11  23
ENDBRANCH   1   2
BRANCH   1  25
ATOM     25  C   UNL     1      15.057  48.773  44.816  1.00  0.00     0.339 C 
ATOM     26  C   UNL     1      13.918  48.787  43.773  1.00  0.00     0.214 C 
ATOM     27  O   UNL     1      14.610  48.836  46.156  1.00  0.00    -0.332 OA
ATOM     28  C   UNL     1      12.664  47.989  44.210  1.00  0.00     0.180 C 
ATOM     29  C   UNL     1      13.676  47.835  46.452  1.00  0.00     0.179 C 
ATOM     30  C   UNL     1      12.366  48.190  45.704  1.00  0.00     0.177 C 
BRANCH  26  31
ATOM     31  O   UNL     1      14.419  48.357  42.525  1.00  0.00    -0.384 OA
ATOM     32  H   UNL     1      14.541  47.371  42.552  1.00  0.00     0.211 HD
ENDBRANCH  26  31
BRANCH  28  33
ATOM     33  O   UNL     1      11.555  48.427  43.459  1.00  0.00    -0.387 OA
ATOM     34  H   UNL     1      11.892  48.788  42.601  1.00  0.00     0.211 HD
ENDBRANCH  28  33
BRANCH  29  35
ATOM     35  C   UNL     1      13.502  47.747  47.979  1.00  0.00     0.191 C 
BRANCH  35  36
ATOM     36  O   UNL     1      12.486  48.602  48.453  1.00  0.00    -0.394 OA
ATOM     37  H   UNL     1      11.632  48.100  48.374  1.00  0.00     0.210 HD
ENDBRANCH  35  36
ENDBRANCH  29  35
BRANCH  30  38
ATOM     38  O   UNL     1      11.288  47.359  46.075  1.00  0.00    -0.387 OA
ATOM     39  H   UNL     1      10.847  47.799  46.848  1.00  0.00     0.211 HD
ENDBRANCH  30  38
ENDBRANCH   1  25
TORSDOF 11
ENDMDL
MODEL 2
REMARK VINA RESULT:    -7.295      1.356      1.637
REMARK INTER + INTRA:         -11.521
REMARK INTER:                 -10.635
REMARK INTRA:                  -0.886
REMARK UNBOUND:                -1.027
REMARK SMILES O=c1cc(-c2ccc(O)c(O)c2)oc2cc(O[C@@H]3O[C@@H](CO)[C@H](O)[C@@H](O)[C@@H]3O)cc(O)c12
REMARK SMILES IDX 17 1 16 2 4 3 3 4 13 5 2 6 14 7 1 8 32 9 15 10 30 11 29 12
REMARK SMILES IDX 5 13 6 14 7 15 8 16 12 17 10 18 9 19 11 21 31 23 18 25 27 26
REMARK SMILES IDX 19 27 25 28 20 29 23 30 28 31 26 33 21 35 22 36 24 38
REMARK H PARENT 9 20 11 22 31 24 28 32 26 34 22 37 24 39
REMARK Flexibility Score: inf
ROOT
ATOM      1  O   UNL     1      16.137  47.543  44.171  1.00  0.00    -0.462 OA
ENDROOT
BRANCH   1   2
ATOM      2  C   UNL     1      17.528  47.779  44.254  1.00  0.00     0.130 A 
ATOM      3  C   UNL     1      21.206  49.900  46.475  1.00  0.00     0.138 A 
ATOM      4  C   UNL     1      22.058  49.645  45.383  1.00  0.00     0.100 A 
ATOM      5  O   UNL     1      19.920  49.517  46.435  1.00  0.00    -0.456 OA
ATOM      6  C   UNL     1      21.589  48.907  44.320  1.00  0.00     0.197 A 
ATOM      7  C   UNL     1      19.420  48.824  45.403  1.00  0.00     0.146 A 
ATOM      8  O   UNL     1      22.347  48.754  43.323  1.00  0.00    -0.289 OA
ATOM      9  C   UNL     1      20.277  48.404  44.347  1.00  0.00     0.107 A 
ATOM     10  C   UNL     1      18.054  48.515  45.336  1.00  0.00     0.094 A 
ATOM     11  C   UNL     1      19.775  47.552  43.345  1.00  0.00     0.134 A 
ATOM     12  C   UNL     1      18.420  47.273  43.290  1.00  0.00     0.093 A 
BRANCH   3  13
ATOM     13  C   UNL     1      21.815  50.554  47.640  1.00  0.00     0.021 A 
ATOM     14  C   UNL     1      23.222  50.733  47.630  1.00  0.00     0.016 A 
ATOM     15  C   UNL     1      23.800  51.865  48.228  1.00  0.00     0.051 A 
ATOM     16  C   UNL     1      22.972  52.845  48.789  1.00  0.00     0.157 A 
ATOM     17  C   UNL     1      21.025  51.431  48.391  1.00  0.00     0.062 A 
ATOM     18  C   UNL     1      21.591  52.614  48.904  1.00  0.00     0.158 A 
BRANCH  16  19
ATOM     19  O   UNL     1      23.497  54.076  49.182  1.00  0.00    -0.504 OA
ATOM     20  H   UNL     1      24.263  54.122  49.843  1.00  0.00     0.293 HD
ENDBRANCH  16  19
BRANCH  18  21
ATOM     21  O   UNL     1      20.762  53.583  49.476  1.00  0.00    -0.504 OA
ATOM     22  H   UNL     1      20.206  54.217  48.890  1.00  0.00     0.293 HD
ENDBRANCH  18  21
ENDBRANCH   3  13
BRANCH  11  23
ATOM     23  O   UNL     1      20.601  46.930  42.406  1.00  0.00    -0.507 OA
ATOM     24  H   UNL     1      20.415  46.014  42.018  1.00  0.00     0.293 HD
ENDBRANCH  11  23
ENDBRANCH   1   2
BRANCH   1  25
ATOM     25  C   UNL     1      15.268  47.656  45.307  1.00  0.00     0.339 C 
ATOM     26  C   UNL     1      14.170  48.733  45.164  1.00  0.00     0.214 C 
ATOM     27  O   UNL     1      14.781  46.386  45.691  1.00  0.00    -0.332 OA
ATOM     28  C   UNL     1      12.847  48.196  44.563  1.00  0.00     0.180 C 
ATOM     29  C   UNL     1      13.766  45.927  44.841  1.00  0.00     0.179 C 
ATOM     30  C   UNL     1      12.513  46.798  45.106  1.00  0.00     0.177 C 
BRANCH  26  31
ATOM     31  O   UNL     1      14.681  49.831  44.439  1.00  0.00    -0.384 OA
ATOM     32  H   UNL     1      14.772  50.606  45.055  1.00  0.00     0.211 HD
ENDBRANCH  26  31
BRANCH  28  33
ATOM     33  O   UNL     1      11.799  49.079  44.895  1.00  0.00    -0.387 OA
ATOM     34  H   UNL     1      11.980  49.945  44.452  1.00  0.00     0.211 HD
ENDBRANCH  28  33
BRANCH  29  35
ATOM     35  C   UNL     1      13.534  44.428  45.102  1.00  0.00     0.191 C 
BRANCH  35  36
ATOM     36  O   UNL     1      14.589  43.841  45.831  1.00  0.00    -0.394 OA
ATOM     37  H   UNL     1      15.336  44.496  45.828  1.00  0.00     0.210 HD
ENDBRANCH  35  36
ENDBRANCH  29  35
BRANCH  30  38
ATOM     38  O   UNL     1      11.364  46.310  44.447  1.00  0.00    -0.387 OA
ATOM     39  H   UNL     1      10.620  46.918  44.694  1.00  0.00     0.211 HD
ENDBRANCH  30  38
ENDBRANCH   1  25
TORSDOF 11
ENDMDL
MODEL 3
REMARK VINA RESULT:    -7.237      2.646      4.955
REMARK INTER + INTRA:         -11.437
REMARK INTER:                 -10.414
REMARK INTRA:                  -1.024
REMARK UNBOUND:                -1.027
REMARK SMILES O=c1cc(-c2ccc(O)c(O)c2)oc2cc(O[C@@H]3O[C@@H](CO)[C@H](O)[C@@H](O)[C@@H]3O)cc(O)c12
REMARK SMILES IDX 17 1 16 2 4 3 3 4 13 5 2 6 14 7 1 8 32 9 15 10 30 11 29 12
REMARK SMILES IDX 5 13 6 14 7 15 8 16 12 17 10 18 9 19 11 21 31 23 18 25 27 26
REMARK SMILES IDX 19 27 25 28 20 29 23 30 28 31 26 33 21 35 22 36 24 38
REMARK H PARENT 9 20 11 22 31 24 28 32 26 34 22 37 24 39
REMARK Flexibility Score: inf
ROOT
ATOM      1  O   UNL     1      18.943  46.316  44.493  1.00  0.00    -0.462 OA
ENDROOT
BRANCH   1   2
ATOM      2  C   UNL     1      18.646  47.073  45.649  1.00  0.00     0.130 A 
ATOM      3  C   UNL     1      20.060  50.232  48.962  1.00  0.00     0.138 A 
ATOM      4  C   UNL     1      18.970  49.905  49.790  1.00  0.00     0.100 A 
ATOM      5  O   UNL     1      20.228  49.608  47.786  1.00  0.00    -0.456 OA
ATOM      6  C   UNL     1      18.022  49.017  49.337  1.00  0.00     0.197 A 
ATOM      7  C   UNL     1      19.342  48.716  47.325  1.00  0.00     0.146 A 
ATOM      8  O   UNL     1      17.094  48.684  50.125  1.00  0.00    -0.289 OA
ATOM      9  C   UNL     1      18.143  48.466  48.049  1.00  0.00     0.107 A 
ATOM     10  C   UNL     1      19.582  48.006  46.140  1.00  0.00     0.094 A 
ATOM     11  C   UNL     1      17.151  47.641  47.485  1.00  0.00     0.134 A 
ATOM     12  C   UNL     1      17.418  46.938  46.322  1.00  0.00     0.093 A 
BRANCH   3  13
ATOM     13  C   UNL     1      20.947  51.300  49.441  1.00  0.00     0.021 A 
ATOM     14  C   UNL     1      22.293  50.955  49.728  1.00  0.00     0.016 A 
ATOM     15  C   UNL     1      23.329  51.874  49.495  1.00  0.00     0.051 A 
ATOM     16  C   UNL     1      23.030  53.118  48.926  1.00  0.00     0.157 A 
ATOM     17  C   UNL     1      20.648  52.617  49.079  1.00  0.00     0.062 A 
ATOM     18  C   UNL     1      21.691  53.505  48.752  1.00  0.00     0.158 A 
BRANCH  16  19
ATOM     19  O   UNL     1      24.051  53.955  48.475  1.00  0.00    -0.504 OA
ATOM     20  H   UNL     1      24.418  54.687  49.070  1.00  0.00     0.293 HD
ENDBRANCH  16  19
BRANCH  18  21
ATOM     21  O   UNL     1      21.387  54.751  48.198  1.00  0.00    -0.504 OA
ATOM     22  H   UNL     1      21.129  55.547  48.793  1.00  0.00     0.293 HD
ENDBRANCH  18  21
ENDBRANCH   3  13
BRANCH  11  23
ATOM     23  O   UNL     1      15.872  47.523  48.033  1.00  0.00    -0.507 OA
ATOM     24  H   UNL     1      15.346  48.308  48.396  1.00  0.00     0.293 HD
ENDBRANCH  11  23
ENDBRANCH   1   2
BRANCH   1  25
ATOM     25  C   UNL     1      19.088  46.915  43.198  1.00  0.00     0.339 C 
ATOM     26  C   UNL     1      19.625  45.958  42.111  1.00  0.00     0.214 C 
ATOM     27  O   UNL     1      17.907  47.599  42.828  1.00  0.00    -0.332 OA
ATOM     28  C   UNL     1      18.512  45.217  41.329  1.00  0.00     0.180 C 
ATOM     29  C   UNL     1      16.894  46.724  42.415  1.00  0.00     0.179 C 
ATOM     30  C   UNL     1      17.319  46.141  41.044  1.00  0.00     0.177 C 
BRANCH  26  31
ATOM     31  O   UNL     1      20.559  45.070  42.687  1.00  0.00    -0.384 OA
ATOM     32  H   UNL     1      20.085  44.240  42.958  1.00  0.00     0.211 HD
ENDBRANCH  26  31
BRANCH  28  33
ATOM     33  O   UNL     1      19.039  44.757  40.105  1.00  0.00    -0.387 OA
ATOM     34  H   UNL     1      18.384  44.969  39.393  1.00  0.00     0.211 HD
ENDBRANCH  28  33
BRANCH  29  35
ATOM     35  C   UNL     1      15.560  47.490  42.366  1.00  0.00     0.191 C 
BRANCH  35  36
ATOM     36  O   UNL     1      15.233  47.915  41.061  1.00  0.00    -0.394 OA
ATOM     37  H   UNL     1      14.271  47.708  40.927  1.00  0.00     0.210 HD
ENDBRANCH  35  36
ENDBRANCH  29  35
BRANCH  30  38
ATOM     38  O   UNL     1      16.292  45.391  40.432  1.00  0.00    -0.387 OA
ATOM     39  H   UNL     1      16.734  44.793  39.776  1.00  0.00     0.211 HD
ENDBRANCH  30  38
ENDBRANCH   1  25
TORSDOF 11
ENDMDL
MODEL 4
REMARK VINA RESULT:    -7.085      2.213      3.473
REMARK INTER + INTRA:         -11.219
REMARK INTER:                 -10.232
REMARK INTRA:                  -0.987
REMARK UNBOUND:                -1.027
REMARK SMILES O=c1cc(-c2ccc(O)c(O)c2)oc2cc(O[C@@H]3O[C@@H](CO)[C@H](O)[C@@H](O)[C@@H]3O)cc(O)c12
REMARK SMILES IDX 17 1 16 2 4 3 3 4 13 5 2 6 14 7 1 8 32 9 15 10 30 11 29 12
REMARK SMILES IDX 5 13 6 14 7 15 8 16 12 17 10 18 9 19 11 21 31 23 18 25 27 26
REMARK SMILES IDX 19 27 25 28 20 29 23 30 28 31 26 33 21 35 22 36 24 38
REMARK H PARENT 9 20 11 22 31 24 28 32 26 34 22 37 24 39
REMARK Flexibility Score: inf
ROOT
ATOM      1  O   UNL     1      18.162  49.504  44.283  1.00  0.00    -0.462 OA
ENDROOT
BRANCH   1   2
ATOM      2  C   UNL     1      18.741  49.574  45.570  1.00  0.00     0.130 A 
ATOM      3  C   UNL     1      21.543  51.894  48.688  1.00  0.00     0.138 A 
ATOM      4  C   UNL     1      21.612  50.763  49.523  1.00  0.00     0.100 A 
ATOM      5  O   UNL     1      20.846  51.850  47.543  1.00  0.00    -0.456 OA
ATOM      6  C   UNL     1      20.873  49.646  49.206  1.00  0.00     0.197 A 
ATOM      7  C   UNL     1      20.138  50.770  47.187  1.00  0.00     0.146 A 
ATOM      8  O   UNL     1      21.007  48.620  49.929  1.00  0.00    -0.289 OA
ATOM      9  C   UNL     1      20.046  49.658  48.070  1.00  0.00     0.107 A 
ATOM     10  C   UNL     1      19.493  50.708  45.943  1.00  0.00     0.094 A 
ATOM     11  C   UNL     1      19.182  48.592  47.753  1.00  0.00     0.134 A 
ATOM     12  C   UNL     1      18.569  48.544  46.513  1.00  0.00     0.093 A 
BRANCH   3  13
ATOM     13  C   UNL     1      22.230  53.101  49.166  1.00  0.00     0.021 A 
ATOM     14  C   UNL     1      23.319  52.926  50.058  1.00  0.00     0.016 A 
ATOM     15  C   UNL     1      24.419  53.797  50.019  1.00  0.00     0.051 A 
ATOM     16  C   UNL     1      24.459  54.812  49.054  1.00  0.00     0.157 A 
ATOM     17  C   UNL     1      22.191  54.245  48.362  1.00  0.00     0.062 A 
ATOM     18  C   UNL     1      23.334  55.060  48.251  1.00  0.00     0.158 A 
BRANCH  16  19
ATOM     19  O   UNL     1      25.629  55.542  48.842  1.00  0.00    -0.504 OA
ATOM     20  H   UNL     1      25.673  56.525  49.080  1.00  0.00     0.293 HD
ENDBRANCH  16  19
BRANCH  18  21
ATOM     21  O   UNL     1      23.363  56.080  47.297  1.00  0.00    -0.504 OA
ATOM     22  H   UNL     1      22.517  56.342  46.776  1.00  0.00     0.293 HD
ENDBRANCH  18  21
ENDBRANCH   3  13
BRANCH  11  23
ATOM     23  O   UNL     1      18.879  47.577  48.664  1.00  0.00    -0.507 OA
ATOM     24  H   UNL     1      18.730  46.612  48.396  1.00  0.00     0.293 HD
ENDBRANCH  11  23
ENDBRANCH   1   2
BRANCH   1  25
ATOM     25  C   UNL     1      16.978  50.234  43.931  1.00  0.00     0.339 C 
ATOM     26  C   UNL     1      16.510  50.023  42.474  1.00  0.00     0.214 C 
ATOM     27  O   UNL     1      15.963  50.036  44.895  1.00  0.00    -0.332 OA
ATOM     28  C   UNL     1      15.499  48.861  42.307  1.00  0.00     0.180 C 
ATOM     29  C   UNL     1      15.345  48.785  44.766  1.00  0.00     0.179 C 
ATOM     30  C   UNL     1      14.496  48.822  43.470  1.00  0.00     0.177 C 
BRANCH  26  31
ATOM     31  O   UNL     1      17.637  49.879  41.635  1.00  0.00    -0.384 OA
ATOM     32  H   UNL     1      17.365  49.383  40.818  1.00  0.00     0.211 HD
ENDBRANCH  26  31
BRANCH  28  33
ATOM     33  O   UNL     1      14.794  49.035  41.099  1.00  0.00    -0.387 OA
ATOM     34  H   UNL     1      15.457  49.176  40.378  1.00  0.00     0.211 HD
ENDBRANCH  28  33
BRANCH  29  35
ATOM     35  C   UNL     1      14.516  48.503  46.031  1.00  0.00     0.191 C 
BRANCH  35  36
ATOM     36  O   UNL     1      13.131  48.644  45.808  1.00  0.00    -0.394 OA
ATOM     37  H   UNL     1      12.791  47.747  45.549  1.00  0.00     0.210 HD
ENDBRANCH  35  36
ENDBRANCH  29  35
BRANCH  30  38
ATOM     38  O   UNL     1      13.672  47.685  43.330  1.00  0.00    -0.387 OA
ATOM     39  H   UNL     1      12.831  47.998  42.906  1.00  0.00     0.211 HD
ENDBRANCH  30  38
ENDBRANCH   1  25
TORSDOF 11
ENDMDL
MODEL 5
REMARK VINA RESULT:    -7.050      2.363      5.030
REMARK INTER + INTRA:         -11.168
REMARK INTER:                 -10.152
REMARK INTRA:                  -1.015
REMARK UNBOUND:                -1.027
REMARK SMILES O=c1cc(-c2ccc(O)c(O)c2)oc2cc(O[C@@H]3O[C@@H](CO)[C@H](O)[C@@H](O)[C@@H]3O)cc(O)c12
REMARK SMILES IDX 17 1 16 2 4 3 3 4 13 5 2 6 14 7 1 8 32 9 15 10 30 11 29 12
REMARK SMILES IDX 5 13 6 14 7 15 8 16 12 17 10 18 9 19 11 21 31 23 18 25 27 26
REMARK SMILES IDX 19 27 25 28 20 29 23 30 28 31 26 33 21 35 22 36 24 38
REMARK H PARENT 9 20 11 22 31 24 28 32 26 34 22 37 24 39
REMARK Flexibility Score: inf
ROOT
ATOM      1  O   UNL     1      16.589  48.596  43.295  1.00  0.00    -0.462 OA
ENDROOT
BRANCH   1   2
ATOM      2  C   UNL     1      16.656  48.937  44.665  1.00  0.00     0.130 A 
ATOM      3  C   UNL     1      19.277  50.334  48.424  1.00  0.00     0.138 A 
ATOM      4  C   UNL     1      18.252  49.974  49.318  1.00  0.00     0.100 A 
ATOM      5  O   UNL     1      19.122  50.149  47.104  1.00  0.00    -0.456 OA
ATOM      6  C   UNL     1      17.049  49.529  48.820  1.00  0.00     0.197 A 
ATOM      7  C   UNL     1      17.976  49.689  46.585  1.00  0.00     0.146 A 
ATOM      8  O   UNL     1      16.172  49.143  49.641  1.00  0.00    -0.289 OA
ATOM      9  C   UNL     1      16.854  49.460  47.430  1.00  0.00     0.107 A 
ATOM     10  C   UNL     1      17.864  49.414  45.214  1.00  0.00     0.094 A 
ATOM     11  C   UNL     1      15.613  49.120  46.858  1.00  0.00     0.134 A 
ATOM     12  C   UNL     1      15.531  48.837  45.504  1.00  0.00     0.093 A 
BRANCH   3  13
ATOM     13  C   UNL     1      20.474  50.948  49.015  1.00  0.00     0.021 A 
ATOM     14  C   UNL     1      21.679  50.199  48.981  1.00  0.00     0.016 A 
ATOM     15  C   UNL     1      22.915  50.847  48.832  1.00  0.00     0.051 A 
ATOM     16  C   UNL     1      22.948  52.237  48.662  1.00  0.00     0.157 A 
ATOM     17  C   UNL     1      20.545  52.344  49.062  1.00  0.00     0.062 A 
ATOM     18  C   UNL     1      21.771  52.989  48.813  1.00  0.00     0.158 A 
BRANCH  16  19
ATOM     19  O   UNL     1      24.129  52.877  48.286  1.00  0.00    -0.504 OA
ATOM     20  H   UNL     1      24.473  52.809  47.337  1.00  0.00     0.293 HD
ENDBRANCH  16  19
BRANCH  18  21
ATOM     21  O   UNL     1      21.800  54.378  48.659  1.00  0.00    -0.504 OA
ATOM     22  H   UNL     1      20.953  54.901  48.407  1.00  0.00     0.293 HD
ENDBRANCH  18  21
ENDBRANCH   3  13
BRANCH  11  23
ATOM     23  O   UNL     1      14.429  49.089  47.598  1.00  0.00    -0.507 OA
ATOM     24  H   UNL     1      13.809  49.884  47.692  1.00  0.00     0.293 HD
ENDBRANCH  11  23
ENDBRANCH   1   2
BRANCH   1  25
ATOM     25  C   UNL     1      16.354  47.254  42.847  1.00  0.00     0.339 C 
ATOM     26  C   UNL     1      15.857  47.148  41.388  1.00  0.00     0.214 C 
ATOM     27  O   UNL     1      17.465  46.429  43.137  1.00  0.00    -0.332 OA
ATOM     28  C   UNL     1      16.997  46.992  40.352  1.00  0.00     0.180 C 
ATOM     29  C   UNL     1      18.529  46.640  42.250  1.00  0.00     0.179 C 
ATOM     30  C   UNL     1      18.105  46.065  40.875  1.00  0.00     0.177 C 
BRANCH  26  31
ATOM     31  O   UNL     1      15.014  48.243  41.099  1.00  0.00    -0.384 OA
ATOM     32  H   UNL     1      14.482  48.460  41.910  1.00  0.00     0.211 HD
ENDBRANCH  26  31
BRANCH  28  33
ATOM     33  O   UNL     1      16.468  46.448  39.164  1.00  0.00    -0.387 OA
ATOM     34  H   UNL     1      16.912  46.894  38.400  1.00  0.00     0.211 HD
ENDBRANCH  28  33
BRANCH  29  35
ATOM     35  C   UNL     1      19.797  45.983  42.822  1.00  0.00     0.191 C 
BRANCH  35  36
ATOM     36  O   UNL     1      19.798  44.583  42.652  1.00  0.00    -0.394 OA
ATOM     37  H   UNL     1      19.510  44.190  43.518  1.00  0.00     0.210 HD
ENDBRANCH  35  36
ENDBRANCH  29  35
BRANCH  30  38
ATOM     38  O   UNL     1      19.167  46.046  39.945  1.00  0.00    -0.387 OA
ATOM     39  H   UNL     1      18.848  45.517  39.167  1.00  0.00     0.211 HD
ENDBRANCH  30  38
ENDBRANCH   1  25
TORSDOF 11
ENDMDL
MODEL 6
REMARK VINA RESULT:    -7.034      2.720      9.845
REMARK INTER + INTRA:         -11.145
REMARK INTER:                 -10.118
REMARK INTRA:                  -1.028
REMARK UNBOUND:                -1.027
REMARK SMILES O=c1cc(-c2ccc(O)c(O)c2)oc2cc(O[C@@H]3O[C@@H](CO)[C@H](O)[C@@H](O)[C@@H]3O)cc(O)c12
REMARK SMILES IDX 17 1 16 2 4 3 3 4 13 5 2 6 14 7 1 8 32 9 15 10 30 11 29 12
REMARK SMILES IDX 5 13 6 14 7 15 8 16 12 17 10 18 9 19 11 21 31 23 18 25 27 26
REMARK SMILES IDX 19 27 25 28 20 29 23 30 28 31 26 33 21 35 22 36 24 38
REMARK H PARENT 9 20 11 22 31 24 28 32 26 34 22 37 24 39
REMARK Flexibility Score: inf
ROOT
ATOM      1  O   UNL     1      22.550  51.264  48.418  1.00  0.00    -0.462 OA
ENDROOT
BRANCH   1   2
ATOM      2  C   UNL     1      21.268  50.704  48.213  1.00  0.00     0.130 A 
ATOM      3  C   UNL     1      17.392  50.229  45.438  1.00  0.00     0.138 A 
ATOM      4  C   UNL     1      16.649  49.693  46.506  1.00  0.00     0.100 A 
ATOM      5  O   UNL     1      18.667  50.604  45.620  1.00  0.00    -0.456 OA
ATOM      6  C   UNL     1      17.272  49.459  47.711  1.00  0.00     0.197 A 
ATOM      7  C   UNL     1      19.298  50.420  46.787  1.00  0.00     0.146 A 
ATOM      8  O   UNL     1      16.569  49.047  48.674  1.00  0.00    -0.289 OA
ATOM      9  C   UNL     1      18.643  49.739  47.851  1.00  0.00     0.107 A 
ATOM     10  C   UNL     1      20.599  50.903  46.988  1.00  0.00     0.094 A 
ATOM     11  C   UNL     1      19.363  49.420  49.018  1.00  0.00     0.134 A 
ATOM     12  C   UNL     1      20.640  49.922  49.200  1.00  0.00     0.093 A 
BRANCH   3  13
ATOM     13  C   UNL     1      16.708  50.305  44.140  1.00  0.00     0.021 A 
ATOM     14  C   UNL     1      17.479  50.047  42.977  1.00  0.00     0.016 A 
ATOM     15  C   UNL     1      16.900  49.414  41.866  1.00  0.00     0.051 A 
ATOM     16  C   UNL     1      15.567  48.989  41.933  1.00  0.00     0.157 A 
ATOM     17  C   UNL     1      15.330  50.071  44.106  1.00  0.00     0.062 A 
ATOM     18  C   UNL     1      14.772  49.348  43.034  1.00  0.00     0.158 A 
BRANCH  16  19
ATOM     19  O   UNL     1      15.036  48.162  40.943  1.00  0.00    -0.504 OA
ATOM     20  H   UNL     1      14.327  47.475  41.170  1.00  0.00     0.293 HD
ENDBRANCH  16  19
BRANCH  18  21
ATOM     21  O   UNL     1      13.437  48.939  43.100  1.00  0.00    -0.504 OA
ATOM     22  H   UNL     1      12.801  49.077  42.305  1.00  0.00     0.293 HD
ENDBRANCH  18  21
ENDBRANCH   3  13
BRANCH  11  23
ATOM     23  O   UNL     1      18.854  48.573  50.005  1.00  0.00    -0.507 OA
ATOM     24  H   UNL     1      19.360  48.330  50.848  1.00  0.00     0.293 HD
ENDBRANCH  11  23
ENDBRANCH   1   2
BRANCH   1  25
ATOM     25  C   UNL     1      22.844  52.126  49.526  1.00  0.00     0.339 C 
ATOM     26  C   UNL     1      24.310  52.063  50.009  1.00  0.00     0.214 C 
ATOM     27  O   UNL     1      22.377  53.437  49.277  1.00  0.00    -0.332 OA
ATOM     28  C   UNL     1      25.236  53.099  49.323  1.00  0.00     0.180 C 
ATOM     29  C   UNL     1      23.206  54.137  48.389  1.00  0.00     0.179 C 
ATOM     30  C   UNL     1      24.526  54.448  49.138  1.00  0.00     0.177 C 
BRANCH  26  31
ATOM     31  O   UNL     1      24.792  50.742  49.876  1.00  0.00    -0.384 OA
ATOM     32  H   UNL     1      24.053  50.111  50.083  1.00  0.00     0.211 HD
ENDBRANCH  26  31
BRANCH  28  33
ATOM     33  O   UNL     1      26.382  53.290  50.121  1.00  0.00    -0.387 OA
ATOM     34  H   UNL     1      26.412  52.561  50.790  1.00  0.00     0.211 HD
ENDBRANCH  28  33
BRANCH  29  35
ATOM     35  C   UNL     1      22.468  55.396  47.902  1.00  0.00     0.191 C 
BRANCH  35  36
ATOM     36  O   UNL     1      23.211  56.116  46.943  1.00  0.00    -0.394 OA
ATOM     37  H   UNL     1      23.430  55.477  46.215  1.00  0.00     0.210 HD
ENDBRANCH  35  36
ENDBRANCH  29  35
BRANCH  30  38
ATOM     38  O   UNL     1      25.368  55.317  48.413  1.00  0.00    -0.387 OA
ATOM     39  H   UNL     1      25.187  55.146  47.452  1.00  0.00     0.211 HD
ENDBRANCH  30  38
ENDBRANCH   1  25
TORSDOF 11
ENDMDL
MODEL 7
REMARK VINA RESULT:    -7.028      4.273      7.466
REMARK INTER + INTRA:         -11.136
REMARK INTER:                 -10.140
REMARK INTRA:                  -0.996
REMARK UNBOUND:                -1.027
REMARK SMILES O=c1cc(-c2ccc(O)c(O)c2)oc2cc(O[C@@H]3O[C@@H](CO)[C@H](O)[C@@H](O)[C@@H]3O)cc(O)c12
REMARK SMILES IDX 17 1 16 2 4 3 3 4 13 5 2 6 14 7 1 8 32 9 15 10 30 11 29 12
REMARK SMILES IDX 5 13 6 14 7 15 8 16 12 17 10 18 9 19 11 21 31 23 18 25 27 26
REMARK SMILES IDX 19 27 25 28 20 29 23 30 28 31 26 33 21 35 22 36 24 38
REMARK H PARENT 9 20 11 22 31 24 28 32 26 34 22 37 24 39
REMARK Flexibility Score: inf
ROOT
ATOM      1  O   UNL     1      17.790  45.326  40.191  1.00  0.00    -0.462 OA
ENDROOT
BRANCH   1   2
ATOM      2  C   UNL     1      18.158  45.912  41.423  1.00  0.00     0.130 A 
ATOM      3  C   UNL     1      16.913  48.414  45.314  1.00  0.00     0.138 A 
ATOM      4  C   UNL     1      18.262  48.655  45.635  1.00  0.00     0.100 A 
ATOM      5  O   UNL     1      16.592  47.711  44.218  1.00  0.00    -0.456 OA
ATOM      6  C   UNL     1      19.250  48.073  44.874  1.00  0.00     0.197 A 
ATOM      7  C   UNL     1      17.527  47.155  43.435  1.00  0.00     0.146 A 
ATOM      8  O   UNL     1      20.450  48.362  45.136  1.00  0.00    -0.289 OA
ATOM      9  C   UNL     1      18.899  47.234  43.802  1.00  0.00     0.107 A 
ATOM     10  C   UNL     1      17.176  46.504  42.244  1.00  0.00     0.094 A 
ATOM     11  C   UNL     1      19.858  46.523  43.056  1.00  0.00     0.134 A 
ATOM     12  C   UNL     1      19.491  45.901  41.874  1.00  0.00     0.093 A 
BRANCH   3  13
ATOM     13  C   UNL     1      15.914  48.934  46.257  1.00  0.00     0.021 A 
ATOM     14  C   UNL     1      14.655  48.282  46.304  1.00  0.00     0.016 A 
ATOM     15  C   UNL     1      13.952  48.177  47.515  1.00  0.00     0.051 A 
ATOM     16  C   UNL     1      14.529  48.674  48.691  1.00  0.00     0.157 A 
ATOM     17  C   UNL     1      16.369  49.611  47.394  1.00  0.00     0.062 A 
ATOM     18  C   UNL     1      15.716  49.421  48.627  1.00  0.00     0.158 A 
BRANCH  16  19
ATOM     19  O   UNL     1      13.965  48.384  49.934  1.00  0.00    -0.504 OA
ATOM     20  H   UNL     1      12.969  48.479  50.083  1.00  0.00     0.293 HD
ENDBRANCH  16  19
BRANCH  18  21
ATOM     21  O   UNL     1      16.289  49.932  49.795  1.00  0.00    -0.504 OA
ATOM     22  H   UNL     1      17.285  49.791  50.003  1.00  0.00     0.293 HD
ENDBRANCH  18  21
ENDBRANCH   3  13
BRANCH  11  23
ATOM     23  O   UNL     1      21.182  46.380  43.478  1.00  0.00    -0.507 OA
ATOM     24  H   UNL     1      21.909  45.970  42.905  1.00  0.00     0.293 HD
ENDBRANCH  11  23
ENDBRANCH   1   2
BRANCH   1  25
ATOM     25  C   UNL     1      17.188  46.081  39.130  1.00  0.00     0.339 C 
ATOM     26  C   UNL     1      18.109  46.313  37.912  1.00  0.00     0.214 C 
ATOM     27  O   UNL     1      15.919  45.554  38.798  1.00  0.00    -0.332 OA
ATOM     28  C   UNL     1      17.985  45.220  36.821  1.00  0.00     0.180 C 
ATOM     29  C   UNL     1      16.013  44.381  38.037  1.00  0.00     0.179 C 
ATOM     30  C   UNL     1      16.525  44.783  36.631  1.00  0.00     0.177 C 
BRANCH  26  31
ATOM     31  O   UNL     1      19.440  46.480  38.355  1.00  0.00    -0.384 OA
ATOM     32  H   UNL     1      20.055  46.125  37.660  1.00  0.00     0.211 HD
ENDBRANCH  26  31
BRANCH  28  33
ATOM     33  O   UNL     1      18.473  45.730  35.601  1.00  0.00    -0.387 OA
ATOM     34  H   UNL     1      19.070  46.493  35.807  1.00  0.00     0.211 HD
ENDBRANCH  28  33
BRANCH  29  35
ATOM     35  C   UNL     1      14.640  43.688  38.013  1.00  0.00     0.191 C 
BRANCH  35  36
ATOM     36  O   UNL     1      14.720  42.354  37.563  1.00  0.00    -0.394 OA
ATOM     37  H   UNL     1      15.641  42.227  37.211  1.00  0.00     0.210 HD
ENDBRANCH  35  36
ENDBRANCH  29  35
BRANCH  30  38
ATOM     38  O   UNL     1      16.480  43.713  35.712  1.00  0.00    -0.387 OA
ATOM     39  H   UNL     1      16.095  44.079  34.874  1.00  0.00     0.211 HD
ENDBRANCH  30  38
ENDBRANCH   1  25
TORSDOF 11
ENDMDL
MODEL 8
REMARK VINA RESULT:    -7.015      3.385      9.325
REMARK INTER + INTRA:         -11.118
REMARK INTER:                 -10.059
REMARK INTRA:                  -1.059
REMARK UNBOUND:                -1.027
REMARK SMILES O=c1cc(-c2ccc(O)c(O)c2)oc2cc(O[C@@H]3O[C@@H](CO)[C@H](O)[C@@H](O)[C@@H]3O)cc(O)c12
REMARK SMILES IDX 17 1 16 2 4 3 3 4 13 5 2 6 14 7 1 8 32 9 15 10 30 11 29 12
REMARK SMILES IDX 5 13 6 14 7 15 8 16 12 17 10 18 9 19 11 21 31 23 18 25 27 26
REMARK SMILES IDX 19 27 25 28 20 29 23 30 28 31 26 33 21 35 22 36 24 38
REMARK H PARENT 9 20 11 22 31 24 28 32 26 34 22 37 24 39
REMARK Flexibility Score: inf
ROOT
ATOM      1  O   UNL     1      19.892  50.345  45.415  1.00  0.00    -0.462 OA
ENDROOT
BRANCH   1   2
ATOM      2  C   UNL     1      18.772  49.908  44.670  1.00  0.00     0.130 A 
ATOM      3  C   UNL     1      17.012  47.308  41.051  1.00  0.00     0.138 A 
ATOM      4  C   UNL     1      15.780  47.984  41.118  1.00  0.00     0.100 A 
ATOM      5  O   UNL     1      18.011  47.635  41.886  1.00  0.00    -0.456 OA
ATOM      6  C   UNL     1      15.572  48.910  42.115  1.00  0.00     0.197 A 
ATOM      7  C   UNL     1      17.855  48.553  42.849  1.00  0.00     0.146 A 
ATOM      8  O   UNL     1      14.487  49.554  42.111  1.00  0.00    -0.289 OA
ATOM      9  C   UNL     1      16.582  49.152  43.062  1.00  0.00     0.107 A 
ATOM     10  C   UNL     1      18.936  48.948  43.650  1.00  0.00     0.094 A 
ATOM     11  C   UNL     1      16.392  50.002  44.168  1.00  0.00     0.134 A 
ATOM     12  C   UNL     1      17.478  50.391  44.935  1.00  0.00     0.093 A 
BRANCH   3  13
ATOM     13  C   UNL     1      17.111  46.225  40.064  1.00  0.00     0.021 A 
ATOM     14  C   UNL     1      15.912  45.799  39.436  1.00  0.00     0.016 A 
ATOM     15  C   UNL     1      15.923  45.365  38.101  1.00  0.00     0.051 A 
ATOM     16  C   UNL     1      17.120  45.406  37.374  1.00  0.00     0.157 A 
ATOM     17  C   UNL     1      18.325  46.052  39.393  1.00  0.00     0.062 A 
ATOM     18  C   UNL     1      18.325  45.713  38.026  1.00  0.00     0.158 A 
BRANCH  16  19
ATOM     19  O   UNL     1      17.119  45.201  35.994  1.00  0.00    -0.504 OA
ATOM     20  H   UNL     1      17.895  44.735  35.541  1.00  0.00     0.293 HD
ENDBRANCH  16  19
BRANCH  18  21
ATOM     21  O   UNL     1      19.525  45.741  37.310  1.00  0.00    -0.504 OA
ATOM     22  H   UNL     1      20.050  44.878  37.121  1.00  0.00     0.293 HD
ENDBRANCH  18  21
ENDBRANCH   3  13
BRANCH  11  23
ATOM     23  O   UNL     1      15.129  50.451  44.560  1.00  0.00    -0.507 OA
ATOM     24  H   UNL     1      14.526  51.008  43.967  1.00  0.00     0.293 HD
ENDBRANCH  11  23
ENDBRANCH   1   2
BRANCH   1  25
ATOM     25  C   UNL     1      20.617  49.475  46.294  1.00  0.00     0.339 C 
ATOM     26  C   UNL     1      22.132  49.767  46.371  1.00  0.00     0.214 C 
ATOM     27  O   UNL     1      19.983  49.397  47.556  1.00  0.00    -0.332 OA
ATOM     28  C   UNL     1      22.519  50.760  47.495  1.00  0.00     0.180 C 
ATOM     29  C   UNL     1      20.214  50.536  48.338  1.00  0.00     0.179 C 
ATOM     30  C   UNL     1      21.701  50.505  48.771  1.00  0.00     0.177 C 
BRANCH  26  31
ATOM     31  O   UNL     1      22.594  50.186  45.103  1.00  0.00    -0.384 OA
ATOM     32  H   UNL     1      22.304  51.124  44.952  1.00  0.00     0.211 HD
ENDBRANCH  26  31
BRANCH  28  33
ATOM     33  O   UNL     1      23.889  50.608  47.791  1.00  0.00    -0.387 OA
ATOM     34  H   UNL     1      24.208  49.786  47.342  1.00  0.00     0.211 HD
ENDBRANCH  28  33
BRANCH  29  35
ATOM     35  C   UNL     1      19.232  50.537  49.523  1.00  0.00     0.191 C 
BRANCH  35  36
ATOM     36  O   UNL     1      19.121  51.808  50.125  1.00  0.00    -0.394 OA
ATOM     37  H   UNL     1      18.985  51.651  51.097  1.00  0.00     0.210 HD
ENDBRANCH  35  36
ENDBRANCH  29  35
BRANCH  30  38
ATOM     38  O   UNL     1      22.009  51.501  49.722  1.00  0.00    -0.387 OA
ATOM     39  H   UNL     1      21.338  51.413  50.447  1.00  0.00     0.211 HD
ENDBRANCH  30  38
ENDBRANCH   1  25
TORSDOF 11
ENDMDL
MODEL 9
REMARK VINA RESULT:    -6.961      3.422      5.747
REMARK INTER + INTRA:         -11.040
REMARK INTER:                 -10.211
REMARK INTRA:                  -0.830
REMARK UNBOUND:                -1.027
REMARK SMILES O=c1cc(-c2ccc(O)c(O)c2)oc2cc(O[C@@H]3O[C@@H](CO)[C@H](O)[C@@H](O)[C@@H]3O)cc(O)c12
REMARK SMILES IDX 17 1 16 2 4 3 3 4 13 5 2 6 14 7 1 8 32 9 15 10 30 11 29 12
REMARK SMILES IDX 5 13 6 14 7 15 8 16 12 17 10 18 9 19 11 21 31 23 18 25 27 26
REMARK SMILES IDX 19 27 25 28 20 29 23 30 28 31 26 33 21 35 22 36 24 38
REMARK H PARENT 9 20 11 22 31 24 28 32 26 34 22 37 24 39
REMARK Flexibility Score: inf
ROOT
ATOM      1  O   UNL     1      16.355  47.427  40.850  1.00  0.00    -0.462 OA
ENDROOT
BRANCH   1   2
ATOM      2  C   UNL     1      16.555  48.076  42.090  1.00  0.00     0.130 A 
ATOM      3  C   UNL     1      19.426  49.041  45.802  1.00  0.00     0.138 A 
ATOM      4  C   UNL     1      18.340  49.508  46.566  1.00  0.00     0.100 A 
ATOM      5  O   UNL     1      19.230  48.579  44.558  1.00  0.00    -0.456 OA
ATOM      6  C   UNL     1      17.094  49.585  45.989  1.00  0.00     0.197 A 
ATOM      7  C   UNL     1      18.025  48.609  43.974  1.00  0.00     0.146 A 
ATOM      8  O   UNL     1      16.124  49.938  46.715  1.00  0.00    -0.289 OA
ATOM      9  C   UNL     1      16.926  49.217  44.643  1.00  0.00     0.107 A 
ATOM     10  C   UNL     1      17.821  48.037  42.710  1.00  0.00     0.094 A 
ATOM     11  C   UNL     1      15.703  49.377  43.963  1.00  0.00     0.134 A 
ATOM     12  C   UNL     1      15.520  48.789  42.723  1.00  0.00     0.093 A 
BRANCH   3  13
ATOM     13  C   UNL     1      20.752  49.132  46.427  1.00  0.00     0.021 A 
ATOM     14  C   UNL     1      21.872  49.283  45.569  1.00  0.00     0.016 A 
ATOM     15  C   UNL     1      22.979  50.047  45.971  1.00  0.00     0.051 A 
ATOM     16  C   UNL     1      22.948  50.706  47.207  1.00  0.00     0.157 A 
ATOM     17  C   UNL     1      20.832  49.616  47.737  1.00  0.00     0.062 A 
ATOM     18  C   UNL     1      21.896  50.463  48.104  1.00  0.00     0.158 A 
BRANCH  16  19
ATOM     19  O   UNL     1      23.925  51.648  47.532  1.00  0.00    -0.504 OA
ATOM     20  H   UNL     1      24.494  52.072  46.810  1.00  0.00     0.293 HD
ENDBRANCH  16  19
BRANCH  18  21
ATOM     21  O   UNL     1      21.867  51.106  49.344  1.00  0.00    -0.504 OA
ATOM     22  H   UNL     1      21.834  50.569  50.219  1.00  0.00     0.293 HD
ENDBRANCH  18  21
ENDBRANCH   3  13
BRANCH  11  23
ATOM     23  O   UNL     1      14.657  50.148  44.474  1.00  0.00    -0.507 OA
ATOM     24  H   UNL     1      13.728  49.784  44.648  1.00  0.00     0.293 HD
ENDBRANCH  11  23
ENDBRANCH   1   2
BRANCH   1  25
ATOM     25  C   UNL     1      16.538  46.014  40.683  1.00  0.00     0.339 C 
ATOM     26  C   UNL     1      15.232  45.230  40.426  1.00  0.00     0.214 C 
ATOM     27  O   UNL     1      17.561  45.750  39.743  1.00  0.00    -0.332 OA
ATOM     28  C   UNL     1      14.883  45.075  38.925  1.00  0.00     0.180 C 
ATOM     29  C   UNL     1      17.133  45.947  38.423  1.00  0.00     0.179 C 
ATOM     30  C   UNL     1      16.141  44.806  38.084  1.00  0.00     0.177 C 
BRANCH  26  31
ATOM     31  O   UNL     1      14.180  45.817  41.164  1.00  0.00    -0.384 OA
ATOM     32  H   UNL     1      14.414  45.792  42.129  1.00  0.00     0.211 HD
ENDBRANCH  26  31
BRANCH  28  33
ATOM     33  O   UNL     1      13.989  43.997  38.769  1.00  0.00    -0.387 OA
ATOM     34  H   UNL     1      14.514  43.203  38.499  1.00  0.00     0.211 HD
ENDBRANCH  28  33
BRANCH  29  35
ATOM     35  C   UNL     1      18.363  45.982  37.499  1.00  0.00     0.191 C 
BRANCH  35  36
ATOM     36  O   UNL     1      19.541  46.337  38.187  1.00  0.00    -0.394 OA
ATOM     37  H   UNL     1      19.408  46.070  39.135  1.00  0.00     0.210 HD
ENDBRANCH  35  36
ENDBRANCH  29  35
BRANCH  30  38
ATOM     38  O   UNL     1      15.786  44.785  36.719  1.00  0.00    -0.387 OA
ATOM     39  H   UNL     1      14.801  44.903  36.683  1.00  0.00     0.211 HD
ENDBRANCH  30  38
ENDBRANCH   1  25
TORSDOF 11
ENDMDL
