MODEL 1
REMARK VINA RESULT:    -4.260      0.000      0.000
REMARK INTER + INTRA:          -4.779
REMARK INTER:                  -5.007
REMARK INTRA:                   0.229
REMARK UNBOUND:                 0.229
REMARK SMILES O=c1c(O)c(-c2ccc(O)cc2)oc2cc(O)cc(O)c12
REMARK SMILES IDX 5 1 3 2 2 3 1 4 21 5 19 6 18 7 16 8 15 9 14 10 13 11 6 12
REMARK SMILES IDX 7 13 8 14 9 15 12 16 11 17 10 18 4 20 20 22 17 24
REMARK H PARENT 10 19 4 21 20 23 17 25
REMARK Flexibility Score: inf
ROOT
ATOM      1  C   UNL     1      72.879  41.412  20.275  1.00  0.00     0.180 A 
ATOM      2  C   UNL     1      73.500  41.672  19.042  1.00  0.00     0.208 A 
ATOM      3  C   UNL     1      74.896  41.812  18.997  1.00  0.00     0.238 A 
ATOM      4  O   UNL     1      75.437  42.119  17.903  1.00  0.00    -0.285 OA
ATOM      5  C   UNL     1      75.660  41.634  20.177  1.00  0.00     0.111 A 
ATOM      6  C   UNL     1      77.084  41.708  20.241  1.00  0.00     0.134 A 
ATOM      7  C   UNL     1      77.725  41.620  21.483  1.00  0.00     0.093 A 
ATOM      8  C   UNL     1      77.002  41.398  22.653  1.00  0.00     0.123 A 
ATOM      9  C   UNL     1      75.613  41.269  22.595  1.00  0.00     0.094 A 
ATOM     10  C   UNL     1      74.942  41.390  21.376  1.00  0.00     0.146 A 
ATOM     11  O   UNL     1      73.619  41.282  21.370  1.00  0.00    -0.452 OA
ENDROOT
BRANCH   1  12
ATOM     12  C   UNL     1      71.411  41.265  20.404  1.00  0.00     0.021 A 
ATOM     13  C   UNL     1      70.526  42.014  19.606  1.00  0.00     0.016 A 
ATOM     14  C   UNL     1      69.144  41.876  19.764  1.00  0.00     0.047 A 
ATOM     15  C   UNL     1      68.628  41.001  20.728  1.00  0.00     0.115 A 
ATOM     16  C   UNL     1      70.885  40.405  21.383  1.00  0.00     0.016 A 
ATOM     17  C   UNL     1      69.502  40.270  21.538  1.00  0.00     0.047 A 
BRANCH  15  18
ATOM     18  O   UNL     1      67.253  40.856  20.893  1.00  0.00    -0.508 OA
ATOM     19  H   UNL     1      66.645  41.659  21.002  1.00  0.00     0.293 HD
ENDBRANCH  15  18
ENDBRANCH   1  12
BRANCH   2  20
ATOM     20  O   UNL     1      72.735  41.768  17.875  1.00  0.00    -0.502 OA
ATOM     21  H   UNL     1      72.862  41.143  17.088  1.00  0.00     0.293 HD
ENDBRANCH   2  20
BRANCH   6  22
ATOM     22  O   UNL     1      77.913  41.840  19.122  1.00  0.00    -0.507 OA
ATOM     23  H   UNL     1      78.737  41.287  18.945  1.00  0.00     0.293 HD
ENDBRANCH   6  22
BRANCH   8  24
ATOM     24  O   UNL     1      77.674  41.299  23.869  1.00  0.00    -0.508 OA
ATOM     25  H   UNL     1      77.757  40.416  24.359  1.00  0.00     0.293 HD
ENDBRANCH   8  24
TORSDOF 5
ENDMDL
MODEL 2
REMARK VINA RESULT:    -4.023      1.232      2.896
REMARK INTER + INTRA:          -4.500
REMARK INTER:                  -4.970
REMARK INTRA:                   0.470
REMARK UNBOUND:                 0.229
REMARK SMILES O=c1c(O)c(-c2ccc(O)cc2)oc2cc(O)cc(O)c12
REMARK SMILES IDX 5 1 3 2 2 3 1 4 21 5 19 6 18 7 16 8 15 9 14 10 13 11 6 12
REMARK SMILES IDX 7 13 8 14 9 15 12 16 11 17 10 18 4 20 20 22 17 24
REMARK H PARENT 10 19 4 21 20 23 17 25
REMARK Flexibility Score: inf
ROOT
ATOM      1  C   UNL     1      72.461  41.405  20.772  1.00  0.00     0.180 A 
ATOM      2  C   UNL     1      72.934  41.154  22.071  1.00  0.00     0.208 A 
ATOM      3  C   UNL     1      74.318  41.146  22.303  1.00  0.00     0.238 A 
ATOM      4  O   UNL     1      74.736  40.847  23.451  1.00  0.00    -0.285 OA
ATOM      5  C   UNL     1      75.212  41.445  21.245  1.00  0.00     0.111 A 
ATOM      6  C   UNL     1      76.632  41.510  21.375  1.00  0.00     0.134 A 
ATOM      7  C   UNL     1      77.422  41.710  20.236  1.00  0.00     0.093 A 
ATOM      8  C   UNL     1      76.843  41.911  18.984  1.00  0.00     0.123 A 
ATOM      9  C   UNL     1      75.454  41.904  18.854  1.00  0.00     0.094 A 
ATOM     10  C   UNL     1      74.640  41.669  19.965  1.00  0.00     0.146 A 
ATOM     11  O   UNL     1      73.324  41.650  19.793  1.00  0.00    -0.452 OA
ENDROOT
BRANCH   1  12
ATOM     12  C   UNL     1      71.016  41.416  20.446  1.00  0.00     0.021 A 
ATOM     13  C   UNL     1      70.525  42.088  19.311  1.00  0.00     0.016 A 
ATOM     14  C   UNL     1      69.154  42.105  19.038  1.00  0.00     0.047 A 
ATOM     15  C   UNL     1      68.256  41.463  19.901  1.00  0.00     0.115 A 
ATOM     16  C   UNL     1      70.106  40.793  21.316  1.00  0.00     0.016 A 
ATOM     17  C   UNL     1      68.736  40.811  21.040  1.00  0.00     0.047 A 
BRANCH  15  18
ATOM     18  O   UNL     1      66.889  41.473  19.638  1.00  0.00    -0.508 OA
ATOM     19  H   UNL     1      66.326  40.635  19.725  1.00  0.00     0.293 HD
ENDBRANCH  15  18
ENDBRANCH   1  12
BRANCH   2  20
ATOM     20  O   UNL     1      72.032  40.938  23.118  1.00  0.00    -0.502 OA
ATOM     21  H   UNL     1      72.304  41.004  24.092  1.00  0.00     0.293 HD
ENDBRANCH   2  20
BRANCH   6  22
ATOM     22  O   UNL     1      77.312  41.411  22.594  1.00  0.00    -0.507 OA
ATOM     23  H   UNL     1      76.994  41.802  23.466  1.00  0.00     0.293 HD
ENDBRANCH   6  22
BRANCH   8  24
ATOM     24  O   UNL     1      77.659  42.123  17.876  1.00  0.00    -0.508 OA
ATOM     25  H   UNL     1      77.781  41.413  17.163  1.00  0.00     0.293 HD
ENDBRANCH   8  24
TORSDOF 5
ENDMDL
MODEL 3
REMARK VINA RESULT:    -3.831      1.399      3.062
REMARK INTER + INTRA:          -4.274
REMARK INTER:                  -4.698
REMARK INTRA:                   0.424
REMARK UNBOUND:                 0.229
REMARK SMILES O=c1c(O)c(-c2ccc(O)cc2)oc2cc(O)cc(O)c12
REMARK SMILES IDX 5 1 3 2 2 3 1 4 21 5 19 6 18 7 16 8 15 9 14 10 13 11 6 12
REMARK SMILES IDX 7 13 8 14 9 15 12 16 11 17 10 18 4 20 20 22 17 24
REMARK H PARENT 10 19 4 21 20 23 17 25
REMARK Flexibility Score: inf
ROOT
ATOM      1  C   UNL     1      73.149  41.705  20.449  1.00  0.00     0.180 A 
ATOM      2  C   UNL     1      73.527  41.412  21.770  1.00  0.00     0.208 A 
ATOM      3  C   UNL     1      74.892  41.315  22.084  1.00  0.00     0.238 A 
ATOM      4  O   UNL     1      75.221  40.980  23.251  1.00  0.00    -0.285 OA
ATOM      5  C   UNL     1      75.864  41.568  21.084  1.00  0.00     0.111 A 
ATOM      6  C   UNL     1      77.275  41.543  21.299  1.00  0.00     0.134 A 
ATOM      7  C   UNL     1      78.143  41.704  20.212  1.00  0.00     0.093 A 
ATOM      8  C   UNL     1      77.654  41.953  18.931  1.00  0.00     0.123 A 
ATOM      9  C   UNL     1      76.277  42.034  18.719  1.00  0.00     0.094 A 
ATOM     10  C   UNL     1      75.385  41.840  19.777  1.00  0.00     0.146 A 
ATOM     11  O   UNL     1      74.083  41.905  19.526  1.00  0.00    -0.452 OA
ENDROOT
BRANCH   1  12
ATOM     12  C   UNL     1      71.730  41.809  20.039  1.00  0.00     0.021 A 
ATOM     13  C   UNL     1      70.707  42.009  20.983  1.00  0.00     0.016 A 
ATOM     14  C   UNL     1      69.372  42.079  20.574  1.00  0.00     0.047 A 
ATOM     15  C   UNL     1      69.041  41.938  19.220  1.00  0.00     0.115 A 
ATOM     16  C   UNL     1      71.388  41.648  18.686  1.00  0.00     0.016 A 
ATOM     17  C   UNL     1      70.052  41.719  18.280  1.00  0.00     0.047 A 
BRANCH  15  18
ATOM     18  O   UNL     1      67.715  42.007  18.801  1.00  0.00    -0.508 OA
ATOM     19  H   UNL     1      67.395  42.734  18.171  1.00  0.00     0.293 HD
ENDBRANCH  15  18
ENDBRANCH   1  12
BRANCH   2  20
ATOM     20  O   UNL     1      72.553  41.242  22.759  1.00  0.00    -0.502 OA
ATOM     21  H   UNL     1      71.694  40.732  22.594  1.00  0.00     0.293 HD
ENDBRANCH   2  20
BRANCH   6  22
ATOM     22  O   UNL     1      77.874  41.390  22.554  1.00  0.00    -0.507 OA
ATOM     23  H   UNL     1      78.661  40.791  22.749  1.00  0.00     0.293 HD
ENDBRANCH   6  22
BRANCH   8  24
ATOM     24  O   UNL     1      78.546  42.125  17.875  1.00  0.00    -0.508 OA
ATOM     25  H   UNL     1      79.516  42.373  18.036  1.00  0.00     0.293 HD
ENDBRANCH   8  24
TORSDOF 5
ENDMDL
MODEL 4
REMARK VINA RESULT:    -3.745      1.666      7.028
REMARK INTER + INTRA:          -4.173
REMARK INTER:                  -4.412
REMARK INTRA:                   0.238
REMARK UNBOUND:                 0.229
REMARK SMILES O=c1c(O)c(-c2ccc(O)cc2)oc2cc(O)cc(O)c12
REMARK SMILES IDX 5 1 3 2 2 3 1 4 21 5 19 6 18 7 16 8 15 9 14 10 13 11 6 12
REMARK SMILES IDX 7 13 8 14 9 15 12 16 11 17 10 18 4 20 20 22 17 24
REMARK H PARENT 10 19 4 21 20 23 17 25
REMARK Flexibility Score: inf
ROOT
ATOM      1  C   UNL     1      74.029  41.226  20.114  1.00  0.00     0.180 A 
ATOM      2  C   UNL     1      73.750  40.645  21.362  1.00  0.00     0.208 A 
ATOM      3  C   UNL     1      72.412  40.454  21.743  1.00  0.00     0.238 A 
ATOM      4  O   UNL     1      72.170  40.002  22.892  1.00  0.00    -0.285 OA
ATOM      5  C   UNL     1      71.370  40.795  20.846  1.00  0.00     0.111 A 
ATOM      6  C   UNL     1      69.979  40.603  21.107  1.00  0.00     0.134 A 
ATOM      7  C   UNL     1      69.033  41.076  20.190  1.00  0.00     0.093 A 
ATOM      8  C   UNL     1      69.424  41.674  18.994  1.00  0.00     0.123 A 
ATOM      9  C   UNL     1      70.782  41.817  18.703  1.00  0.00     0.094 A 
ATOM     10  C   UNL     1      71.750  41.391  19.616  1.00  0.00     0.146 A 
ATOM     11  O   UNL     1      73.029  41.565  19.308  1.00  0.00    -0.452 OA
ENDROOT
BRANCH   1  12
ATOM     12  C   UNL     1      75.413  41.472  19.649  1.00  0.00     0.021 A 
ATOM     13  C   UNL     1      75.789  41.246  18.312  1.00  0.00     0.016 A 
ATOM     14  C   UNL     1      77.108  41.462  17.903  1.00  0.00     0.047 A 
ATOM     15  C   UNL     1      78.070  41.894  18.825  1.00  0.00     0.115 A 
ATOM     16  C   UNL     1      76.389  41.885  20.571  1.00  0.00     0.016 A 
ATOM     17  C   UNL     1      77.707  42.100  20.159  1.00  0.00     0.047 A 
BRANCH  15  18
ATOM     18  O   UNL     1      79.387  42.113  18.428  1.00  0.00    -0.508 OA
ATOM     19  H   UNL     1      79.931  41.389  17.973  1.00  0.00     0.293 HD
ENDBRANCH  15  18
ENDBRANCH   1  12
BRANCH   2  20
ATOM     20  O   UNL     1      74.795  40.244  22.201  1.00  0.00    -0.502 OA
ATOM     21  H   UNL     1      75.330  40.902  22.756  1.00  0.00     0.293 HD
ENDBRANCH   2  20
BRANCH   6  22
ATOM     22  O   UNL     1      69.477  39.937  22.230  1.00  0.00    -0.507 OA
ATOM     23  H   UNL     1      69.830  39.064  22.589  1.00  0.00     0.293 HD
ENDBRANCH   6  22
BRANCH   8  24
ATOM     24  O   UNL     1      68.455  42.118  18.097  1.00  0.00    -0.508 OA
ATOM     25  H   UNL     1      67.624  42.604  18.412  1.00  0.00     0.293 HD
ENDBRANCH   8  24
TORSDOF 5
ENDMDL
MODEL 5
REMARK VINA RESULT:    -2.065      1.586      2.425
REMARK INTER + INTRA:          -2.198
REMARK INTER:                  -2.388
REMARK INTRA:                   0.190
REMARK UNBOUND:                 0.229
REMARK SMILES O=c1c(O)c(-c2ccc(O)cc2)oc2cc(O)cc(O)c12
REMARK SMILES IDX 5 1 3 2 2 3 1 4 21 5 19 6 18 7 16 8 15 9 14 10 13 11 6 12
REMARK SMILES IDX 7 13 8 14 9 15 12 16 11 17 10 18 4 20 20 22 17 24
REMARK H PARENT 10 19 4 21 20 23 17 25
REMARK Flexibility Score: inf
ROOT
ATOM      1  C   UNL     1      73.859  41.303  20.615  1.00  0.00     0.180 A 
ATOM      2  C   UNL     1      75.065  41.681  20.003  1.00  0.00     0.208 A 
ATOM      3  C   UNL     1      76.260  41.588  20.734  1.00  0.00     0.238 A 
ATOM      4  O   UNL     1      77.325  41.998  20.204  1.00  0.00    -0.285 OA
ATOM      5  C   UNL     1      76.242  41.064  22.050  1.00  0.00     0.111 A 
ATOM      6  C   UNL     1      77.398  40.881  22.868  1.00  0.00     0.134 A 
ATOM      7  C   UNL     1      77.246  40.454  24.193  1.00  0.00     0.093 A 
ATOM      8  C   UNL     1      75.990  40.141  24.710  1.00  0.00     0.123 A 
ATOM      9  C   UNL     1      74.858  40.263  23.902  1.00  0.00     0.094 A 
ATOM     10  C   UNL     1      74.973  40.724  22.588  1.00  0.00     0.146 A 
ATOM     11  O   UNL     1      73.868  40.846  21.862  1.00  0.00    -0.452 OA
ENDROOT
BRANCH   1  12
ATOM     12  C   UNL     1      72.557  41.386  19.914  1.00  0.00     0.021 A 
ATOM     13  C   UNL     1      72.435  41.054  18.552  1.00  0.00     0.016 A 
ATOM     14  C   UNL     1      71.201  41.165  17.905  1.00  0.00     0.047 A 
ATOM     15  C   UNL     1      70.077  41.621  18.606  1.00  0.00     0.115 A 
ATOM     16  C   UNL     1      71.430  41.862  20.603  1.00  0.00     0.016 A 
ATOM     17  C   UNL     1      70.196  41.972  19.954  1.00  0.00     0.047 A 
BRANCH  15  18
ATOM     18  O   UNL     1      68.842  41.734  17.972  1.00  0.00    -0.508 OA
ATOM     19  H   UNL     1      68.032  42.108  18.453  1.00  0.00     0.293 HD
ENDBRANCH  15  18
ENDBRANCH   1  12
BRANCH   2  20
ATOM     20  O   UNL     1      75.072  42.123  18.676  1.00  0.00    -0.502 OA
ATOM     21  H   UNL     1      74.354  42.732  18.302  1.00  0.00     0.293 HD
ENDBRANCH   2  20
BRANCH   6  22
ATOM     22  O   UNL     1      78.710  41.079  22.425  1.00  0.00    -0.507 OA
ATOM     23  H   UNL     1      78.974  41.281  21.474  1.00  0.00     0.293 HD
ENDBRANCH   6  22
BRANCH   8  24
ATOM     24  O   UNL     1      75.878  39.703  26.027  1.00  0.00    -0.508 OA
ATOM     25  H   UNL     1      75.354  38.869  26.266  1.00  0.00     0.293 HD
ENDBRANCH   8  24
TORSDOF 5
ENDMDL
