MODEL 1
REMARK VINA RESULT:    -1.681      0.000      0.000
REMARK INTER + INTRA:          -3.264
REMARK INTER:                  -2.664
REMARK INTRA:                  -0.600
REMARK UNBOUND:                -0.600
REMARK SMILES CCCCCCCCCCCC(=O)[O-]
REMARK SMILES IDX 7 1 8 2 9 3 10 4 11 5 12 6 13 7 14 8 6 9 5 10 4 11 3 12 2 13
REMARK SMILES IDX 1 14
REMARK H PARENT
REMARK Flexibility Score: inf
ROOT
ATOM      1  C   UNL     1      -5.554  35.265  25.128  1.00  0.00     0.000 C 
ENDROOT
BRANCH   1   2
ATOM      2  C   UNL     1      -6.124  36.673  25.367  1.00  0.00     0.000 C 
BRANCH   2   3
ATOM      3  C   UNL     1      -5.037  37.762  25.340  1.00  0.00     0.000 C 
BRANCH   3   4
ATOM      4  C   UNL     1      -5.363  38.904  24.360  1.00  0.00     0.006 C 
BRANCH   4   5
ATOM      5  C   UNL     1      -6.080  38.454  23.076  1.00  0.00     0.053 C 
BRANCH   5   6
ATOM      6  C   UNL     1      -5.679  39.276  21.890  1.00  0.00     0.041 C 
ATOM      7  O   UNL     1      -5.485  38.725  20.774  1.00  0.00    -0.550 OA
ATOM      8  O   UNL     1      -5.554  40.655  22.008  1.00  0.00    -0.550 OA
ENDBRANCH   5   6
ENDBRANCH   4   5
ENDBRANCH   3   4
ENDBRANCH   2   3
ENDBRANCH   1   2
BRANCH   1   9
ATOM      9  C   UNL     1      -6.125  34.599  23.867  1.00  0.00     0.000 C 
BRANCH   9  10
ATOM     10  C   UNL     1      -5.262  34.917  22.639  1.00  0.00    -0.000 C 
BRANCH  10  11
ATOM     11  C   UNL     1      -6.125  35.444  21.483  1.00  0.00    -0.000 C 
BRANCH  11  12
ATOM     12  C   UNL     1      -5.332  35.601  20.176  1.00  0.00    -0.000 C 
BRANCH  12  13
ATOM     13  C   UNL     1      -5.928  34.785  19.020  1.00  0.00    -0.003 C 
ATOM     14  C   UNL     1      -4.855  34.406  18.003  1.00  0.00     0.004 C 
ENDBRANCH  12  13
ENDBRANCH  11  12
ENDBRANCH  10  11
ENDBRANCH   9  10
ENDBRANCH   1   9
TORSDOF 10
ENDMDL
MODEL 2
REMARK VINA RESULT:    -1.480      2.226      4.311
REMARK INTER + INTRA:          -2.946
REMARK INTER:                  -2.115
REMARK INTRA:                  -0.831
REMARK UNBOUND:                -0.600
REMARK SMILES CCCCCCCCCCCC(=O)[O-]
REMARK SMILES IDX 7 1 8 2 9 3 10 4 11 5 12 6 13 7 14 8 6 9 5 10 4 11 3 12 2 13
REMARK SMILES IDX 1 14
REMARK H PARENT
REMARK Flexibility Score: inf
ROOT
ATOM      1  C   UNL     1      -4.268  34.650  21.521  1.00  0.00     0.000 C 
ENDROOT
BRANCH   1   2
ATOM      2  C   UNL     1      -5.313  35.252  22.474  1.00  0.00     0.000 C 
BRANCH   2   3
ATOM      3  C   UNL     1      -5.668  34.306  23.634  1.00  0.00     0.000 C 
BRANCH   3   4
ATOM      4  C   UNL     1      -6.121  35.059  24.899  1.00  0.00     0.006 C 
BRANCH   4   5
ATOM      5  C   UNL     1      -6.124  36.590  24.760  1.00  0.00     0.053 C 
BRANCH   5   6
ATOM      6  C   UNL     1      -5.045  37.232  25.576  1.00  0.00     0.041 C 
ATOM      7  O   UNL     1      -5.015  38.483  25.715  1.00  0.00    -0.550 OA
ATOM      8  O   UNL     1      -4.091  36.445  26.211  1.00  0.00    -0.550 OA
ENDBRANCH   5   6
ENDBRANCH   4   5
ENDBRANCH   3   4
ENDBRANCH   2   3
ENDBRANCH   1   2
BRANCH   1   9
ATOM      9  C   UNL     1      -4.477  35.080  20.061  1.00  0.00     0.000 C 
BRANCH   9  10
ATOM     10  C   UNL     1      -5.572  36.148  19.955  1.00  0.00    -0.000 C 
BRANCH  10  11
ATOM     11  C   UNL     1      -4.988  37.492  19.497  1.00  0.00    -0.000 C 
BRANCH  11  12
ATOM     12  C   UNL     1      -5.619  38.691  20.222  1.00  0.00    -0.000 C 
BRANCH  12  13
ATOM     13  C   UNL     1      -5.717  38.480  21.740  1.00  0.00    -0.003 C 
ATOM     14  C   UNL     1      -5.803  39.813  22.477  1.00  0.00     0.004 C 
ENDBRANCH  12  13
ENDBRANCH  11  12
ENDBRANCH  10  11
ENDBRANCH   9  10
ENDBRANCH   1   9
TORSDOF 10
ENDMDL
MODEL 3
REMARK VINA RESULT:    -1.382      3.113      6.605
REMARK INTER + INTRA:          -2.791
REMARK INTER:                  -2.319
REMARK INTRA:                  -0.472
REMARK UNBOUND:                -0.600
REMARK SMILES CCCCCCCCCCCC(=O)[O-]
REMARK SMILES IDX 7 1 8 2 9 3 10 4 11 5 12 6 13 7 14 8 6 9 5 10 4 11 3 12 2 13
REMARK SMILES IDX 1 14
REMARK H PARENT
REMARK Flexibility Score: inf
ROOT
ATOM      1  C   UNL     1      -5.070  36.005  19.869  1.00  0.00     0.000 C 
ENDROOT
BRANCH   1   2
ATOM      2  C   UNL     1      -5.567  34.719  19.190  1.00  0.00     0.000 C 
BRANCH   2   3
ATOM      3  C   UNL     1      -4.698  34.313  17.987  1.00  0.00     0.000 C 
BRANCH   3   4
ATOM      4  C   UNL     1      -4.308  35.513  17.104  1.00  0.00     0.006 C 
BRANCH   4   5
ATOM      5  C   UNL     1      -3.076  35.274  16.214  1.00  0.00     0.053 C 
BRANCH   5   6
ATOM      6  C   UNL     1      -3.116  36.095  14.963  1.00  0.00     0.041 C 
ATOM      7  O   UNL     1      -2.159  36.052  14.146  1.00  0.00    -0.550 OA
ATOM      8  O   UNL     1      -4.227  36.882  14.682  1.00  0.00    -0.550 OA
ENDBRANCH   5   6
ENDBRANCH   4   5
ENDBRANCH   3   4
ENDBRANCH   2   3
ENDBRANCH   1   2
BRANCH   1   9
ATOM      9  C   UNL     1      -5.649  36.194  21.280  1.00  0.00     0.000 C 
BRANCH   9  10
ATOM     10  C   UNL     1      -6.121  34.857  21.863  1.00  0.00    -0.000 C 
BRANCH  10  11
ATOM     11  C   UNL     1      -6.124  34.897  23.399  1.00  0.00    -0.000 C 
BRANCH  11  12
ATOM     12  C   UNL     1      -5.949  36.319  23.955  1.00  0.00    -0.000 C 
BRANCH  12  13
ATOM     13  C   UNL     1      -5.661  36.333  25.464  1.00  0.00    -0.003 C 
ATOM     14  C   UNL     1      -4.915  37.601  25.869  1.00  0.00     0.004 C 
ENDBRANCH  12  13
ENDBRANCH  11  12
ENDBRANCH  10  11
ENDBRANCH   9  10
ENDBRANCH   1   9
TORSDOF 10
ENDMDL
MODEL 4
REMARK VINA RESULT:    -1.183      1.378      4.275
REMARK INTER + INTRA:          -2.476
REMARK INTER:                  -2.480
REMARK INTRA:                   0.005
REMARK UNBOUND:                -0.600
REMARK SMILES CCCCCCCCCCCC(=O)[O-]
REMARK SMILES IDX 7 1 8 2 9 3 10 4 11 5 12 6 13 7 14 8 6 9 5 10 4 11 3 12 2 13
REMARK SMILES IDX 1 14
REMARK H PARENT
REMARK Flexibility Score: inf
ROOT
ATOM      1  C   UNL     1      -4.408  34.967  21.767  1.00  0.00     0.000 C 
ENDROOT
BRANCH   1   2
ATOM      2  C   UNL     1      -5.528  35.479  20.847  1.00  0.00     0.000 C 
BRANCH   2   3
ATOM      3  C   UNL     1      -5.036  36.553  19.861  1.00  0.00     0.000 C 
BRANCH   3   4
ATOM      4  C   UNL     1      -5.634  37.943  20.150  1.00  0.00     0.006 C 
BRANCH   4   5
ATOM      5  C   UNL     1      -5.934  38.210  21.634  1.00  0.00     0.053 C 
BRANCH   5   6
ATOM      6  C   UNL     1      -5.657  39.631  22.018  1.00  0.00     0.041 C 
ATOM      7  O   UNL     1      -5.975  40.570  21.243  1.00  0.00    -0.550 OA
ATOM      8  O   UNL     1      -5.080  39.920  23.249  1.00  0.00    -0.550 OA
ENDBRANCH   5   6
ENDBRANCH   4   5
ENDBRANCH   3   4
ENDBRANCH   2   3
ENDBRANCH   1   2
BRANCH   1   9
ATOM      9  C   UNL     1      -4.843  33.768  22.623  1.00  0.00     0.000 C 
BRANCH   9  10
ATOM     10  C   UNL     1      -6.041  34.132  23.509  1.00  0.00    -0.000 C 
BRANCH  10  11
ATOM     11  C   UNL     1      -6.124  35.651  23.724  1.00  0.00    -0.000 C 
BRANCH  11  12
ATOM     12  C   UNL     1      -5.938  36.052  25.196  1.00  0.00    -0.000 C 
BRANCH  12  13
ATOM     13  C   UNL     1      -5.376  37.473  25.355  1.00  0.00    -0.003 C 
ATOM     14  C   UNL     1      -4.137  37.477  26.246  1.00  0.00     0.004 C 
ENDBRANCH  12  13
ENDBRANCH  11  12
ENDBRANCH  10  11
ENDBRANCH   9  10
ENDBRANCH   1   9
TORSDOF 10
ENDMDL
MODEL 5
REMARK VINA RESULT:    -1.053      2.338      3.614
REMARK INTER + INTRA:          -2.269
REMARK INTER:                  -1.569
REMARK INTRA:                  -0.701
REMARK UNBOUND:                -0.600
REMARK SMILES CCCCCCCCCCCC(=O)[O-]
REMARK SMILES IDX 7 1 8 2 9 3 10 4 11 5 12 6 13 7 14 8 6 9 5 10 4 11 3 12 2 13
REMARK SMILES IDX 1 14
REMARK H PARENT
REMARK Flexibility Score: inf
ROOT
ATOM      1  C   UNL     1      -5.448  39.063  20.283  1.00  0.00     0.000 C 
ENDROOT
BRANCH   1   2
ATOM      2  C   UNL     1      -6.125  39.164  21.660  1.00  0.00     0.000 C 
BRANCH   2   3
ATOM      3  C   UNL     1      -5.182  39.721  22.741  1.00  0.00     0.000 C 
BRANCH   3   4
ATOM      4  C   UNL     1      -5.340  39.004  24.095  1.00  0.00     0.006 C 
BRANCH   4   5
ATOM      5  C   UNL     1      -6.106  37.672  24.023  1.00  0.00     0.053 C 
BRANCH   5   6
ATOM      6  C   UNL     1      -5.598  36.676  25.019  1.00  0.00     0.041 C 
ATOM      7  O   UNL     1      -6.075  35.511  25.049  1.00  0.00    -0.550 OA
ATOM      8  O   UNL     1      -4.573  37.024  25.891  1.00  0.00    -0.550 OA
ENDBRANCH   5   6
ENDBRANCH   4   5
ENDBRANCH   3   4
ENDBRANCH   2   3
ENDBRANCH   1   2
BRANCH   1   9
ATOM      9  C   UNL     1      -5.188  37.610  19.854  1.00  0.00     0.000 C 
BRANCH   9  10
ATOM     10  C   UNL     1      -5.930  36.627  20.767  1.00  0.00    -0.000 C 
BRANCH  10  11
ATOM     11  C   UNL     1      -5.086  35.370  21.024  1.00  0.00    -0.000 C 
BRANCH  11  12
ATOM     12  C   UNL     1      -4.185  35.008  19.832  1.00  0.00    -0.000 C 
BRANCH  12  13
ATOM     13  C   UNL     1      -4.978  34.457  18.638  1.00  0.00    -0.003 C 
ATOM     14  C   UNL     1      -4.245  34.718  17.325  1.00  0.00     0.004 C 
ENDBRANCH  12  13
ENDBRANCH  11  12
ENDBRANCH  10  11
ENDBRANCH   9  10
ENDBRANCH   1   9
TORSDOF 10
ENDMDL
MODEL 6
REMARK VINA RESULT:    -1.002      2.663      4.871
REMARK INTER + INTRA:          -2.188
REMARK INTER:                  -1.979
REMARK INTRA:                  -0.209
REMARK UNBOUND:                -0.600
REMARK SMILES CCCCCCCCCCCC(=O)[O-]
REMARK SMILES IDX 7 1 8 2 9 3 10 4 11 5 12 6 13 7 14 8 6 9 5 10 4 11 3 12 2 13
REMARK SMILES IDX 1 14
REMARK H PARENT
REMARK Flexibility Score: inf
ROOT
ATOM      1  C   UNL     1      -5.407  34.658  24.189  1.00  0.00     0.000 C 
ENDROOT
BRANCH   1   2
ATOM      2  C   UNL     1      -6.115  34.485  22.836  1.00  0.00     0.000 C 
BRANCH   2   3
ATOM      3  C   UNL     1      -5.808  35.634  21.859  1.00  0.00     0.000 C 
BRANCH   3   4
ATOM      4  C   UNL     1      -6.053  35.246  20.388  1.00  0.00     0.006 C 
BRANCH   4   5
ATOM      5  C   UNL     1      -4.849  35.481  19.460  1.00  0.00     0.053 C 
BRANCH   5   6
ATOM      6  C   UNL     1      -4.885  34.593  18.255  1.00  0.00     0.041 C 
ATOM      7  O   UNL     1      -5.797  33.734  18.128  1.00  0.00    -0.550 OA
ATOM      8  O   UNL     1      -3.931  34.738  17.255  1.00  0.00    -0.550 OA
ENDBRANCH   5   6
ENDBRANCH   4   5
ENDBRANCH   3   4
ENDBRANCH   2   3
ENDBRANCH   1   2
BRANCH   1   9
ATOM      9  C   UNL     1      -6.125  35.654  25.113  1.00  0.00     0.000 C 
BRANCH   9  10
ATOM     10  C   UNL     1      -5.429  37.020  25.094  1.00  0.00    -0.000 C 
BRANCH  10  11
ATOM     11  C   UNL     1      -6.022  37.924  24.003  1.00  0.00    -0.000 C 
BRANCH  11  12
ATOM     12  C   UNL     1      -5.189  39.193  23.767  1.00  0.00    -0.000 C 
BRANCH  12  13
ATOM     13  C   UNL     1      -5.543  39.898  22.450  1.00  0.00    -0.003 C 
ATOM     14  C   UNL     1      -5.752  38.888  21.325  1.00  0.00     0.004 C 
ENDBRANCH  12  13
ENDBRANCH  11  12
ENDBRANCH  10  11
ENDBRANCH   9  10
ENDBRANCH   1   9
TORSDOF 10
ENDMDL
MODEL 7
REMARK VINA RESULT:    -0.980      2.350      5.205
REMARK INTER + INTRA:          -2.154
REMARK INTER:                  -1.812
REMARK INTRA:                  -0.342
REMARK UNBOUND:                -0.600
REMARK SMILES CCCCCCCCCCCC(=O)[O-]
REMARK SMILES IDX 7 1 8 2 9 3 10 4 11 5 12 6 13 7 14 8 6 9 5 10 4 11 3 12 2 13
REMARK SMILES IDX 1 14
REMARK H PARENT
REMARK Flexibility Score: inf
ROOT
ATOM      1  C   UNL     1      -4.910  38.835  21.806  1.00  0.00     0.000 C 
ENDROOT
BRANCH   1   2
ATOM      2  C   UNL     1      -5.764  38.725  20.532  1.00  0.00     0.000 C 
BRANCH   2   3
ATOM      3  C   UNL     1      -5.319  37.567  19.622  1.00  0.00     0.000 C 
BRANCH   3   4
ATOM      4  C   UNL     1      -5.449  36.191  20.303  1.00  0.00     0.006 C 
BRANCH   4   5
ATOM      5  C   UNL     1      -6.023  35.087  19.399  1.00  0.00     0.053 C 
BRANCH   5   6
ATOM      6  C   UNL     1      -5.041  34.643  18.359  1.00  0.00     0.041 C 
ATOM      7  O   UNL     1      -4.962  33.428  18.041  1.00  0.00    -0.550 OA
ATOM      8  O   UNL     1      -4.238  35.577  17.716  1.00  0.00    -0.550 OA
ENDBRANCH   5   6
ENDBRANCH   4   5
ENDBRANCH   3   4
ENDBRANCH   2   3
ENDBRANCH   1   2
BRANCH   1   9
ATOM      9  C   UNL     1      -5.665  39.491  22.973  1.00  0.00     0.000 C 
BRANCH   9  10
ATOM     10  C   UNL     1      -5.725  38.553  24.184  1.00  0.00    -0.000 C 
BRANCH  10  11
ATOM     11  C   UNL     1      -6.045  37.115  23.750  1.00  0.00    -0.000 C 
BRANCH  11  12
ATOM     12  C   UNL     1      -6.110  36.138  24.936  1.00  0.00    -0.000 C 
BRANCH  12  13
ATOM     13  C   UNL     1      -6.125  34.668  24.491  1.00  0.00    -0.003 C 
ATOM     14  C   UNL     1      -5.275  34.463  23.240  1.00  0.00     0.004 C 
ENDBRANCH  12  13
ENDBRANCH  11  12
ENDBRANCH  10  11
ENDBRANCH   9  10
ENDBRANCH   1   9
TORSDOF 10
ENDMDL
MODEL 8
REMARK VINA RESULT:    -0.919      2.359      4.172
REMARK INTER + INTRA:          -2.056
REMARK INTER:                  -1.118
REMARK INTRA:                  -0.938
REMARK UNBOUND:                -0.600
REMARK SMILES CCCCCCCCCCCC(=O)[O-]
REMARK SMILES IDX 7 1 8 2 9 3 10 4 11 5 12 6 13 7 14 8 6 9 5 10 4 11 3 12 2 13
REMARK SMILES IDX 1 14
REMARK H PARENT
REMARK Flexibility Score: inf
ROOT
ATOM      1  C   UNL     1      -5.489  39.038  20.346  1.00  0.00     0.000 C 
ENDROOT
BRANCH   1   2
ATOM      2  C   UNL     1      -5.951  39.765  21.619  1.00  0.00     0.000 C 
BRANCH   2   3
ATOM      3  C   UNL     1      -4.945  39.627  22.775  1.00  0.00     0.000 C 
BRANCH   3   4
ATOM      4  C   UNL     1      -5.611  39.203  24.097  1.00  0.00     0.006 C 
BRANCH   4   5
ATOM      5  C   UNL     1      -5.837  37.688  24.237  1.00  0.00     0.053 C 
BRANCH   5   6
ATOM      6  C   UNL     1      -5.377  37.170  25.565  1.00  0.00     0.041 C 
ATOM      7  O   UNL     1      -6.125  36.421  26.246  1.00  0.00    -0.550 OA
ATOM      8  O   UNL     1      -4.108  37.487  26.033  1.00  0.00    -0.550 OA
ENDBRANCH   5   6
ENDBRANCH   4   5
ENDBRANCH   3   4
ENDBRANCH   2   3
ENDBRANCH   1   2
BRANCH   1   9
ATOM      9  C   UNL     1      -6.009  37.595  20.263  1.00  0.00     0.000 C 
BRANCH   9  10
ATOM     10  C   UNL     1      -5.005  36.690  19.539  1.00  0.00    -0.000 C 
BRANCH  10  11
ATOM     11  C   UNL     1      -4.786  35.381  20.312  1.00  0.00    -0.000 C 
BRANCH  11  12
ATOM     12  C   UNL     1      -5.755  35.222  21.495  1.00  0.00    -0.000 C 
BRANCH  12  13
ATOM     13  C   UNL     1      -5.079  34.625  22.737  1.00  0.00    -0.003 C 
ATOM     14  C   UNL     1      -6.109  34.027  23.690  1.00  0.00     0.004 C 
ENDBRANCH  12  13
ENDBRANCH  11  12
ENDBRANCH  10  11
ENDBRANCH   9  10
ENDBRANCH   1   9
TORSDOF 10
ENDMDL
