MODEL 1
REMARK VINA RESULT:    -7.442      0.000      0.000
REMARK INTER + INTRA:          -8.990
REMARK INTER:                  -8.965
REMARK INTRA:                  -0.025
REMARK UNBOUND:                -0.025
REMARK SMILES O=c1c(O)c(-c2ccc(O)c(O)c2)oc2cc(O)cc(O)c12
REMARK SMILES IDX 5 1 3 2 2 3 1 4 22 5 20 6 19 7 17 8 16 9 15 10 14 11 6 12
REMARK SMILES IDX 7 13 8 14 9 15 13 16 11 17 10 18 12 20 4 22 21 24 18 26
REMARK H PARENT 10 19 12 21 4 23 21 25 18 27
REMARK Flexibility Score: inf
ROOT
ATOM      1  C   UNL     1      -0.743  15.837  16.287  1.00  0.00     0.180 A 
ATOM      2  C   UNL     1       0.327  16.283  15.492  1.00  0.00     0.208 A 
ATOM      3  C   UNL     1       1.472  15.478  15.381  1.00  0.00     0.238 A 
ATOM      4  O   UNL     1       2.449  15.907  14.711  1.00  0.00    -0.285 OA
ATOM      5  C   UNL     1       1.528  14.233  16.051  1.00  0.00     0.111 A 
ATOM      6  C   UNL     1       2.622  13.319  15.977  1.00  0.00     0.134 A 
ATOM      7  C   UNL     1       2.624  12.177  16.785  1.00  0.00     0.093 A 
ATOM      8  C   UNL     1       1.542  11.882  17.618  1.00  0.00     0.123 A 
ATOM      9  C   UNL     1       0.444  12.737  17.654  1.00  0.00     0.094 A 
ATOM     10  C   UNL     1       0.428  13.904  16.886  1.00  0.00     0.146 A 
ATOM     11  O   UNL     1      -0.635  14.696  16.957  1.00  0.00    -0.452 OA
ENDROOT
BRANCH   1  12
ATOM     12  C   UNL     1      -1.993  16.617  16.434  1.00  0.00     0.025 A 
ATOM     13  C   UNL     1      -1.931  17.943  16.892  1.00  0.00     0.016 A 
ATOM     14  C   UNL     1      -3.100  18.691  17.058  1.00  0.00     0.051 A 
ATOM     15  C   UNL     1      -4.347  18.121  16.784  1.00  0.00     0.157 A 
ATOM     16  C   UNL     1      -3.250  16.040  16.180  1.00  0.00     0.062 A 
ATOM     17  C   UNL     1      -4.425  16.788  16.347  1.00  0.00     0.158 A 
BRANCH  15  18
ATOM     18  O   UNL     1      -5.496  18.893  16.956  1.00  0.00    -0.504 OA
ATOM     19  H   UNL     1      -5.576  19.582  17.694  1.00  0.00     0.293 HD
ENDBRANCH  15  18
BRANCH  17  20
ATOM     20  O   UNL     1      -5.667  16.211  16.086  1.00  0.00    -0.504 OA
ATOM     21  H   UNL     1      -6.517  16.761  16.086  1.00  0.00     0.293 HD
ENDBRANCH  17  20
ENDBRANCH   1  12
BRANCH   2  22
ATOM     22  O   UNL     1       0.261  17.525  14.855  1.00  0.00    -0.502 OA
ATOM     23  H   UNL     1      -0.099  17.636  13.916  1.00  0.00     0.293 HD
ENDBRANCH   2  22
BRANCH   6  24
ATOM     24  O   UNL     1       3.709  13.473  15.111  1.00  0.00    -0.507 OA
ATOM     25  H   UNL     1       3.686  13.994  14.246  1.00  0.00     0.293 HD
ENDBRANCH   6  24
BRANCH   8  26
ATOM     26  O   UNL     1       1.546  10.735  18.408  1.00  0.00    -0.508 OA
ATOM     27  H   UNL     1       0.713  10.167  18.523  1.00  0.00     0.293 HD
ENDBRANCH   8  26
TORSDOF 6
ENDMDL
MODEL 2
REMARK VINA RESULT:    -7.068      1.639      7.276
REMARK INTER + INTRA:          -8.539
REMARK INTER:                  -9.023
REMARK INTRA:                   0.484
REMARK UNBOUND:                -0.025
REMARK SMILES O=c1c(O)c(-c2ccc(O)c(O)c2)oc2cc(O)cc(O)c12
REMARK SMILES IDX 5 1 3 2 2 3 1 4 22 5 20 6 19 7 17 8 16 9 15 10 14 11 6 12
REMARK SMILES IDX 7 13 8 14 9 15 13 16 11 17 10 18 12 20 4 22 21 24 18 26
REMARK H PARENT 10 19 12 21 4 23 21 25 18 27
REMARK Flexibility Score: inf
ROOT
ATOM      1  C   UNL     1      -1.088  14.064  16.134  1.00  0.00     0.180 A 
ATOM      2  C   UNL     1      -2.364  13.489  16.009  1.00  0.00     0.208 A 
ATOM      3  C   UNL     1      -3.495  14.315  16.113  1.00  0.00     0.238 A 
ATOM      4  O   UNL     1      -4.636  13.785  16.055  1.00  0.00    -0.285 OA
ATOM      5  C   UNL     1      -3.337  15.705  16.324  1.00  0.00     0.111 A 
ATOM      6  C   UNL     1      -4.411  16.641  16.405  1.00  0.00     0.134 A 
ATOM      7  C   UNL     1      -4.144  17.972  16.745  1.00  0.00     0.093 A 
ATOM      8  C   UNL     1      -2.834  18.415  16.945  1.00  0.00     0.123 A 
ATOM      9  C   UNL     1      -1.774  17.523  16.810  1.00  0.00     0.094 A 
ATOM     10  C   UNL     1      -2.011  16.180  16.506  1.00  0.00     0.146 A 
ATOM     11  O   UNL     1      -0.973  15.361  16.396  1.00  0.00    -0.452 OA
ENDROOT
BRANCH   1  12
ATOM     12  C   UNL     1       0.152  13.264  16.011  1.00  0.00     0.025 A 
ATOM     13  C   UNL     1       0.087  11.867  16.123  1.00  0.00     0.016 A 
ATOM     14  C   UNL     1       1.247  11.093  16.032  1.00  0.00     0.051 A 
ATOM     15  C   UNL     1       2.490  11.705  15.843  1.00  0.00     0.157 A 
ATOM     16  C   UNL     1       1.406  13.879  15.842  1.00  0.00     0.062 A 
ATOM     17  C   UNL     1       2.573  13.105  15.752  1.00  0.00     0.158 A 
BRANCH  15  18
ATOM     18  O   UNL     1       3.631  10.907  15.752  1.00  0.00    -0.504 OA
ATOM     19  H   UNL     1       4.484  11.236  15.317  1.00  0.00     0.293 HD
ENDBRANCH  15  18
BRANCH  17  20
ATOM     20  O   UNL     1       3.811  13.721  15.577  1.00  0.00    -0.504 OA
ATOM     21  H   UNL     1       3.898  14.611  15.101  1.00  0.00     0.293 HD
ENDBRANCH  17  20
ENDBRANCH   1  12
BRANCH   2  22
ATOM     22  O   UNL     1      -2.499  12.110  15.823  1.00  0.00    -0.502 OA
ATOM     23  H   UNL     1      -3.331  11.695  15.422  1.00  0.00     0.293 HD
ENDBRANCH   2  22
BRANCH   6  24
ATOM     24  O   UNL     1      -5.745  16.322  16.135  1.00  0.00    -0.507 OA
ATOM     25  H   UNL     1      -6.321  16.789  15.449  1.00  0.00     0.293 HD
ENDBRANCH   6  24
BRANCH   8  26
ATOM     26  O   UNL     1      -2.575  19.745  17.268  1.00  0.00    -0.508 OA
ATOM     27  H   UNL     1      -3.249  20.478  17.077  1.00  0.00     0.293 HD
ENDBRANCH   8  26
TORSDOF 6
ENDMDL
MODEL 3
REMARK VINA RESULT:    -7.012      4.269      6.130
REMARK INTER + INTRA:          -8.472
REMARK INTER:                  -8.191
REMARK INTRA:                  -0.281
REMARK UNBOUND:                -0.025
REMARK SMILES O=c1c(O)c(-c2ccc(O)c(O)c2)oc2cc(O)cc(O)c12
REMARK SMILES IDX 5 1 3 2 2 3 1 4 22 5 20 6 19 7 17 8 16 9 15 10 14 11 6 12
REMARK SMILES IDX 7 13 8 14 9 15 13 16 11 17 10 18 12 20 4 22 21 24 18 26
REMARK H PARENT 10 19 12 21 4 23 21 25 18 27
REMARK Flexibility Score: inf
ROOT
ATOM      1  C   UNL     1      -1.503  12.236  14.844  1.00  0.00     0.180 A 
ATOM      2  C   UNL     1      -1.334  11.866  16.190  1.00  0.00     0.208 A 
ATOM      3  C   UNL     1      -0.437  12.594  16.987  1.00  0.00     0.238 A 
ATOM      4  O   UNL     1      -0.249  12.224  18.176  1.00  0.00    -0.285 OA
ATOM      5  C   UNL     1       0.268  13.691  16.437  1.00  0.00     0.111 A 
ATOM      6  C   UNL     1       1.171  14.523  17.164  1.00  0.00     0.134 A 
ATOM      7  C   UNL     1       1.910  15.498  16.485  1.00  0.00     0.093 A 
ATOM      8  C   UNL     1       1.731  15.715  15.116  1.00  0.00     0.123 A 
ATOM      9  C   UNL     1       0.809  14.948  14.409  1.00  0.00     0.094 A 
ATOM     10  C   UNL     1       0.082  13.942  15.052  1.00  0.00     0.146 A 
ATOM     11  O   UNL     1      -0.779  13.228  14.339  1.00  0.00    -0.452 OA
ENDROOT
BRANCH   1  12
ATOM     12  C   UNL     1      -2.448  11.534  13.947  1.00  0.00     0.025 A 
ATOM     13  C   UNL     1      -3.710  12.095  13.697  1.00  0.00     0.016 A 
ATOM     14  C   UNL     1      -4.626  11.438  12.870  1.00  0.00     0.051 A 
ATOM     15  C   UNL     1      -4.301  10.207  12.294  1.00  0.00     0.157 A 
ATOM     16  C   UNL     1      -2.131  10.284  13.383  1.00  0.00     0.062 A 
ATOM     17  C   UNL     1      -3.050   9.623  12.554  1.00  0.00     0.158 A 
BRANCH  15  18
ATOM     18  O   UNL     1      -5.234   9.577  11.470  1.00  0.00    -0.504 OA
ATOM     19  H   UNL     1      -5.805   8.806  11.796  1.00  0.00     0.293 HD
ENDBRANCH  15  18
BRANCH  17  20
ATOM     20  O   UNL     1      -2.725   8.388  11.993  1.00  0.00    -0.504 OA
ATOM     21  H   UNL     1      -3.441   7.720  11.734  1.00  0.00     0.293 HD
ENDBRANCH  17  20
ENDBRANCH   1  12
BRANCH   2  22
ATOM     22  O   UNL     1      -2.023  10.766  16.709  1.00  0.00    -0.502 OA
ATOM     23  H   UNL     1      -1.830  10.388  17.628  1.00  0.00     0.293 HD
ENDBRANCH   2  22
BRANCH   6  24
ATOM     24  O   UNL     1       1.356  14.450  18.548  1.00  0.00    -0.507 OA
ATOM     25  H   UNL     1       2.245  14.554  19.015  1.00  0.00     0.293 HD
ENDBRANCH   6  24
BRANCH   8  26
ATOM     26  O   UNL     1       2.460  16.698  14.451  1.00  0.00    -0.508 OA
ATOM     27  H   UNL     1       2.999  17.393  14.957  1.00  0.00     0.293 HD
ENDBRANCH   8  26
TORSDOF 6
ENDMDL
MODEL 4
REMARK VINA RESULT:    -6.939      2.501      6.966
REMARK INTER + INTRA:          -8.383
REMARK INTER:                  -8.095
REMARK INTRA:                  -0.288
REMARK UNBOUND:                -0.025
REMARK SMILES O=c1c(O)c(-c2ccc(O)c(O)c2)oc2cc(O)cc(O)c12
REMARK SMILES IDX 5 1 3 2 2 3 1 4 22 5 20 6 19 7 17 8 16 9 15 10 14 11 6 12
REMARK SMILES IDX 7 13 8 14 9 15 13 16 11 17 10 18 12 20 4 22 21 24 18 26
REMARK H PARENT 10 19 12 21 4 23 21 25 18 27
REMARK Flexibility Score: inf
ROOT
ATOM      1  C   UNL     1      -1.008  14.423  15.376  1.00  0.00     0.180 A 
ATOM      2  C   UNL     1      -1.735  15.084  16.381  1.00  0.00     0.208 A 
ATOM      3  C   UNL     1      -3.133  15.150  16.278  1.00  0.00     0.238 A 
ATOM      4  O   UNL     1      -3.774  15.790  17.153  1.00  0.00    -0.285 OA
ATOM      5  C   UNL     1      -3.790  14.541  15.182  1.00  0.00     0.111 A 
ATOM      6  C   UNL     1      -5.205  14.512  14.998  1.00  0.00     0.134 A 
ATOM      7  C   UNL     1      -5.736  13.995  13.811  1.00  0.00     0.093 A 
ATOM      8  C   UNL     1      -4.907  13.448  12.828  1.00  0.00     0.123 A 
ATOM      9  C   UNL     1      -3.529  13.418  13.024  1.00  0.00     0.094 A 
ATOM     10  C   UNL     1      -2.965  13.959  14.183  1.00  0.00     0.146 A 
ATOM     11  O   UNL     1      -1.647  13.919  14.326  1.00  0.00    -0.452 OA
ENDROOT
BRANCH   1  12
ATOM     12  C   UNL     1       0.466  14.291  15.427  1.00  0.00     0.025 A 
ATOM     13  C   UNL     1       1.270  15.368  15.026  1.00  0.00     0.016 A 
ATOM     14  C   UNL     1       2.664  15.258  15.045  1.00  0.00     0.051 A 
ATOM     15  C   UNL     1       3.272  14.067  15.451  1.00  0.00     0.157 A 
ATOM     16  C   UNL     1       1.080  13.086  15.814  1.00  0.00     0.062 A 
ATOM     17  C   UNL     1       2.478  12.972  15.833  1.00  0.00     0.158 A 
BRANCH  15  18
ATOM     18  O   UNL     1       4.664  13.987  15.463  1.00  0.00    -0.504 OA
ATOM     19  H   UNL     1       5.213  14.273  16.265  1.00  0.00     0.293 HD
ENDBRANCH  15  18
BRANCH  17  20
ATOM     20  O   UNL     1       3.078  11.777  16.225  1.00  0.00    -0.504 OA
ATOM     21  H   UNL     1       3.707  11.273  15.611  1.00  0.00     0.293 HD
ENDBRANCH  17  20
ENDBRANCH   1  12
BRANCH   2  22
ATOM     22  O   UNL     1      -1.066  15.697  17.445  1.00  0.00    -0.502 OA
ATOM     23  H   UNL     1      -0.133  15.425  17.730  1.00  0.00     0.293 HD
ENDBRANCH   2  22
BRANCH   6  24
ATOM     24  O   UNL     1      -6.125  14.948  15.955  1.00  0.00    -0.507 OA
ATOM     25  H   UNL     1      -6.926  15.532  15.760  1.00  0.00     0.293 HD
ENDBRANCH   6  24
BRANCH   8  26
ATOM     26  O   UNL     1      -5.445  12.922  11.656  1.00  0.00    -0.508 OA
ATOM     27  H   UNL     1      -5.537  11.922  11.517  1.00  0.00     0.293 HD
ENDBRANCH   8  26
TORSDOF 6
ENDMDL
MODEL 5
REMARK VINA RESULT:    -6.918      4.616      7.200
REMARK INTER + INTRA:          -8.358
REMARK INTER:                  -8.038
REMARK INTRA:                  -0.320
REMARK UNBOUND:                -0.025
REMARK SMILES O=c1c(O)c(-c2ccc(O)c(O)c2)oc2cc(O)cc(O)c12
REMARK SMILES IDX 5 1 3 2 2 3 1 4 22 5 20 6 19 7 17 8 16 9 15 10 14 11 6 12
REMARK SMILES IDX 7 13 8 14 9 15 13 16 11 17 10 18 12 20 4 22 21 24 18 26
REMARK H PARENT 10 19 12 21 4 23 21 25 18 27
REMARK Flexibility Score: inf
ROOT
ATOM      1  C   UNL     1      -1.772  12.468  14.756  1.00  0.00     0.180 A 
ATOM      2  C   UNL     1      -2.881  13.330  14.773  1.00  0.00     0.208 A 
ATOM      3  C   UNL     1      -3.801  13.276  13.714  1.00  0.00     0.238 A 
ATOM      4  O   UNL     1      -4.763  14.088  13.707  1.00  0.00    -0.285 OA
ATOM      5  C   UNL     1      -3.610  12.351  12.660  1.00  0.00     0.111 A 
ATOM      6  C   UNL     1      -4.500  12.183  11.556  1.00  0.00     0.134 A 
ATOM      7  C   UNL     1      -4.143  11.329  10.506  1.00  0.00     0.093 A 
ATOM      8  C   UNL     1      -2.959  10.590  10.549  1.00  0.00     0.123 A 
ATOM      9  C   UNL     1      -2.113  10.702  11.648  1.00  0.00     0.094 A 
ATOM     10  C   UNL     1      -2.423  11.573  12.696  1.00  0.00     0.146 A 
ATOM     11  O   UNL     1      -1.584  11.657  13.721  1.00  0.00    -0.452 OA
ENDROOT
BRANCH   1  12
ATOM     12  C   UNL     1      -0.772  12.448  15.848  1.00  0.00     0.025 A 
ATOM     13  C   UNL     1      -0.953  11.578  16.934  1.00  0.00     0.016 A 
ATOM     14  C   UNL     1      -0.033  11.558  17.987  1.00  0.00     0.051 A 
ATOM     15  C   UNL     1       1.071  12.416  17.977  1.00  0.00     0.157 A 
ATOM     16  C   UNL     1       0.327  13.326  15.850  1.00  0.00     0.062 A 
ATOM     17  C   UNL     1       1.251  13.309  16.906  1.00  0.00     0.158 A 
BRANCH  15  18
ATOM     18  O   UNL     1       1.973  12.372  19.039  1.00  0.00    -0.504 OA
ATOM     19  H   UNL     1       2.693  11.663  19.104  1.00  0.00     0.293 HD
ENDBRANCH  15  18
BRANCH  17  20
ATOM     20  O   UNL     1       2.342  14.177  16.897  1.00  0.00    -0.504 OA
ATOM     21  H   UNL     1       2.237  15.162  17.109  1.00  0.00     0.293 HD
ENDBRANCH  17  20
ENDBRANCH   1  12
BRANCH   2  22
ATOM     22  O   UNL     1      -3.041  14.251  15.813  1.00  0.00    -0.502 OA
ATOM     23  H   UNL     1      -3.514  15.137  15.686  1.00  0.00     0.293 HD
ENDBRANCH   2  22
BRANCH   6  24
ATOM     24  O   UNL     1      -5.748  12.804  11.459  1.00  0.00    -0.507 OA
ATOM     25  H   UNL     1      -5.889  13.799  11.355  1.00  0.00     0.293 HD
ENDBRANCH   6  24
BRANCH   8  26
ATOM     26  O   UNL     1      -2.619   9.731   9.506  1.00  0.00    -0.508 OA
ATOM     27  H   UNL     1      -2.048   8.907   9.661  1.00  0.00     0.293 HD
ENDBRANCH   8  26
TORSDOF 6
ENDMDL
MODEL 6
REMARK VINA RESULT:    -6.725      5.104      6.357
REMARK INTER + INTRA:          -8.126
REMARK INTER:                  -7.859
REMARK INTRA:                  -0.267
REMARK UNBOUND:                -0.025
REMARK SMILES O=c1c(O)c(-c2ccc(O)c(O)c2)oc2cc(O)cc(O)c12
REMARK SMILES IDX 5 1 3 2 2 3 1 4 22 5 20 6 19 7 17 8 16 9 15 10 14 11 6 12
REMARK SMILES IDX 7 13 8 14 9 15 13 16 11 17 10 18 12 20 4 22 21 24 18 26
REMARK H PARENT 10 19 12 21 4 23 21 25 18 27
REMARK Flexibility Score: inf
ROOT
ATOM      1  C   UNL     1      -1.693  11.924  13.787  1.00  0.00     0.180 A 
ATOM      2  C   UNL     1      -2.070  13.276  13.851  1.00  0.00     0.208 A 
ATOM      3  C   UNL     1      -1.599  14.064  14.914  1.00  0.00     0.238 A 
ATOM      4  O   UNL     1      -1.984  15.260  14.995  1.00  0.00    -0.285 OA
ATOM      5  C   UNL     1      -0.746  13.496  15.890  1.00  0.00     0.111 A 
ATOM      6  C   UNL     1      -0.178  14.211  16.987  1.00  0.00     0.134 A 
ATOM      7  C   UNL     1       0.546  13.517  17.963  1.00  0.00     0.093 A 
ATOM      8  C   UNL     1       0.777  12.144  17.847  1.00  0.00     0.123 A 
ATOM      9  C   UNL     1       0.278  11.448  16.750  1.00  0.00     0.094 A 
ATOM     10  C   UNL     1      -0.480  12.106  15.778  1.00  0.00     0.146 A 
ATOM     11  O   UNL     1      -0.945  11.403  14.753  1.00  0.00    -0.452 OA
ENDROOT
BRANCH   1  12
ATOM     12  C   UNL     1      -2.128  11.036  12.685  1.00  0.00     0.025 A 
ATOM     13  C   UNL     1      -1.236  10.740  11.643  1.00  0.00     0.016 A 
ATOM     14  C   UNL     1      -1.632   9.922  10.581  1.00  0.00     0.051 A 
ATOM     15  C   UNL     1      -2.929   9.400  10.538  1.00  0.00     0.157 A 
ATOM     16  C   UNL     1      -3.439  10.528  12.628  1.00  0.00     0.062 A 
ATOM     17  C   UNL     1      -3.839   9.707  11.564  1.00  0.00     0.158 A 
BRANCH  15  18
ATOM     18  O   UNL     1      -3.295   8.584   9.468  1.00  0.00    -0.504 OA
ATOM     19  H   UNL     1      -3.654   8.963   8.600  1.00  0.00     0.293 HD
ENDBRANCH  15  18
BRANCH  17  20
ATOM     20  O   UNL     1      -5.138   9.201  11.519  1.00  0.00    -0.504 OA
ATOM     21  H   UNL     1      -5.822   9.557  10.862  1.00  0.00     0.293 HD
ENDBRANCH  17  20
ENDBRANCH   1  12
BRANCH   2  22
ATOM     22  O   UNL     1      -2.931  13.813  12.889  1.00  0.00    -0.502 OA
ATOM     23  H   UNL     1      -2.595  14.217  12.024  1.00  0.00     0.293 HD
ENDBRANCH   2  22
BRANCH   6  24
ATOM     24  O   UNL     1      -0.273  15.596  17.147  1.00  0.00    -0.507 OA
ATOM     25  H   UNL     1       0.270  16.138  17.804  1.00  0.00     0.293 HD
ENDBRANCH   6  24
BRANCH   8  26
ATOM     26  O   UNL     1       1.512  11.463  18.816  1.00  0.00    -0.508 OA
ATOM     27  H   UNL     1       1.510  10.451  18.869  1.00  0.00     0.293 HD
ENDBRANCH   8  26
TORSDOF 6
ENDMDL
MODEL 7
REMARK VINA RESULT:    -6.711      4.231      5.806
REMARK INTER + INTRA:          -8.109
REMARK INTER:                  -7.858
REMARK INTRA:                  -0.251
REMARK UNBOUND:                -0.025
REMARK SMILES O=c1c(O)c(-c2ccc(O)c(O)c2)oc2cc(O)cc(O)c12
REMARK SMILES IDX 5 1 3 2 2 3 1 4 22 5 20 6 19 7 17 8 16 9 15 10 14 11 6 12
REMARK SMILES IDX 7 13 8 14 9 15 13 16 11 17 10 18 12 20 4 22 21 24 18 26
REMARK H PARENT 10 19 12 21 4 23 21 25 18 27
REMARK Flexibility Score: inf
ROOT
ATOM      1  C   UNL     1      -1.620  12.493  13.952  1.00  0.00     0.180 A 
ATOM      2  C   UNL     1      -1.390  11.688  15.081  1.00  0.00     0.208 A 
ATOM      3  C   UNL     1      -0.395  12.068  15.995  1.00  0.00     0.238 A 
ATOM      4  O   UNL     1      -0.157  11.315  16.976  1.00  0.00    -0.285 OA
ATOM      5  C   UNL     1       0.347  13.253  15.778  1.00  0.00     0.111 A 
ATOM      6  C   UNL     1       1.352  13.755  16.660  1.00  0.00     0.134 A 
ATOM      7  C   UNL     1       2.112  14.867  16.279  1.00  0.00     0.093 A 
ATOM      8  C   UNL     1       1.860  15.534  15.078  1.00  0.00     0.123 A 
ATOM      9  C   UNL     1       0.843  15.089  14.239  1.00  0.00     0.094 A 
ATOM     10  C   UNL     1       0.091  13.960  14.574  1.00  0.00     0.146 A 
ATOM     11  O   UNL     1      -0.864  13.563  13.741  1.00  0.00    -0.452 OA
ENDROOT
BRANCH   1  12
ATOM     12  C   UNL     1      -2.669  12.172  12.957  1.00  0.00     0.025 A 
ATOM     13  C   UNL     1      -2.452  11.138  12.033  1.00  0.00     0.016 A 
ATOM     14  C   UNL     1      -3.418  10.832  11.071  1.00  0.00     0.051 A 
ATOM     15  C   UNL     1      -4.609  11.563  11.009  1.00  0.00     0.157 A 
ATOM     16  C   UNL     1      -3.858  12.920  12.879  1.00  0.00     0.062 A 
ATOM     17  C   UNL     1      -4.829  12.616  11.913  1.00  0.00     0.158 A 
BRANCH  15  18
ATOM     18  O   UNL     1      -5.557  11.234  10.041  1.00  0.00    -0.504 OA
ATOM     19  H   UNL     1      -6.552  11.286  10.222  1.00  0.00     0.293 HD
ENDBRANCH  15  18
BRANCH  17  20
ATOM     20  O   UNL     1      -6.008  13.358  11.847  1.00  0.00    -0.504 OA
ATOM     21  H   UNL     1      -6.526  13.604  12.682  1.00  0.00     0.293 HD
ENDBRANCH  17  20
ENDBRANCH   1  12
BRANCH   2  22
ATOM     22  O   UNL     1      -2.120  10.510  15.266  1.00  0.00    -0.502 OA
ATOM     23  H   UNL     1      -2.237   9.822  14.532  1.00  0.00     0.293 HD
ENDBRANCH   2  22
BRANCH   6  24
ATOM     24  O   UNL     1       1.621  13.217  17.922  1.00  0.00    -0.507 OA
ATOM     25  H   UNL     1       1.089  13.415  18.757  1.00  0.00     0.293 HD
ENDBRANCH   6  24
BRANCH   8  26
ATOM     26  O   UNL     1       2.611  16.650  14.715  1.00  0.00    -0.508 OA
ATOM     27  H   UNL     1       3.206  17.129  15.381  1.00  0.00     0.293 HD
ENDBRANCH   8  26
TORSDOF 6
ENDMDL
MODEL 8
REMARK VINA RESULT:    -6.686      4.628      6.758
REMARK INTER + INTRA:          -8.079
REMARK INTER:                  -7.828
REMARK INTRA:                  -0.251
REMARK UNBOUND:                -0.025
REMARK SMILES O=c1c(O)c(-c2ccc(O)c(O)c2)oc2cc(O)cc(O)c12
REMARK SMILES IDX 5 1 3 2 2 3 1 4 22 5 20 6 19 7 17 8 16 9 15 10 14 11 6 12
REMARK SMILES IDX 7 13 8 14 9 15 13 16 11 17 10 18 12 20 4 22 21 24 18 26
REMARK H PARENT 10 19 12 21 4 23 21 25 18 27
REMARK Flexibility Score: inf
ROOT
ATOM      1  C   UNL     1      -1.839  13.402  14.252  1.00  0.00     0.180 A 
ATOM      2  C   UNL     1      -3.148  13.912  14.290  1.00  0.00     0.208 A 
ATOM      3  C   UNL     1      -4.137  13.308  13.497  1.00  0.00     0.238 A 
ATOM      4  O   UNL     1      -5.294  13.803  13.494  1.00  0.00    -0.285 OA
ATOM      5  C   UNL     1      -3.809  12.193  12.689  1.00  0.00     0.111 A 
ATOM      6  C   UNL     1      -4.740  11.478  11.877  1.00  0.00     0.134 A 
ATOM      7  C   UNL     1      -4.279  10.472  11.020  1.00  0.00     0.093 A 
ATOM      8  C   UNL     1      -2.929  10.112  10.993  1.00  0.00     0.123 A 
ATOM      9  C   UNL     1      -2.023  10.763  11.825  1.00  0.00     0.094 A 
ATOM     10  C   UNL     1      -2.447  11.796  12.665  1.00  0.00     0.146 A 
ATOM     11  O   UNL     1      -1.548  12.397  13.435  1.00  0.00    -0.452 OA
ENDROOT
BRANCH   1  12
ATOM     12  C   UNL     1      -0.749  13.970  15.078  1.00  0.00     0.025 A 
ATOM     13  C   UNL     1      -0.737  13.736  16.462  1.00  0.00     0.016 A 
ATOM     14  C   UNL     1       0.271  14.280  17.263  1.00  0.00     0.051 A 
ATOM     15  C   UNL     1       1.272  15.075  16.697  1.00  0.00     0.157 A 
ATOM     16  C   UNL     1       0.247  14.788  14.514  1.00  0.00     0.062 A 
ATOM     17  C   UNL     1       1.259  15.335  15.316  1.00  0.00     0.158 A 
BRANCH  15  18
ATOM     18  O   UNL     1       2.266  15.601  17.521  1.00  0.00    -0.504 OA
ATOM     19  H   UNL     1       2.866  16.361  17.223  1.00  0.00     0.293 HD
ENDBRANCH  15  18
BRANCH  17  20
ATOM     20  O   UNL     1       2.246  16.140  14.748  1.00  0.00    -0.504 OA
ATOM     21  H   UNL     1       2.663  15.914  13.853  1.00  0.00     0.293 HD
ENDBRANCH  17  20
ENDBRANCH   1  12
BRANCH   2  22
ATOM     22  O   UNL     1      -3.446  15.028  15.078  1.00  0.00    -0.502 OA
ATOM     23  H   UNL     1      -3.791  14.947  16.026  1.00  0.00     0.293 HD
ENDBRANCH   2  22
BRANCH   6  24
ATOM     24  O   UNL     1      -6.121  11.697  11.896  1.00  0.00    -0.507 OA
ATOM     25  H   UNL     1      -6.563  12.555  12.193  1.00  0.00     0.293 HD
ENDBRANCH   6  24
BRANCH   8  26
ATOM     26  O   UNL     1      -2.481   9.100  10.148  1.00  0.00    -0.508 OA
ATOM     27  H   UNL     1      -1.942   8.315  10.499  1.00  0.00     0.293 HD
ENDBRANCH   8  26
TORSDOF 6
ENDMDL
MODEL 9
REMARK VINA RESULT:    -6.542      4.540      6.671
REMARK INTER + INTRA:          -7.906
REMARK INTER:                  -7.689
REMARK INTRA:                  -0.216
REMARK UNBOUND:                -0.025
REMARK SMILES O=c1c(O)c(-c2ccc(O)c(O)c2)oc2cc(O)cc(O)c12
REMARK SMILES IDX 5 1 3 2 2 3 1 4 22 5 20 6 19 7 17 8 16 9 15 10 14 11 6 12
REMARK SMILES IDX 7 13 8 14 9 15 13 16 11 17 10 18 12 20 4 22 21 24 18 26
REMARK H PARENT 10 19 12 21 4 23 21 25 18 27
REMARK Flexibility Score: inf
ROOT
ATOM      1  C   UNL     1      -1.976  13.529  14.425  1.00  0.00     0.180 A 
ATOM      2  C   UNL     1      -3.266  14.084  14.390  1.00  0.00     0.208 A 
ATOM      3  C   UNL     1      -4.200  13.576  13.474  1.00  0.00     0.238 A 
ATOM      4  O   UNL     1      -5.337  14.113  13.409  1.00  0.00    -0.285 OA
ATOM      5  C   UNL     1      -3.840  12.509  12.616  1.00  0.00     0.111 A 
ATOM      6  C   UNL     1      -4.718  11.889  11.678  1.00  0.00     0.134 A 
ATOM      7  C   UNL     1      -4.216  10.930  10.790  1.00  0.00     0.093 A 
ATOM      8  C   UNL     1      -2.881  10.522  10.851  1.00  0.00     0.123 A 
ATOM      9  C   UNL     1      -2.030  11.077  11.803  1.00  0.00     0.094 A 
ATOM     10  C   UNL     1      -2.493  12.063  12.678  1.00  0.00     0.146 A 
ATOM     11  O   UNL     1      -1.646  12.573  13.564  1.00  0.00    -0.452 OA
ENDROOT
BRANCH   1  12
ATOM     12  C   UNL     1      -0.944  13.994  15.380  1.00  0.00     0.025 A 
ATOM     13  C   UNL     1      -0.345  15.249  15.192  1.00  0.00     0.016 A 
ATOM     14  C   UNL     1       0.647  15.700  16.068  1.00  0.00     0.051 A 
ATOM     15  C   UNL     1       1.064  14.898  17.135  1.00  0.00     0.157 A 
ATOM     16  C   UNL     1      -0.508  13.180  16.441  1.00  0.00     0.062 A 
ATOM     17  C   UNL     1       0.488  13.630  17.321  1.00  0.00     0.158 A 
BRANCH  15  18
ATOM     18  O   UNL     1       2.052  15.375  17.995  1.00  0.00    -0.504 OA
ATOM     19  H   UNL     1       2.456  14.798  18.724  1.00  0.00     0.293 HD
ENDBRANCH  15  18
BRANCH  17  20
ATOM     20  O   UNL     1       0.909  12.820  18.375  1.00  0.00    -0.504 OA
ATOM     21  H   UNL     1       0.248  12.314  18.952  1.00  0.00     0.293 HD
ENDBRANCH  17  20
ENDBRANCH   1  12
BRANCH   2  22
ATOM     22  O   UNL     1      -3.596  15.151  15.230  1.00  0.00    -0.502 OA
ATOM     23  H   UNL     1      -4.125  15.953  14.909  1.00  0.00     0.293 HD
ENDBRANCH   2  22
BRANCH   6  24
ATOM     24  O   UNL     1      -6.087  12.158  11.596  1.00  0.00    -0.507 OA
ATOM     25  H   UNL     1      -6.811  11.594  12.018  1.00  0.00     0.293 HD
ENDBRANCH   6  24
BRANCH   8  26
ATOM     26  O   UNL     1      -2.393   9.555   9.975  1.00  0.00    -0.508 OA
ATOM     27  H   UNL     1      -1.435   9.576   9.642  1.00  0.00     0.293 HD
ENDBRANCH   8  26
TORSDOF 6
ENDMDL
