MODEL 1
REMARK VINA RESULT:    28.206      0.000      0.000
REMARK INTER + INTRA:          33.712
REMARK INTER:                  33.978
REMARK INTRA:                  -0.266
REMARK UNBOUND:                -0.266
REMARK SMILES O=c1c(O)c(-c2ccc(O)c(O)c2)oc2cc(O)cc(O)c12
REMARK SMILES IDX 5 1 3 2 2 3 1 4 22 5 20 6 19 7 17 8 16 9 15 10 14 11 6 12
REMARK SMILES IDX 7 13 8 14 9 15 13 16 11 17 10 18 12 20 4 22 21 24 18 26
REMARK H PARENT 10 19 12 21 4 23 21 25 18 27
REMARK Flexibility Score: inf
ROOT
ATOM      1  C   UNL     1      20.275 -12.630 -15.683  1.00  0.00     0.180 A 
ATOM      2  C   UNL     1      21.421 -12.151 -15.024  1.00  0.00     0.208 A 
ATOM      3  C   UNL     1      22.524 -11.740 -15.788  1.00  0.00     0.238 A 
ATOM      4  O   UNL     1      23.567 -11.363 -15.192  1.00  0.00    -0.285 OA
ATOM      5  C   UNL     1      22.463 -11.797 -17.202  1.00  0.00     0.111 A 
ATOM      6  C   UNL     1      23.506 -11.368 -18.077  1.00  0.00     0.134 A 
ATOM      7  C   UNL     1      23.388 -11.592 -19.454  1.00  0.00     0.093 A 
ATOM      8  C   UNL     1      22.239 -12.169 -19.994  1.00  0.00     0.123 A 
ATOM      9  C   UNL     1      21.188 -12.537 -19.154  1.00  0.00     0.094 A 
ATOM     10  C   UNL     1      21.291 -12.359 -17.772  1.00  0.00     0.146 A 
ATOM     11  O   UNL     1      20.273 -12.733 -17.007  1.00  0.00    -0.452 OA
ENDROOT
BRANCH   1  12
ATOM     12  C   UNL     1      19.064 -13.058 -14.946  1.00  0.00     0.025 A 
ATOM     13  C   UNL     1      18.222 -12.088 -14.380  1.00  0.00     0.016 A 
ATOM     14  C   UNL     1      17.085 -12.469 -13.663  1.00  0.00     0.051 A 
ATOM     15  C   UNL     1      16.781 -13.822 -13.486  1.00  0.00     0.157 A 
ATOM     16  C   UNL     1      18.767 -14.419 -14.750  1.00  0.00     0.062 A 
ATOM     17  C   UNL     1      17.627 -14.803 -14.029  1.00  0.00     0.158 A 
BRANCH  15  18
ATOM     18  O   UNL     1      15.639 -14.172 -12.768  1.00  0.00    -0.504 OA
ATOM     19  H   UNL     1      15.338 -13.656 -11.950  1.00  0.00     0.293 HD
ENDBRANCH  15  18
BRANCH  17  20
ATOM     20  O   UNL     1      17.338 -16.154 -13.844  1.00  0.00    -0.504 OA
ATOM     21  H   UNL     1      16.996 -16.732 -14.603  1.00  0.00     0.293 HD
ENDBRANCH  17  20
ENDBRANCH   1  12
BRANCH   2  22
ATOM     22  O   UNL     1      21.468 -12.125 -13.627  1.00  0.00    -0.502 OA
ATOM     23  H   UNL     1      22.324 -12.286 -13.109  1.00  0.00     0.293 HD
ENDBRANCH   2  22
BRANCH   6  24
ATOM     24  O   UNL     1      24.656 -10.699 -17.649  1.00  0.00    -0.507 OA
ATOM     25  H   UNL     1      25.465 -11.145 -17.243  1.00  0.00     0.293 HD
ENDBRANCH   6  24
BRANCH   8  26
ATOM     26  O   UNL     1      22.150 -12.362 -21.371  1.00  0.00    -0.508 OA
ATOM     27  H   UNL     1      22.842 -11.981 -22.005  1.00  0.00     0.293 HD
ENDBRANCH   8  26
TORSDOF 6
ENDMDL
MODEL 2
REMARK VINA RESULT:    29.159      1.231      2.851
REMARK INTER + INTRA:          34.859
REMARK INTER:                  35.105
REMARK INTRA:                  -0.245
REMARK UNBOUND:                -0.266
REMARK SMILES O=c1c(O)c(-c2ccc(O)c(O)c2)oc2cc(O)cc(O)c12
REMARK SMILES IDX 5 1 3 2 2 3 1 4 22 5 20 6 19 7 17 8 16 9 15 10 14 11 6 12
REMARK SMILES IDX 7 13 8 14 9 15 13 16 11 17 10 18 12 20 4 22 21 24 18 26
REMARK H PARENT 10 19 12 21 4 23 21 25 18 27
REMARK Flexibility Score: inf
ROOT
ATOM      1  C   UNL     1      20.210 -12.647 -16.366  1.00  0.00     0.180 A 
ATOM      2  C   UNL     1      20.118 -12.924 -17.742  1.00  0.00     0.208 A 
ATOM      3  C   UNL     1      21.172 -12.541 -18.585  1.00  0.00     0.238 A 
ATOM      4  O   UNL     1      21.060 -12.743 -19.823  1.00  0.00    -0.285 OA
ATOM      5  C   UNL     1      22.312 -11.901 -18.042  1.00  0.00     0.111 A 
ATOM      6  C   UNL     1      23.458 -11.507 -18.798  1.00  0.00     0.134 A 
ATOM      7  C   UNL     1      24.471 -10.765 -18.179  1.00  0.00     0.093 A 
ATOM      8  C   UNL     1      24.413 -10.459 -16.819  1.00  0.00     0.123 A 
ATOM      9  C   UNL     1      23.327 -10.893 -16.058  1.00  0.00     0.094 A 
ATOM     10  C   UNL     1      22.283 -11.604 -16.655  1.00  0.00     0.146 A 
ATOM     11  O   UNL     1      21.263 -11.988 -15.898  1.00  0.00    -0.452 OA
ENDROOT
BRANCH   1  12
ATOM     12  C   UNL     1      19.151 -13.043 -15.411  1.00  0.00     0.025 A 
ATOM     13  C   UNL     1      18.386 -12.050 -14.778  1.00  0.00     0.016 A 
ATOM     14  C   UNL     1      17.394 -12.399 -13.857  1.00  0.00     0.051 A 
ATOM     15  C   UNL     1      17.162 -13.741 -13.542  1.00  0.00     0.157 A 
ATOM     16  C   UNL     1      18.929 -14.391 -15.078  1.00  0.00     0.062 A 
ATOM     17  C   UNL     1      17.936 -14.744 -14.152  1.00  0.00     0.158 A 
BRANCH  15  18
ATOM     18  O   UNL     1      16.165 -14.060 -12.622  1.00  0.00    -0.504 OA
ATOM     19  H   UNL     1      15.202 -13.777 -12.753  1.00  0.00     0.293 HD
ENDBRANCH  15  18
BRANCH  17  20
ATOM     20  O   UNL     1      17.720 -16.083 -13.832  1.00  0.00    -0.504 OA
ATOM     21  H   UNL     1      17.966 -16.828 -14.474  1.00  0.00     0.293 HD
ENDBRANCH  17  20
ENDBRANCH   1  12
BRANCH   2  22
ATOM     22  O   UNL     1      18.973 -13.536 -18.259  1.00  0.00    -0.502 OA
ATOM     23  H   UNL     1      18.243 -13.913 -17.666  1.00  0.00     0.293 HD
ENDBRANCH   2  22
BRANCH   6  24
ATOM     24  O   UNL     1      23.658 -11.839 -20.140  1.00  0.00    -0.507 OA
ATOM     25  H   UNL     1      23.201 -12.600 -20.620  1.00  0.00     0.293 HD
ENDBRANCH   6  24
BRANCH   8  26
ATOM     26  O   UNL     1      25.447  -9.733 -16.233  1.00  0.00    -0.508 OA
ATOM     27  H   UNL     1      26.084 -10.159 -15.570  1.00  0.00     0.293 HD
ENDBRANCH   8  26
TORSDOF 6
ENDMDL
