MODEL 1
REMARK VINA RESULT:    18.531      0.000      0.000
REMARK INTER + INTRA:          46.493
REMARK INTER:                  46.698
REMARK INTRA:                  -0.206
REMARK UNBOUND:                -0.206
REMARK SMILES CCCCCCCCCCCCCCCCCCCCCCCCCCCC(=O)[O-]
REMARK SMILES IDX 15 1 16 2 17 3 18 4 19 5 20 6 21 7 22 8 23 9 24 10 25 11
REMARK SMILES IDX 26 12 27 13 28 14 29 15 30 16 14 17 13 18 12 19 11 20 10 21
REMARK SMILES IDX 9 22 8 23 7 24 6 25 5 26 4 27 3 28 2 29 1 30
REMARK H PARENT
REMARK Flexibility Score: inf
ROOT
ATOM      1  C   UNL     1       2.317  -1.116  10.359  1.00  0.00     0.000 C 
ENDROOT
BRANCH   1   2
ATOM      2  C   UNL     1       1.504  -0.271   9.364  1.00  0.00     0.000 C 
BRANCH   2   3
ATOM      3  C   UNL     1       0.391   0.542  10.047  1.00  0.00     0.000 C 
BRANCH   3   4
ATOM      4  C   UNL     1       0.070   1.848   9.305  1.00  0.00     0.000 C 
BRANCH   4   5
ATOM      5  C   UNL     1       1.324   2.689   9.002  1.00  0.00     0.000 C 
BRANCH   5   6
ATOM      6  C   UNL     1       2.295   2.771  10.194  1.00  0.00     0.000 C 
BRANCH   6   7
ATOM      7  C   UNL     1       3.469   3.749  10.009  1.00  0.00     0.000 C 
BRANCH   7   8
ATOM      8  C   UNL     1       4.501   3.670  11.149  1.00  0.00     0.000 C 
BRANCH   8   9
ATOM      9  C   UNL     1       4.595   4.974  11.958  1.00  0.00     0.000 C 
BRANCH   9  10
ATOM     10  C   UNL     1       3.406   5.917  11.718  1.00  0.00     0.000 C 
BRANCH  10  11
ATOM     11  C   UNL     1       2.938   6.561  13.030  1.00  0.00     0.000 C 
BRANCH  11  12
ATOM     12  C   UNL     1       3.080   5.586  14.204  1.00  0.00     0.006 C 
BRANCH  12  13
ATOM     13  C   UNL     1       3.196   6.338  15.533  1.00  0.00     0.053 C 
BRANCH  13  14
ATOM     14  C   UNL     1       4.506   7.057  15.628  1.00  0.00     0.041 C 
ATOM     15  O   UNL     1       4.559   8.305  15.465  1.00  0.00    -0.550 OA
ATOM     16  O   UNL     1       5.674   6.347  15.873  1.00  0.00    -0.550 OA
ENDBRANCH  13  14
ENDBRANCH  12  13
ENDBRANCH  11  12
ENDBRANCH  10  11
ENDBRANCH   9  10
ENDBRANCH   8   9
ENDBRANCH   7   8
ENDBRANCH   6   7
ENDBRANCH   5   6
ENDBRANCH   4   5
ENDBRANCH   3   4
ENDBRANCH   2   3
ENDBRANCH   1   2
BRANCH   1  17
ATOM     17  C   UNL     1       2.907  -2.402   9.740  1.00  0.00     0.000 C 
BRANCH  17  18
ATOM     18  C   UNL     1       1.926  -3.583   9.808  1.00  0.00     0.000 C 
BRANCH  18  19
ATOM     19  C   UNL     1       2.649  -4.873  10.220  1.00  0.00     0.000 C 
BRANCH  19  20
ATOM     20  C   UNL     1       1.759  -5.816  11.043  1.00  0.00     0.000 C 
BRANCH  20  21
ATOM     21  C   UNL     1       0.594  -6.400  10.222  1.00  0.00     0.000 C 
BRANCH  21  22
ATOM     22  C   UNL     1      -0.007  -7.672  10.858  1.00  0.00    -0.000 C 
BRANCH  22  23
ATOM     23  C   UNL     1       1.021  -8.793  11.111  1.00  0.00    -0.000 C 
BRANCH  23  24
ATOM     24  C   UNL     1       2.497  -8.359  11.043  1.00  0.00    -0.000 C 
BRANCH  24  25
ATOM     25  C   UNL     1       3.204  -8.229  12.407  1.00  0.00    -0.000 C 
BRANCH  25  26
ATOM     26  C   UNL     1       4.736  -8.192  12.289  1.00  0.00    -0.000 C 
BRANCH  26  27
ATOM     27  C   UNL     1       5.247  -6.743  12.263  1.00  0.00    -0.000 C 
BRANCH  27  28
ATOM     28  C   UNL     1       6.779  -6.653  12.147  1.00  0.00    -0.000 C 
BRANCH  28  29
ATOM     29  C   UNL     1       7.537  -6.858  13.472  1.00  0.00    -0.003 C 
ATOM     30  C   UNL     1       7.573  -5.599  14.338  1.00  0.00     0.004 C 
ENDBRANCH  28  29
ENDBRANCH  27  28
ENDBRANCH  26  27
ENDBRANCH  25  26
ENDBRANCH  24  25
ENDBRANCH  23  24
ENDBRANCH  22  23
ENDBRANCH  21  22
ENDBRANCH  20  21
ENDBRANCH  19  20
ENDBRANCH  18  19
ENDBRANCH  17  18
ENDBRANCH   1  17
TORSDOF 26
ENDMDL
MODEL 2
REMARK VINA RESULT:    19.102      0.628      1.262
REMARK INTER + INTRA:          47.930
REMARK INTER:                  49.005
REMARK INTRA:                  -1.074
REMARK UNBOUND:                -0.206
REMARK SMILES CCCCCCCCCCCCCCCCCCCCCCCCCCCC(=O)[O-]
REMARK SMILES IDX 15 1 16 2 17 3 18 4 19 5 20 6 21 7 22 8 23 9 24 10 25 11
REMARK SMILES IDX 26 12 27 13 28 14 29 15 30 16 14 17 13 18 12 19 11 20 10 21
REMARK SMILES IDX 9 22 8 23 7 24 6 25 5 26 4 27 3 28 2 29 1 30
REMARK H PARENT
REMARK Flexibility Score: inf
ROOT
ATOM      1  C   UNL     1       1.468  -0.441   9.371  1.00  0.00     0.000 C 
ENDROOT
BRANCH   1   2
ATOM      2  C   UNL     1       0.481   0.470  10.121  1.00  0.00     0.000 C 
BRANCH   2   3
ATOM      3  C   UNL     1      -0.155   1.531   9.209  1.00  0.00     0.000 C 
BRANCH   3   4
ATOM      4  C   UNL     1       0.821   2.658   8.837  1.00  0.00     0.000 C 
BRANCH   4   5
ATOM      5  C   UNL     1       2.024   2.748   9.793  1.00  0.00     0.000 C 
BRANCH   5   6
ATOM      6  C   UNL     1       3.144   3.664   9.263  1.00  0.00     0.000 C 
BRANCH   6   7
ATOM      7  C   UNL     1       4.498   3.514   9.980  1.00  0.00     0.000 C 
BRANCH   7   8
ATOM      8  C   UNL     1       4.580   4.329  11.283  1.00  0.00     0.000 C 
BRANCH   8   9
ATOM      9  C   UNL     1       3.510   5.431  11.364  1.00  0.00     0.000 C 
BRANCH   9  10
ATOM     10  C   UNL     1       3.613   6.275  12.643  1.00  0.00     0.000 C 
BRANCH  10  11
ATOM     11  C   UNL     1       2.841   5.626  13.799  1.00  0.00     0.000 C 
BRANCH  11  12
ATOM     12  C   UNL     1       2.577   6.636  14.921  1.00  0.00     0.006 C 
BRANCH  12  13
ATOM     13  C   UNL     1       3.551   6.433  16.085  1.00  0.00     0.053 C 
BRANCH  13  14
ATOM     14  C   UNL     1       4.793   7.247  15.889  1.00  0.00     0.041 C 
ATOM     15  O   UNL     1       5.911   6.798  16.262  1.00  0.00    -0.550 OA
ATOM     16  O   UNL     1       4.717   8.508  15.315  1.00  0.00    -0.550 OA
ENDBRANCH  13  14
ENDBRANCH  12  13
ENDBRANCH  11  12
ENDBRANCH  10  11
ENDBRANCH   9  10
ENDBRANCH   8   9
ENDBRANCH   7   8
ENDBRANCH   6   7
ENDBRANCH   5   6
ENDBRANCH   4   5
ENDBRANCH   3   4
ENDBRANCH   2   3
ENDBRANCH   1   2
BRANCH   1  17
ATOM     17  C   UNL     1       2.457  -1.179  10.301  1.00  0.00     0.000 C 
BRANCH  17  18
ATOM     18  C   UNL     1       2.917  -2.522   9.712  1.00  0.00     0.000 C 
BRANCH  18  19
ATOM     19  C   UNL     1       1.868  -3.615   9.957  1.00  0.00     0.000 C 
BRANCH  19  20
ATOM     20  C   UNL     1       2.481  -5.023  10.025  1.00  0.00     0.000 C 
BRANCH  20  21
ATOM     21  C   UNL     1       2.109  -5.770  11.318  1.00  0.00     0.000 C 
BRANCH  21  22
ATOM     22  C   UNL     1       1.083  -6.900  11.083  1.00  0.00    -0.000 C 
BRANCH  22  23
ATOM     23  C   UNL     1       1.719  -8.288  10.869  1.00  0.00    -0.000 C 
BRANCH  23  24
ATOM     24  C   UNL     1       3.246  -8.349  11.058  1.00  0.00    -0.000 C 
BRANCH  24  25
ATOM     25  C   UNL     1       3.730  -8.255  12.518  1.00  0.00    -0.000 C 
BRANCH  25  26
ATOM     26  C   UNL     1       5.259  -8.173  12.641  1.00  0.00    -0.000 C 
BRANCH  26  27
ATOM     27  C   UNL     1       5.775  -6.813  12.144  1.00  0.00    -0.000 C 
BRANCH  27  28
ATOM     28  C   UNL     1       7.262  -6.585  12.467  1.00  0.00    -0.000 C 
BRANCH  28  29
ATOM     29  C   UNL     1       7.601  -6.582  13.969  1.00  0.00    -0.003 C 
ATOM     30  C   UNL     1       7.383  -5.219  14.626  1.00  0.00     0.004 C 
ENDBRANCH  28  29
ENDBRANCH  27  28
ENDBRANCH  26  27
ENDBRANCH  25  26
ENDBRANCH  24  25
ENDBRANCH  23  24
ENDBRANCH  22  23
ENDBRANCH  21  22
ENDBRANCH  20  21
ENDBRANCH  19  20
ENDBRANCH  18  19
ENDBRANCH  17  18
ENDBRANCH   1  17
TORSDOF 26
ENDMDL
MODEL 3
REMARK VINA RESULT:    19.190      0.880      1.563
REMARK INTER + INTRA:          48.153
REMARK INTER:                  49.065
REMARK INTRA:                  -0.911
REMARK UNBOUND:                -0.206
REMARK SMILES CCCCCCCCCCCCCCCCCCCCCCCCCCCC(=O)[O-]
REMARK SMILES IDX 15 1 16 2 17 3 18 4 19 5 20 6 21 7 22 8 23 9 24 10 25 11
REMARK SMILES IDX 26 12 27 13 28 14 29 15 30 16 14 17 13 18 12 19 11 20 10 21
REMARK SMILES IDX 9 22 8 23 7 24 6 25 5 26 4 27 3 28 2 29 1 30
REMARK H PARENT
REMARK Flexibility Score: inf
ROOT
ATOM      1  C   UNL     1       2.554  -1.574   9.792  1.00  0.00     0.000 C 
ENDROOT
BRANCH   1   2
ATOM      2  C   UNL     1       1.618  -0.448  10.260  1.00  0.00     0.000 C 
BRANCH   2   3
ATOM      3  C   UNL     1       1.115   0.425   9.099  1.00  0.00     0.000 C 
BRANCH   3   4
ATOM      4  C   UNL     1      -0.148   1.222   9.459  1.00  0.00     0.000 C 
BRANCH   4   5
ATOM      5  C   UNL     1      -0.053   2.708   9.066  1.00  0.00     0.000 C 
BRANCH   5   6
ATOM      6  C   UNL     1       1.396   3.175   8.833  1.00  0.00     0.000 C 
BRANCH   6   7
ATOM      7  C   UNL     1       2.321   3.060  10.059  1.00  0.00     0.000 C 
BRANCH   7   8
ATOM      8  C   UNL     1       3.638   3.839   9.891  1.00  0.00     0.000 C 
BRANCH   8   9
ATOM      9  C   UNL     1       4.479   3.870  11.178  1.00  0.00     0.000 C 
BRANCH   9  10
ATOM     10  C   UNL     1       4.662   5.286  11.742  1.00  0.00     0.000 C 
BRANCH  10  11
ATOM     11  C   UNL     1       3.308   5.951  12.020  1.00  0.00     0.000 C 
BRANCH  11  12
ATOM     12  C   UNL     1       2.944   5.861  13.506  1.00  0.00     0.006 C 
BRANCH  12  13
ATOM     13  C   UNL     1       3.576   7.009  14.299  1.00  0.00     0.053 C 
BRANCH  13  14
ATOM     14  C   UNL     1       4.076   6.529  15.626  1.00  0.00     0.041 C 
ATOM     15  O   UNL     1       3.296   5.947  16.426  1.00  0.00    -0.550 OA
ATOM     16  O   UNL     1       5.399   6.742  15.990  1.00  0.00    -0.550 OA
ENDBRANCH  13  14
ENDBRANCH  12  13
ENDBRANCH  11  12
ENDBRANCH  10  11
ENDBRANCH   9  10
ENDBRANCH   8   9
ENDBRANCH   7   8
ENDBRANCH   6   7
ENDBRANCH   5   6
ENDBRANCH   4   5
ENDBRANCH   3   4
ENDBRANCH   2   3
ENDBRANCH   1   2
BRANCH   1  17
ATOM     17  C   UNL     1       1.898  -2.973   9.813  1.00  0.00     0.000 C 
BRANCH  17  18
ATOM     18  C   UNL     1       2.900  -4.079  10.179  1.00  0.00     0.000 C 
BRANCH  18  19
ATOM     19  C   UNL     1       2.228  -5.459  10.145  1.00  0.00     0.000 C 
BRANCH  19  20
ATOM     20  C   UNL     1       2.198  -6.141  11.522  1.00  0.00     0.000 C 
BRANCH  20  21
ATOM     21  C   UNL     1       1.534  -7.529  11.482  1.00  0.00     0.000 C 
BRANCH  21  22
ATOM     22  C   UNL     1       2.342  -8.555  10.658  1.00  0.00    -0.000 C 
BRANCH  22  23
ATOM     23  C   UNL     1       3.859  -8.524  10.932  1.00  0.00    -0.000 C 
BRANCH  23  24
ATOM     24  C   UNL     1       4.259  -8.544  12.419  1.00  0.00    -0.000 C 
BRANCH  24  25
ATOM     25  C   UNL     1       4.796  -7.209  12.970  1.00  0.00    -0.000 C 
BRANCH  25  26
ATOM     26  C   UNL     1       5.600  -6.410  11.933  1.00  0.00    -0.000 C 
BRANCH  26  27
ATOM     27  C   UNL     1       7.110  -6.584  12.158  1.00  0.00    -0.000 C 
BRANCH  27  28
ATOM     28  C   UNL     1       7.449  -7.084  13.574  1.00  0.00    -0.000 C 
BRANCH  28  29
ATOM     29  C   UNL     1       8.102  -6.031  14.489  1.00  0.00    -0.003 C 
ATOM     30  C   UNL     1       7.089  -5.061  15.097  1.00  0.00     0.004 C 
ENDBRANCH  28  29
ENDBRANCH  27  28
ENDBRANCH  26  27
ENDBRANCH  25  26
ENDBRANCH  24  25
ENDBRANCH  23  24
ENDBRANCH  22  23
ENDBRANCH  21  22
ENDBRANCH  20  21
ENDBRANCH  19  20
ENDBRANCH  18  19
ENDBRANCH  17  18
ENDBRANCH   1  17
TORSDOF 26
ENDMDL
MODEL 4
REMARK VINA RESULT:    19.400      3.380     11.262
REMARK INTER + INTRA:          48.682
REMARK INTER:                  49.383
REMARK INTRA:                  -0.701
REMARK UNBOUND:                -0.206
REMARK SMILES CCCCCCCCCCCCCCCCCCCCCCCCCCCC(=O)[O-]
REMARK SMILES IDX 15 1 16 2 17 3 18 4 19 5 20 6 21 7 22 8 23 9 24 10 25 11
REMARK SMILES IDX 26 12 27 13 28 14 29 15 30 16 14 17 13 18 12 19 11 20 10 21
REMARK SMILES IDX 9 22 8 23 7 24 6 25 5 26 4 27 3 28 2 29 1 30
REMARK H PARENT
REMARK Flexibility Score: inf
ROOT
ATOM      1  C   UNL     1       2.870  -2.245   9.786  1.00  0.00     0.000 C 
ENDROOT
BRANCH   1   2
ATOM      2  C   UNL     1       1.990  -3.506   9.795  1.00  0.00     0.000 C 
BRANCH   2   3
ATOM      3  C   UNL     1       2.777  -4.776  10.157  1.00  0.00     0.000 C 
BRANCH   3   4
ATOM      4  C   UNL     1       1.970  -5.744  11.035  1.00  0.00     0.000 C 
BRANCH   4   5
ATOM      5  C   UNL     1       0.763  -6.356  10.301  1.00  0.00     0.000 C 
BRANCH   5   6
ATOM      6  C   UNL     1       0.316  -7.703  10.899  1.00  0.00     0.000 C 
BRANCH   6   7
ATOM      7  C   UNL     1       1.453  -8.566  11.475  1.00  0.00     0.000 C 
BRANCH   7   8
ATOM      8  C   UNL     1       2.575  -8.836  10.456  1.00  0.00     0.000 C 
BRANCH   8   9
ATOM      9  C   UNL     1       3.958  -8.390  10.961  1.00  0.00     0.000 C 
BRANCH   9  10
ATOM     10  C   UNL     1       3.893  -7.626  12.292  1.00  0.00     0.000 C 
BRANCH  10  11
ATOM     11  C   UNL     1       5.223  -7.722  13.050  1.00  0.00     0.000 C 
BRANCH  11  12
ATOM     12  C   UNL     1       6.233  -6.696  12.525  1.00  0.00     0.006 C 
BRANCH  12  13
ATOM     13  C   UNL     1       7.582  -6.835  13.237  1.00  0.00     0.053 C 
BRANCH  13  14
ATOM     14  C   UNL     1       7.736  -5.789  14.297  1.00  0.00     0.041 C 
ATOM     15  O   UNL     1       8.842  -5.208  14.460  1.00  0.00    -0.550 OA
ATOM     16  O   UNL     1       6.665  -5.469  15.121  1.00  0.00    -0.550 OA
ENDBRANCH  13  14
ENDBRANCH  12  13
ENDBRANCH  11  12
ENDBRANCH  10  11
ENDBRANCH   9  10
ENDBRANCH   8   9
ENDBRANCH   7   8
ENDBRANCH   6   7
ENDBRANCH   5   6
ENDBRANCH   4   5
ENDBRANCH   3   4
ENDBRANCH   2   3
ENDBRANCH   1   2
BRANCH   1  17
ATOM     17  C   UNL     1       2.174  -1.001  10.382  1.00  0.00     0.000 C 
BRANCH  17  18
ATOM     18  C   UNL     1       1.449  -0.172   9.310  1.00  0.00     0.000 C 
BRANCH  18  19
ATOM     19  C   UNL     1       0.438   0.789   9.952  1.00  0.00     0.000 C 
BRANCH  19  20
ATOM     20  C   UNL     1       0.063   1.961   9.032  1.00  0.00     0.000 C 
BRANCH  20  21
ATOM     21  C   UNL     1       1.168   3.031   8.955  1.00  0.00     0.000 C 
BRANCH  21  22
ATOM     22  C   UNL     1       2.245   2.858  10.048  1.00  0.00    -0.000 C 
BRANCH  22  23
ATOM     23  C   UNL     1       3.446   3.813   9.901  1.00  0.00    -0.000 C 
BRANCH  23  24
ATOM     24  C   UNL     1       4.488   3.739  11.032  1.00  0.00    -0.000 C 
BRANCH  24  25
ATOM     25  C   UNL     1       4.607   5.008  11.898  1.00  0.00    -0.000 C 
BRANCH  25  26
ATOM     26  C   UNL     1       3.319   5.847  11.916  1.00  0.00    -0.000 C 
BRANCH  26  27
ATOM     27  C   UNL     1       2.834   6.074  13.356  1.00  0.00    -0.000 C 
BRANCH  27  28
ATOM     28  C   UNL     1       3.864   5.628  14.410  1.00  0.00    -0.000 C 
BRANCH  28  29
ATOM     29  C   UNL     1       3.895   6.492  15.684  1.00  0.00    -0.003 C 
ATOM     30  C   UNL     1       5.258   7.138  15.932  1.00  0.00     0.004 C 
ENDBRANCH  28  29
ENDBRANCH  27  28
ENDBRANCH  26  27
ENDBRANCH  25  26
ENDBRANCH  24  25
ENDBRANCH  23  24
ENDBRANCH  22  23
ENDBRANCH  21  22
ENDBRANCH  20  21
ENDBRANCH  19  20
ENDBRANCH  18  19
ENDBRANCH  17  18
ENDBRANCH   1  17
TORSDOF 26
ENDMDL
MODEL 5
REMARK VINA RESULT:    19.476      3.924     11.689
REMARK INTER + INTRA:          48.872
REMARK INTER:                  49.609
REMARK INTRA:                  -0.738
REMARK UNBOUND:                -0.206
REMARK SMILES CCCCCCCCCCCCCCCCCCCCCCCCCCCC(=O)[O-]
REMARK SMILES IDX 15 1 16 2 17 3 18 4 19 5 20 6 21 7 22 8 23 9 24 10 25 11
REMARK SMILES IDX 26 12 27 13 28 14 29 15 30 16 14 17 13 18 12 19 11 20 10 21
REMARK SMILES IDX 9 22 8 23 7 24 6 25 5 26 4 27 3 28 2 29 1 30
REMARK H PARENT
REMARK Flexibility Score: inf
ROOT
ATOM      1  C   UNL     1       1.609  -1.359  10.098  1.00  0.00     0.000 C 
ENDROOT
BRANCH   1   2
ATOM      2  C   UNL     1       2.781  -2.187   9.545  1.00  0.00     0.000 C 
BRANCH   2   3
ATOM      3  C   UNL     1       2.931  -3.546  10.248  1.00  0.00     0.000 C 
BRANCH   3   4
ATOM      4  C   UNL     1       2.018  -4.627   9.650  1.00  0.00     0.000 C 
BRANCH   4   5
ATOM      5  C   UNL     1       1.676  -5.745  10.652  1.00  0.00     0.000 C 
BRANCH   5   6
ATOM      6  C   UNL     1       0.408  -6.530  10.265  1.00  0.00     0.000 C 
BRANCH   6   7
ATOM      7  C   UNL     1       0.192  -7.839  11.046  1.00  0.00     0.000 C 
BRANCH   7   8
ATOM      8  C   UNL     1       1.511  -8.502  11.482  1.00  0.00     0.000 C 
BRANCH   8   9
ATOM      9  C   UNL     1       2.522  -8.630  10.330  1.00  0.00     0.000 C 
BRANCH   9  10
ATOM     10  C   UNL     1       3.965  -8.828  10.816  1.00  0.00     0.000 C 
BRANCH  10  11
ATOM     11  C   UNL     1       4.153  -8.271  12.234  1.00  0.00     0.000 C 
BRANCH  11  12
ATOM     12  C   UNL     1       4.379  -6.756  12.206  1.00  0.00     0.006 C 
BRANCH  12  13
ATOM     13  C   UNL     1       5.535  -6.353  13.126  1.00  0.00     0.053 C 
BRANCH  13  14
ATOM     14  C   UNL     1       6.839  -6.873  12.603  1.00  0.00     0.041 C 
ATOM     15  O   UNL     1       7.112  -6.780  11.376  1.00  0.00    -0.550 OA
ATOM     16  O   UNL     1       7.743  -7.478  13.464  1.00  0.00    -0.550 OA
ENDBRANCH  13  14
ENDBRANCH  12  13
ENDBRANCH  11  12
ENDBRANCH  10  11
ENDBRANCH   9  10
ENDBRANCH   8   9
ENDBRANCH   7   8
ENDBRANCH   6   7
ENDBRANCH   5   6
ENDBRANCH   4   5
ENDBRANCH   3   4
ENDBRANCH   2   3
ENDBRANCH   1   2
BRANCH   1  17
ATOM     17  C   UNL     1       1.508   0.056   9.486  1.00  0.00     0.000 C 
BRANCH  17  18
ATOM     18  C   UNL     1       0.258   0.809   9.966  1.00  0.00     0.000 C 
BRANCH  18  19
ATOM     19  C   UNL     1      -0.003   2.047   9.096  1.00  0.00     0.000 C 
BRANCH  19  20
ATOM     20  C   UNL     1       1.256   2.902   8.886  1.00  0.00     0.000 C 
BRANCH  20  21
ATOM     21  C   UNL     1       2.231   2.825  10.075  1.00  0.00     0.000 C 
BRANCH  21  22
ATOM     22  C   UNL     1       3.466   3.735   9.896  1.00  0.00    -0.000 C 
BRANCH  22  23
ATOM     23  C   UNL     1       4.415   3.749  11.111  1.00  0.00    -0.000 C 
BRANCH  23  24
ATOM     24  C   UNL     1       4.608   5.123  11.779  1.00  0.00    -0.000 C 
BRANCH  24  25
ATOM     25  C   UNL     1       3.309   5.907  12.049  1.00  0.00    -0.000 C 
BRANCH  25  26
ATOM     26  C   UNL     1       2.653   5.541  13.390  1.00  0.00    -0.000 C 
BRANCH  26  27
ATOM     27  C   UNL     1       2.943   6.612  14.452  1.00  0.00    -0.000 C 
BRANCH  27  28
ATOM     28  C   UNL     1       3.931   6.131  15.530  1.00  0.00    -0.000 C 
BRANCH  28  29
ATOM     29  C   UNL     1       5.144   7.055  15.749  1.00  0.00    -0.003 C 
ATOM     30  C   UNL     1       4.792   8.538  15.630  1.00  0.00     0.004 C 
ENDBRANCH  28  29
ENDBRANCH  27  28
ENDBRANCH  26  27
ENDBRANCH  25  26
ENDBRANCH  24  25
ENDBRANCH  23  24
ENDBRANCH  22  23
ENDBRANCH  21  22
ENDBRANCH  20  21
ENDBRANCH  19  20
ENDBRANCH  18  19
ENDBRANCH  17  18
ENDBRANCH   1  17
TORSDOF 26
ENDMDL
MODEL 6
REMARK VINA RESULT:    19.844      3.257     11.470
REMARK INTER + INTRA:          49.801
REMARK INTER:                  51.282
REMARK INTRA:                  -1.481
REMARK UNBOUND:                -0.206
REMARK SMILES CCCCCCCCCCCCCCCCCCCCCCCCCCCC(=O)[O-]
REMARK SMILES IDX 15 1 16 2 17 3 18 4 19 5 20 6 21 7 22 8 23 9 24 10 25 11
REMARK SMILES IDX 26 12 27 13 28 14 29 15 30 16 14 17 13 18 12 19 11 20 10 21
REMARK SMILES IDX 9 22 8 23 7 24 6 25 5 26 4 27 3 28 2 29 1 30
REMARK H PARENT
REMARK Flexibility Score: inf
ROOT
ATOM      1  C   UNL     1       1.646  -0.747   9.373  1.00  0.00     0.000 C 
ENDROOT
BRANCH   1   2
ATOM      2  C   UNL     1       2.627  -1.517  10.272  1.00  0.00     0.000 C 
BRANCH   2   3
ATOM      3  C   UNL     1       2.907  -2.940   9.762  1.00  0.00     0.000 C 
BRANCH   3   4
ATOM      4  C   UNL     1       1.729  -3.897   9.995  1.00  0.00     0.000 C 
BRANCH   4   5
ATOM      5  C   UNL     1       2.176  -5.349  10.245  1.00  0.00     0.000 C 
BRANCH   5   6
ATOM      6  C   UNL     1       0.996  -6.303  10.509  1.00  0.00     0.000 C 
BRANCH   6   7
ATOM      7  C   UNL     1       1.394  -7.716  10.972  1.00  0.00     0.000 C 
BRANCH   7   8
ATOM      8  C   UNL     1       2.166  -7.714  12.305  1.00  0.00     0.000 C 
BRANCH   8   9
ATOM      9  C   UNL     1       3.647  -8.094  12.136  1.00  0.00     0.000 C 
BRANCH   9  10
ATOM     10  C   UNL     1       4.598  -6.907  12.345  1.00  0.00     0.000 C 
BRANCH  10  11
ATOM     11  C   UNL     1       6.045  -7.292  12.010  1.00  0.00     0.000 C 
BRANCH  11  12
ATOM     12  C   UNL     1       7.028  -6.227  12.508  1.00  0.00     0.006 C 
BRANCH  12  13
ATOM     13  C   UNL     1       7.683  -6.653  13.826  1.00  0.00     0.053 C 
BRANCH  13  14
ATOM     14  C   UNL     1       7.997  -5.461  14.675  1.00  0.00     0.041 C 
ATOM     15  O   UNL     1       9.190  -5.077  14.814  1.00  0.00    -0.550 OA
ATOM     16  O   UNL     1       6.978  -4.785  15.331  1.00  0.00    -0.550 OA
ENDBRANCH  13  14
ENDBRANCH  12  13
ENDBRANCH  11  12
ENDBRANCH  10  11
ENDBRANCH   9  10
ENDBRANCH   8   9
ENDBRANCH   7   8
ENDBRANCH   6   7
ENDBRANCH   5   6
ENDBRANCH   4   5
ENDBRANCH   3   4
ENDBRANCH   2   3
ENDBRANCH   1   2
BRANCH   1  17
ATOM     17  C   UNL     1       0.849   0.345  10.120  1.00  0.00     0.000 C 
BRANCH  17  18
ATOM     18  C   UNL     1      -0.012   1.190   9.168  1.00  0.00     0.000 C 
BRANCH  18  19
ATOM     19  C   UNL     1       0.607   2.579   8.957  1.00  0.00     0.000 C 
BRANCH  19  20
ATOM     20  C   UNL     1       2.133   2.583   9.136  1.00  0.00     0.000 C 
BRANCH  20  21
ATOM     21  C   UNL     1       2.638   3.821   9.899  1.00  0.00     0.000 C 
BRANCH  21  22
ATOM     22  C   UNL     1       3.931   3.545  10.697  1.00  0.00    -0.000 C 
BRANCH  22  23
ATOM     23  C   UNL     1       4.434   4.753  11.512  1.00  0.00    -0.000 C 
BRANCH  23  24
ATOM     24  C   UNL     1       3.526   5.996  11.475  1.00  0.00    -0.000 C 
BRANCH  24  25
ATOM     25  C   UNL     1       3.260   6.654  12.843  1.00  0.00    -0.000 C 
BRANCH  25  26
ATOM     26  C   UNL     1       3.042   5.631  13.970  1.00  0.00    -0.000 C 
BRANCH  26  27
ATOM     27  C   UNL     1       3.294   6.270  15.344  1.00  0.00    -0.000 C 
BRANCH  27  28
ATOM     28  C   UNL     1       4.786   6.529  15.617  1.00  0.00    -0.000 C 
BRANCH  28  29
ATOM     29  C   UNL     1       5.110   7.946  16.127  1.00  0.00    -0.003 C 
ATOM     30  C   UNL     1       4.420   9.042  15.317  1.00  0.00     0.004 C 
ENDBRANCH  28  29
ENDBRANCH  27  28
ENDBRANCH  26  27
ENDBRANCH  25  26
ENDBRANCH  24  25
ENDBRANCH  23  24
ENDBRANCH  22  23
ENDBRANCH  21  22
ENDBRANCH  20  21
ENDBRANCH  19  20
ENDBRANCH  18  19
ENDBRANCH  17  18
ENDBRANCH   1  17
TORSDOF 26
ENDMDL
MODEL 7
REMARK VINA RESULT:    19.880      0.808      1.566
REMARK INTER + INTRA:          49.892
REMARK INTER:                  49.561
REMARK INTRA:                   0.330
REMARK UNBOUND:                -0.206
REMARK SMILES CCCCCCCCCCCCCCCCCCCCCCCCCCCC(=O)[O-]
REMARK SMILES IDX 15 1 16 2 17 3 18 4 19 5 20 6 21 7 22 8 23 9 24 10 25 11
REMARK SMILES IDX 26 12 27 13 28 14 29 15 30 16 14 17 13 18 12 19 11 20 10 21
REMARK SMILES IDX 9 22 8 23 7 24 6 25 5 26 4 27 3 28 2 29 1 30
REMARK H PARENT
REMARK Flexibility Score: inf
ROOT
ATOM      1  C   UNL     1       2.966  -2.280  10.012  1.00  0.00     0.000 C 
ENDROOT
BRANCH   1   2
ATOM      2  C   UNL     1       2.276  -0.980  10.459  1.00  0.00     0.000 C 
BRANCH   2   3
ATOM      3  C   UNL     1       1.298  -0.436   9.405  1.00  0.00     0.000 C 
BRANCH   3   4
ATOM      4  C   UNL     1       0.319   0.599   9.982  1.00  0.00     0.000 C 
BRANCH   4   5
ATOM      5  C   UNL     1      -0.008   1.732   8.992  1.00  0.00     0.000 C 
BRANCH   5   6
ATOM      6  C   UNL     1       1.006   2.889   9.049  1.00  0.00     0.000 C 
BRANCH   6   7
ATOM      7  C   UNL     1       2.202   2.659   9.991  1.00  0.00     0.000 C 
BRANCH   7   8
ATOM      8  C   UNL     1       3.228   3.806   9.949  1.00  0.00     0.000 C 
BRANCH   8   9
ATOM      9  C   UNL     1       4.146   3.829  11.183  1.00  0.00     0.000 C 
BRANCH   9  10
ATOM     10  C   UNL     1       4.528   5.250  11.621  1.00  0.00     0.000 C 
BRANCH  10  11
ATOM     11  C   UNL     1       3.282   6.126  11.804  1.00  0.00     0.000 C 
BRANCH  11  12
ATOM     12  C   UNL     1       2.855   6.176  13.275  1.00  0.00     0.006 C 
BRANCH  12  13
ATOM     13  C   UNL     1       3.983   5.698  14.194  1.00  0.00     0.053 C 
BRANCH  13  14
ATOM     14  C   UNL     1       4.019   6.501  15.458  1.00  0.00     0.041 C 
ATOM     15  O   UNL     1       4.883   7.405  15.611  1.00  0.00    -0.550 OA
ATOM     16  O   UNL     1       3.113   6.238  16.475  1.00  0.00    -0.550 OA
ENDBRANCH  13  14
ENDBRANCH  12  13
ENDBRANCH  11  12
ENDBRANCH  10  11
ENDBRANCH   9  10
ENDBRANCH   8   9
ENDBRANCH   7   8
ENDBRANCH   6   7
ENDBRANCH   5   6
ENDBRANCH   4   5
ENDBRANCH   3   4
ENDBRANCH   2   3
ENDBRANCH   1   2
BRANCH   1  17
ATOM     17  C   UNL     1       1.985  -3.444   9.751  1.00  0.00     0.000 C 
BRANCH  17  18
ATOM     18  C   UNL     1       2.591  -4.808  10.116  1.00  0.00     0.000 C 
BRANCH  18  19
ATOM     19  C   UNL     1       1.510  -5.765  10.640  1.00  0.00     0.000 C 
BRANCH  19  20
ATOM     20  C   UNL     1       0.329  -5.916   9.669  1.00  0.00     0.000 C 
BRANCH  20  21
ATOM     21  C   UNL     1      -0.475  -7.207   9.910  1.00  0.00     0.000 C 
BRANCH  21  22
ATOM     22  C   UNL     1      -0.171  -7.854  11.278  1.00  0.00    -0.000 C 
BRANCH  22  23
ATOM     23  C   UNL     1       1.332  -7.932  11.615  1.00  0.00    -0.000 C 
BRANCH  23  24
ATOM     24  C   UNL     1       2.167  -8.840  10.693  1.00  0.00    -0.000 C 
BRANCH  24  25
ATOM     25  C   UNL     1       3.663  -8.482  10.602  1.00  0.00    -0.000 C 
BRANCH  25  26
ATOM     26  C   UNL     1       4.494  -9.075  11.750  1.00  0.00    -0.000 C 
BRANCH  26  27
ATOM     27  C   UNL     1       4.340  -8.236  13.028  1.00  0.00    -0.000 C 
BRANCH  27  28
ATOM     28  C   UNL     1       4.675  -6.750  12.810  1.00  0.00    -0.000 C 
BRANCH  28  29
ATOM     29  C   UNL     1       6.014  -6.491  12.095  1.00  0.00    -0.003 C 
ATOM     30  C   UNL     1       7.223  -6.950  12.910  1.00  0.00     0.004 C 
ENDBRANCH  28  29
ENDBRANCH  27  28
ENDBRANCH  26  27
ENDBRANCH  25  26
ENDBRANCH  24  25
ENDBRANCH  23  24
ENDBRANCH  22  23
ENDBRANCH  21  22
ENDBRANCH  20  21
ENDBRANCH  19  20
ENDBRANCH  18  19
ENDBRANCH  17  18
ENDBRANCH   1  17
TORSDOF 26
ENDMDL
MODEL 8
REMARK VINA RESULT:    20.413      3.952     12.208
REMARK INTER + INTRA:          51.233
REMARK INTER:                  51.439
REMARK INTRA:                  -0.206
REMARK UNBOUND:                -0.206
REMARK SMILES CCCCCCCCCCCCCCCCCCCCCCCCCCCC(=O)[O-]
REMARK SMILES IDX 15 1 16 2 17 3 18 4 19 5 20 6 21 7 22 8 23 9 24 10 25 11
REMARK SMILES IDX 26 12 27 13 28 14 29 15 30 16 14 17 13 18 12 19 11 20 10 21
REMARK SMILES IDX 9 22 8 23 7 24 6 25 5 26 4 27 3 28 2 29 1 30
REMARK H PARENT
REMARK Flexibility Score: inf
ROOT
ATOM      1  C   UNL     1       1.863  -0.274   9.442  1.00  0.00     0.000 C 
ENDROOT
BRANCH   1   2
ATOM      2  C   UNL     1       1.590  -1.638  10.097  1.00  0.00     0.000 C 
BRANCH   2   3
ATOM      3  C   UNL     1       2.830  -2.548  10.110  1.00  0.00     0.000 C 
BRANCH   3   4
ATOM      4  C   UNL     1       2.598  -3.877   9.376  1.00  0.00     0.000 C 
BRANCH   4   5
ATOM      5  C   UNL     1       1.885  -4.927  10.247  1.00  0.00     0.000 C 
BRANCH   5   6
ATOM      6  C   UNL     1       1.103  -5.964   9.418  1.00  0.00     0.000 C 
BRANCH   6   7
ATOM      7  C   UNL     1      -0.380  -6.115   9.801  1.00  0.00     0.000 C 
BRANCH   7   8
ATOM      8  C   UNL     1      -0.789  -7.578  10.050  1.00  0.00     0.000 C 
BRANCH   8   9
ATOM      9  C   UNL     1       0.256  -8.357  10.867  1.00  0.00     0.000 C 
BRANCH   9  10
ATOM     10  C   UNL     1       0.894  -7.517  11.983  1.00  0.00     0.000 C 
BRANCH  10  11
ATOM     11  C   UNL     1       2.361  -7.908  12.201  1.00  0.00     0.000 C 
BRANCH  11  12
ATOM     12  C   UNL     1       3.013  -8.355  10.888  1.00  0.00     0.006 C 
BRANCH  12  13
ATOM     13  C   UNL     1       4.472  -7.895  10.812  1.00  0.00     0.053 C 
BRANCH  13  14
ATOM     14  C   UNL     1       5.025  -7.647  12.182  1.00  0.00     0.041 C 
ATOM     15  O   UNL     1       4.528  -8.231  13.182  1.00  0.00    -0.550 OA
ATOM     16  O   UNL     1       6.073  -6.755  12.359  1.00  0.00    -0.550 OA
ENDBRANCH  13  14
ENDBRANCH  12  13
ENDBRANCH  11  12
ENDBRANCH  10  11
ENDBRANCH   9  10
ENDBRANCH   8   9
ENDBRANCH   7   8
ENDBRANCH   6   7
ENDBRANCH   5   6
ENDBRANCH   4   5
ENDBRANCH   3   4
ENDBRANCH   2   3
ENDBRANCH   1   2
BRANCH   1  17
ATOM     17  C   UNL     1       1.120   0.898  10.121  1.00  0.00     0.000 C 
BRANCH  17  18
ATOM     18  C   UNL     1       1.968   2.179  10.164  1.00  0.00     0.000 C 
BRANCH  18  19
ATOM     19  C   UNL     1       2.746   2.277  11.483  1.00  0.00     0.000 C 
BRANCH  19  20
ATOM     20  C   UNL     1       4.267   2.343  11.273  1.00  0.00     0.000 C 
BRANCH  20  21
ATOM     21  C   UNL     1       4.737   3.722  10.774  1.00  0.00     0.000 C 
BRANCH  21  22
ATOM     22  C   UNL     1       4.625   4.819  11.854  1.00  0.00    -0.000 C 
BRANCH  22  23
ATOM     23  C   UNL     1       3.392   5.731  11.695  1.00  0.00    -0.000 C 
BRANCH  23  24
ATOM     24  C   UNL     1       3.013   6.549  12.944  1.00  0.00    -0.000 C 
BRANCH  24  25
ATOM     25  C   UNL     1       2.889   5.734  14.246  1.00  0.00    -0.000 C 
BRANCH  25  26
ATOM     26  C   UNL     1       3.266   6.541  15.498  1.00  0.00    -0.000 C 
BRANCH  26  27
ATOM     27  C   UNL     1       4.789   6.552  15.704  1.00  0.00    -0.000 C 
BRANCH  27  28
ATOM     28  C   UNL     1       5.344   7.960  15.980  1.00  0.00    -0.000 C 
BRANCH  28  29
ATOM     29  C   UNL     1       4.302   9.090  15.895  1.00  0.00    -0.003 C 
ATOM     30  C   UNL     1       4.632  10.125  14.819  1.00  0.00     0.004 C 
ENDBRANCH  28  29
ENDBRANCH  27  28
ENDBRANCH  26  27
ENDBRANCH  25  26
ENDBRANCH  24  25
ENDBRANCH  23  24
ENDBRANCH  22  23
ENDBRANCH  21  22
ENDBRANCH  20  21
ENDBRANCH  19  20
ENDBRANCH  18  19
ENDBRANCH  17  18
ENDBRANCH   1  17
TORSDOF 26
ENDMDL
MODEL 9
REMARK VINA RESULT:    20.495      2.643      5.036
REMARK INTER + INTRA:          51.442
REMARK INTER:                  52.589
REMARK INTRA:                  -1.148
REMARK UNBOUND:                -0.206
REMARK SMILES CCCCCCCCCCCCCCCCCCCCCCCCCCCC(=O)[O-]
REMARK SMILES IDX 15 1 16 2 17 3 18 4 19 5 20 6 21 7 22 8 23 9 24 10 25 11
REMARK SMILES IDX 26 12 27 13 28 14 29 15 30 16 14 17 13 18 12 19 11 20 10 21
REMARK SMILES IDX 9 22 8 23 7 24 6 25 5 26 4 27 3 28 2 29 1 30
REMARK H PARENT
REMARK Flexibility Score: inf
ROOT
ATOM      1  C   UNL     1       2.300   2.684  10.033  1.00  0.00     0.000 C 
ENDROOT
BRANCH   1   2
ATOM      2  C   UNL     1       3.312   3.840   9.979  1.00  0.00     0.000 C 
BRANCH   2   3
ATOM      3  C   UNL     1       4.527   3.608  10.892  1.00  0.00     0.000 C 
BRANCH   3   4
ATOM      4  C   UNL     1       4.886   4.846  11.729  1.00  0.00     0.000 C 
BRANCH   4   5
ATOM      5  C   UNL     1       3.676   5.758  12.000  1.00  0.00     0.000 C 
BRANCH   5   6
ATOM      6  C   UNL     1       3.156   5.651  13.446  1.00  0.00     0.000 C 
BRANCH   6   7
ATOM      7  C   UNL     1       3.353   6.915  14.302  1.00  0.00     0.000 C 
BRANCH   7   8
ATOM      8  C   UNL     1       4.124   6.641  15.606  1.00  0.00     0.000 C 
BRANCH   8   9
ATOM      9  C   UNL     1       3.474   5.543  16.463  1.00  0.00     0.000 C 
BRANCH   9  10
ATOM     10  C   UNL     1       2.147   5.984  17.099  1.00  0.00     0.000 C 
BRANCH  10  11
ATOM     11  C   UNL     1       1.893   5.246  18.419  1.00  0.00     0.000 C 
BRANCH  11  12
ATOM     12  C   UNL     1       2.256   3.762  18.299  1.00  0.00     0.006 C 
BRANCH  12  13
ATOM     13  C   UNL     1       1.580   2.938  19.400  1.00  0.00     0.053 C 
BRANCH  13  14
ATOM     14  C   UNL     1       2.595   2.179  20.198  1.00  0.00     0.041 C 
ATOM     15  O   UNL     1       2.341   1.834  21.383  1.00  0.00    -0.550 OA
ATOM     16  O   UNL     1       3.829   1.871  19.643  1.00  0.00    -0.550 OA
ENDBRANCH  13  14
ENDBRANCH  12  13
ENDBRANCH  11  12
ENDBRANCH  10  11
ENDBRANCH   9  10
ENDBRANCH   8   9
ENDBRANCH   7   8
ENDBRANCH   6   7
ENDBRANCH   5   6
ENDBRANCH   4   5
ENDBRANCH   3   4
ENDBRANCH   2   3
ENDBRANCH   1   2
BRANCH   1  17
ATOM     17  C   UNL     1       1.038   2.925   9.175  1.00  0.00     0.000 C 
BRANCH  17  18
ATOM     18  C   UNL     1       0.161   1.669   9.063  1.00  0.00     0.000 C 
BRANCH  18  19
ATOM     19  C   UNL     1       0.662   0.566  10.006  1.00  0.00     0.000 C 
BRANCH  19  20
ATOM     20  C   UNL     1       1.652  -0.393   9.326  1.00  0.00     0.000 C 
BRANCH  20  21
ATOM     21  C   UNL     1       2.138  -1.510  10.268  1.00  0.00     0.000 C 
BRANCH  21  22
ATOM     22  C   UNL     1       2.082  -2.908   9.615  1.00  0.00    -0.000 C 
BRANCH  22  23
ATOM     23  C   UNL     1       2.941  -3.969  10.332  1.00  0.00    -0.000 C 
BRANCH  23  24
ATOM     24  C   UNL     1       2.467  -5.424  10.162  1.00  0.00    -0.000 C 
BRANCH  24  25
ATOM     25  C   UNL     1       1.940  -6.095  11.445  1.00  0.00    -0.000 C 
BRANCH  25  26
ATOM     26  C   UNL     1       2.070  -7.626  11.420  1.00  0.00    -0.000 C 
BRANCH  26  27
ATOM     27  C   UNL     1       3.547  -8.050  11.463  1.00  0.00    -0.000 C 
BRANCH  27  28
ATOM     28  C   UNL     1       4.385  -7.199  12.433  1.00  0.00    -0.000 C 
BRANCH  28  29
ATOM     29  C   UNL     1       5.812  -6.886  11.946  1.00  0.00    -0.003 C 
ATOM     30  C   UNL     1       6.874  -7.131  13.017  1.00  0.00     0.004 C 
ENDBRANCH  28  29
ENDBRANCH  27  28
ENDBRANCH  26  27
ENDBRANCH  25  26
ENDBRANCH  24  25
ENDBRANCH  23  24
ENDBRANCH  22  23
ENDBRANCH  21  22
ENDBRANCH  20  21
ENDBRANCH  19  20
ENDBRANCH  18  19
ENDBRANCH  17  18
ENDBRANCH   1  17
TORSDOF 26
ENDMDL
