MODEL 1
REMARK VINA RESULT:    -3.768      0.000      0.000
REMARK INTER + INTRA:         -13.212
REMARK INTER:                  -9.494
REMARK INTRA:                  -3.718
REMARK UNBOUND:                -3.718
REMARK SMILES CCCCCCCCCCCCCCCCCCCCCCCCCCCC(=O)[O-]
REMARK SMILES IDX 15 1 16 2 17 3 18 4 19 5 20 6 21 7 22 8 23 9 24 10 25 11
REMARK SMILES IDX 26 12 27 13 28 14 29 15 30 16 14 17 13 18 12 19 11 20 10 21
REMARK SMILES IDX 9 22 8 23 7 24 6 25 5 26 4 27 3 28 2 29 1 30
REMARK H PARENT
REMARK Flexibility Score: inf
ROOT
ATOM      1  C   UNL     1       1.142  44.061   8.511  1.00  0.00     0.000 C 
ENDROOT
BRANCH   1   2
ATOM      2  C   UNL     1       0.618  44.790   9.761  1.00  0.00     0.000 C 
BRANCH   2   3
ATOM      3  C   UNL     1      -0.544  45.743   9.433  1.00  0.00     0.000 C 
BRANCH   3   4
ATOM      4  C   UNL     1      -0.792  45.898   7.920  1.00  0.00     0.000 C 
BRANCH   4   5
ATOM      5  C   UNL     1      -0.566  47.314   7.356  1.00  0.00     0.000 C 
BRANCH   5   6
ATOM      6  C   UNL     1      -0.266  48.408   8.400  1.00  0.00     0.000 C 
BRANCH   6   7
ATOM      7  C   UNL     1       1.201  48.444   8.877  1.00  0.00     0.000 C 
BRANCH   7   8
ATOM      8  C   UNL     1       2.204  48.085   7.764  1.00  0.00     0.000 C 
BRANCH   8   9
ATOM      9  C   UNL     1       3.250  47.055   8.216  1.00  0.00     0.000 C 
BRANCH   9  10
ATOM     10  C   UNL     1       3.426  47.015   9.744  1.00  0.00     0.000 C 
BRANCH  10  11
ATOM     11  C   UNL     1       4.872  46.660  10.160  1.00  0.00     0.000 C 
BRANCH  11  12
ATOM     12  C   UNL     1       5.938  47.102   9.138  1.00  0.00     0.006 C 
BRANCH  12  13
ATOM     13  C   UNL     1       6.819  48.265   9.609  1.00  0.00     0.053 C 
BRANCH  13  14
ATOM     14  C   UNL     1       6.353  49.581   9.061  1.00  0.00     0.041 C 
ATOM     15  O   UNL     1       5.556  49.612   8.086  1.00  0.00    -0.550 OA
ATOM     16  O   UNL     1       6.753  50.770   9.656  1.00  0.00    -0.550 OA
ENDBRANCH  13  14
ENDBRANCH  12  13
ENDBRANCH  11  12
ENDBRANCH  10  11
ENDBRANCH   9  10
ENDBRANCH   8   9
ENDBRANCH   7   8
ENDBRANCH   6   7
ENDBRANCH   5   6
ENDBRANCH   4   5
ENDBRANCH   3   4
ENDBRANCH   2   3
ENDBRANCH   1   2
BRANCH   1  17
ATOM     17  C   UNL     1       2.097  42.905   8.856  1.00  0.00     0.000 C 
BRANCH  17  18
ATOM     18  C   UNL     1       3.510  43.407   9.223  1.00  0.00     0.000 C 
BRANCH  18  19
ATOM     19  C   UNL     1       4.136  42.688  10.429  1.00  0.00     0.000 C 
BRANCH  19  20
ATOM     20  C   UNL     1       4.232  43.584  11.673  1.00  0.00     0.000 C 
BRANCH  20  21
ATOM     21  C   UNL     1       2.879  43.766  12.385  1.00  0.00     0.000 C 
BRANCH  21  22
ATOM     22  C   UNL     1       1.876  42.610  12.182  1.00  0.00    -0.000 C 
BRANCH  22  23
ATOM     23  C   UNL     1       0.472  42.838  12.780  1.00  0.00    -0.000 C 
BRANCH  23  24
ATOM     24  C   UNL     1      -0.189  41.585  13.382  1.00  0.00    -0.000 C 
BRANCH  24  25
ATOM     25  C   UNL     1       0.801  40.714  14.175  1.00  0.00    -0.000 C 
BRANCH  25  26
ATOM     26  C   UNL     1       0.694  39.224  13.814  1.00  0.00    -0.000 C 
BRANCH  26  27
ATOM     27  C   UNL     1       1.657  38.820  12.683  1.00  0.00    -0.000 C 
BRANCH  27  28
ATOM     28  C   UNL     1       2.893  39.739  12.612  1.00  0.00    -0.000 C 
BRANCH  28  29
ATOM     29  C   UNL     1       4.230  38.986  12.715  1.00  0.00    -0.003 C 
ATOM     30  C   UNL     1       5.204  39.627  13.700  1.00  0.00     0.004 C 
ENDBRANCH  28  29
ENDBRANCH  27  28
ENDBRANCH  26  27
ENDBRANCH  25  26
ENDBRANCH  24  25
ENDBRANCH  23  24
ENDBRANCH  22  23
ENDBRANCH  21  22
ENDBRANCH  20  21
ENDBRANCH  19  20
ENDBRANCH  18  19
ENDBRANCH  17  18
ENDBRANCH   1  17
TORSDOF 26
ENDMDL
MODEL 2
REMARK VINA RESULT:    -3.766      2.955      8.165
REMARK INTER + INTRA:         -13.209
REMARK INTER:                 -10.482
REMARK INTRA:                  -2.727
REMARK UNBOUND:                -3.718
REMARK SMILES CCCCCCCCCCCCCCCCCCCCCCCCCCCC(=O)[O-]
REMARK SMILES IDX 15 1 16 2 17 3 18 4 19 5 20 6 21 7 22 8 23 9 24 10 25 11
REMARK SMILES IDX 26 12 27 13 28 14 29 15 30 16 14 17 13 18 12 19 11 20 10 21
REMARK SMILES IDX 9 22 8 23 7 24 6 25 5 26 4 27 3 28 2 29 1 30
REMARK H PARENT
REMARK Flexibility Score: inf
ROOT
ATOM      1  C   UNL     1       3.977  44.467   9.640  1.00  0.00     0.000 C 
ENDROOT
BRANCH   1   2
ATOM      2  C   UNL     1       4.613  44.646  11.029  1.00  0.00     0.000 C 
BRANCH   2   3
ATOM      3  C   UNL     1       3.889  43.826  12.110  1.00  0.00     0.000 C 
BRANCH   3   4
ATOM      4  C   UNL     1       2.372  44.094  12.158  1.00  0.00     0.000 C 
BRANCH   4   5
ATOM      5  C   UNL     1       1.486  42.845  12.331  1.00  0.00     0.000 C 
BRANCH   5   6
ATOM      6  C   UNL     1      -0.026  43.115  12.474  1.00  0.00     0.000 C 
BRANCH   6   7
ATOM      7  C   UNL     1      -0.788  42.045  13.285  1.00  0.00     0.000 C 
BRANCH   7   8
ATOM      8  C   UNL     1      -0.135  41.747  14.648  1.00  0.00     0.000 C 
BRANCH   8   9
ATOM      9  C   UNL     1       0.028  40.243  14.913  1.00  0.00     0.000 C 
BRANCH   9  10
ATOM     10  C   UNL     1       0.347  39.444  13.638  1.00  0.00     0.000 C 
BRANCH  10  11
ATOM     11  C   UNL     1       1.838  39.539  13.241  1.00  0.00     0.000 C 
BRANCH  11  12
ATOM     12  C   UNL     1       2.394  38.249  12.607  1.00  0.00     0.006 C 
BRANCH  12  13
ATOM     13  C   UNL     1       3.839  38.364  12.106  1.00  0.00     0.053 C 
BRANCH  13  14
ATOM     14  C   UNL     1       4.588  39.463  12.800  1.00  0.00     0.041 C 
ATOM     15  O   UNL     1       5.187  39.232  13.883  1.00  0.00    -0.550 OA
ATOM     16  O   UNL     1       4.671  40.725  12.227  1.00  0.00    -0.550 OA
ENDBRANCH  13  14
ENDBRANCH  12  13
ENDBRANCH  11  12
ENDBRANCH  10  11
ENDBRANCH   9  10
ENDBRANCH   8   9
ENDBRANCH   7   8
ENDBRANCH   6   7
ENDBRANCH   5   6
ENDBRANCH   4   5
ENDBRANCH   3   4
ENDBRANCH   2   3
ENDBRANCH   1   2
BRANCH   1  17
ATOM     17  C   UNL     1       3.684  42.993   9.307  1.00  0.00     0.000 C 
BRANCH  17  18
ATOM     18  C   UNL     1       2.242  42.789   8.794  1.00  0.00     0.000 C 
BRANCH  18  19
ATOM     19  C   UNL     1       1.410  44.081   8.732  1.00  0.00     0.000 C 
BRANCH  19  20
ATOM     20  C   UNL     1       0.400  44.084   7.575  1.00  0.00     0.000 C 
BRANCH  20  21
ATOM     21  C   UNL     1      -0.159  45.487   7.273  1.00  0.00     0.000 C 
BRANCH  21  22
ATOM     22  C   UNL     1      -0.586  46.299   8.514  1.00  0.00    -0.000 C 
BRANCH  22  23
ATOM     23  C   UNL     1      -0.390  47.826   8.407  1.00  0.00    -0.000 C 
BRANCH  23  24
ATOM     24  C   UNL     1       1.056  48.278   8.138  1.00  0.00    -0.000 C 
BRANCH  24  25
ATOM     25  C   UNL     1       2.069  47.628   9.096  1.00  0.00    -0.000 C 
BRANCH  25  26
ATOM     26  C   UNL     1       3.376  47.232   8.391  1.00  0.00    -0.000 C 
BRANCH  26  27
ATOM     27  C   UNL     1       4.069  48.430   7.715  1.00  0.00    -0.000 C 
BRANCH  27  28
ATOM     28  C   UNL     1       5.457  48.720   8.322  1.00  0.00    -0.000 C 
BRANCH  28  29
ATOM     29  C   UNL     1       5.918  47.664   9.341  1.00  0.00    -0.003 C 
ATOM     30  C   UNL     1       7.435  47.505   9.392  1.00  0.00     0.004 C 
ENDBRANCH  28  29
ENDBRANCH  27  28
ENDBRANCH  26  27
ENDBRANCH  25  26
ENDBRANCH  24  25
ENDBRANCH  23  24
ENDBRANCH  22  23
ENDBRANCH  21  22
ENDBRANCH  20  21
ENDBRANCH  19  20
ENDBRANCH  18  19
ENDBRANCH  17  18
ENDBRANCH   1  17
TORSDOF 26
ENDMDL
MODEL 3
REMARK VINA RESULT:    -3.651      1.079      2.163
REMARK INTER + INTRA:         -12.918
REMARK INTER:                 -10.261
REMARK INTRA:                  -2.657
REMARK UNBOUND:                -3.718
REMARK SMILES CCCCCCCCCCCCCCCCCCCCCCCCCCCC(=O)[O-]
REMARK SMILES IDX 15 1 16 2 17 3 18 4 19 5 20 6 21 7 22 8 23 9 24 10 25 11
REMARK SMILES IDX 26 12 27 13 28 14 29 15 30 16 14 17 13 18 12 19 11 20 10 21
REMARK SMILES IDX 9 22 8 23 7 24 6 25 5 26 4 27 3 28 2 29 1 30
REMARK H PARENT
REMARK Flexibility Score: inf
ROOT
ATOM      1  C   UNL     1       3.718  43.231   9.102  1.00  0.00     0.000 C 
ENDROOT
BRANCH   1   2
ATOM      2  C   UNL     1       2.269  42.877   8.725  1.00  0.00     0.000 C 
BRANCH   2   3
ATOM      3  C   UNL     1       1.308  44.058   8.943  1.00  0.00     0.000 C 
BRANCH   3   4
ATOM      4  C   UNL     1       0.524  44.443   7.674  1.00  0.00     0.000 C 
BRANCH   4   5
ATOM      5  C   UNL     1      -0.557  45.524   7.867  1.00  0.00     0.000 C 
BRANCH   5   6
ATOM      6  C   UNL     1      -0.700  46.075   9.300  1.00  0.00     0.000 C 
BRANCH   6   7
ATOM      7  C   UNL     1      -1.003  47.587   9.371  1.00  0.00     0.000 C 
BRANCH   7   8
ATOM      8  C   UNL     1      -0.536  48.353   8.118  1.00  0.00     0.000 C 
BRANCH   8   9
ATOM      9  C   UNL     1       0.887  48.913   8.261  1.00  0.00     0.000 C 
BRANCH   9  10
ATOM     10  C   UNL     1       1.920  47.832   8.623  1.00  0.00     0.000 C 
BRANCH  10  11
ATOM     11  C   UNL     1       3.036  47.706   7.562  1.00  0.00     0.000 C 
BRANCH  11  12
ATOM     12  C   UNL     1       4.364  48.372   7.976  1.00  0.00     0.006 C 
BRANCH  12  13
ATOM     13  C   UNL     1       5.199  47.551   8.966  1.00  0.00     0.053 C 
BRANCH  13  14
ATOM     14  C   UNL     1       6.572  48.126   9.155  1.00  0.00     0.041 C 
ATOM     15  O   UNL     1       7.502  47.406   9.605  1.00  0.00    -0.550 OA
ATOM     16  O   UNL     1       6.839  49.438   8.787  1.00  0.00    -0.550 OA
ENDBRANCH  13  14
ENDBRANCH  12  13
ENDBRANCH  11  12
ENDBRANCH  10  11
ENDBRANCH   9  10
ENDBRANCH   8   9
ENDBRANCH   7   8
ENDBRANCH   6   7
ENDBRANCH   5   6
ENDBRANCH   4   5
ENDBRANCH   3   4
ENDBRANCH   2   3
ENDBRANCH   1   2
BRANCH   1  17
ATOM     17  C   UNL     1       3.817  44.524   9.931  1.00  0.00     0.000 C 
BRANCH  17  18
ATOM     18  C   UNL     1       4.672  44.336  11.202  1.00  0.00     0.000 C 
BRANCH  18  19
ATOM     19  C   UNL     1       3.853  44.026  12.467  1.00  0.00     0.000 C 
BRANCH  19  20
ATOM     20  C   UNL     1       2.340  44.002  12.206  1.00  0.00     0.000 C 
BRANCH  20  21
ATOM     21  C   UNL     1       1.743  42.584  12.281  1.00  0.00     0.000 C 
BRANCH  21  22
ATOM     22  C   UNL     1       0.303  42.512  12.831  1.00  0.00    -0.000 C 
BRANCH  22  23
ATOM     23  C   UNL     1       0.116  41.638  14.088  1.00  0.00    -0.000 C 
BRANCH  23  24
ATOM     24  C   UNL     1      -0.857  40.457  13.920  1.00  0.00    -0.000 C 
BRANCH  24  25
ATOM     25  C   UNL     1      -0.137  39.136  13.596  1.00  0.00    -0.000 C 
BRANCH  25  26
ATOM     26  C   UNL     1       1.353  39.341  13.282  1.00  0.00    -0.000 C 
BRANCH  26  27
ATOM     27  C   UNL     1       1.986  38.115  12.597  1.00  0.00    -0.000 C 
BRANCH  27  28
ATOM     28  C   UNL     1       3.499  38.297  12.359  1.00  0.00    -0.000 C 
BRANCH  28  29
ATOM     29  C   UNL     1       3.974  39.754  12.488  1.00  0.00    -0.003 C 
ATOM     30  C   UNL     1       5.181  39.910  13.409  1.00  0.00     0.004 C 
ENDBRANCH  28  29
ENDBRANCH  27  28
ENDBRANCH  26  27
ENDBRANCH  25  26
ENDBRANCH  24  25
ENDBRANCH  23  24
ENDBRANCH  22  23
ENDBRANCH  21  22
ENDBRANCH  20  21
ENDBRANCH  19  20
ENDBRANCH  18  19
ENDBRANCH  17  18
ENDBRANCH   1  17
TORSDOF 26
ENDMDL
MODEL 4
REMARK VINA RESULT:    -3.573      1.926      7.964
REMARK INTER + INTRA:         -12.721
REMARK INTER:                  -9.527
REMARK INTRA:                  -3.194
REMARK UNBOUND:                -3.718
REMARK SMILES CCCCCCCCCCCCCCCCCCCCCCCCCCCC(=O)[O-]
REMARK SMILES IDX 15 1 16 2 17 3 18 4 19 5 20 6 21 7 22 8 23 9 24 10 25 11
REMARK SMILES IDX 26 12 27 13 28 14 29 15 30 16 14 17 13 18 12 19 11 20 10 21
REMARK SMILES IDX 9 22 8 23 7 24 6 25 5 26 4 27 3 28 2 29 1 30
REMARK H PARENT
REMARK Flexibility Score: inf
ROOT
ATOM      1  C   UNL     1       0.893  44.611  10.311  1.00  0.00     0.000 C 
ENDROOT
BRANCH   1   2
ATOM      2  C   UNL     1       1.146  43.343  11.143  1.00  0.00     0.000 C 
BRANCH   2   3
ATOM      3  C   UNL     1       0.359  43.348  12.465  1.00  0.00     0.000 C 
BRANCH   3   4
ATOM      4  C   UNL     1       0.711  42.164  13.385  1.00  0.00     0.000 C 
BRANCH   4   5
ATOM      5  C   UNL     1      -0.451  41.201  13.696  1.00  0.00     0.000 C 
BRANCH   5   6
ATOM      6  C   UNL     1      -0.109  39.699  13.629  1.00  0.00     0.000 C 
BRANCH   6   7
ATOM      7  C   UNL     1       1.404  39.394  13.594  1.00  0.00     0.000 C 
BRANCH   7   8
ATOM      8  C   UNL     1       1.766  38.261  12.614  1.00  0.00     0.000 C 
BRANCH   8   9
ATOM      9  C   UNL     1       3.267  38.211  12.292  1.00  0.00     0.000 C 
BRANCH   9  10
ATOM     10  C   UNL     1       4.103  39.130  13.199  1.00  0.00     0.000 C 
BRANCH  10  11
ATOM     11  C   UNL     1       4.890  40.191  12.397  1.00  0.00     0.000 C 
BRANCH  11  12
ATOM     12  C   UNL     1       4.012  41.336  11.855  1.00  0.00     0.006 C 
BRANCH  12  13
ATOM     13  C   UNL     1       4.366  42.721  12.412  1.00  0.00     0.053 C 
BRANCH  13  14
ATOM     14  C   UNL     1       4.393  43.768  11.339  1.00  0.00     0.041 C 
ATOM     15  O   UNL     1       4.465  43.429  10.128  1.00  0.00    -0.550 OA
ATOM     16  O   UNL     1       4.287  45.112  11.668  1.00  0.00    -0.550 OA
ENDBRANCH  13  14
ENDBRANCH  12  13
ENDBRANCH  11  12
ENDBRANCH  10  11
ENDBRANCH   9  10
ENDBRANCH   8   9
ENDBRANCH   7   8
ENDBRANCH   6   7
ENDBRANCH   5   6
ENDBRANCH   4   5
ENDBRANCH   3   4
ENDBRANCH   2   3
ENDBRANCH   1   2
BRANCH   1  17
ATOM     17  C   UNL     1       1.513  44.532   8.905  1.00  0.00     0.000 C 
BRANCH  17  18
ATOM     18  C   UNL     1       0.511  44.005   7.855  1.00  0.00     0.000 C 
BRANCH  18  19
ATOM     19  C   UNL     1      -0.083  45.099   6.952  1.00  0.00     0.000 C 
BRANCH  19  20
ATOM     20  C   UNL     1      -1.092  45.994   7.685  1.00  0.00     0.000 C 
BRANCH  20  21
ATOM     21  C   UNL     1      -0.719  47.487   7.628  1.00  0.00     0.000 C 
BRANCH  21  22
ATOM     22  C   UNL     1      -0.112  48.057   8.927  1.00  0.00    -0.000 C 
BRANCH  22  23
ATOM     23  C   UNL     1       1.428  48.033   9.006  1.00  0.00    -0.000 C 
BRANCH  23  24
ATOM     24  C   UNL     1       2.147  47.968   7.646  1.00  0.00    -0.000 C 
BRANCH  24  25
ATOM     25  C   UNL     1       3.673  47.826   7.787  1.00  0.00    -0.000 C 
BRANCH  25  26
ATOM     26  C   UNL     1       4.077  47.058   9.056  1.00  0.00    -0.000 C 
BRANCH  26  27
ATOM     27  C   UNL     1       5.536  47.326   9.469  1.00  0.00    -0.000 C 
BRANCH  27  28
ATOM     28  C   UNL     1       6.149  48.516   8.703  1.00  0.00    -0.000 C 
BRANCH  28  29
ATOM     29  C   UNL     1       6.651  49.646   9.618  1.00  0.00    -0.003 C 
ATOM     30  C   UNL     1       6.584  51.022   8.960  1.00  0.00     0.004 C 
ENDBRANCH  28  29
ENDBRANCH  27  28
ENDBRANCH  26  27
ENDBRANCH  25  26
ENDBRANCH  24  25
ENDBRANCH  23  24
ENDBRANCH  22  23
ENDBRANCH  21  22
ENDBRANCH  20  21
ENDBRANCH  19  20
ENDBRANCH  18  19
ENDBRANCH  17  18
ENDBRANCH   1  17
TORSDOF 26
ENDMDL
MODEL 5
REMARK VINA RESULT:    -3.556      4.141      8.040
REMARK INTER + INTRA:         -12.680
REMARK INTER:                  -8.950
REMARK INTRA:                  -3.730
REMARK UNBOUND:                -3.718
REMARK SMILES CCCCCCCCCCCCCCCCCCCCCCCCCCCC(=O)[O-]
REMARK SMILES IDX 15 1 16 2 17 3 18 4 19 5 20 6 21 7 22 8 23 9 24 10 25 11
REMARK SMILES IDX 26 12 27 13 28 14 29 15 30 16 14 17 13 18 12 19 11 20 10 21
REMARK SMILES IDX 9 22 8 23 7 24 6 25 5 26 4 27 3 28 2 29 1 30
REMARK H PARENT
REMARK Flexibility Score: inf
ROOT
ATOM      1  C   UNL     1       2.328  47.293   8.933  1.00  0.00     0.000 C 
ENDROOT
BRANCH   1   2
ATOM      2  C   UNL     1       3.691  47.467   8.243  1.00  0.00     0.000 C 
BRANCH   2   3
ATOM      3  C   UNL     1       4.843  46.880   9.077  1.00  0.00     0.000 C 
BRANCH   3   4
ATOM      4  C   UNL     1       4.465  45.571   9.796  1.00  0.00     0.000 C 
BRANCH   4   5
ATOM      5  C   UNL     1       4.646  45.582  11.326  1.00  0.00     0.000 C 
BRANCH   5   6
ATOM      6  C   UNL     1       4.390  44.238  12.037  1.00  0.00     0.000 C 
BRANCH   6   7
ATOM      7  C   UNL     1       4.518  43.001  11.122  1.00  0.00     0.000 C 
BRANCH   7   8
ATOM      8  C   UNL     1       3.842  41.747  11.709  1.00  0.00     0.000 C 
BRANCH   8   9
ATOM      9  C   UNL     1       4.808  40.882  12.532  1.00  0.00     0.000 C 
BRANCH   9  10
ATOM     10  C   UNL     1       4.342  39.421  12.655  1.00  0.00     0.000 C 
BRANCH  10  11
ATOM     11  C   UNL     1       2.880  39.228  12.193  1.00  0.00     0.000 C 
BRANCH  11  12
ATOM     12  C   UNL     1       2.212  37.961  12.763  1.00  0.00     0.006 C 
BRANCH  12  13
ATOM     13  C   UNL     1       2.020  36.834  11.741  1.00  0.00     0.053 C 
BRANCH  13  14
ATOM     14  C   UNL     1       0.644  36.241  11.809  1.00  0.00     0.041 C 
ATOM     15  O   UNL     1      -0.276  36.851  12.416  1.00  0.00    -0.550 OA
ATOM     16  O   UNL     1       0.363  35.046  11.161  1.00  0.00    -0.550 OA
ENDBRANCH  13  14
ENDBRANCH  12  13
ENDBRANCH  11  12
ENDBRANCH  10  11
ENDBRANCH   9  10
ENDBRANCH   8   9
ENDBRANCH   7   8
ENDBRANCH   6   7
ENDBRANCH   5   6
ENDBRANCH   4   5
ENDBRANCH   3   4
ENDBRANCH   2   3
ENDBRANCH   1   2
BRANCH   1  17
ATOM     17  C   UNL     1       1.216  48.122   8.267  1.00  0.00     0.000 C 
BRANCH  17  18
ATOM     18  C   UNL     1      -0.111  48.054   9.053  1.00  0.00     0.000 C 
BRANCH  18  19
ATOM     19  C   UNL     1      -1.113  47.026   8.502  1.00  0.00     0.000 C 
BRANCH  19  20
ATOM     20  C   UNL     1      -1.086  46.930   6.969  1.00  0.00     0.000 C 
BRANCH  20  21
ATOM     21  C   UNL     1      -0.490  45.603   6.463  1.00  0.00     0.000 C 
BRANCH  21  22
ATOM     22  C   UNL     1      -0.325  44.511   7.540  1.00  0.00    -0.000 C 
BRANCH  22  23
ATOM     23  C   UNL     1       1.111  43.979   7.731  1.00  0.00    -0.000 C 
BRANCH  23  24
ATOM     24  C   UNL     1       1.456  43.542   9.166  1.00  0.00    -0.000 C 
BRANCH  24  25
ATOM     25  C   UNL     1       1.296  44.681  10.188  1.00  0.00    -0.000 C 
BRANCH  25  26
ATOM     26  C   UNL     1       0.249  44.359  11.267  1.00  0.00    -0.000 C 
BRANCH  26  27
ATOM     27  C   UNL     1       0.833  43.534  12.429  1.00  0.00    -0.000 C 
BRANCH  27  28
ATOM     28  C   UNL     1      -0.105  42.389  12.860  1.00  0.00    -0.000 C 
BRANCH  28  29
ATOM     29  C   UNL     1       0.573  41.338  13.756  1.00  0.00    -0.003 C 
ATOM     30  C   UNL     1      -0.381  40.239  14.216  1.00  0.00     0.004 C 
ENDBRANCH  28  29
ENDBRANCH  27  28
ENDBRANCH  26  27
ENDBRANCH  25  26
ENDBRANCH  24  25
ENDBRANCH  23  24
ENDBRANCH  22  23
ENDBRANCH  21  22
ENDBRANCH  20  21
ENDBRANCH  19  20
ENDBRANCH  18  19
ENDBRANCH  17  18
ENDBRANCH   1  17
TORSDOF 26
ENDMDL
MODEL 6
REMARK VINA RESULT:    -3.540      1.252      3.442
REMARK INTER + INTRA:         -12.639
REMARK INTER:                  -9.718
REMARK INTRA:                  -2.922
REMARK UNBOUND:                -3.718
REMARK SMILES CCCCCCCCCCCCCCCCCCCCCCCCCCCC(=O)[O-]
REMARK SMILES IDX 15 1 16 2 17 3 18 4 19 5 20 6 21 7 22 8 23 9 24 10 25 11
REMARK SMILES IDX 26 12 27 13 28 14 29 15 30 16 14 17 13 18 12 19 11 20 10 21
REMARK SMILES IDX 9 22 8 23 7 24 6 25 5 26 4 27 3 28 2 29 1 30
REMARK H PARENT
REMARK Flexibility Score: inf
ROOT
ATOM      1  C   UNL     1      -1.125  46.509   9.809  1.00  0.00     0.000 C 
ENDROOT
BRANCH   1   2
ATOM      2  C   UNL     1       0.149  47.165   9.249  1.00  0.00     0.000 C 
BRANCH   2   3
ATOM      3  C   UNL     1       0.362  46.843   7.760  1.00  0.00     0.000 C 
BRANCH   3   4
ATOM      4  C   UNL     1      -0.267  45.502   7.334  1.00  0.00     0.000 C 
BRANCH   4   5
ATOM      5  C   UNL     1       0.689  44.294   7.334  1.00  0.00     0.000 C 
BRANCH   5   6
ATOM      6  C   UNL     1       1.307  43.933   8.700  1.00  0.00     0.000 C 
BRANCH   6   7
ATOM      7  C   UNL     1       2.288  42.742   8.657  1.00  0.00     0.000 C 
BRANCH   7   8
ATOM      8  C   UNL     1       3.729  43.136   9.035  1.00  0.00     0.000 C 
BRANCH   8   9
ATOM      9  C   UNL     1       4.025  44.621   8.780  1.00  0.00     0.000 C 
BRANCH   9  10
ATOM     10  C   UNL     1       4.264  45.413  10.078  1.00  0.00     0.000 C 
BRANCH  10  11
ATOM     11  C   UNL     1       3.968  46.920   9.911  1.00  0.00     0.000 C 
BRANCH  11  12
ATOM     12  C   UNL     1       4.063  47.413   8.454  1.00  0.00     0.006 C 
BRANCH  12  13
ATOM     13  C   UNL     1       5.031  48.585   8.246  1.00  0.00     0.053 C 
BRANCH  13  14
ATOM     14  C   UNL     1       6.263  48.452   9.091  1.00  0.00     0.041 C 
ATOM     15  O   UNL     1       6.983  47.423   9.000  1.00  0.00    -0.550 OA
ATOM     16  O   UNL     1       6.645  49.483   9.939  1.00  0.00    -0.550 OA
ENDBRANCH  13  14
ENDBRANCH  12  13
ENDBRANCH  11  12
ENDBRANCH  10  11
ENDBRANCH   9  10
ENDBRANCH   8   9
ENDBRANCH   7   8
ENDBRANCH   6   7
ENDBRANCH   5   6
ENDBRANCH   4   5
ENDBRANCH   3   4
ENDBRANCH   2   3
ENDBRANCH   1   2
BRANCH   1  17
ATOM     17  C   UNL     1      -0.914  45.900  11.206  1.00  0.00     0.000 C 
BRANCH  17  18
ATOM     18  C   UNL     1       0.352  45.020  11.272  1.00  0.00     0.000 C 
BRANCH  18  19
ATOM     19  C   UNL     1       0.162  43.707  12.052  1.00  0.00     0.000 C 
BRANCH  19  20
ATOM     20  C   UNL     1       1.416  42.821  12.041  1.00  0.00     0.000 C 
BRANCH  20  21
ATOM     21  C   UNL     1       2.712  43.616  12.291  1.00  0.00     0.000 C 
BRANCH  21  22
ATOM     22  C   UNL     1       3.992  42.760  12.387  1.00  0.00    -0.000 C 
BRANCH  22  23
ATOM     23  C   UNL     1       3.839  41.286  11.958  1.00  0.00    -0.000 C 
BRANCH  23  24
ATOM     24  C   UNL     1       4.703  40.287  12.748  1.00  0.00    -0.000 C 
BRANCH  24  25
ATOM     25  C   UNL     1       4.078  38.882  12.810  1.00  0.00    -0.000 C 
BRANCH  25  26
ATOM     26  C   UNL     1       2.669  38.837  12.198  1.00  0.00    -0.000 C 
BRANCH  26  27
ATOM     27  C   UNL     1       1.562  38.783  13.268  1.00  0.00    -0.000 C 
BRANCH  27  28
ATOM     28  C   UNL     1       1.155  40.188  13.757  1.00  0.00    -0.000 C 
BRANCH  28  29
ATOM     29  C   UNL     1      -0.345  40.322  14.069  1.00  0.00    -0.003 C 
ATOM     30  C   UNL     1      -0.620  41.051  15.382  1.00  0.00     0.004 C 
ENDBRANCH  28  29
ENDBRANCH  27  28
ENDBRANCH  26  27
ENDBRANCH  25  26
ENDBRANCH  24  25
ENDBRANCH  23  24
ENDBRANCH  22  23
ENDBRANCH  21  22
ENDBRANCH  20  21
ENDBRANCH  19  20
ENDBRANCH  18  19
ENDBRANCH  17  18
ENDBRANCH   1  17
TORSDOF 26
ENDMDL
MODEL 7
REMARK VINA RESULT:    -3.504      1.177      3.558
REMARK INTER + INTRA:         -12.547
REMARK INTER:                  -8.725
REMARK INTRA:                  -3.823
REMARK UNBOUND:                -3.718
REMARK SMILES CCCCCCCCCCCCCCCCCCCCCCCCCCCC(=O)[O-]
REMARK SMILES IDX 15 1 16 2 17 3 18 4 19 5 20 6 21 7 22 8 23 9 24 10 25 11
REMARK SMILES IDX 26 12 27 13 28 14 29 15 30 16 14 17 13 18 12 19 11 20 10 21
REMARK SMILES IDX 9 22 8 23 7 24 6 25 5 26 4 27 3 28 2 29 1 30
REMARK H PARENT
REMARK Flexibility Score: inf
ROOT
ATOM      1  C   UNL     1       0.631  44.391  11.448  1.00  0.00     0.000 C 
ENDROOT
BRANCH   1   2
ATOM      2  C   UNL     1       1.303  44.990  10.200  1.00  0.00     0.000 C 
BRANCH   2   3
ATOM      3  C   UNL     1       1.352  43.991   9.031  1.00  0.00     0.000 C 
BRANCH   3   4
ATOM      4  C   UNL     1       0.699  44.531   7.745  1.00  0.00     0.000 C 
BRANCH   4   5
ATOM      5  C   UNL     1      -0.594  45.342   7.950  1.00  0.00     0.000 C 
BRANCH   5   6
ATOM      6  C   UNL     1      -0.609  46.747   7.314  1.00  0.00     0.000 C 
BRANCH   6   7
ATOM      7  C   UNL     1      -0.617  47.906   8.334  1.00  0.00     0.000 C 
BRANCH   7   8
ATOM      8  C   UNL     1       0.794  48.287   8.822  1.00  0.00     0.000 C 
BRANCH   8   9
ATOM      9  C   UNL     1       1.676  48.857   7.703  1.00  0.00     0.000 C 
BRANCH   9  10
ATOM     10  C   UNL     1       3.083  48.235   7.677  1.00  0.00     0.000 C 
BRANCH  10  11
ATOM     11  C   UNL     1       3.273  47.163   8.773  1.00  0.00     0.000 C 
BRANCH  11  12
ATOM     12  C   UNL     1       4.675  46.521   8.776  1.00  0.00     0.006 C 
BRANCH  12  13
ATOM     13  C   UNL     1       5.585  46.999   9.914  1.00  0.00     0.053 C 
BRANCH  13  14
ATOM     14  C   UNL     1       6.755  47.787   9.403  1.00  0.00     0.041 C 
ATOM     15  O   UNL     1       7.929  47.388   9.624  1.00  0.00    -0.550 OA
ATOM     16  O   UNL     1       6.552  48.929   8.641  1.00  0.00    -0.550 OA
ENDBRANCH  13  14
ENDBRANCH  12  13
ENDBRANCH  11  12
ENDBRANCH  10  11
ENDBRANCH   9  10
ENDBRANCH   8   9
ENDBRANCH   7   8
ENDBRANCH   6   7
ENDBRANCH   5   6
ENDBRANCH   4   5
ENDBRANCH   3   4
ENDBRANCH   2   3
ENDBRANCH   1   2
BRANCH   1  17
ATOM     17  C   UNL     1       0.889  42.881  11.594  1.00  0.00     0.000 C 
BRANCH  17  18
ATOM     18  C   UNL     1       0.887  42.431  13.070  1.00  0.00     0.000 C 
BRANCH  18  19
ATOM     19  C   UNL     1      -0.452  41.839  13.542  1.00  0.00     0.000 C 
BRANCH  19  20
ATOM     20  C   UNL     1      -0.317  40.399  14.059  1.00  0.00     0.000 C 
BRANCH  20  21
ATOM     21  C   UNL     1       1.022  39.746  13.669  1.00  0.00     0.000 C 
BRANCH  21  22
ATOM     22  C   UNL     1       0.899  38.401  12.922  1.00  0.00    -0.000 C 
BRANCH  22  23
ATOM     23  C   UNL     1       2.233  37.751  12.502  1.00  0.00    -0.000 C 
BRANCH  23  24
ATOM     24  C   UNL     1       3.288  38.729  11.954  1.00  0.00    -0.000 C 
BRANCH  24  25
ATOM     25  C   UNL     1       4.390  39.050  12.979  1.00  0.00    -0.000 C 
BRANCH  25  26
ATOM     26  C   UNL     1       5.014  40.437  12.756  1.00  0.00    -0.000 C 
BRANCH  26  27
ATOM     27  C   UNL     1       3.983  41.482  12.293  1.00  0.00    -0.000 C 
BRANCH  27  28
ATOM     28  C   UNL     1       4.342  42.087  10.920  1.00  0.00    -0.000 C 
BRANCH  28  29
ATOM     29  C   UNL     1       4.415  43.623  10.923  1.00  0.00    -0.003 C 
ATOM     30  C   UNL     1       4.507  44.215  12.327  1.00  0.00     0.004 C 
ENDBRANCH  28  29
ENDBRANCH  27  28
ENDBRANCH  26  27
ENDBRANCH  25  26
ENDBRANCH  24  25
ENDBRANCH  23  24
ENDBRANCH  22  23
ENDBRANCH  21  22
ENDBRANCH  20  21
ENDBRANCH  19  20
ENDBRANCH  18  19
ENDBRANCH  17  18
ENDBRANCH   1  17
TORSDOF 26
ENDMDL
MODEL 8
REMARK VINA RESULT:    -3.016      1.106      4.069
REMARK INTER + INTRA:         -11.318
REMARK INTER:                  -7.675
REMARK INTRA:                  -3.643
REMARK UNBOUND:                -3.718
REMARK SMILES CCCCCCCCCCCCCCCCCCCCCCCCCCCC(=O)[O-]
REMARK SMILES IDX 15 1 16 2 17 3 18 4 19 5 20 6 21 7 22 8 23 9 24 10 25 11
REMARK SMILES IDX 26 12 27 13 28 14 29 15 30 16 14 17 13 18 12 19 11 20 10 21
REMARK SMILES IDX 9 22 8 23 7 24 6 25 5 26 4 27 3 28 2 29 1 30
REMARK H PARENT
REMARK Flexibility Score: inf
ROOT
ATOM      1  C   UNL     1       0.329  43.187  12.705  1.00  0.00     0.000 C 
ENDROOT
BRANCH   1   2
ATOM      2  C   UNL     1       0.223  44.241  11.589  1.00  0.00     0.000 C 
BRANCH   2   3
ATOM      3  C   UNL     1      -1.004  45.151  11.765  1.00  0.00     0.000 C 
BRANCH   3   4
ATOM      4  C   UNL     1      -1.017  46.346  10.792  1.00  0.00     0.000 C 
BRANCH   4   5
ATOM      5  C   UNL     1      -1.123  45.982   9.299  1.00  0.00     0.000 C 
BRANCH   5   6
ATOM      6  C   UNL     1      -0.826  47.128   8.311  1.00  0.00     0.000 C 
BRANCH   6   7
ATOM      7  C   UNL     1       0.209  48.153   8.821  1.00  0.00     0.000 C 
BRANCH   7   8
ATOM      8  C   UNL     1       1.478  48.210   7.949  1.00  0.00     0.000 C 
BRANCH   8   9
ATOM      9  C   UNL     1       2.478  47.093   8.281  1.00  0.00     0.000 C 
BRANCH   9  10
ATOM     10  C   UNL     1       2.554  46.788   9.787  1.00  0.00     0.000 C 
BRANCH  10  11
ATOM     11  C   UNL     1       4.009  46.624  10.281  1.00  0.00     0.000 C 
BRANCH  11  12
ATOM     12  C   UNL     1       5.062  46.750   9.163  1.00  0.00     0.006 C 
BRANCH  12  13
ATOM     13  C   UNL     1       6.180  47.759   9.459  1.00  0.00     0.053 C 
BRANCH  13  14
ATOM     14  C   UNL     1       6.018  49.024   8.669  1.00  0.00     0.041 C 
ATOM     15  O   UNL     1       6.945  49.877   8.648  1.00  0.00    -0.550 OA
ATOM     16  O   UNL     1       4.872  49.238   7.915  1.00  0.00    -0.550 OA
ENDBRANCH  13  14
ENDBRANCH  12  13
ENDBRANCH  11  12
ENDBRANCH  10  11
ENDBRANCH   9  10
ENDBRANCH   8   9
ENDBRANCH   7   8
ENDBRANCH   6   7
ENDBRANCH   5   6
ENDBRANCH   4   5
ENDBRANCH   3   4
ENDBRANCH   2   3
ENDBRANCH   1   2
BRANCH   1  17
ATOM     17  C   UNL     1      -1.019  42.513  13.015  1.00  0.00     0.000 C 
BRANCH  17  18
ATOM     18  C   UNL     1      -1.125  42.076  14.492  1.00  0.00     0.000 C 
BRANCH  18  19
ATOM     19  C   UNL     1       0.024  41.167  14.960  1.00  0.00     0.000 C 
BRANCH  19  20
ATOM     20  C   UNL     1       0.071  39.830  14.204  1.00  0.00     0.000 C 
BRANCH  20  21
ATOM     21  C   UNL     1       1.071  39.840  13.033  1.00  0.00     0.000 C 
BRANCH  21  22
ATOM     22  C   UNL     1       2.393  39.090  13.300  1.00  0.00    -0.000 C 
BRANCH  22  23
ATOM     23  C   UNL     1       3.629  39.640  12.558  1.00  0.00    -0.000 C 
BRANCH  23  24
ATOM     24  C   UNL     1       3.359  40.865  11.666  1.00  0.00    -0.000 C 
BRANCH  24  25
ATOM     25  C   UNL     1       3.943  42.164  12.249  1.00  0.00    -0.000 C 
BRANCH  25  26
ATOM     26  C   UNL     1       3.721  43.373  11.327  1.00  0.00    -0.000 C 
BRANCH  26  27
ATOM     27  C   UNL     1       4.470  43.240   9.988  1.00  0.00    -0.000 C 
BRANCH  27  28
ATOM     28  C   UNL     1       3.508  43.202   8.783  1.00  0.00    -0.000 C 
BRANCH  28  29
ATOM     29  C   UNL     1       2.024  43.122   9.180  1.00  0.00    -0.003 C 
ATOM     30  C   UNL     1       1.097  43.790   8.167  1.00  0.00     0.004 C 
ENDBRANCH  28  29
ENDBRANCH  27  28
ENDBRANCH  26  27
ENDBRANCH  25  26
ENDBRANCH  24  25
ENDBRANCH  23  24
ENDBRANCH  22  23
ENDBRANCH  21  22
ENDBRANCH  20  21
ENDBRANCH  19  20
ENDBRANCH  18  19
ENDBRANCH  17  18
ENDBRANCH   1  17
TORSDOF 26
ENDMDL
MODEL 9
REMARK VINA RESULT:    -2.601      1.150      2.846
REMARK INTER + INTRA:         -10.272
REMARK INTER:                  -7.064
REMARK INTRA:                  -3.208
REMARK UNBOUND:                -3.718
REMARK SMILES CCCCCCCCCCCCCCCCCCCCCCCCCCCC(=O)[O-]
REMARK SMILES IDX 15 1 16 2 17 3 18 4 19 5 20 6 21 7 22 8 23 9 24 10 25 11
REMARK SMILES IDX 26 12 27 13 28 14 29 15 30 16 14 17 13 18 12 19 11 20 10 21
REMARK SMILES IDX 9 22 8 23 7 24 6 25 5 26 4 27 3 28 2 29 1 30
REMARK H PARENT
REMARK Flexibility Score: inf
ROOT
ATOM      1  C   UNL     1       0.185  45.283   9.572  1.00  0.00     0.000 C 
ENDROOT
BRANCH   1   2
ATOM      2  C   UNL     1       0.616  44.391   8.395  1.00  0.00     0.000 C 
BRANCH   2   3
ATOM      3  C   UNL     1       0.307  45.036   7.034  1.00  0.00     0.000 C 
BRANCH   3   4
ATOM      4  C   UNL     1      -1.087  45.691   6.976  1.00  0.00     0.000 C 
BRANCH   4   5
ATOM      5  C   UNL     1      -1.091  47.221   6.796  1.00  0.00     0.000 C 
BRANCH   5   6
ATOM      6  C   UNL     1      -1.125  48.045   8.099  1.00  0.00     0.000 C 
BRANCH   6   7
ATOM      7  C   UNL     1       0.125  48.922   8.328  1.00  0.00     0.000 C 
BRANCH   7   8
ATOM      8  C   UNL     1       1.410  48.299   7.750  1.00  0.00     0.000 C 
BRANCH   8   9
ATOM      9  C   UNL     1       2.354  47.768   8.840  1.00  0.00     0.000 C 
BRANCH   9  10
ATOM     10  C   UNL     1       3.577  47.035   8.263  1.00  0.00     0.000 C 
BRANCH  10  11
ATOM     11  C   UNL     1       4.372  46.272   9.348  1.00  0.00     0.000 C 
BRANCH  11  12
ATOM     12  C   UNL     1       5.576  47.059   9.902  1.00  0.00     0.006 C 
BRANCH  12  13
ATOM     13  C   UNL     1       6.320  47.895   8.853  1.00  0.00     0.053 C 
BRANCH  13  14
ATOM     14  C   UNL     1       6.377  49.346   9.228  1.00  0.00     0.041 C 
ATOM     15  O   UNL     1       6.777  49.686  10.373  1.00  0.00    -0.550 OA
ATOM     16  O   UNL     1       6.041  50.323   8.302  1.00  0.00    -0.550 OA
ENDBRANCH  13  14
ENDBRANCH  12  13
ENDBRANCH  11  12
ENDBRANCH  10  11
ENDBRANCH   9  10
ENDBRANCH   8   9
ENDBRANCH   7   8
ENDBRANCH   6   7
ENDBRANCH   5   6
ENDBRANCH   4   5
ENDBRANCH   3   4
ENDBRANCH   2   3
ENDBRANCH   1   2
BRANCH   1  17
ATOM     17  C   UNL     1       1.090  45.116  10.806  1.00  0.00     0.000 C 
BRANCH  17  18
ATOM     18  C   UNL     1       0.569  44.027  11.768  1.00  0.00     0.000 C 
BRANCH  18  19
ATOM     19  C   UNL     1       1.467  42.781  11.849  1.00  0.00     0.000 C 
BRANCH  19  20
ATOM     20  C   UNL     1       2.936  43.083  11.518  1.00  0.00     0.000 C 
BRANCH  20  21
ATOM     21  C   UNL     1       3.773  41.810  11.298  1.00  0.00     0.000 C 
BRANCH  21  22
ATOM     22  C   UNL     1       4.563  41.327  12.533  1.00  0.00    -0.000 C 
BRANCH  22  23
ATOM     23  C   UNL     1       5.004  39.849  12.502  1.00  0.00    -0.000 C 
BRANCH  23  24
ATOM     24  C   UNL     1       4.084  38.881  13.267  1.00  0.00    -0.000 C 
BRANCH  24  25
ATOM     25  C   UNL     1       3.024  38.229  12.362  1.00  0.00    -0.000 C 
BRANCH  25  26
ATOM     26  C   UNL     1       1.598  38.398  12.911  1.00  0.00    -0.000 C 
BRANCH  26  27
ATOM     27  C   UNL     1       1.391  39.755  13.610  1.00  0.00    -0.000 C 
BRANCH  27  28
ATOM     28  C   UNL     1      -0.076  39.976  14.032  1.00  0.00    -0.000 C 
BRANCH  28  29
ATOM     29  C   UNL     1      -0.345  41.370  14.622  1.00  0.00    -0.003 C 
ATOM     30  C   UNL     1      -0.698  41.333  16.107  1.00  0.00     0.004 C 
ENDBRANCH  28  29
ENDBRANCH  27  28
ENDBRANCH  26  27
ENDBRANCH  25  26
ENDBRANCH  24  25
ENDBRANCH  23  24
ENDBRANCH  22  23
ENDBRANCH  21  22
ENDBRANCH  20  21
ENDBRANCH  19  20
ENDBRANCH  18  19
ENDBRANCH  17  18
ENDBRANCH   1  17
TORSDOF 26
ENDMDL
