MODEL 1
REMARK VINA RESULT:    -3.334      0.000      0.000
REMARK INTER + INTRA:         -13.500
REMARK INTER:                  -8.401
REMARK INTRA:                  -5.098
REMARK UNBOUND:                -5.098
REMARK SMILES CCCCCCCCCCCCCCCCCCCCCCCCCCCC(=O)[O-]
REMARK SMILES IDX 15 1 16 2 17 3 18 4 19 5 20 6 21 7 22 8 23 9 24 10 25 11
REMARK SMILES IDX 26 12 27 13 28 14 29 15 30 16 14 17 13 18 12 19 11 20 10 21
REMARK SMILES IDX 9 22 8 23 7 24 6 25 5 26 4 27 3 28 2 29 1 30
REMARK H PARENT
REMARK Flexibility Score: inf
ROOT
ATOM      1  C   UNL     1      -3.909  37.402  43.410  1.00  0.00     0.000 C 
ENDROOT
BRANCH   1   2
ATOM      2  C   UNL     1      -3.095  37.578  42.109  1.00  0.00     0.000 C 
BRANCH   2   3
ATOM      3  C   UNL     1      -3.965  37.451  40.849  1.00  0.00     0.000 C 
BRANCH   3   4
ATOM      4  C   UNL     1      -3.577  36.219  40.014  1.00  0.00     0.000 C 
BRANCH   4   5
ATOM      5  C   UNL     1      -2.435  35.440  40.675  1.00  0.00     0.000 C 
BRANCH   5   6
ATOM      6  C   UNL     1      -2.855  33.989  40.952  1.00  0.00     0.000 C 
BRANCH   6   7
ATOM      7  C   UNL     1      -3.599  33.828  42.289  1.00  0.00     0.000 C 
BRANCH   7   8
ATOM      8  C   UNL     1      -5.134  33.890  42.143  1.00  0.00     0.000 C 
BRANCH   8   9
ATOM      9  C   UNL     1      -5.861  33.682  43.484  1.00  0.00     0.000 C 
BRANCH   9  10
ATOM     10  C   UNL     1      -7.194  34.442  43.560  1.00  0.00     0.000 C 
BRANCH  10  11
ATOM     11  C   UNL     1      -8.103  33.932  44.690  1.00  0.00     0.000 C 
BRANCH  11  12
ATOM     12  C   UNL     1      -8.412  32.428  44.579  1.00  0.00     0.006 C 
BRANCH  12  13
ATOM     13  C   UNL     1      -9.450  32.080  43.498  1.00  0.00     0.053 C 
BRANCH  13  14
ATOM     14  C   UNL     1     -10.593  31.272  44.035  1.00  0.00     0.041 C 
ATOM     15  O   UNL     1     -11.065  30.318  43.363  1.00  0.00    -0.550 OA
ATOM     16  O   UNL     1     -11.159  31.594  45.261  1.00  0.00    -0.550 OA
ENDBRANCH  13  14
ENDBRANCH  12  13
ENDBRANCH  11  12
ENDBRANCH  10  11
ENDBRANCH   9  10
ENDBRANCH   8   9
ENDBRANCH   7   8
ENDBRANCH   6   7
ENDBRANCH   5   6
ENDBRANCH   4   5
ENDBRANCH   3   4
ENDBRANCH   2   3
ENDBRANCH   1   2
BRANCH   1  17
ATOM     17  C   UNL     1      -5.416  37.614  43.198  1.00  0.00     0.000 C 
BRANCH  17  18
ATOM     18  C   UNL     1      -5.806  39.095  43.331  1.00  0.00     0.000 C 
BRANCH  18  19
ATOM     19  C   UNL     1      -7.241  39.273  43.868  1.00  0.00     0.000 C 
BRANCH  19  20
ATOM     20  C   UNL     1      -7.850  37.976  44.423  1.00  0.00     0.000 C 
BRANCH  20  21
ATOM     21  C   UNL     1      -8.429  38.147  45.838  1.00  0.00     0.000 C 
BRANCH  21  22
ATOM     22  C   UNL     1      -7.736  39.290  46.611  1.00  0.00    -0.000 C 
BRANCH  22  23
ATOM     23  C   UNL     1      -6.693  38.806  47.633  1.00  0.00    -0.000 C 
BRANCH  23  24
ATOM     24  C   UNL     1      -5.326  38.505  46.997  1.00  0.00    -0.000 C 
BRANCH  24  25
ATOM     25  C   UNL     1      -4.808  37.101  47.352  1.00  0.00    -0.000 C 
BRANCH  25  26
ATOM     26  C   UNL     1      -5.495  35.999  46.531  1.00  0.00    -0.000 C 
BRANCH  26  27
ATOM     27  C   UNL     1      -4.684  34.693  46.573  1.00  0.00    -0.000 C 
BRANCH  27  28
ATOM     28  C   UNL     1      -5.431  33.556  47.290  1.00  0.00    -0.000 C 
BRANCH  28  29
ATOM     29  C   UNL     1      -5.081  32.171  46.728  1.00  0.00    -0.003 C 
ATOM     30  C   UNL     1      -3.660  32.150  46.170  1.00  0.00     0.004 C 
ENDBRANCH  28  29
ENDBRANCH  27  28
ENDBRANCH  26  27
ENDBRANCH  25  26
ENDBRANCH  24  25
ENDBRANCH  23  24
ENDBRANCH  22  23
ENDBRANCH  21  22
ENDBRANCH  20  21
ENDBRANCH  19  20
ENDBRANCH  18  19
ENDBRANCH  17  18
ENDBRANCH   1  17
TORSDOF 26
ENDMDL
MODEL 2
REMARK VINA RESULT:    -3.328      2.996      5.088
REMARK INTER + INTRA:         -13.485
REMARK INTER:                  -8.525
REMARK INTRA:                  -4.960
REMARK UNBOUND:                -5.098
REMARK SMILES CCCCCCCCCCCCCCCCCCCCCCCCCCCC(=O)[O-]
REMARK SMILES IDX 15 1 16 2 17 3 18 4 19 5 20 6 21 7 22 8 23 9 24 10 25 11
REMARK SMILES IDX 26 12 27 13 28 14 29 15 30 16 14 17 13 18 12 19 11 20 10 21
REMARK SMILES IDX 9 22 8 23 7 24 6 25 5 26 4 27 3 28 2 29 1 30
REMARK H PARENT
REMARK Flexibility Score: inf
ROOT
ATOM      1  C   UNL     1      -7.186  37.563  43.904  1.00  0.00     0.000 C 
ENDROOT
BRANCH   1   2
ATOM      2  C   UNL     1      -6.643  38.976  43.595  1.00  0.00     0.000 C 
BRANCH   2   3
ATOM      3  C   UNL     1      -5.164  38.959  43.177  1.00  0.00     0.000 C 
BRANCH   3   4
ATOM      4  C   UNL     1      -4.775  37.623  42.526  1.00  0.00     0.000 C 
BRANCH   4   5
ATOM      5  C   UNL     1      -3.978  37.847  41.235  1.00  0.00     0.000 C 
BRANCH   5   6
ATOM      6  C   UNL     1      -3.819  36.532  40.459  1.00  0.00     0.000 C 
BRANCH   6   7
ATOM      7  C   UNL     1      -4.439  35.329  41.190  1.00  0.00     0.000 C 
BRANCH   7   8
ATOM      8  C   UNL     1      -3.473  34.132  41.321  1.00  0.00     0.000 C 
BRANCH   8   9
ATOM      9  C   UNL     1      -2.483  34.301  42.488  1.00  0.00     0.000 C 
BRANCH   9  10
ATOM     10  C   UNL     1      -2.258  32.998  43.269  1.00  0.00     0.000 C 
BRANCH  10  11
ATOM     11  C   UNL     1      -3.335  31.939  42.978  1.00  0.00     0.000 C 
BRANCH  11  12
ATOM     12  C   UNL     1      -3.552  30.967  44.150  1.00  0.00     0.006 C 
BRANCH  12  13
ATOM     13  C   UNL     1      -3.275  29.493  43.802  1.00  0.00     0.053 C 
BRANCH  13  14
ATOM     14  C   UNL     1      -1.884  29.275  43.285  1.00  0.00     0.041 C 
ATOM     15  O   UNL     1      -0.897  29.379  44.058  1.00  0.00    -0.550 OA
ATOM     16  O   UNL     1      -1.677  28.989  41.942  1.00  0.00    -0.550 OA
ENDBRANCH  13  14
ENDBRANCH  12  13
ENDBRANCH  11  12
ENDBRANCH  10  11
ENDBRANCH   9  10
ENDBRANCH   8   9
ENDBRANCH   7   8
ENDBRANCH   6   7
ENDBRANCH   5   6
ENDBRANCH   4   5
ENDBRANCH   3   4
ENDBRANCH   2   3
ENDBRANCH   1   2
BRANCH   1  17
ATOM     17  C   UNL     1      -8.091  37.535  45.146  1.00  0.00     0.000 C 
BRANCH  17  18
ATOM     18  C   UNL     1      -7.827  38.737  46.067  1.00  0.00     0.000 C 
BRANCH  18  19
ATOM     19  C   UNL     1      -7.048  38.338  47.337  1.00  0.00     0.000 C 
BRANCH  19  20
ATOM     20  C   UNL     1      -5.544  38.646  47.252  1.00  0.00     0.000 C 
BRANCH  20  21
ATOM     21  C   UNL     1      -4.668  37.394  47.428  1.00  0.00     0.000 C 
BRANCH  21  22
ATOM     22  C   UNL     1      -3.933  37.015  46.125  1.00  0.00    -0.000 C 
BRANCH  22  23
ATOM     23  C   UNL     1      -3.877  35.499  45.861  1.00  0.00    -0.000 C 
BRANCH  23  24
ATOM     24  C   UNL     1      -5.005  35.011  44.938  1.00  0.00    -0.000 C 
BRANCH  24  25
ATOM     25  C   UNL     1      -5.980  34.058  45.652  1.00  0.00    -0.000 C 
BRANCH  25  26
ATOM     26  C   UNL     1      -7.258  33.810  44.837  1.00  0.00    -0.000 C 
BRANCH  26  27
ATOM     27  C   UNL     1      -6.938  33.668  43.340  1.00  0.00    -0.000 C 
BRANCH  27  28
ATOM     28  C   UNL     1      -8.163  33.250  42.510  1.00  0.00    -0.000 C 
BRANCH  28  29
ATOM     29  C   UNL     1      -9.230  32.532  43.347  1.00  0.00    -0.003 C 
ATOM     30  C   UNL     1      -9.614  31.197  42.715  1.00  0.00     0.004 C 
ENDBRANCH  28  29
ENDBRANCH  27  28
ENDBRANCH  26  27
ENDBRANCH  25  26
ENDBRANCH  24  25
ENDBRANCH  23  24
ENDBRANCH  22  23
ENDBRANCH  21  22
ENDBRANCH  20  21
ENDBRANCH  19  20
ENDBRANCH  18  19
ENDBRANCH  17  18
ENDBRANCH   1  17
TORSDOF 26
ENDMDL
MODEL 3
REMARK VINA RESULT:    -3.322      1.321      2.983
REMARK INTER + INTRA:         -13.470
REMARK INTER:                  -8.100
REMARK INTRA:                  -5.370
REMARK UNBOUND:                -5.098
REMARK SMILES CCCCCCCCCCCCCCCCCCCCCCCCCCCC(=O)[O-]
REMARK SMILES IDX 15 1 16 2 17 3 18 4 19 5 20 6 21 7 22 8 23 9 24 10 25 11
REMARK SMILES IDX 26 12 27 13 28 14 29 15 30 16 14 17 13 18 12 19 11 20 10 21
REMARK SMILES IDX 9 22 8 23 7 24 6 25 5 26 4 27 3 28 2 29 1 30
REMARK H PARENT
REMARK Flexibility Score: inf
ROOT
ATOM      1  C   UNL     1      -7.591  37.808  44.021  1.00  0.00     0.000 C 
ENDROOT
BRANCH   1   2
ATOM      2  C   UNL     1      -6.826  39.089  43.619  1.00  0.00     0.000 C 
BRANCH   2   3
ATOM      3  C   UNL     1      -5.382  38.798  43.178  1.00  0.00     0.000 C 
BRANCH   3   4
ATOM      4  C   UNL     1      -5.132  37.290  43.020  1.00  0.00     0.000 C 
BRANCH   4   5
ATOM      5  C   UNL     1      -3.680  37.009  42.618  1.00  0.00     0.000 C 
BRANCH   5   6
ATOM      6  C   UNL     1      -3.613  36.393  41.213  1.00  0.00     0.000 C 
BRANCH   6   7
ATOM      7  C   UNL     1      -4.354  35.049  41.115  1.00  0.00     0.000 C 
BRANCH   7   8
ATOM      8  C   UNL     1      -3.790  33.971  42.065  1.00  0.00     0.000 C 
BRANCH   8   9
ATOM      9  C   UNL     1      -4.869  33.379  42.990  1.00  0.00     0.000 C 
BRANCH   9  10
ATOM     10  C   UNL     1      -6.292  33.593  42.453  1.00  0.00     0.000 C 
BRANCH  10  11
ATOM     11  C   UNL     1      -7.240  34.189  43.507  1.00  0.00     0.000 C 
BRANCH  11  12
ATOM     12  C   UNL     1      -8.367  33.224  43.913  1.00  0.00     0.006 C 
BRANCH  12  13
ATOM     13  C   UNL     1      -9.029  32.499  42.728  1.00  0.00     0.053 C 
BRANCH  13  14
ATOM     14  C   UNL     1      -9.966  31.414  43.166  1.00  0.00     0.041 C 
ATOM     15  O   UNL     1      -9.850  30.249  42.702  1.00  0.00    -0.550 OA
ATOM     16  O   UNL     1     -10.990  31.696  44.061  1.00  0.00    -0.550 OA
ENDBRANCH  13  14
ENDBRANCH  12  13
ENDBRANCH  11  12
ENDBRANCH  10  11
ENDBRANCH   9  10
ENDBRANCH   8   9
ENDBRANCH   7   8
ENDBRANCH   6   7
ENDBRANCH   5   6
ENDBRANCH   4   5
ENDBRANCH   3   4
ENDBRANCH   2   3
ENDBRANCH   1   2
BRANCH   1  17
ATOM     17  C   UNL     1      -8.303  37.945  45.376  1.00  0.00     0.000 C 
BRANCH  17  18
ATOM     18  C   UNL     1      -8.039  39.316  46.020  1.00  0.00     0.000 C 
BRANCH  18  19
ATOM     19  C   UNL     1      -7.123  39.212  47.257  1.00  0.00     0.000 C 
BRANCH  19  20
ATOM     20  C   UNL     1      -5.690  39.702  46.997  1.00  0.00     0.000 C 
BRANCH  20  21
ATOM     21  C   UNL     1      -4.625  38.660  47.381  1.00  0.00     0.000 C 
BRANCH  21  22
ATOM     22  C   UNL     1      -3.405  38.707  46.437  1.00  0.00    -0.000 C 
BRANCH  22  23
ATOM     23  C   UNL     1      -2.854  37.319  46.062  1.00  0.00    -0.000 C 
BRANCH  23  24
ATOM     24  C   UNL     1      -2.199  36.595  47.249  1.00  0.00    -0.000 C 
BRANCH  24  25
ATOM     25  C   UNL     1      -2.948  35.308  47.640  1.00  0.00    -0.000 C 
BRANCH  25  26
ATOM     26  C   UNL     1      -3.493  34.555  46.417  1.00  0.00    -0.000 C 
BRANCH  26  27
ATOM     27  C   UNL     1      -4.968  34.172  46.619  1.00  0.00    -0.000 C 
BRANCH  27  28
ATOM     28  C   UNL     1      -5.916  35.376  46.489  1.00  0.00    -0.000 C 
BRANCH  28  29
ATOM     29  C   UNL     1      -6.986  35.411  47.590  1.00  0.00    -0.003 C 
ATOM     30  C   UNL     1      -6.358  35.686  48.954  1.00  0.00     0.004 C 
ENDBRANCH  28  29
ENDBRANCH  27  28
ENDBRANCH  26  27
ENDBRANCH  25  26
ENDBRANCH  24  25
ENDBRANCH  23  24
ENDBRANCH  22  23
ENDBRANCH  21  22
ENDBRANCH  20  21
ENDBRANCH  19  20
ENDBRANCH  18  19
ENDBRANCH  17  18
ENDBRANCH   1  17
TORSDOF 26
ENDMDL
MODEL 4
REMARK VINA RESULT:    -3.292      3.942      5.481
REMARK INTER + INTRA:         -13.394
REMARK INTER:                  -8.918
REMARK INTRA:                  -4.476
REMARK UNBOUND:                -5.098
REMARK SMILES CCCCCCCCCCCCCCCCCCCCCCCCCCCC(=O)[O-]
REMARK SMILES IDX 15 1 16 2 17 3 18 4 19 5 20 6 21 7 22 8 23 9 24 10 25 11
REMARK SMILES IDX 26 12 27 13 28 14 29 15 30 16 14 17 13 18 12 19 11 20 10 21
REMARK SMILES IDX 9 22 8 23 7 24 6 25 5 26 4 27 3 28 2 29 1 30
REMARK H PARENT
REMARK Flexibility Score: inf
ROOT
ATOM      1  C   UNL     1      -4.476  38.389  43.696  1.00  0.00     0.000 C 
ENDROOT
BRANCH   1   2
ATOM      2  C   UNL     1      -3.527  37.533  42.828  1.00  0.00     0.000 C 
BRANCH   2   3
ATOM      3  C   UNL     1      -4.076  37.302  41.410  1.00  0.00     0.000 C 
BRANCH   3   4
ATOM      4  C   UNL     1      -2.971  36.856  40.440  1.00  0.00     0.000 C 
BRANCH   4   5
ATOM      5  C   UNL     1      -2.905  35.328  40.339  1.00  0.00     0.000 C 
BRANCH   5   6
ATOM      6  C   UNL     1      -1.450  34.851  40.231  1.00  0.00     0.000 C 
BRANCH   6   7
ATOM      7  C   UNL     1      -0.656  35.059  41.532  1.00  0.00     0.000 C 
BRANCH   7   8
ATOM      8  C   UNL     1      -1.162  34.187  42.701  1.00  0.00     0.000 C 
BRANCH   8   9
ATOM      9  C   UNL     1      -0.313  32.917  42.898  1.00  0.00     0.000 C 
BRANCH   9  10
ATOM     10  C   UNL     1      -0.740  31.769  41.971  1.00  0.00     0.000 C 
BRANCH  10  11
ATOM     11  C   UNL     1      -1.843  30.891  42.584  1.00  0.00     0.000 C 
BRANCH  11  12
ATOM     12  C   UNL     1      -1.734  29.414  42.168  1.00  0.00     0.006 C 
BRANCH  12  13
ATOM     13  C   UNL     1      -0.451  28.718  42.656  1.00  0.00     0.053 C 
BRANCH  13  14
ATOM     14  C   UNL     1       0.442  28.297  41.527  1.00  0.00     0.041 C 
ATOM     15  O   UNL     1       1.561  28.850  41.364  1.00  0.00    -0.550 OA
ATOM     16  O   UNL     1       0.023  27.319  40.634  1.00  0.00    -0.550 OA
ENDBRANCH  13  14
ENDBRANCH  12  13
ENDBRANCH  11  12
ENDBRANCH  10  11
ENDBRANCH   9  10
ENDBRANCH   8   9
ENDBRANCH   7   8
ENDBRANCH   6   7
ENDBRANCH   5   6
ENDBRANCH   4   5
ENDBRANCH   3   4
ENDBRANCH   2   3
ENDBRANCH   1   2
BRANCH   1  17
ATOM     17  C   UNL     1      -5.886  38.500  43.098  1.00  0.00     0.000 C 
BRANCH  17  18
ATOM     18  C   UNL     1      -6.869  39.161  44.079  1.00  0.00     0.000 C 
BRANCH  18  19
ATOM     19  C   UNL     1      -8.101  38.274  44.356  1.00  0.00     0.000 C 
BRANCH  19  20
ATOM     20  C   UNL     1      -8.481  38.207  45.843  1.00  0.00     0.000 C 
BRANCH  20  21
ATOM     21  C   UNL     1      -7.346  38.672  46.771  1.00  0.00     0.000 C 
BRANCH  21  22
ATOM     22  C   UNL     1      -6.725  37.497  47.557  1.00  0.00    -0.000 C 
BRANCH  22  23
ATOM     23  C   UNL     1      -5.419  36.960  46.944  1.00  0.00    -0.000 C 
BRANCH  23  24
ATOM     24  C   UNL     1      -5.645  35.770  45.998  1.00  0.00    -0.000 C 
BRANCH  24  25
ATOM     25  C   UNL     1      -6.858  34.915  46.408  1.00  0.00    -0.000 C 
BRANCH  25  26
ATOM     26  C   UNL     1      -7.713  34.497  45.203  1.00  0.00    -0.000 C 
BRANCH  26  27
ATOM     27  C   UNL     1      -7.059  34.940  43.883  1.00  0.00    -0.000 C 
BRANCH  27  28
ATOM     28  C   UNL     1      -6.848  33.771  42.907  1.00  0.00    -0.000 C 
BRANCH  28  29
ATOM     29  C   UNL     1      -5.402  33.677  42.398  1.00  0.00    -0.003 C 
ATOM     30  C   UNL     1      -4.461  33.216  43.509  1.00  0.00     0.004 C 
ENDBRANCH  28  29
ENDBRANCH  27  28
ENDBRANCH  26  27
ENDBRANCH  25  26
ENDBRANCH  24  25
ENDBRANCH  23  24
ENDBRANCH  22  23
ENDBRANCH  21  22
ENDBRANCH  20  21
ENDBRANCH  19  20
ENDBRANCH  18  19
ENDBRANCH  17  18
ENDBRANCH   1  17
TORSDOF 26
ENDMDL
MODEL 5
REMARK VINA RESULT:    -3.271      3.336      5.077
REMARK INTER + INTRA:         -13.341
REMARK INTER:                  -8.756
REMARK INTRA:                  -4.585
REMARK UNBOUND:                -5.098
REMARK SMILES CCCCCCCCCCCCCCCCCCCCCCCCCCCC(=O)[O-]
REMARK SMILES IDX 15 1 16 2 17 3 18 4 19 5 20 6 21 7 22 8 23 9 24 10 25 11
REMARK SMILES IDX 26 12 27 13 28 14 29 15 30 16 14 17 13 18 12 19 11 20 10 21
REMARK SMILES IDX 9 22 8 23 7 24 6 25 5 26 4 27 3 28 2 29 1 30
REMARK H PARENT
REMARK Flexibility Score: inf
ROOT
ATOM      1  C   UNL     1      -3.674  37.550  43.316  1.00  0.00     0.000 C 
ENDROOT
BRANCH   1   2
ATOM      2  C   UNL     1      -3.138  37.819  41.891  1.00  0.00     0.000 C 
BRANCH   2   3
ATOM      3  C   UNL     1      -3.961  37.101  40.809  1.00  0.00     0.000 C 
BRANCH   3   4
ATOM      4  C   UNL     1      -3.474  35.661  40.588  1.00  0.00     0.000 C 
BRANCH   4   5
ATOM      5  C   UNL     1      -4.430  34.648  41.226  1.00  0.00     0.000 C 
BRANCH   5   6
ATOM      6  C   UNL     1      -3.654  33.454  41.802  1.00  0.00     0.000 C 
BRANCH   6   7
ATOM      7  C   UNL     1      -3.637  33.439  43.340  1.00  0.00     0.000 C 
BRANCH   7   8
ATOM      8  C   UNL     1      -2.442  34.207  43.944  1.00  0.00     0.000 C 
BRANCH   8   9
ATOM      9  C   UNL     1      -1.165  34.068  43.095  1.00  0.00     0.000 C 
BRANCH   9  10
ATOM     10  C   UNL     1      -0.399  32.768  43.385  1.00  0.00     0.000 C 
BRANCH  10  11
ATOM     11  C   UNL     1      -0.184  31.914  42.125  1.00  0.00     0.000 C 
BRANCH  11  12
ATOM     12  C   UNL     1       0.827  30.774  42.339  1.00  0.00     0.006 C 
BRANCH  12  13
ATOM     13  C   UNL     1       0.363  29.706  43.347  1.00  0.00     0.053 C 
BRANCH  13  14
ATOM     14  C   UNL     1      -0.857  28.968  42.884  1.00  0.00     0.041 C 
ATOM     15  O   UNL     1      -1.796  28.729  43.688  1.00  0.00    -0.550 OA
ATOM     16  O   UNL     1      -0.944  28.515  41.574  1.00  0.00    -0.550 OA
ENDBRANCH  13  14
ENDBRANCH  12  13
ENDBRANCH  11  12
ENDBRANCH  10  11
ENDBRANCH   9  10
ENDBRANCH   8   9
ENDBRANCH   7   8
ENDBRANCH   6   7
ENDBRANCH   5   6
ENDBRANCH   4   5
ENDBRANCH   3   4
ENDBRANCH   2   3
ENDBRANCH   1   2
BRANCH   1  17
ATOM     17  C   UNL     1      -5.184  37.802  43.437  1.00  0.00     0.000 C 
BRANCH  17  18
ATOM     18  C   UNL     1      -5.498  39.296  43.622  1.00  0.00     0.000 C 
BRANCH  18  19
ATOM     19  C   UNL     1      -6.975  39.539  43.993  1.00  0.00     0.000 C 
BRANCH  19  20
ATOM     20  C   UNL     1      -7.788  38.243  44.142  1.00  0.00     0.000 C 
BRANCH  20  21
ATOM     21  C   UNL     1      -8.504  38.142  45.499  1.00  0.00     0.000 C 
BRANCH  21  22
ATOM     22  C   UNL     1      -7.772  38.939  46.600  1.00  0.00    -0.000 C 
BRANCH  22  23
ATOM     23  C   UNL     1      -6.718  38.118  47.365  1.00  0.00    -0.000 C 
BRANCH  23  24
ATOM     24  C   UNL     1      -6.890  36.601  47.180  1.00  0.00    -0.000 C 
BRANCH  24  25
ATOM     25  C   UNL     1      -5.616  35.925  46.645  1.00  0.00    -0.000 C 
BRANCH  25  26
ATOM     26  C   UNL     1      -5.915  34.610  45.910  1.00  0.00    -0.000 C 
BRANCH  26  27
ATOM     27  C   UNL     1      -7.280  34.672  45.205  1.00  0.00    -0.000 C 
BRANCH  27  28
ATOM     28  C   UNL     1      -7.156  34.661  43.673  1.00  0.00    -0.000 C 
BRANCH  28  29
ATOM     29  C   UNL     1      -7.376  33.266  43.070  1.00  0.00    -0.003 C 
ATOM     30  C   UNL     1      -8.864  32.973  42.899  1.00  0.00     0.004 C 
ENDBRANCH  28  29
ENDBRANCH  27  28
ENDBRANCH  26  27
ENDBRANCH  25  26
ENDBRANCH  24  25
ENDBRANCH  23  24
ENDBRANCH  22  23
ENDBRANCH  21  22
ENDBRANCH  20  21
ENDBRANCH  19  20
ENDBRANCH  18  19
ENDBRANCH  17  18
ENDBRANCH   1  17
TORSDOF 26
ENDMDL
MODEL 6
REMARK VINA RESULT:    -3.270      2.021      5.641
REMARK INTER + INTRA:         -13.339
REMARK INTER:                  -7.846
REMARK INTRA:                  -5.493
REMARK UNBOUND:                -5.098
REMARK SMILES CCCCCCCCCCCCCCCCCCCCCCCCCCCC(=O)[O-]
REMARK SMILES IDX 15 1 16 2 17 3 18 4 19 5 20 6 21 7 22 8 23 9 24 10 25 11
REMARK SMILES IDX 26 12 27 13 28 14 29 15 30 16 14 17 13 18 12 19 11 20 10 21
REMARK SMILES IDX 9 22 8 23 7 24 6 25 5 26 4 27 3 28 2 29 1 30
REMARK H PARENT
REMARK Flexibility Score: inf
ROOT
ATOM      1  C   UNL     1      -4.818  37.122  43.025  1.00  0.00     0.000 C 
ENDROOT
BRANCH   1   2
ATOM      2  C   UNL     1      -5.052  38.625  42.754  1.00  0.00     0.000 C 
BRANCH   2   3
ATOM      3  C   UNL     1      -6.287  39.170  43.491  1.00  0.00     0.000 C 
BRANCH   3   4
ATOM      4  C   UNL     1      -7.192  38.035  43.996  1.00  0.00     0.000 C 
BRANCH   4   5
ATOM      5  C   UNL     1      -8.206  38.550  45.022  1.00  0.00     0.000 C 
BRANCH   5   6
ATOM      6  C   UNL     1      -8.338  37.570  46.197  1.00  0.00     0.000 C 
BRANCH   6   7
ATOM      7  C   UNL     1      -7.042  37.445  47.017  1.00  0.00     0.000 C 
BRANCH   7   8
ATOM      8  C   UNL     1      -6.540  35.991  47.145  1.00  0.00     0.000 C 
BRANCH   8   9
ATOM      9  C   UNL     1      -7.694  34.977  47.244  1.00  0.00     0.000 C 
BRANCH   9  10
ATOM     10  C   UNL     1      -7.616  33.882  46.169  1.00  0.00     0.000 C 
BRANCH  10  11
ATOM     11  C   UNL     1      -6.674  34.254  45.012  1.00  0.00     0.000 C 
BRANCH  11  12
ATOM     12  C   UNL     1      -7.421  34.516  43.692  1.00  0.00     0.006 C 
BRANCH  12  13
ATOM     13  C   UNL     1      -7.348  33.351  42.689  1.00  0.00     0.053 C 
BRANCH  13  14
ATOM     14  C   UNL     1      -8.702  32.848  42.289  1.00  0.00     0.041 C 
ATOM     15  O   UNL     1      -9.597  32.679  43.158  1.00  0.00    -0.550 OA
ATOM     16  O   UNL     1      -8.966  32.535  40.962  1.00  0.00    -0.550 OA
ENDBRANCH  13  14
ENDBRANCH  12  13
ENDBRANCH  11  12
ENDBRANCH  10  11
ENDBRANCH   9  10
ENDBRANCH   8   9
ENDBRANCH   7   8
ENDBRANCH   6   7
ENDBRANCH   5   6
ENDBRANCH   4   5
ENDBRANCH   3   4
ENDBRANCH   2   3
ENDBRANCH   1   2
BRANCH   1  17
ATOM     17  C   UNL     1      -4.312  36.370  41.785  1.00  0.00     0.000 C 
BRANCH  17  18
ATOM     18  C   UNL     1      -4.014  34.895  42.097  1.00  0.00     0.000 C 
BRANCH  18  19
ATOM     19  C   UNL     1      -3.109  34.245  41.030  1.00  0.00     0.000 C 
BRANCH  19  20
ATOM     20  C   UNL     1      -2.176  35.245  40.330  1.00  0.00     0.000 C 
BRANCH  20  21
ATOM     21  C   UNL     1      -0.719  35.140  40.812  1.00  0.00     0.000 C 
BRANCH  21  22
ATOM     22  C   UNL     1      -0.420  36.123  41.964  1.00  0.00    -0.000 C 
BRANCH  22  23
ATOM     23  C   UNL     1      -0.485  35.482  43.362  1.00  0.00    -0.000 C 
BRANCH  23  24
ATOM     24  C   UNL     1      -1.276  36.328  44.372  1.00  0.00    -0.000 C 
BRANCH  24  25
ATOM     25  C   UNL     1      -2.348  35.510  45.113  1.00  0.00    -0.000 C 
BRANCH  25  26
ATOM     26  C   UNL     1      -3.017  36.309  46.242  1.00  0.00    -0.000 C 
BRANCH  26  27
ATOM     27  C   UNL     1      -2.537  37.770  46.243  1.00  0.00    -0.000 C 
BRANCH  27  28
ATOM     28  C   UNL     1      -3.698  38.775  46.315  1.00  0.00    -0.000 C 
BRANCH  28  29
ATOM     29  C   UNL     1      -3.355  40.125  45.669  1.00  0.00    -0.003 C 
ATOM     30  C   UNL     1      -2.162  39.993  44.726  1.00  0.00     0.004 C 
ENDBRANCH  28  29
ENDBRANCH  27  28
ENDBRANCH  26  27
ENDBRANCH  25  26
ENDBRANCH  24  25
ENDBRANCH  23  24
ENDBRANCH  22  23
ENDBRANCH  21  22
ENDBRANCH  20  21
ENDBRANCH  19  20
ENDBRANCH  18  19
ENDBRANCH  17  18
ENDBRANCH   1  17
TORSDOF 26
ENDMDL
MODEL 7
REMARK VINA RESULT:    -3.245      1.672      4.796
REMARK INTER + INTRA:         -13.275
REMARK INTER:                  -8.191
REMARK INTRA:                  -5.084
REMARK UNBOUND:                -5.098
REMARK SMILES CCCCCCCCCCCCCCCCCCCCCCCCCCCC(=O)[O-]
REMARK SMILES IDX 15 1 16 2 17 3 18 4 19 5 20 6 21 7 22 8 23 9 24 10 25 11
REMARK SMILES IDX 26 12 27 13 28 14 29 15 30 16 14 17 13 18 12 19 11 20 10 21
REMARK SMILES IDX 9 22 8 23 7 24 6 25 5 26 4 27 3 28 2 29 1 30
REMARK H PARENT
REMARK Flexibility Score: inf
ROOT
ATOM      1  C   UNL     1      -7.079  39.695  46.186  1.00  0.00     0.000 C 
ENDROOT
BRANCH   1   2
ATOM      2  C   UNL     1      -8.122  38.573  46.393  1.00  0.00     0.000 C 
BRANCH   2   3
ATOM      3  C   UNL     1      -8.507  37.879  45.076  1.00  0.00     0.000 C 
BRANCH   3   4
ATOM      4  C   UNL     1      -7.890  36.475  44.975  1.00  0.00     0.000 C 
BRANCH   4   5
ATOM      5  C   UNL     1      -7.597  35.897  46.363  1.00  0.00     0.000 C 
BRANCH   5   6
ATOM      6  C   UNL     1      -6.157  35.369  46.441  1.00  0.00     0.000 C 
BRANCH   6   7
ATOM      7  C   UNL     1      -5.514  35.183  45.055  1.00  0.00     0.000 C 
BRANCH   7   8
ATOM      8  C   UNL     1      -4.975  33.756  44.820  1.00  0.00     0.000 C 
BRANCH   8   9
ATOM      9  C   UNL     1      -5.931  32.899  43.970  1.00  0.00     0.000 C 
BRANCH   9  10
ATOM     10  C   UNL     1      -6.571  33.689  42.819  1.00  0.00     0.000 C 
BRANCH  10  11
ATOM     11  C   UNL     1      -8.070  33.390  42.657  1.00  0.00     0.000 C 
BRANCH  11  12
ATOM     12  C   UNL     1      -8.723  32.874  43.951  1.00  0.00     0.006 C 
BRANCH  12  13
ATOM     13  C   UNL     1      -9.962  31.991  43.720  1.00  0.00     0.053 C 
BRANCH  13  14
ATOM     14  C   UNL     1      -9.622  30.672  43.095  1.00  0.00     0.041 C 
ATOM     15  O   UNL     1      -9.644  30.538  41.844  1.00  0.00    -0.550 OA
ATOM     16  O   UNL     1      -9.313  29.580  43.896  1.00  0.00    -0.550 OA
ENDBRANCH  13  14
ENDBRANCH  12  13
ENDBRANCH  11  12
ENDBRANCH  10  11
ENDBRANCH   9  10
ENDBRANCH   8   9
ENDBRANCH   7   8
ENDBRANCH   6   7
ENDBRANCH   5   6
ENDBRANCH   4   5
ENDBRANCH   3   4
ENDBRANCH   2   3
ENDBRANCH   1   2
BRANCH   1  17
ATOM     17  C   UNL     1      -5.655  39.254  46.558  1.00  0.00     0.000 C 
BRANCH  17  18
ATOM     18  C   UNL     1      -4.825  38.904  45.312  1.00  0.00     0.000 C 
BRANCH  18  19
ATOM     19  C   UNL     1      -5.352  39.608  44.045  1.00  0.00     0.000 C 
BRANCH  19  20
ATOM     20  C   UNL     1      -5.595  38.647  42.870  1.00  0.00     0.000 C 
BRANCH  20  21
ATOM     21  C   UNL     1      -4.410  37.700  42.619  1.00  0.00     0.000 C 
BRANCH  21  22
ATOM     22  C   UNL     1      -4.034  37.628  41.124  1.00  0.00    -0.000 C 
BRANCH  22  23
ATOM     23  C   UNL     1      -3.691  36.209  40.636  1.00  0.00    -0.000 C 
BRANCH  23  24
ATOM     24  C   UNL     1      -3.350  35.247  41.786  1.00  0.00    -0.000 C 
BRANCH  24  25
ATOM     25  C   UNL     1      -3.359  33.774  41.342  1.00  0.00    -0.000 C 
BRANCH  25  26
ATOM     26  C   UNL     1      -2.113  33.012  41.818  1.00  0.00    -0.000 C 
BRANCH  26  27
ATOM     27  C   UNL     1      -2.502  31.822  42.711  1.00  0.00    -0.000 C 
BRANCH  27  28
ATOM     28  C   UNL     1      -1.888  31.913  44.118  1.00  0.00    -0.000 C 
BRANCH  28  29
ATOM     29  C   UNL     1      -1.308  33.301  44.424  1.00  0.00    -0.003 C 
ATOM     30  C   UNL     1       0.188  33.217  44.716  1.00  0.00     0.004 C 
ENDBRANCH  28  29
ENDBRANCH  27  28
ENDBRANCH  26  27
ENDBRANCH  25  26
ENDBRANCH  24  25
ENDBRANCH  23  24
ENDBRANCH  22  23
ENDBRANCH  21  22
ENDBRANCH  20  21
ENDBRANCH  19  20
ENDBRANCH  18  19
ENDBRANCH  17  18
ENDBRANCH   1  17
TORSDOF 26
ENDMDL
MODEL 8
REMARK VINA RESULT:    -3.231      2.891      5.020
REMARK INTER + INTRA:         -13.242
REMARK INTER:                  -7.957
REMARK INTRA:                  -5.284
REMARK UNBOUND:                -5.098
REMARK SMILES CCCCCCCCCCCCCCCCCCCCCCCCCCCC(=O)[O-]
REMARK SMILES IDX 15 1 16 2 17 3 18 4 19 5 20 6 21 7 22 8 23 9 24 10 25 11
REMARK SMILES IDX 26 12 27 13 28 14 29 15 30 16 14 17 13 18 12 19 11 20 10 21
REMARK SMILES IDX 9 22 8 23 7 24 6 25 5 26 4 27 3 28 2 29 1 30
REMARK H PARENT
REMARK Flexibility Score: inf
ROOT
ATOM      1  C   UNL     1      -6.878  34.097  44.883  1.00  0.00     0.000 C 
ENDROOT
BRANCH   1   2
ATOM      2  C   UNL     1      -5.755  33.528  43.987  1.00  0.00     0.000 C 
BRANCH   2   3
ATOM      3  C   UNL     1      -6.032  33.739  42.490  1.00  0.00     0.000 C 
BRANCH   3   4
ATOM      4  C   UNL     1      -4.751  34.097  41.721  1.00  0.00     0.000 C 
BRANCH   4   5
ATOM      5  C   UNL     1      -4.262  35.504  42.083  1.00  0.00     0.000 C 
BRANCH   5   6
ATOM      6  C   UNL     1      -4.084  36.360  40.821  1.00  0.00     0.000 C 
BRANCH   6   7
ATOM      7  C   UNL     1      -2.768  36.063  40.080  1.00  0.00     0.000 C 
BRANCH   7   8
ATOM      8  C   UNL     1      -1.538  36.034  41.012  1.00  0.00     0.000 C 
BRANCH   8   9
ATOM      9  C   UNL     1      -0.613  34.836  40.726  1.00  0.00     0.000 C 
BRANCH   9  10
ATOM     10  C   UNL     1      -1.145  33.523  41.320  1.00  0.00     0.000 C 
BRANCH  10  11
ATOM     11  C   UNL     1      -1.117  33.513  42.857  1.00  0.00     0.000 C 
BRANCH  11  12
ATOM     12  C   UNL     1      -1.620  32.189  43.458  1.00  0.00     0.006 C 
BRANCH  12  13
ATOM     13  C   UNL     1      -2.475  31.347  42.492  1.00  0.00     0.053 C 
BRANCH  13  14
ATOM     14  C   UNL     1      -2.261  29.874  42.668  1.00  0.00     0.041 C 
ATOM     15  O   UNL     1      -1.509  29.244  41.879  1.00  0.00    -0.550 OA
ATOM     16  O   UNL     1      -2.919  29.190  43.682  1.00  0.00    -0.550 OA
ENDBRANCH  13  14
ENDBRANCH  12  13
ENDBRANCH  11  12
ENDBRANCH  10  11
ENDBRANCH   9  10
ENDBRANCH   8   9
ENDBRANCH   7   8
ENDBRANCH   6   7
ENDBRANCH   5   6
ENDBRANCH   4   5
ENDBRANCH   3   4
ENDBRANCH   2   3
ENDBRANCH   1   2
BRANCH   1  17
ATOM     17  C   UNL     1      -7.290  35.521  44.481  1.00  0.00     0.000 C 
BRANCH  17  18
ATOM     18  C   UNL     1      -7.821  36.320  45.683  1.00  0.00     0.000 C 
BRANCH  18  19
ATOM     19  C   UNL     1      -8.450  37.663  45.258  1.00  0.00     0.000 C 
BRANCH  19  20
ATOM     20  C   UNL     1      -7.843  38.876  45.981  1.00  0.00     0.000 C 
BRANCH  20  21
ATOM     21  C   UNL     1      -7.099  39.827  45.027  1.00  0.00     0.000 C 
BRANCH  21  22
ATOM     22  C   UNL     1      -6.961  39.232  43.609  1.00  0.00    -0.000 C 
BRANCH  22  23
ATOM     23  C   UNL     1      -5.506  38.971  43.184  1.00  0.00    -0.000 C 
BRANCH  23  24
ATOM     24  C   UNL     1      -4.679  38.271  44.274  1.00  0.00    -0.000 C 
BRANCH  24  25
ATOM     25  C   UNL     1      -3.207  38.721  44.277  1.00  0.00    -0.000 C 
BRANCH  25  26
ATOM     26  C   UNL     1      -2.233  37.536  44.354  1.00  0.00    -0.000 C 
BRANCH  26  27
ATOM     27  C   UNL     1      -2.364  36.802  45.699  1.00  0.00    -0.000 C 
BRANCH  27  28
ATOM     28  C   UNL     1      -2.888  35.365  45.541  1.00  0.00    -0.000 C 
BRANCH  28  29
ATOM     29  C   UNL     1      -3.744  34.912  46.732  1.00  0.00    -0.003 C 
ATOM     30  C   UNL     1      -4.523  36.084  47.324  1.00  0.00     0.004 C 
ENDBRANCH  28  29
ENDBRANCH  27  28
ENDBRANCH  26  27
ENDBRANCH  25  26
ENDBRANCH  24  25
ENDBRANCH  23  24
ENDBRANCH  22  23
ENDBRANCH  21  22
ENDBRANCH  20  21
ENDBRANCH  19  20
ENDBRANCH  18  19
ENDBRANCH  17  18
ENDBRANCH   1  17
TORSDOF 26
ENDMDL
MODEL 9
REMARK VINA RESULT:    -3.228      3.386      6.119
REMARK INTER + INTRA:         -13.234
REMARK INTER:                  -7.470
REMARK INTRA:                  -5.765
REMARK UNBOUND:                -5.098
REMARK SMILES CCCCCCCCCCCCCCCCCCCCCCCCCCCC(=O)[O-]
REMARK SMILES IDX 15 1 16 2 17 3 18 4 19 5 20 6 21 7 22 8 23 9 24 10 25 11
REMARK SMILES IDX 26 12 27 13 28 14 29 15 30 16 14 17 13 18 12 19 11 20 10 21
REMARK SMILES IDX 9 22 8 23 7 24 6 25 5 26 4 27 3 28 2 29 1 30
REMARK H PARENT
REMARK Flexibility Score: inf
ROOT
ATOM      1  C   UNL     1      -7.789  39.509  46.035  1.00  0.00     0.000 C 
ENDROOT
BRANCH   1   2
ATOM      2  C   UNL     1      -8.185  38.212  45.292  1.00  0.00     0.000 C 
BRANCH   2   3
ATOM      3  C   UNL     1      -7.389  38.012  43.993  1.00  0.00     0.000 C 
BRANCH   3   4
ATOM      4  C   UNL     1      -6.692  39.308  43.550  1.00  0.00     0.000 C 
BRANCH   4   5
ATOM      5  C   UNL     1      -5.216  39.059  43.219  1.00  0.00     0.000 C 
BRANCH   5   6
ATOM      6  C   UNL     1      -4.931  37.554  43.102  1.00  0.00     0.000 C 
BRANCH   6   7
ATOM      7  C   UNL     1      -3.695  37.247  42.240  1.00  0.00     0.000 C 
BRANCH   7   8
ATOM      8  C   UNL     1      -4.012  36.372  41.008  1.00  0.00     0.000 C 
BRANCH   8   9
ATOM      9  C   UNL     1      -2.915  35.330  40.729  1.00  0.00     0.000 C 
BRANCH   9  10
ATOM     10  C   UNL     1      -1.542  35.753  41.274  1.00  0.00     0.000 C 
BRANCH  10  11
ATOM     11  C   UNL     1      -0.844  34.630  42.058  1.00  0.00     0.000 C 
BRANCH  11  12
ATOM     12  C   UNL     1      -0.966  33.257  41.375  1.00  0.00     0.006 C 
BRANCH  12  13
ATOM     13  C   UNL     1      -1.138  32.082  42.355  1.00  0.00     0.053 C 
BRANCH  13  14
ATOM     14  C   UNL     1       0.144  31.706  43.035  1.00  0.00     0.041 C 
ATOM     15  O   UNL     1       1.070  31.158  42.383  1.00  0.00    -0.550 OA
ATOM     16  O   UNL     1       0.302  31.928  44.397  1.00  0.00    -0.550 OA
ENDBRANCH  13  14
ENDBRANCH  12  13
ENDBRANCH  11  12
ENDBRANCH  10  11
ENDBRANCH   9  10
ENDBRANCH   8   9
ENDBRANCH   7   8
ENDBRANCH   6   7
ENDBRANCH   5   6
ENDBRANCH   4   5
ENDBRANCH   3   4
ENDBRANCH   2   3
ENDBRANCH   1   2
BRANCH   1  17
ATOM     17  C   UNL     1      -6.994  39.234  47.320  1.00  0.00     0.000 C 
BRANCH  17  18
ATOM     18  C   UNL     1      -5.573  38.734  47.014  1.00  0.00     0.000 C 
BRANCH  18  19
ATOM     19  C   UNL     1      -5.262  37.397  47.718  1.00  0.00     0.000 C 
BRANCH  19  20
ATOM     20  C   UNL     1      -5.326  36.183  46.778  1.00  0.00     0.000 C 
BRANCH  20  21
ATOM     21  C   UNL     1      -6.574  35.314  47.010  1.00  0.00     0.000 C 
BRANCH  21  22
ATOM     22  C   UNL     1      -6.243  33.807  46.972  1.00  0.00    -0.000 C 
BRANCH  22  23
ATOM     23  C   UNL     1      -7.125  33.001  46.001  1.00  0.00    -0.000 C 
BRANCH  23  24
ATOM     24  C   UNL     1      -8.095  33.884  45.200  1.00  0.00    -0.000 C 
BRANCH  24  25
ATOM     25  C   UNL     1      -7.844  33.808  43.684  1.00  0.00    -0.000 C 
BRANCH  25  26
ATOM     26  C   UNL     1      -6.506  34.444  43.279  1.00  0.00    -0.000 C 
BRANCH  26  27
ATOM     27  C   UNL     1      -5.572  33.403  42.640  1.00  0.00    -0.000 C 
BRANCH  27  28
ATOM     28  C   UNL     1      -4.400  33.017  43.558  1.00  0.00    -0.000 C 
BRANCH  28  29
ATOM     29  C   UNL     1      -3.757  34.232  44.242  1.00  0.00    -0.003 C 
ATOM     30  C   UNL     1      -2.641  33.799  45.189  1.00  0.00     0.004 C 
ENDBRANCH  28  29
ENDBRANCH  27  28
ENDBRANCH  26  27
ENDBRANCH  25  26
ENDBRANCH  24  25
ENDBRANCH  23  24
ENDBRANCH  22  23
ENDBRANCH  21  22
ENDBRANCH  20  21
ENDBRANCH  19  20
ENDBRANCH  18  19
ENDBRANCH  17  18
ENDBRANCH   1  17
TORSDOF 26
ENDMDL
