MODEL 1
REMARK VINA RESULT:    -3.594      0.000      0.000
REMARK INTER + INTRA:          -8.961
REMARK INTER:                  -6.535
REMARK INTRA:                  -2.426
REMARK UNBOUND:                -2.426
REMARK SMILES CCCCCCCCCCCCCCCC(=O)[O-]
REMARK SMILES IDX 9 1 10 2 11 3 12 4 13 5 14 6 15 7 16 8 17 9 18 10 8 11 7 12
REMARK SMILES IDX 6 13 5 14 4 15 3 16 2 17 1 18
REMARK H PARENT
REMARK Flexibility Score: inf
ROOT
ATOM      1  C   UNL     1       1.978 125.689 114.069  1.00  0.00     0.000 C 
ENDROOT
BRANCH   1   2
ATOM      2  C   UNL     1       1.527 125.273 112.653  1.00  0.00     0.000 C 
BRANCH   2   3
ATOM      3  C   UNL     1       2.311 125.927 111.502  1.00  0.00     0.000 C 
BRANCH   3   4
ATOM      4  C   UNL     1       3.072 124.903 110.643  1.00  0.00     0.000 C 
BRANCH   4   5
ATOM      5  C   UNL     1       4.390 125.468 110.088  1.00  0.00     0.000 C 
BRANCH   5   6
ATOM      6  C   UNL     1       5.495 125.557 111.155  1.00  0.00     0.006 C 
BRANCH   6   7
ATOM      7  C   UNL     1       6.859 125.110 110.613  1.00  0.00     0.053 C 
BRANCH   7   8
ATOM      8  C   UNL     1       7.318 123.836 111.252  1.00  0.00     0.041 C 
ATOM      9  O   UNL     1       8.240 123.852 112.109  1.00  0.00    -0.550 OA
ATOM     10  O   UNL     1       6.750 122.624 110.875  1.00  0.00    -0.550 OA
ENDBRANCH   7   8
ENDBRANCH   6   7
ENDBRANCH   5   6
ENDBRANCH   4   5
ENDBRANCH   3   4
ENDBRANCH   2   3
ENDBRANCH   1   2
BRANCH   1  11
ATOM     11  C   UNL     1       3.508 125.682 114.261  1.00  0.00     0.000 C 
BRANCH  11  12
ATOM     12  C   UNL     1       4.003 124.383 114.924  1.00  0.00    -0.000 C 
BRANCH  12  13
ATOM     13  C   UNL     1       4.873 123.535 113.984  1.00  0.00    -0.000 C 
BRANCH  13  14
ATOM     14  C   UNL     1       4.066 122.433 113.274  1.00  0.00    -0.000 C 
BRANCH  14  15
ATOM     15  C   UNL     1       3.748 121.246 114.197  1.00  0.00    -0.000 C 
BRANCH  15  16
ATOM     16  C   UNL     1       2.322 120.712 114.004  1.00  0.00    -0.000 C 
BRANCH  16  17
ATOM     17  C   UNL     1       1.306 121.860 113.977  1.00  0.00    -0.003 C 
ATOM     18  C   UNL     1       0.952 122.318 115.389  1.00  0.00     0.004 C 
ENDBRANCH  16  17
ENDBRANCH  15  16
ENDBRANCH  14  15
ENDBRANCH  13  14
ENDBRANCH  12  13
ENDBRANCH  11  12
ENDBRANCH   1  11
TORSDOF 14
ENDMDL
MODEL 2
REMARK VINA RESULT:    -3.554      2.390      4.579
REMARK INTER + INTRA:          -8.888
REMARK INTER:                  -6.531
REMARK INTRA:                  -2.357
REMARK UNBOUND:                -2.426
REMARK SMILES CCCCCCCCCCCCCCCC(=O)[O-]
REMARK SMILES IDX 9 1 10 2 11 3 12 4 13 5 14 6 15 7 16 8 17 9 18 10 8 11 7 12
REMARK SMILES IDX 6 13 5 14 4 15 3 16 2 17 1 18
REMARK H PARENT
REMARK Flexibility Score: inf
ROOT
ATOM      1  C   UNL     1       1.151 127.255 111.976  1.00  0.00     0.000 C 
ENDROOT
BRANCH   1   2
ATOM      2  C   UNL     1       1.989 125.962 111.894  1.00  0.00     0.000 C 
BRANCH   2   3
ATOM      3  C   UNL     1       2.842 125.819 110.621  1.00  0.00     0.000 C 
BRANCH   3   4
ATOM      4  C   UNL     1       4.136 125.021 110.858  1.00  0.00     0.000 C 
BRANCH   4   5
ATOM      5  C   UNL     1       3.933 123.852 111.835  1.00  0.00     0.000 C 
BRANCH   5   6
ATOM      6  C   UNL     1       5.244 123.398 112.500  1.00  0.00     0.006 C 
BRANCH   6   7
ATOM      7  C   UNL     1       6.407 123.333 111.500  1.00  0.00     0.053 C 
BRANCH   7   8
ATOM      8  C   UNL     1       7.663 123.913 112.074  1.00  0.00     0.041 C 
ATOM      9  O   UNL     1       8.436 123.196 112.762  1.00  0.00    -0.550 OA
ATOM     10  O   UNL     1       7.962 125.256 111.876  1.00  0.00    -0.550 OA
ENDBRANCH   7   8
ENDBRANCH   6   7
ENDBRANCH   5   6
ENDBRANCH   4   5
ENDBRANCH   3   4
ENDBRANCH   2   3
ENDBRANCH   1   2
BRANCH   1  11
ATOM     11  C   UNL     1       1.281 127.996 113.323  1.00  0.00     0.000 C 
BRANCH  11  12
ATOM     12  C   UNL     1       1.840 129.421 113.148  1.00  0.00    -0.000 C 
BRANCH  12  13
ATOM     13  C   UNL     1       3.106 129.454 112.277  1.00  0.00    -0.000 C 
BRANCH  13  14
ATOM     14  C   UNL     1       4.288 130.135 112.991  1.00  0.00    -0.000 C 
BRANCH  14  15
ATOM     15  C   UNL     1       5.185 129.132 113.735  1.00  0.00    -0.000 C 
BRANCH  15  16
ATOM     16  C   UNL     1       5.284 127.780 113.015  1.00  0.00    -0.000 C 
BRANCH  16  17
ATOM     17  C   UNL     1       5.342 126.625 114.021  1.00  0.00    -0.003 C 
ATOM     18  C   UNL     1       4.241 126.750 115.070  1.00  0.00     0.004 C 
ENDBRANCH  16  17
ENDBRANCH  15  16
ENDBRANCH  14  15
ENDBRANCH  13  14
ENDBRANCH  12  13
ENDBRANCH  11  12
ENDBRANCH   1  11
TORSDOF 14
ENDMDL
MODEL 3
REMARK VINA RESULT:    -3.539      2.236      4.391
REMARK INTER + INTRA:          -8.862
REMARK INTER:                  -6.463
REMARK INTRA:                  -2.399
REMARK UNBOUND:                -2.426
REMARK SMILES CCCCCCCCCCCCCCCC(=O)[O-]
REMARK SMILES IDX 9 1 10 2 11 3 12 4 13 5 14 6 15 7 16 8 17 9 18 10 8 11 7 12
REMARK SMILES IDX 6 13 5 14 4 15 3 16 2 17 1 18
REMARK H PARENT
REMARK Flexibility Score: inf
ROOT
ATOM      1  C   UNL     1       1.891 126.223 114.208  1.00  0.00     0.000 C 
ENDROOT
BRANCH   1   2
ATOM      2  C   UNL     1       1.379 125.610 112.888  1.00  0.00     0.000 C 
BRANCH   2   3
ATOM      3  C   UNL     1       2.301 124.548 112.263  1.00  0.00     0.000 C 
BRANCH   3   4
ATOM      4  C   UNL     1       2.857 124.974 110.893  1.00  0.00     0.000 C 
BRANCH   4   5
ATOM      5  C   UNL     1       4.308 125.471 110.978  1.00  0.00     0.000 C 
BRANCH   5   6
ATOM      6  C   UNL     1       5.255 124.436 111.610  1.00  0.00     0.006 C 
BRANCH   6   7
ATOM      7  C   UNL     1       6.450 124.116 110.702  1.00  0.00     0.053 C 
BRANCH   7   8
ATOM      8  C   UNL     1       7.714 123.948 111.489  1.00  0.00     0.041 C 
ATOM      9  O   UNL     1       7.748 123.168 112.476  1.00  0.00    -0.550 OA
ATOM     10  O   UNL     1       8.845 124.683 111.152  1.00  0.00    -0.550 OA
ENDBRANCH   7   8
ENDBRANCH   6   7
ENDBRANCH   5   6
ENDBRANCH   4   5
ENDBRANCH   3   4
ENDBRANCH   2   3
ENDBRANCH   1   2
BRANCH   1  11
ATOM     11  C   UNL     1       3.254 125.665 114.665  1.00  0.00     0.000 C 
BRANCH  11  12
ATOM     12  C   UNL     1       4.392 126.684 114.469  1.00  0.00    -0.000 C 
BRANCH  12  13
ATOM     13  C   UNL     1       3.871 128.108 114.219  1.00  0.00    -0.000 C 
BRANCH  13  14
ATOM     14  C   UNL     1       4.620 128.812 113.072  1.00  0.00    -0.000 C 
BRANCH  14  15
ATOM     15  C   UNL     1       3.681 129.623 112.165  1.00  0.00    -0.000 C 
BRANCH  15  16
ATOM     16  C   UNL     1       2.735 128.734 111.346  1.00  0.00    -0.000 C 
BRANCH  16  17
ATOM     17  C   UNL     1       1.270 129.082 111.631  1.00  0.00    -0.003 C 
ATOM     18  C   UNL     1       0.330 128.317 110.703  1.00  0.00     0.004 C 
ENDBRANCH  16  17
ENDBRANCH  15  16
ENDBRANCH  14  15
ENDBRANCH  13  14
ENDBRANCH  12  13
ENDBRANCH  11  12
ENDBRANCH   1  11
TORSDOF 14
ENDMDL
MODEL 4
REMARK VINA RESULT:    -3.443      3.501      5.160
REMARK INTER + INTRA:          -8.687
REMARK INTER:                  -6.476
REMARK INTRA:                  -2.211
REMARK UNBOUND:                -2.426
REMARK SMILES CCCCCCCCCCCCCCCC(=O)[O-]
REMARK SMILES IDX 9 1 10 2 11 3 12 4 13 5 14 6 15 7 16 8 17 9 18 10 8 11 7 12
REMARK SMILES IDX 6 13 5 14 4 15 3 16 2 17 1 18
REMARK H PARENT
REMARK Flexibility Score: inf
ROOT
ATOM      1  C   UNL     1       3.334 123.868 114.335  1.00  0.00     0.000 C 
ENDROOT
BRANCH   1   2
ATOM      2  C   UNL     1       4.088 124.953 115.131  1.00  0.00     0.000 C 
BRANCH   2   3
ATOM      3  C   UNL     1       4.008 126.370 114.536  1.00  0.00     0.000 C 
BRANCH   3   4
ATOM      4  C   UNL     1       5.393 126.969 114.238  1.00  0.00     0.000 C 
BRANCH   4   5
ATOM      5  C   UNL     1       5.361 127.964 113.067  1.00  0.00     0.000 C 
BRANCH   5   6
ATOM      6  C   UNL     1       5.333 129.430 113.532  1.00  0.00     0.006 C 
BRANCH   6   7
ATOM      7  C   UNL     1       6.062 129.627 114.868  1.00  0.00     0.053 C 
BRANCH   7   8
ATOM      8  C   UNL     1       7.239 130.541 114.727  1.00  0.00     0.041 C 
ATOM      9  O   UNL     1       7.618 131.243 115.700  1.00  0.00    -0.550 OA
ATOM     10  O   UNL     1       7.897 130.645 113.506  1.00  0.00    -0.550 OA
ENDBRANCH   7   8
ENDBRANCH   6   7
ENDBRANCH   5   6
ENDBRANCH   4   5
ENDBRANCH   3   4
ENDBRANCH   2   3
ENDBRANCH   1   2
BRANCH   1  11
ATOM     11  C   UNL     1       4.239 122.724 113.831  1.00  0.00     0.000 C 
BRANCH  11  12
ATOM     12  C   UNL     1       5.450 123.251 113.040  1.00  0.00    -0.000 C 
BRANCH  12  13
ATOM     13  C   UNL     1       5.140 123.447 111.548  1.00  0.00    -0.000 C 
BRANCH  13  14
ATOM     14  C   UNL     1       5.219 124.925 111.123  1.00  0.00    -0.000 C 
BRANCH  14  15
ATOM     15  C   UNL     1       4.045 125.345 110.224  1.00  0.00    -0.000 C 
BRANCH  15  16
ATOM     16  C   UNL     1       2.686 125.211 110.927  1.00  0.00    -0.000 C 
BRANCH  16  17
ATOM     17  C   UNL     1       2.136 126.586 111.322  1.00  0.00    -0.003 C 
ATOM     18  C   UNL     1       1.134 126.473 112.468  1.00  0.00     0.004 C 
ENDBRANCH  16  17
ENDBRANCH  15  16
ENDBRANCH  14  15
ENDBRANCH  13  14
ENDBRANCH  12  13
ENDBRANCH  11  12
ENDBRANCH   1  11
TORSDOF 14
ENDMDL
MODEL 5
REMARK VINA RESULT:    -3.429      3.332      5.853
REMARK INTER + INTRA:          -8.661
REMARK INTER:                  -6.927
REMARK INTRA:                  -1.734
REMARK UNBOUND:                -2.426
REMARK SMILES CCCCCCCCCCCCCCCC(=O)[O-]
REMARK SMILES IDX 9 1 10 2 11 3 12 4 13 5 14 6 15 7 16 8 17 9 18 10 8 11 7 12
REMARK SMILES IDX 6 13 5 14 4 15 3 16 2 17 1 18
REMARK H PARENT
REMARK Flexibility Score: inf
ROOT
ATOM      1  C   UNL     1       4.170 125.091 111.106  1.00  0.00     0.000 C 
ENDROOT
BRANCH   1   2
ATOM      2  C   UNL     1       2.633 125.027 110.995  1.00  0.00     0.000 C 
BRANCH   2   3
ATOM      3  C   UNL     1       1.874 126.026 111.887  1.00  0.00     0.000 C 
BRANCH   3   4
ATOM      4  C   UNL     1       2.342 125.990 113.352  1.00  0.00     0.000 C 
BRANCH   4   5
ATOM      5  C   UNL     1       2.727 127.382 113.878  1.00  0.00     0.000 C 
BRANCH   5   6
ATOM      6  C   UNL     1       4.213 127.481 114.265  1.00  0.00     0.006 C 
BRANCH   6   7
ATOM      7  C   UNL     1       5.029 128.264 113.228  1.00  0.00     0.053 C 
BRANCH   7   8
ATOM      8  C   UNL     1       5.611 129.515 113.810  1.00  0.00     0.041 C 
ATOM      9  O   UNL     1       5.089 130.634 113.560  1.00  0.00    -0.550 OA
ATOM     10  O   UNL     1       6.751 129.449 114.603  1.00  0.00    -0.550 OA
ENDBRANCH   7   8
ENDBRANCH   6   7
ENDBRANCH   5   6
ENDBRANCH   4   5
ENDBRANCH   3   4
ENDBRANCH   2   3
ENDBRANCH   1   2
BRANCH   1  11
ATOM     11  C   UNL     1       4.802 123.828 111.726  1.00  0.00     0.000 C 
BRANCH  11  12
ATOM     12  C   UNL     1       5.865 124.173 112.787  1.00  0.00    -0.000 C 
BRANCH  12  13
ATOM     13  C   UNL     1       6.955 125.111 112.246  1.00  0.00    -0.000 C 
BRANCH  13  14
ATOM     14  C   UNL     1       8.154 124.339 111.664  1.00  0.00    -0.000 C 
BRANCH  14  15
ATOM     15  C   UNL     1       8.583 124.867 110.285  1.00  0.00    -0.000 C 
BRANCH  15  16
ATOM     16  C   UNL     1       7.387 125.234 109.395  1.00  0.00    -0.000 C 
BRANCH  16  17
ATOM     17  C   UNL     1       7.360 124.370 108.130  1.00  0.00    -0.003 C 
ATOM     18  C   UNL     1       7.540 125.220 106.875  1.00  0.00     0.004 C 
ENDBRANCH  16  17
ENDBRANCH  15  16
ENDBRANCH  14  15
ENDBRANCH  13  14
ENDBRANCH  12  13
ENDBRANCH  11  12
ENDBRANCH   1  11
TORSDOF 14
ENDMDL
MODEL 6
REMARK VINA RESULT:    -3.394      3.500      5.286
REMARK INTER + INTRA:          -8.598
REMARK INTER:                  -6.370
REMARK INTRA:                  -2.228
REMARK UNBOUND:                -2.426
REMARK SMILES CCCCCCCCCCCCCCCC(=O)[O-]
REMARK SMILES IDX 9 1 10 2 11 3 12 4 13 5 14 6 15 7 16 8 17 9 18 10 8 11 7 12
REMARK SMILES IDX 6 13 5 14 4 15 3 16 2 17 1 18
REMARK H PARENT
REMARK Flexibility Score: inf
ROOT
ATOM      1  C   UNL     1       6.230 126.267 112.424  1.00  0.00     0.000 C 
ENDROOT
BRANCH   1   2
ATOM      2  C   UNL     1       6.108 125.843 113.903  1.00  0.00     0.000 C 
BRANCH   2   3
ATOM      3  C   UNL     1       5.449 126.883 114.826  1.00  0.00     0.000 C 
BRANCH   3   4
ATOM      4  C   UNL     1       4.032 127.271 114.368  1.00  0.00     0.000 C 
BRANCH   4   5
ATOM      5  C   UNL     1       3.910 128.769 114.046  1.00  0.00     0.000 C 
BRANCH   5   6
ATOM      6  C   UNL     1       5.028 129.609 114.689  1.00  0.00     0.006 C 
BRANCH   6   7
ATOM      7  C   UNL     1       5.760 130.480 113.659  1.00  0.00     0.053 C 
BRANCH   7   8
ATOM      8  C   UNL     1       7.239 130.492 113.897  1.00  0.00     0.041 C 
ATOM      9  O   UNL     1       8.037 130.588 112.928  1.00  0.00    -0.550 OA
ATOM     10  O   UNL     1       7.737 130.363 115.188  1.00  0.00    -0.550 OA
ENDBRANCH   7   8
ENDBRANCH   6   7
ENDBRANCH   5   6
ENDBRANCH   4   5
ENDBRANCH   3   4
ENDBRANCH   2   3
ENDBRANCH   1   2
BRANCH   1  11
ATOM     11  C   UNL     1       6.791 125.162 111.505  1.00  0.00     0.000 C 
BRANCH  11  12
ATOM     12  C   UNL     1       6.653 123.762 112.131  1.00  0.00    -0.000 C 
BRANCH  12  13
ATOM     13  C   UNL     1       5.371 123.041 111.687  1.00  0.00    -0.000 C 
BRANCH  13  14
ATOM     14  C   UNL     1       4.344 122.917 112.827  1.00  0.00    -0.000 C 
BRANCH  14  15
ATOM     15  C   UNL     1       3.230 123.972 112.736  1.00  0.00    -0.000 C 
BRANCH  15  16
ATOM     16  C   UNL     1       3.098 124.571 111.328  1.00  0.00    -0.000 C 
BRANCH  16  17
ATOM     17  C   UNL     1       2.254 125.851 111.354  1.00  0.00    -0.003 C 
ATOM     18  C   UNL     1       2.994 127.014 110.699  1.00  0.00     0.004 C 
ENDBRANCH  16  17
ENDBRANCH  15  16
ENDBRANCH  14  15
ENDBRANCH  13  14
ENDBRANCH  12  13
ENDBRANCH  11  12
ENDBRANCH   1  11
TORSDOF 14
ENDMDL
MODEL 7
REMARK VINA RESULT:    -3.387      2.036      4.865
REMARK INTER + INTRA:          -8.585
REMARK INTER:                  -6.373
REMARK INTRA:                  -2.212
REMARK UNBOUND:                -2.426
REMARK SMILES CCCCCCCCCCCCCCCC(=O)[O-]
REMARK SMILES IDX 9 1 10 2 11 3 12 4 13 5 14 6 15 7 16 8 17 9 18 10 8 11 7 12
REMARK SMILES IDX 6 13 5 14 4 15 3 16 2 17 1 18
REMARK H PARENT
REMARK Flexibility Score: inf
ROOT
ATOM      1  C   UNL     1       1.788 125.609 112.308  1.00  0.00     0.000 C 
ENDROOT
BRANCH   1   2
ATOM      2  C   UNL     1       1.474 124.175 112.780  1.00  0.00     0.000 C 
BRANCH   2   3
ATOM      3  C   UNL     1       2.256 123.714 114.023  1.00  0.00     0.000 C 
BRANCH   3   4
ATOM      4  C   UNL     1       3.258 122.588 113.713  1.00  0.00     0.000 C 
BRANCH   4   5
ATOM      5  C   UNL     1       4.678 123.120 113.467  1.00  0.00     0.000 C 
BRANCH   5   6
ATOM      6  C   UNL     1       5.090 123.054 111.986  1.00  0.00     0.006 C 
BRANCH   6   7
ATOM      7  C   UNL     1       5.925 124.271 111.564  1.00  0.00     0.053 C 
BRANCH   7   8
ATOM      8  C   UNL     1       7.326 123.882 111.204  1.00  0.00     0.041 C 
ATOM      9  O   UNL     1       7.694 123.881 110.000  1.00  0.00    -0.550 OA
ATOM     10  O   UNL     1       8.215 123.488 112.196  1.00  0.00    -0.550 OA
ENDBRANCH   7   8
ENDBRANCH   6   7
ENDBRANCH   5   6
ENDBRANCH   4   5
ENDBRANCH   3   4
ENDBRANCH   2   3
ENDBRANCH   1   2
BRANCH   1  11
ATOM     11  C   UNL     1       2.560 125.670 110.973  1.00  0.00     0.000 C 
BRANCH  11  12
ATOM     12  C   UNL     1       2.372 127.020 110.257  1.00  0.00    -0.000 C 
BRANCH  12  13
ATOM     13  C   UNL     1       1.899 128.131 111.207  1.00  0.00    -0.000 C 
BRANCH  13  14
ATOM     14  C   UNL     1       2.979 129.205 111.435  1.00  0.00    -0.000 C 
BRANCH  14  15
ATOM     15  C   UNL     1       3.369 129.345 112.916  1.00  0.00    -0.000 C 
BRANCH  15  16
ATOM     16  C   UNL     1       4.866 129.102 113.158  1.00  0.00    -0.000 C 
BRANCH  16  17
ATOM     17  C   UNL     1       5.196 127.607 113.098  1.00  0.00    -0.003 C 
ATOM     18  C   UNL     1       4.518 126.845 114.233  1.00  0.00     0.004 C 
ENDBRANCH  16  17
ENDBRANCH  15  16
ENDBRANCH  14  15
ENDBRANCH  13  14
ENDBRANCH  12  13
ENDBRANCH  11  12
ENDBRANCH   1  11
TORSDOF 14
ENDMDL
MODEL 8
REMARK VINA RESULT:    -3.368      3.875      5.734
REMARK INTER + INTRA:          -8.551
REMARK INTER:                  -7.092
REMARK INTRA:                  -1.458
REMARK UNBOUND:                -2.426
REMARK SMILES CCCCCCCCCCCCCCCC(=O)[O-]
REMARK SMILES IDX 9 1 10 2 11 3 12 4 13 5 14 6 15 7 16 8 17 9 18 10 8 11 7 12
REMARK SMILES IDX 6 13 5 14 4 15 3 16 2 17 1 18
REMARK H PARENT
REMARK Flexibility Score: inf
ROOT
ATOM      1  C   UNL     1       1.921 127.128 110.583  1.00  0.00     0.000 C 
ENDROOT
BRANCH   1   2
ATOM      2  C   UNL     1       2.309 128.609 110.774  1.00  0.00     0.000 C 
BRANCH   2   3
ATOM      3  C   UNL     1       2.490 129.051 112.236  1.00  0.00     0.000 C 
BRANCH   3   4
ATOM      4  C   UNL     1       3.850 129.724 112.491  1.00  0.00     0.000 C 
BRANCH   4   5
ATOM      5  C   UNL     1       4.859 128.774 113.155  1.00  0.00     0.000 C 
BRANCH   5   6
ATOM      6  C   UNL     1       5.309 129.261 114.544  1.00  0.00     0.006 C 
BRANCH   6   7
ATOM      7  C   UNL     1       5.735 130.735 114.530  1.00  0.00     0.053 C 
BRANCH   7   8
ATOM      8  C   UNL     1       7.221 130.883 114.639  1.00  0.00     0.041 C 
ATOM      9  O   UNL     1       7.960 130.610 113.657  1.00  0.00    -0.550 OA
ATOM     10  O   UNL     1       7.793 131.288 115.839  1.00  0.00    -0.550 OA
ENDBRANCH   7   8
ENDBRANCH   6   7
ENDBRANCH   5   6
ENDBRANCH   4   5
ENDBRANCH   3   4
ENDBRANCH   2   3
ENDBRANCH   1   2
BRANCH   1  11
ATOM     11  C   UNL     1       3.114 126.211 110.244  1.00  0.00     0.000 C 
BRANCH  11  12
ATOM     12  C   UNL     1       3.121 124.930 111.099  1.00  0.00    -0.000 C 
BRANCH  12  13
ATOM     13  C   UNL     1       3.616 125.180 112.532  1.00  0.00    -0.000 C 
BRANCH  13  14
ATOM     14  C   UNL     1       4.999 124.556 112.790  1.00  0.00    -0.000 C 
BRANCH  14  15
ATOM     15  C   UNL     1       5.241 123.290 111.953  1.00  0.00    -0.000 C 
BRANCH  15  16
ATOM     16  C   UNL     1       6.614 123.290 111.265  1.00  0.00    -0.000 C 
BRANCH  16  17
ATOM     17  C   UNL     1       7.322 124.636 111.454  1.00  0.00    -0.003 C 
ATOM     18  C   UNL     1       7.694 125.258 110.110  1.00  0.00     0.004 C 
ENDBRANCH  16  17
ENDBRANCH  15  16
ENDBRANCH  14  15
ENDBRANCH  13  14
ENDBRANCH  12  13
ENDBRANCH  11  12
ENDBRANCH   1  11
TORSDOF 14
ENDMDL
MODEL 9
REMARK VINA RESULT:    -3.360      1.825      3.458
REMARK INTER + INTRA:          -8.536
REMARK INTER:                  -6.288
REMARK INTRA:                  -2.248
REMARK UNBOUND:                -2.426
REMARK SMILES CCCCCCCCCCCCCCCC(=O)[O-]
REMARK SMILES IDX 9 1 10 2 11 3 12 4 13 5 14 6 15 7 16 8 17 9 18 10 8 11 7 12
REMARK SMILES IDX 6 13 5 14 4 15 3 16 2 17 1 18
REMARK H PARENT
REMARK Flexibility Score: inf
ROOT
ATOM      1  C   UNL     1       2.668 128.302 110.230  1.00  0.00     0.000 C 
ENDROOT
BRANCH   1   2
ATOM      2  C   UNL     1       1.695 127.175 110.633  1.00  0.00     0.000 C 
BRANCH   2   3
ATOM      3  C   UNL     1       2.344 125.794 110.833  1.00  0.00     0.000 C 
BRANCH   3   4
ATOM      4  C   UNL     1       3.831 125.774 110.439  1.00  0.00     0.000 C 
BRANCH   4   5
ATOM      5  C   UNL     1       4.676 124.903 111.383  1.00  0.00     0.000 C 
BRANCH   5   6
ATOM      6  C   UNL     1       5.820 125.686 112.051  1.00  0.00     0.006 C 
BRANCH   6   7
ATOM      7  C   UNL     1       7.133 125.572 111.265  1.00  0.00     0.053 C 
BRANCH   7   8
ATOM      8  C   UNL     1       7.812 124.259 111.509  1.00  0.00     0.041 C 
ATOM      9  O   UNL     1       7.500 123.247 110.829  1.00  0.00    -0.550 OA
ATOM     10  O   UNL     1       8.766 124.146 112.514  1.00  0.00    -0.550 OA
ENDBRANCH   7   8
ENDBRANCH   6   7
ENDBRANCH   5   6
ENDBRANCH   4   5
ENDBRANCH   3   4
ENDBRANCH   2   3
ENDBRANCH   1   2
BRANCH   1  11
ATOM     11  C   UNL     1       2.892 129.355 111.334  1.00  0.00     0.000 C 
BRANCH  11  12
ATOM     12  C   UNL     1       3.852 128.852 112.428  1.00  0.00    -0.000 C 
BRANCH  12  13
ATOM     13  C   UNL     1       3.147 128.633 113.776  1.00  0.00    -0.000 C 
BRANCH  13  14
ATOM     14  C   UNL     1       3.141 127.152 114.198  1.00  0.00    -0.000 C 
BRANCH  14  15
ATOM     15  C   UNL     1       1.720 126.599 114.391  1.00  0.00    -0.000 C 
BRANCH  15  16
ATOM     16  C   UNL     1       1.709 125.215 115.054  1.00  0.00    -0.000 C 
BRANCH  16  17
ATOM     17  C   UNL     1       2.232 124.142 114.093  1.00  0.00    -0.003 C 
ATOM     18  C   UNL     1       1.086 123.459 113.350  1.00  0.00     0.004 C 
ENDBRANCH  16  17
ENDBRANCH  15  16
ENDBRANCH  14  15
ENDBRANCH  13  14
ENDBRANCH  12  13
ENDBRANCH  11  12
ENDBRANCH   1  11
TORSDOF 14
ENDMDL
