MODEL 1
REMARK VINA RESULT:    -1.116      0.000      0.000
REMARK INTER + INTRA:          -3.965
REMARK INTER:                  -2.029
REMARK INTRA:                  -1.936
REMARK UNBOUND:                -1.936
REMARK SMILES CCCCCCCCCCCCCCCC(=O)[O-]
REMARK SMILES IDX 9 1 10 2 11 3 12 4 13 5 14 6 15 7 16 8 17 9 18 10 8 11 7 12
REMARK SMILES IDX 6 13 5 14 4 15 3 16 2 17 1 18
REMARK H PARENT
REMARK Flexibility Score: inf
ROOT
ATOM      1  C   UNL     1       4.003  -9.628   6.435  1.00  0.00     0.000 C 
ENDROOT
BRANCH   1   2
ATOM      2  C   UNL     1       5.426 -10.123   6.124  1.00  0.00     0.000 C 
BRANCH   2   3
ATOM      3  C   UNL     1       6.388  -8.969   5.798  1.00  0.00     0.000 C 
BRANCH   3   4
ATOM      4  C   UNL     1       5.650  -7.639   5.553  1.00  0.00     0.000 C 
BRANCH   4   5
ATOM      5  C   UNL     1       6.073  -6.540   6.540  1.00  0.00     0.000 C 
BRANCH   5   6
ATOM      6  C   UNL     1       5.676  -5.132   6.060  1.00  0.00     0.006 C 
BRANCH   6   7
ATOM      7  C   UNL     1       5.245  -5.119   4.588  1.00  0.00     0.053 C 
BRANCH   7   8
ATOM      8  C   UNL     1       4.999  -3.728   4.089  1.00  0.00     0.041 C 
ATOM      9  O   UNL     1       5.936  -2.887   4.074  1.00  0.00    -0.550 OA
ATOM     10  O   UNL     1       3.732  -3.356   3.657  1.00  0.00    -0.550 OA
ENDBRANCH   7   8
ENDBRANCH   6   7
ENDBRANCH   5   6
ENDBRANCH   4   5
ENDBRANCH   3   4
ENDBRANCH   2   3
ENDBRANCH   1   2
BRANCH   1  11
ATOM     11  C   UNL     1       3.582  -9.894   7.892  1.00  0.00     0.000 C 
BRANCH  11  12
ATOM     12  C   UNL     1       3.865  -8.740   8.875  1.00  0.00    -0.000 C 
BRANCH  12  13
ATOM     13  C   UNL     1       5.267  -8.757   9.515  1.00  0.00    -0.000 C 
BRANCH  13  14
ATOM     14  C   UNL     1       5.988 -10.120   9.472  1.00  0.00    -0.000 C 
BRANCH  14  15
ATOM     15  C   UNL     1       7.497 -10.063   9.768  1.00  0.00    -0.000 C 
BRANCH  15  16
ATOM     16  C   UNL     1       8.357 -10.065   8.493  1.00  0.00    -0.000 C 
BRANCH  16  17
ATOM     17  C   UNL     1       9.325  -8.872   8.431  1.00  0.00    -0.003 C 
ATOM     18  C   UNL     1       8.730  -7.597   9.029  1.00  0.00     0.004 C 
ENDBRANCH  16  17
ENDBRANCH  15  16
ENDBRANCH  14  15
ENDBRANCH  13  14
ENDBRANCH  12  13
ENDBRANCH  11  12
ENDBRANCH   1  11
TORSDOF 14
ENDMDL
MODEL 2
REMARK VINA RESULT:    -1.095      2.963      5.979
REMARK INTER + INTRA:          -3.928
REMARK INTER:                  -2.710
REMARK INTRA:                  -1.218
REMARK UNBOUND:                -1.936
REMARK SMILES CCCCCCCCCCCCCCCC(=O)[O-]
REMARK SMILES IDX 9 1 10 2 11 3 12 4 13 5 14 6 15 7 16 8 17 9 18 10 8 11 7 12
REMARK SMILES IDX 6 13 5 14 4 15 3 16 2 17 1 18
REMARK H PARENT
REMARK Flexibility Score: inf
ROOT
ATOM      1  C   UNL     1       6.309  -9.996   4.916  1.00  0.00     0.000 C 
ENDROOT
BRANCH   1   2
ATOM      2  C   UNL     1       7.838 -10.107   5.044  1.00  0.00     0.000 C 
BRANCH   2   3
ATOM      3  C   UNL     1       8.374  -9.390   6.294  1.00  0.00     0.000 C 
BRANCH   3   4
ATOM      4  C   UNL     1       9.841  -9.749   6.594  1.00  0.00     0.000 C 
BRANCH   4   5
ATOM      5  C   UNL     1      10.125  -9.862   8.101  1.00  0.00     0.000 C 
BRANCH   5   6
ATOM      6  C   UNL     1       9.904  -8.532   8.843  1.00  0.00     0.006 C 
BRANCH   6   7
ATOM      7  C   UNL     1       9.079  -8.711  10.125  1.00  0.00     0.053 C 
BRANCH   7   8
ATOM      8  C   UNL     1       7.615  -8.512   9.879  1.00  0.00     0.041 C 
ATOM      9  O   UNL     1       7.142  -7.350   9.777  1.00  0.00    -0.550 OA
ATOM     10  O   UNL     1       6.769  -9.611   9.778  1.00  0.00    -0.550 OA
ENDBRANCH   7   8
ENDBRANCH   6   7
ENDBRANCH   5   6
ENDBRANCH   4   5
ENDBRANCH   3   4
ENDBRANCH   2   3
ENDBRANCH   1   2
BRANCH   1  11
ATOM     11  C   UNL     1       5.590 -10.032   6.276  1.00  0.00     0.000 C 
BRANCH  11  12
ATOM     12  C   UNL     1       4.703  -8.807   6.579  1.00  0.00    -0.000 C 
BRANCH  12  13
ATOM     13  C   UNL     1       5.121  -7.506   5.866  1.00  0.00    -0.000 C 
BRANCH  13  14
ATOM     14  C   UNL     1       5.743  -6.431   6.782  1.00  0.00    -0.000 C 
BRANCH  14  15
ATOM     15  C   UNL     1       5.907  -5.045   6.133  1.00  0.00    -0.000 C 
BRANCH  15  16
ATOM     16  C   UNL     1       5.436  -5.010   4.670  1.00  0.00    -0.000 C 
BRANCH  16  17
ATOM     17  C   UNL     1       5.217  -3.579   4.155  1.00  0.00    -0.003 C 
ATOM     18  C   UNL     1       3.821  -3.368   3.570  1.00  0.00     0.004 C 
ENDBRANCH  16  17
ENDBRANCH  15  16
ENDBRANCH  14  15
ENDBRANCH  13  14
ENDBRANCH  12  13
ENDBRANCH  11  12
ENDBRANCH   1  11
TORSDOF 14
ENDMDL
MODEL 3
REMARK VINA RESULT:    -0.331      2.917      6.205
REMARK INTER + INTRA:          -2.538
REMARK INTER:                  -1.809
REMARK INTRA:                  -0.729
REMARK UNBOUND:                -1.936
REMARK SMILES CCCCCCCCCCCCCCCC(=O)[O-]
REMARK SMILES IDX 9 1 10 2 11 3 12 4 13 5 14 6 15 7 16 8 17 9 18 10 8 11 7 12
REMARK SMILES IDX 6 13 5 14 4 15 3 16 2 17 1 18
REMARK H PARENT
REMARK Flexibility Score: inf
ROOT
ATOM      1  C   UNL     1       7.192 -10.125   5.992  1.00  0.00     0.000 C 
ENDROOT
BRANCH   1   2
ATOM      2  C   UNL     1       7.870 -10.109   7.372  1.00  0.00     0.000 C 
BRANCH   2   3
ATOM      3  C   UNL     1       8.445  -8.727   7.726  1.00  0.00     0.000 C 
BRANCH   3   4
ATOM      4  C   UNL     1       7.663  -8.039   8.860  1.00  0.00     0.000 C 
BRANCH   4   5
ATOM      5  C   UNL     1       7.368  -8.987  10.034  1.00  0.00     0.000 C 
BRANCH   5   6
ATOM      6  C   UNL     1       5.992  -9.666   9.912  1.00  0.00     0.006 C 
BRANCH   6   7
ATOM      7  C   UNL     1       4.940  -8.741   9.286  1.00  0.00     0.053 C 
BRANCH   7   8
ATOM      8  C   UNL     1       3.733  -9.498   8.824  1.00  0.00     0.041 C 
ATOM      9  O   UNL     1       3.530  -9.677   7.594  1.00  0.00    -0.550 OA
ATOM     10  O   UNL     1       2.824  -9.994   9.751  1.00  0.00    -0.550 OA
ENDBRANCH   7   8
ENDBRANCH   6   7
ENDBRANCH   5   6
ENDBRANCH   4   5
ENDBRANCH   3   4
ENDBRANCH   2   3
ENDBRANCH   1   2
BRANCH   1  11
ATOM     11  C   UNL     1       7.080  -8.724   5.364  1.00  0.00     0.000 C 
BRANCH  11  12
ATOM     12  C   UNL     1       5.703  -8.047   5.516  1.00  0.00    -0.000 C 
BRANCH  12  13
ATOM     13  C   UNL     1       5.618  -6.983   6.628  1.00  0.00    -0.000 C 
BRANCH  13  14
ATOM     14  C   UNL     1       5.891  -5.536   6.169  1.00  0.00    -0.000 C 
BRANCH  14  15
ATOM     15  C   UNL     1       5.231  -5.146   4.834  1.00  0.00    -0.000 C 
BRANCH  15  16
ATOM     16  C   UNL     1       5.431  -3.663   4.478  1.00  0.00    -0.000 C 
BRANCH  16  17
ATOM     17  C   UNL     1       4.535  -3.209   3.316  1.00  0.00    -0.003 C 
ATOM     18  C   UNL     1       3.076  -3.628   3.495  1.00  0.00     0.004 C 
ENDBRANCH  16  17
ENDBRANCH  15  16
ENDBRANCH  14  15
ENDBRANCH  13  14
ENDBRANCH  12  13
ENDBRANCH  11  12
ENDBRANCH   1  11
TORSDOF 14
ENDMDL
MODEL 4
REMARK VINA RESULT:    -0.138      1.607      2.691
REMARK INTER + INTRA:          -2.188
REMARK INTER:                  -0.692
REMARK INTRA:                  -1.496
REMARK UNBOUND:                -1.936
REMARK SMILES CCCCCCCCCCCCCCCC(=O)[O-]
REMARK SMILES IDX 9 1 10 2 11 3 12 4 13 5 14 6 15 7 16 8 17 9 18 10 8 11 7 12
REMARK SMILES IDX 6 13 5 14 4 15 3 16 2 17 1 18
REMARK H PARENT
REMARK Flexibility Score: inf
ROOT
ATOM      1  C   UNL     1       4.793  -8.299   5.997  1.00  0.00     0.000 C 
ENDROOT
BRANCH   1   2
ATOM      2  C   UNL     1       6.071  -7.445   6.061  1.00  0.00     0.000 C 
BRANCH   2   3
ATOM      3  C   UNL     1       5.768  -5.938   6.077  1.00  0.00     0.000 C 
BRANCH   3   4
ATOM      4  C   UNL     1       5.173  -5.445   4.745  1.00  0.00     0.000 C 
BRANCH   4   5
ATOM      5  C   UNL     1       5.270  -3.919   4.586  1.00  0.00     0.000 C 
BRANCH   5   6
ATOM      6  C   UNL     1       4.660  -3.425   3.261  1.00  0.00     0.006 C 
BRANCH   6   7
ATOM      7  C   UNL     1       3.133  -3.286   3.340  1.00  0.00     0.053 C 
BRANCH   7   8
ATOM      8  C   UNL     1       2.532  -2.967   2.005  1.00  0.00     0.041 C 
ATOM      9  O   UNL     1       1.283  -3.003   1.849  1.00  0.00    -0.550 OA
ATOM     10  O   UNL     1       3.352  -2.645   0.930  1.00  0.00    -0.550 OA
ENDBRANCH   7   8
ENDBRANCH   6   7
ENDBRANCH   5   6
ENDBRANCH   4   5
ENDBRANCH   3   4
ENDBRANCH   2   3
ENDBRANCH   1   2
BRANCH   1  11
ATOM     11  C   UNL     1       4.983  -9.706   6.593  1.00  0.00     0.000 C 
BRANCH  11  12
ATOM     12  C   UNL     1       4.254  -9.953   7.929  1.00  0.00    -0.000 C 
BRANCH  12  13
ATOM     13  C   UNL     1       4.630  -8.984   9.067  1.00  0.00    -0.000 C 
BRANCH  13  14
ATOM     14  C   UNL     1       6.048  -9.175   9.644  1.00  0.00    -0.000 C 
BRANCH  14  15
ATOM     15  C   UNL     1       6.907  -7.898   9.682  1.00  0.00    -0.000 C 
BRANCH  15  16
ATOM     16  C   UNL     1       8.152  -7.989   8.783  1.00  0.00    -0.000 C 
BRANCH  16  17
ATOM     17  C   UNL     1       8.481  -9.433   8.374  1.00  0.00    -0.003 C 
ATOM     18  C   UNL     1       8.909  -9.550   6.911  1.00  0.00     0.004 C 
ENDBRANCH  16  17
ENDBRANCH  15  16
ENDBRANCH  14  15
ENDBRANCH  13  14
ENDBRANCH  12  13
ENDBRANCH  11  12
ENDBRANCH   1  11
TORSDOF 14
ENDMDL
MODEL 5
REMARK VINA RESULT:    -0.093      3.166      6.528
REMARK INTER + INTRA:          -2.105
REMARK INTER:                  -0.899
REMARK INTRA:                  -1.207
REMARK UNBOUND:                -1.936
REMARK SMILES CCCCCCCCCCCCCCCC(=O)[O-]
REMARK SMILES IDX 9 1 10 2 11 3 12 4 13 5 14 6 15 7 16 8 17 9 18 10 8 11 7 12
REMARK SMILES IDX 6 13 5 14 4 15 3 16 2 17 1 18
REMARK H PARENT
REMARK Flexibility Score: inf
ROOT
ATOM      1  C   UNL     1       5.062 -10.053   6.778  1.00  0.00     0.000 C 
ENDROOT
BRANCH   1   2
ATOM      2  C   UNL     1       3.673  -9.643   7.295  1.00  0.00     0.000 C 
BRANCH   2   3
ATOM      3  C   UNL     1       3.539  -9.819   8.816  1.00  0.00     0.000 C 
BRANCH   3   4
ATOM      4  C   UNL     1       4.334  -8.760   9.603  1.00  0.00     0.000 C 
BRANCH   4   5
ATOM      5  C   UNL     1       5.769  -9.212   9.915  1.00  0.00     0.000 C 
BRANCH   5   6
ATOM      6  C   UNL     1       6.729  -8.027  10.125  1.00  0.00     0.006 C 
BRANCH   6   7
ATOM      7  C   UNL     1       7.644  -7.797   8.915  1.00  0.00     0.053 C 
BRANCH   7   8
ATOM      8  C   UNL     1       8.939  -8.540   9.045  1.00  0.00     0.041 C 
ATOM      9  O   UNL     1       9.114  -9.621   8.424  1.00  0.00    -0.550 OA
ATOM     10  O   UNL     1       9.946  -8.046   9.864  1.00  0.00    -0.550 OA
ENDBRANCH   7   8
ENDBRANCH   6   7
ENDBRANCH   5   6
ENDBRANCH   4   5
ENDBRANCH   3   4
ENDBRANCH   2   3
ENDBRANCH   1   2
BRANCH   1  11
ATOM     11  C   UNL     1       5.733  -8.957   5.930  1.00  0.00     0.000 C 
BRANCH  11  12
ATOM     12  C   UNL     1       5.046  -7.578   5.982  1.00  0.00    -0.000 C 
BRANCH  12  13
ATOM     13  C   UNL     1       6.005  -6.371   6.016  1.00  0.00    -0.000 C 
BRANCH  13  14
ATOM     14  C   UNL     1       5.356  -5.013   5.677  1.00  0.00    -0.000 C 
BRANCH  14  15
ATOM     15  C   UNL     1       5.679  -4.476   4.272  1.00  0.00    -0.000 C 
BRANCH  15  16
ATOM     16  C   UNL     1       4.803  -3.275   3.875  1.00  0.00    -0.000 C 
BRANCH  16  17
ATOM     17  C   UNL     1       3.321  -3.650   3.722  1.00  0.00    -0.003 C 
ATOM     18  C   UNL     1       2.664  -2.985   2.513  1.00  0.00     0.004 C 
ENDBRANCH  16  17
ENDBRANCH  15  16
ENDBRANCH  14  15
ENDBRANCH  13  14
ENDBRANCH  12  13
ENDBRANCH  11  12
ENDBRANCH   1  11
TORSDOF 14
ENDMDL
MODEL 6
REMARK VINA RESULT:     0.082      1.646      3.489
REMARK INTER + INTRA:          -1.788
REMARK INTER:                  -0.537
REMARK INTRA:                  -1.250
REMARK UNBOUND:                -1.936
REMARK SMILES CCCCCCCCCCCCCCCC(=O)[O-]
REMARK SMILES IDX 9 1 10 2 11 3 12 4 13 5 14 6 15 7 16 8 17 9 18 10 8 11 7 12
REMARK SMILES IDX 6 13 5 14 4 15 3 16 2 17 1 18
REMARK H PARENT
REMARK Flexibility Score: inf
ROOT
ATOM      1  C   UNL     1       4.908  -7.933   6.120  1.00  0.00     0.000 C 
ENDROOT
BRANCH   1   2
ATOM      2  C   UNL     1       6.058  -6.945   6.379  1.00  0.00     0.000 C 
BRANCH   2   3
ATOM      3  C   UNL     1       5.632  -5.483   6.172  1.00  0.00     0.000 C 
BRANCH   3   4
ATOM      4  C   UNL     1       5.283  -5.175   4.704  1.00  0.00     0.000 C 
BRANCH   4   5
ATOM      5  C   UNL     1       5.253  -3.666   4.410  1.00  0.00     0.000 C 
BRANCH   5   6
ATOM      6  C   UNL     1       4.545  -3.339   3.083  1.00  0.00     0.006 C 
BRANCH   6   7
ATOM      7  C   UNL     1       3.018  -3.296   3.234  1.00  0.00     0.053 C 
BRANCH   7   8
ATOM      8  C   UNL     1       2.340  -2.928   1.950  1.00  0.00     0.041 C 
ATOM      9  O   UNL     1       1.084  -2.959   1.865  1.00  0.00    -0.550 OA
ATOM     10  O   UNL     1       3.095  -2.564   0.842  1.00  0.00    -0.550 OA
ENDBRANCH   7   8
ENDBRANCH   6   7
ENDBRANCH   5   6
ENDBRANCH   4   5
ENDBRANCH   3   4
ENDBRANCH   2   3
ENDBRANCH   1   2
BRANCH   1  11
ATOM     11  C   UNL     1       5.392  -9.386   5.957  1.00  0.00     0.000 C 
BRANCH  11  12
ATOM     12  C   UNL     1       6.689  -9.554   5.140  1.00  0.00    -0.000 C 
BRANCH  12  13
ATOM     13  C   UNL     1       7.984  -9.614   5.975  1.00  0.00    -0.000 C 
BRANCH  13  14
ATOM     14  C   UNL     1       7.789 -10.009   7.453  1.00  0.00    -0.000 C 
BRANCH  14  15
ATOM     15  C   UNL     1       8.121  -8.900   8.467  1.00  0.00    -0.000 C 
BRANCH  15  16
ATOM     16  C   UNL     1       7.154  -8.875   9.663  1.00  0.00    -0.000 C 
BRANCH  16  17
ATOM     17  C   UNL     1       5.912  -9.751   9.437  1.00  0.00    -0.003 C 
ATOM     18  C   UNL     1       4.605  -8.998   9.681  1.00  0.00     0.004 C 
ENDBRANCH  16  17
ENDBRANCH  15  16
ENDBRANCH  14  15
ENDBRANCH  13  14
ENDBRANCH  12  13
ENDBRANCH  11  12
ENDBRANCH   1  11
TORSDOF 14
ENDMDL
