MODEL 1
REMARK VINA RESULT:    -1.967      0.000      0.000
REMARK INTER + INTRA:          -6.275
REMARK INTER:                  -4.496
REMARK INTRA:                  -1.779
REMARK UNBOUND:                -1.779
REMARK SMILES CCCCCCCCCCCCCCCCCCCCCCCC(=O)[O-]
REMARK SMILES IDX 13 1 14 2 15 3 16 4 17 5 18 6 19 7 20 8 21 9 22 10 23 11
REMARK SMILES IDX 24 12 25 13 26 14 12 15 11 16 10 17 9 18 8 19 7 20 6 21 5 22
REMARK SMILES IDX 4 23 3 24 2 25 1 26
REMARK H PARENT
REMARK Flexibility Score: inf
ROOT
ATOM      1  C   UNL     1      10.203 -32.778  14.025  1.00  0.00     0.000 C 
ENDROOT
BRANCH   1   2
ATOM      2  C   UNL     1      11.595 -32.417  13.477  1.00  0.00     0.000 C 
BRANCH   2   3
ATOM      3  C   UNL     1      12.034 -30.998  13.867  1.00  0.00     0.000 C 
BRANCH   3   4
ATOM      4  C   UNL     1      13.273 -30.991  14.781  1.00  0.00     0.000 C 
BRANCH   4   5
ATOM      5  C   UNL     1      14.592 -30.941  13.992  1.00  0.00     0.000 C 
BRANCH   5   6
ATOM      6  C   UNL     1      15.802 -31.570  14.709  1.00  0.00     0.000 C 
BRANCH   6   7
ATOM      7  C   UNL     1      16.955 -31.970  13.763  1.00  0.00     0.000 C 
BRANCH   7   8
ATOM      8  C   UNL     1      18.337 -31.612  14.338  1.00  0.00     0.000 C 
BRANCH   8   9
ATOM      9  C   UNL     1      19.409 -31.462  13.246  1.00  0.00     0.000 C 
BRANCH   9  10
ATOM     10  C   UNL     1      19.734 -29.991  12.937  1.00  0.00     0.006 C 
BRANCH  10  11
ATOM     11  C   UNL     1      20.747 -29.401  13.929  1.00  0.00     0.053 C 
BRANCH  11  12
ATOM     12  C   UNL     1      21.229 -28.048  13.505  1.00  0.00     0.041 C 
ATOM     13  O   UNL     1      20.429 -27.220  12.992  1.00  0.00    -0.550 OA
ATOM     14  O   UNL     1      22.564 -27.699  13.676  1.00  0.00    -0.550 OA
ENDBRANCH  11  12
ENDBRANCH  10  11
ENDBRANCH   9  10
ENDBRANCH   8   9
ENDBRANCH   7   8
ENDBRANCH   6   7
ENDBRANCH   5   6
ENDBRANCH   4   5
ENDBRANCH   3   4
ENDBRANCH   2   3
ENDBRANCH   1   2
BRANCH   1  15
ATOM     15  C   UNL     1       9.398 -33.680  13.072  1.00  0.00     0.000 C 
BRANCH  15  16
ATOM     16  C   UNL     1       7.876 -33.449  13.093  1.00  0.00     0.000 C 
BRANCH  16  17
ATOM     17  C   UNL     1       7.071 -34.744  12.908  1.00  0.00     0.000 C 
BRANCH  17  18
ATOM     18  C   UNL     1       7.456 -35.784  13.968  1.00  0.00    -0.000 C 
BRANCH  18  19
ATOM     19  C   UNL     1       6.395 -35.865  15.076  1.00  0.00    -0.000 C 
BRANCH  19  20
ATOM     20  C   UNL     1       6.995 -35.753  16.489  1.00  0.00    -0.000 C 
BRANCH  20  21
ATOM     21  C   UNL     1       6.572 -34.500  17.282  1.00  0.00    -0.000 C 
BRANCH  21  22
ATOM     22  C   UNL     1       6.497 -33.202  16.459  1.00  0.00    -0.000 C 
BRANCH  22  23
ATOM     23  C   UNL     1       7.841 -32.465  16.381  1.00  0.00    -0.000 C 
BRANCH  23  24
ATOM     24  C   UNL     1       8.755 -32.869  17.544  1.00  0.00    -0.000 C 
BRANCH  24  25
ATOM     25  C   UNL     1       9.285 -31.633  18.281  1.00  0.00    -0.003 C 
ATOM     26  C   UNL     1      10.369 -30.930  17.468  1.00  0.00     0.004 C 
ENDBRANCH  24  25
ENDBRANCH  23  24
ENDBRANCH  22  23
ENDBRANCH  21  22
ENDBRANCH  20  21
ENDBRANCH  19  20
ENDBRANCH  18  19
ENDBRANCH  17  18
ENDBRANCH  16  17
ENDBRANCH  15  16
ENDBRANCH   1  15
TORSDOF 22
ENDMDL
MODEL 2
REMARK VINA RESULT:    -1.820      3.949     10.837
REMARK INTER + INTRA:          -5.941
REMARK INTER:                  -5.807
REMARK INTRA:                  -0.134
REMARK UNBOUND:                -1.779
REMARK SMILES CCCCCCCCCCCCCCCCCCCCCCCC(=O)[O-]
REMARK SMILES IDX 13 1 14 2 15 3 16 4 17 5 18 6 19 7 20 8 21 9 22 10 23 11
REMARK SMILES IDX 24 12 25 13 26 14 12 15 11 16 10 17 9 18 8 19 7 20 6 21 5 22
REMARK SMILES IDX 4 23 3 24 2 25 1 26
REMARK H PARENT
REMARK Flexibility Score: inf
ROOT
ATOM      1  C   UNL     1       9.264 -32.554  13.029  1.00  0.00     0.000 C 
ENDROOT
BRANCH   1   2
ATOM      2  C   UNL     1       8.549 -33.910  12.903  1.00  0.00     0.000 C 
BRANCH   2   3
ATOM      3  C   UNL     1       9.251 -35.026  13.692  1.00  0.00     0.000 C 
BRANCH   3   4
ATOM      4  C   UNL     1       8.365 -36.271  13.873  1.00  0.00     0.000 C 
BRANCH   4   5
ATOM      5  C   UNL     1       7.230 -36.049  14.888  1.00  0.00     0.000 C 
BRANCH   5   6
ATOM      6  C   UNL     1       6.533 -37.334  15.372  1.00  0.00     0.000 C 
BRANCH   6   7
ATOM      7  C   UNL     1       6.213 -37.345  16.883  1.00  0.00     0.000 C 
BRANCH   7   8
ATOM      8  C   UNL     1       7.230 -36.531  17.703  1.00  0.00     0.000 C 
BRANCH   8   9
ATOM      9  C   UNL     1       7.210 -35.034  17.351  1.00  0.00     0.000 C 
BRANCH   9  10
ATOM     10  C   UNL     1       7.402 -34.136  18.585  1.00  0.00     0.006 C 
BRANCH  10  11
ATOM     11  C   UNL     1       7.336 -32.644  18.231  1.00  0.00     0.053 C 
BRANCH  11  12
ATOM     12  C   UNL     1       8.657 -32.116  17.763  1.00  0.00     0.041 C 
ATOM     13  O   UNL     1       9.453 -31.582  18.582  1.00  0.00    -0.550 OA
ATOM     14  O   UNL     1       9.011 -32.214  16.423  1.00  0.00    -0.550 OA
ENDBRANCH  11  12
ENDBRANCH  10  11
ENDBRANCH   9  10
ENDBRANCH   8   9
ENDBRANCH   7   8
ENDBRANCH   6   7
ENDBRANCH   5   6
ENDBRANCH   4   5
ENDBRANCH   3   4
ENDBRANCH   2   3
ENDBRANCH   1   2
BRANCH   1  15
ATOM     15  C   UNL     1      10.795 -32.690  13.128  1.00  0.00     0.000 C 
BRANCH  15  16
ATOM     16  C   UNL     1      11.451 -31.831  14.224  1.00  0.00     0.000 C 
BRANCH  16  17
ATOM     17  C   UNL     1      12.686 -31.065  13.727  1.00  0.00     0.000 C 
BRANCH  17  18
ATOM     18  C   UNL     1      13.805 -31.091  14.776  1.00  0.00    -0.000 C 
BRANCH  18  19
ATOM     19  C   UNL     1      15.146 -30.658  14.167  1.00  0.00    -0.000 C 
BRANCH  19  20
ATOM     20  C   UNL     1      16.273 -31.676  14.417  1.00  0.00    -0.000 C 
BRANCH  20  21
ATOM     21  C   UNL     1      17.386 -31.694  13.349  1.00  0.00    -0.000 C 
BRANCH  21  22
ATOM     22  C   UNL     1      18.818 -31.564  13.897  1.00  0.00    -0.000 C 
BRANCH  22  23
ATOM     23  C   UNL     1      19.727 -30.714  12.997  1.00  0.00    -0.000 C 
BRANCH  23  24
ATOM     24  C   UNL     1      20.392 -29.589  13.798  1.00  0.00    -0.000 C 
BRANCH  24  25
ATOM     25  C   UNL     1      21.174 -28.646  12.875  1.00  0.00    -0.003 C 
ATOM     26  C   UNL     1      21.311 -27.257  13.495  1.00  0.00     0.004 C 
ENDBRANCH  24  25
ENDBRANCH  23  24
ENDBRANCH  22  23
ENDBRANCH  21  22
ENDBRANCH  20  21
ENDBRANCH  19  20
ENDBRANCH  18  19
ENDBRANCH  17  18
ENDBRANCH  16  17
ENDBRANCH  15  16
ENDBRANCH   1  15
TORSDOF 22
ENDMDL
MODEL 3
REMARK VINA RESULT:    -1.724      6.056     13.468
REMARK INTER + INTRA:          -5.720
REMARK INTER:                  -5.053
REMARK INTRA:                  -0.667
REMARK UNBOUND:                -1.779
REMARK SMILES CCCCCCCCCCCCCCCCCCCCCCCC(=O)[O-]
REMARK SMILES IDX 13 1 14 2 15 3 16 4 17 5 18 6 19 7 20 8 21 9 22 10 23 11
REMARK SMILES IDX 24 12 25 13 26 14 12 15 11 16 10 17 9 18 8 19 7 20 6 21 5 22
REMARK SMILES IDX 4 23 3 24 2 25 1 26
REMARK H PARENT
REMARK Flexibility Score: inf
ROOT
ATOM      1  C   UNL     1      20.004 -30.576  13.990  1.00  0.00     0.000 C 
ENDROOT
BRANCH   1   2
ATOM      2  C   UNL     1      18.971 -31.652  13.609  1.00  0.00     0.000 C 
BRANCH   2   3
ATOM      3  C   UNL     1      17.776 -31.692  14.573  1.00  0.00     0.000 C 
BRANCH   3   4
ATOM      4  C   UNL     1      16.460 -32.069  13.869  1.00  0.00     0.000 C 
BRANCH   4   5
ATOM      5  C   UNL     1      15.257 -31.263  14.388  1.00  0.00     0.000 C 
BRANCH   5   6
ATOM      6  C   UNL     1      13.880 -31.803  13.957  1.00  0.00     0.000 C 
BRANCH   6   7
ATOM      7  C   UNL     1      12.687 -31.047  14.580  1.00  0.00     0.000 C 
BRANCH   7   8
ATOM      8  C   UNL     1      11.383 -31.256  13.790  1.00  0.00     0.000 C 
BRANCH   8   9
ATOM      9  C   UNL     1      11.010 -32.742  13.649  1.00  0.00     0.000 C 
BRANCH   9  10
ATOM     10  C   UNL     1       9.498 -32.955  13.464  1.00  0.00     0.006 C 
BRANCH  10  11
ATOM     11  C   UNL     1       9.166 -34.382  13.006  1.00  0.00     0.053 C 
BRANCH  11  12
ATOM     12  C   UNL     1       8.182 -35.052  13.916  1.00  0.00     0.041 C 
ATOM     13  O   UNL     1       8.540 -35.443  15.059  1.00  0.00    -0.550 OA
ATOM     14  O   UNL     1       6.870 -35.244  13.502  1.00  0.00    -0.550 OA
ENDBRANCH  11  12
ENDBRANCH  10  11
ENDBRANCH   9  10
ENDBRANCH   8   9
ENDBRANCH   7   8
ENDBRANCH   6   7
ENDBRANCH   5   6
ENDBRANCH   4   5
ENDBRANCH   3   4
ENDBRANCH   2   3
ENDBRANCH   1   2
BRANCH   1  15
ATOM     15  C   UNL     1      20.225 -29.536  12.876  1.00  0.00     0.000 C 
BRANCH  15  16
ATOM     16  C   UNL     1      21.137 -28.357  13.263  1.00  0.00     0.000 C 
BRANCH  16  17
ATOM     17  C   UNL     1      20.521 -26.990  12.932  1.00  0.00     0.000 C 
BRANCH  17  18
ATOM     18  C   UNL     1      20.928 -25.940  13.974  1.00  0.00    -0.000 C 
BRANCH  18  19
ATOM     19  C   UNL     1      21.011 -24.541  13.347  1.00  0.00    -0.000 C 
BRANCH  19  20
ATOM     20  C   UNL     1      20.932 -23.412  14.391  1.00  0.00    -0.000 C 
BRANCH  20  21
ATOM     21  C   UNL     1      19.509 -22.907  14.702  1.00  0.00    -0.000 C 
BRANCH  21  22
ATOM     22  C   UNL     1      19.206 -21.475  14.228  1.00  0.00    -0.000 C 
BRANCH  22  23
ATOM     23  C   UNL     1      19.830 -20.402  15.132  1.00  0.00    -0.000 C 
BRANCH  23  24
ATOM     24  C   UNL     1      20.196 -19.151  14.325  1.00  0.00    -0.000 C 
BRANCH  24  25
ATOM     25  C   UNL     1      19.838 -17.875  15.097  1.00  0.00    -0.003 C 
ATOM     26  C   UNL     1      20.179 -18.015  16.579  1.00  0.00     0.004 C 
ENDBRANCH  24  25
ENDBRANCH  23  24
ENDBRANCH  22  23
ENDBRANCH  21  22
ENDBRANCH  20  21
ENDBRANCH  19  20
ENDBRANCH  18  19
ENDBRANCH  17  18
ENDBRANCH  16  17
ENDBRANCH  15  16
ENDBRANCH   1  15
TORSDOF 22
ENDMDL
MODEL 4
REMARK VINA RESULT:    -1.544      4.107      9.333
REMARK INTER + INTRA:          -5.309
REMARK INTER:                  -3.427
REMARK INTRA:                  -1.882
REMARK UNBOUND:                -1.779
REMARK SMILES CCCCCCCCCCCCCCCCCCCCCCCC(=O)[O-]
REMARK SMILES IDX 13 1 14 2 15 3 16 4 17 5 18 6 19 7 20 8 21 9 22 10 23 11
REMARK SMILES IDX 24 12 25 13 26 14 12 15 11 16 10 17 9 18 8 19 7 20 6 21 5 22
REMARK SMILES IDX 4 23 3 24 2 25 1 26
REMARK H PARENT
REMARK Flexibility Score: inf
ROOT
ATOM      1  C   UNL     1       6.889 -34.165  13.786  1.00  0.00     0.000 C 
ENDROOT
BRANCH   1   2
ATOM      2  C   UNL     1       5.905 -34.993  12.941  1.00  0.00     0.000 C 
BRANCH   2   3
ATOM      3  C   UNL     1       6.205 -36.499  12.988  1.00  0.00     0.000 C 
BRANCH   3   4
ATOM      4  C   UNL     1       7.160 -36.876  14.136  1.00  0.00     0.000 C 
BRANCH   4   5
ATOM      5  C   UNL     1       6.448 -37.613  15.282  1.00  0.00     0.000 C 
BRANCH   5   6
ATOM      6  C   UNL     1       6.556 -36.930  16.659  1.00  0.00     0.000 C 
BRANCH   6   7
ATOM      7  C   UNL     1       6.211 -35.425  16.641  1.00  0.00     0.000 C 
BRANCH   7   8
ATOM      8  C   UNL     1       6.951 -34.641  17.739  1.00  0.00     0.000 C 
BRANCH   8   9
ATOM      9  C   UNL     1       7.321 -33.215  17.299  1.00  0.00     0.000 C 
BRANCH   9  10
ATOM     10  C   UNL     1       8.773 -33.110  16.801  1.00  0.00     0.006 C 
BRANCH  10  11
ATOM     11  C   UNL     1       9.375 -31.722  17.060  1.00  0.00     0.053 C 
BRANCH  11  12
ATOM     12  C   UNL     1       9.276 -31.324  18.500  1.00  0.00     0.041 C 
ATOM     13  O   UNL     1       8.472 -30.421  18.856  1.00  0.00    -0.550 OA
ATOM     14  O   UNL     1      10.072 -31.951  19.452  1.00  0.00    -0.550 OA
ENDBRANCH  11  12
ENDBRANCH  10  11
ENDBRANCH   9  10
ENDBRANCH   8   9
ENDBRANCH   7   8
ENDBRANCH   6   7
ENDBRANCH   5   6
ENDBRANCH   4   5
ENDBRANCH   3   4
ENDBRANCH   2   3
ENDBRANCH   1   2
BRANCH   1  15
ATOM     15  C   UNL     1       7.454 -32.948  13.031  1.00  0.00     0.000 C 
BRANCH  15  16
ATOM     16  C   UNL     1       8.988 -32.907  12.924  1.00  0.00     0.000 C 
BRANCH  16  17
ATOM     17  C   UNL     1       9.640 -34.283  13.128  1.00  0.00     0.000 C 
BRANCH  17  18
ATOM     18  C   UNL     1      11.152 -34.215  12.875  1.00  0.00    -0.000 C 
BRANCH  18  19
ATOM     19  C   UNL     1      11.855 -33.367  13.946  1.00  0.00    -0.000 C 
BRANCH  19  20
ATOM     20  C   UNL     1      11.533 -31.867  13.828  1.00  0.00    -0.000 C 
BRANCH  20  21
ATOM     21  C   UNL     1      12.609 -30.921  14.400  1.00  0.00    -0.000 C 
BRANCH  21  22
ATOM     22  C   UNL     1      14.003 -31.058  13.764  1.00  0.00    -0.000 C 
BRANCH  22  23
ATOM     23  C   UNL     1      15.059 -31.583  14.747  1.00  0.00    -0.000 C 
BRANCH  23  24
ATOM     24  C   UNL     1      16.434 -30.970  14.454  1.00  0.00    -0.000 C 
BRANCH  24  25
ATOM     25  C   UNL     1      17.537 -32.032  14.531  1.00  0.00    -0.003 C 
ATOM     26  C   UNL     1      18.507 -31.906  13.359  1.00  0.00     0.004 C 
ENDBRANCH  24  25
ENDBRANCH  23  24
ENDBRANCH  22  23
ENDBRANCH  21  22
ENDBRANCH  20  21
ENDBRANCH  19  20
ENDBRANCH  18  19
ENDBRANCH  17  18
ENDBRANCH  16  17
ENDBRANCH  15  16
ENDBRANCH   1  15
TORSDOF 22
ENDMDL
MODEL 5
REMARK VINA RESULT:    -1.234      2.609      5.060
REMARK INTER + INTRA:          -4.600
REMARK INTER:                  -2.513
REMARK INTRA:                  -2.087
REMARK UNBOUND:                -1.779
REMARK SMILES CCCCCCCCCCCCCCCCCCCCCCCC(=O)[O-]
REMARK SMILES IDX 13 1 14 2 15 3 16 4 17 5 18 6 19 7 20 8 21 9 22 10 23 11
REMARK SMILES IDX 24 12 25 13 26 14 12 15 11 16 10 17 9 18 8 19 7 20 6 21 5 22
REMARK SMILES IDX 4 23 3 24 2 25 1 26
REMARK H PARENT
REMARK Flexibility Score: inf
ROOT
ATOM      1  C   UNL     1       6.773 -32.436  17.570  1.00  0.00     0.000 C 
ENDROOT
BRANCH   1   2
ATOM      2  C   UNL     1       8.222 -32.755  17.981  1.00  0.00     0.000 C 
BRANCH   2   3
ATOM      3  C   UNL     1       8.773 -31.768  19.020  1.00  0.00     0.000 C 
BRANCH   3   4
ATOM      4  C   UNL     1      10.187 -31.268  18.670  1.00  0.00     0.000 C 
BRANCH   4   5
ATOM      5  C   UNL     1      10.214 -30.411  17.393  1.00  0.00     0.000 C 
BRANCH   5   6
ATOM      6  C   UNL     1      11.399 -30.689  16.450  1.00  0.00     0.000 C 
BRANCH   6   7
ATOM      7  C   UNL     1      11.044 -31.584  15.243  1.00  0.00     0.000 C 
BRANCH   7   8
ATOM      8  C   UNL     1      12.125 -31.549  14.148  1.00  0.00     0.000 C 
BRANCH   8   9
ATOM      9  C   UNL     1      13.342 -30.698  14.547  1.00  0.00     0.000 C 
BRANCH   9  10
ATOM     10  C   UNL     1      14.632 -31.146  13.839  1.00  0.00     0.006 C 
BRANCH  10  11
ATOM     11  C   UNL     1      15.858 -31.056  14.758  1.00  0.00     0.053 C 
BRANCH  11  12
ATOM     12  C   UNL     1      16.970 -31.952  14.304  1.00  0.00     0.041 C 
ATOM     13  O   UNL     1      17.464 -31.817  13.152  1.00  0.00    -0.550 OA
ATOM     14  O   UNL     1      17.462 -32.936  15.154  1.00  0.00    -0.550 OA
ENDBRANCH  11  12
ENDBRANCH  10  11
ENDBRANCH   9  10
ENDBRANCH   8   9
ENDBRANCH   7   8
ENDBRANCH   6   7
ENDBRANCH   5   6
ENDBRANCH   4   5
ENDBRANCH   3   4
ENDBRANCH   2   3
ENDBRANCH   1   2
BRANCH   1  15
ATOM     15  C   UNL     1       6.372 -33.083  16.231  1.00  0.00     0.000 C 
BRANCH  15  16
ATOM     16  C   UNL     1       7.447 -33.015  15.132  1.00  0.00     0.000 C 
BRANCH  16  17
ATOM     17  C   UNL     1       8.540 -34.082  15.294  1.00  0.00     0.000 C 
BRANCH  17  18
ATOM     18  C   UNL     1       8.495 -35.091  14.141  1.00  0.00    -0.000 C 
BRANCH  18  19
ATOM     19  C   UNL     1       7.066 -35.252  13.600  1.00  0.00    -0.000 C 
BRANCH  19  20
ATOM     20  C   UNL     1       6.702 -36.715  13.295  1.00  0.00    -0.000 C 
BRANCH  20  21
ATOM     21  C   UNL     1       6.583 -37.631  14.530  1.00  0.00    -0.000 C 
BRANCH  21  22
ATOM     22  C   UNL     1       5.887 -36.997  15.748  1.00  0.00    -0.000 C 
BRANCH  22  23
ATOM     23  C   UNL     1       6.536 -37.396  17.081  1.00  0.00    -0.000 C 
BRANCH  23  24
ATOM     24  C   UNL     1       7.415 -36.263  17.623  1.00  0.00    -0.000 C 
BRANCH  24  25
ATOM     25  C   UNL     1       7.526 -36.338  19.151  1.00  0.00    -0.003 C 
ATOM     26  C   UNL     1       8.019 -37.711  19.601  1.00  0.00     0.004 C 
ENDBRANCH  24  25
ENDBRANCH  23  24
ENDBRANCH  22  23
ENDBRANCH  21  22
ENDBRANCH  20  21
ENDBRANCH  19  20
ENDBRANCH  18  19
ENDBRANCH  17  18
ENDBRANCH  16  17
ENDBRANCH  15  16
ENDBRANCH   1  15
TORSDOF 22
ENDMDL
MODEL 6
REMARK VINA RESULT:    -1.208      4.108     11.173
REMARK INTER + INTRA:          -4.540
REMARK INTER:                  -3.052
REMARK INTRA:                  -1.488
REMARK UNBOUND:                -1.779
REMARK SMILES CCCCCCCCCCCCCCCCCCCCCCCC(=O)[O-]
REMARK SMILES IDX 13 1 14 2 15 3 16 4 17 5 18 6 19 7 20 8 21 9 22 10 23 11
REMARK SMILES IDX 24 12 25 13 26 14 12 15 11 16 10 17 9 18 8 19 7 20 6 21 5 22
REMARK SMILES IDX 4 23 3 24 2 25 1 26
REMARK H PARENT
REMARK Flexibility Score: inf
ROOT
ATOM      1  C   UNL     1      10.773 -31.789  13.019  1.00  0.00     0.000 C 
ENDROOT
BRANCH   1   2
ATOM      2  C   UNL     1       9.669 -32.854  12.902  1.00  0.00     0.000 C 
BRANCH   2   3
ATOM      3  C   UNL     1       9.854 -34.010  13.896  1.00  0.00     0.000 C 
BRANCH   3   4
ATOM      4  C   UNL     1       9.528 -35.382  13.277  1.00  0.00     0.000 C 
BRANCH   4   5
ATOM      5  C   UNL     1       8.467 -36.156  14.077  1.00  0.00     0.000 C 
BRANCH   5   6
ATOM      6  C   UNL     1       7.024 -36.004  13.559  1.00  0.00     0.000 C 
BRANCH   6   7
ATOM      7  C   UNL     1       5.948 -36.526  14.534  1.00  0.00     0.000 C 
BRANCH   7   8
ATOM      8  C   UNL     1       6.472 -36.648  15.976  1.00  0.00     0.000 C 
BRANCH   8   9
ATOM      9  C   UNL     1       6.298 -35.349  16.780  1.00  0.00     0.000 C 
BRANCH   9  10
ATOM     10  C   UNL     1       7.536 -35.009  17.626  1.00  0.00     0.006 C 
BRANCH  10  11
ATOM     11  C   UNL     1       8.313 -33.811  17.061  1.00  0.00     0.053 C 
BRANCH  11  12
ATOM     12  C   UNL     1       8.073 -32.561  17.851  1.00  0.00     0.041 C 
ATOM     13  O   UNL     1       9.046 -31.909  18.317  1.00  0.00    -0.550 OA
ATOM     14  O   UNL     1       6.776 -32.114  18.071  1.00  0.00    -0.550 OA
ENDBRANCH  11  12
ENDBRANCH  10  11
ENDBRANCH   9  10
ENDBRANCH   8   9
ENDBRANCH   7   8
ENDBRANCH   6   7
ENDBRANCH   5   6
ENDBRANCH   4   5
ENDBRANCH   3   4
ENDBRANCH   2   3
ENDBRANCH   1   2
BRANCH   1  15
ATOM     15  C   UNL     1      11.889 -32.186  14.004  1.00  0.00     0.000 C 
BRANCH  15  16
ATOM     16  C   UNL     1      12.506 -31.015  14.789  1.00  0.00     0.000 C 
BRANCH  16  17
ATOM     17  C   UNL     1      13.846 -30.541  14.205  1.00  0.00     0.000 C 
BRANCH  17  18
ATOM     18  C   UNL     1      14.693 -31.734  13.745  1.00  0.00    -0.000 C 
BRANCH  18  19
ATOM     19  C   UNL     1      16.023 -31.797  14.511  1.00  0.00    -0.000 C 
BRANCH  19  20
ATOM     20  C   UNL     1      17.210 -31.255  13.695  1.00  0.00    -0.000 C 
BRANCH  20  21
ATOM     21  C   UNL     1      18.593 -31.434  14.355  1.00  0.00    -0.000 C 
BRANCH  21  22
ATOM     22  C   UNL     1      19.795 -31.106  13.451  1.00  0.00    -0.000 C 
BRANCH  22  23
ATOM     23  C   UNL     1      20.619 -29.917  13.962  1.00  0.00    -0.000 C 
BRANCH  23  24
ATOM     24  C   UNL     1      20.738 -28.830  12.887  1.00  0.00    -0.000 C 
BRANCH  24  25
ATOM     25  C   UNL     1      21.401 -27.568  13.452  1.00  0.00    -0.003 C 
ATOM     26  C   UNL     1      20.560 -26.327  13.163  1.00  0.00     0.004 C 
ENDBRANCH  24  25
ENDBRANCH  23  24
ENDBRANCH  22  23
ENDBRANCH  21  22
ENDBRANCH  20  21
ENDBRANCH  19  20
ENDBRANCH  18  19
ENDBRANCH  17  18
ENDBRANCH  16  17
ENDBRANCH  15  16
ENDBRANCH   1  15
TORSDOF 22
ENDMDL
MODEL 7
REMARK VINA RESULT:    -1.072      2.551      5.244
REMARK INTER + INTRA:          -4.231
REMARK INTER:                  -2.083
REMARK INTRA:                  -2.148
REMARK UNBOUND:                -1.779
REMARK SMILES CCCCCCCCCCCCCCCCCCCCCCCC(=O)[O-]
REMARK SMILES IDX 13 1 14 2 15 3 16 4 17 5 18 6 19 7 20 8 21 9 22 10 23 11
REMARK SMILES IDX 24 12 25 13 26 14 12 15 11 16 10 17 9 18 8 19 7 20 6 21 5 22
REMARK SMILES IDX 4 23 3 24 2 25 1 26
REMARK H PARENT
REMARK Flexibility Score: inf
ROOT
ATOM      1  C   UNL     1       8.633 -33.663  17.448  1.00  0.00     0.000 C 
ENDROOT
BRANCH   1   2
ATOM      2  C   UNL     1       7.863 -32.864  16.381  1.00  0.00     0.000 C 
BRANCH   2   3
ATOM      3  C   UNL     1       8.790 -32.235  15.330  1.00  0.00     0.000 C 
BRANCH   3   4
ATOM      4  C   UNL     1       9.139 -33.210  14.190  1.00  0.00     0.000 C 
BRANCH   4   5
ATOM      5  C   UNL     1       9.479 -32.488  12.876  1.00  0.00     0.000 C 
BRANCH   5   6
ATOM      6  C   UNL     1      10.741 -31.606  12.927  1.00  0.00     0.000 C 
BRANCH   6   7
ATOM      7  C   UNL     1      11.928 -32.251  13.676  1.00  0.00     0.000 C 
BRANCH   7   8
ATOM      8  C   UNL     1      12.641 -31.259  14.611  1.00  0.00     0.000 C 
BRANCH   8   9
ATOM      9  C   UNL     1      13.868 -30.606  13.952  1.00  0.00     0.000 C 
BRANCH   9  10
ATOM     10  C   UNL     1      15.189 -31.029  14.618  1.00  0.00     0.006 C 
BRANCH  10  11
ATOM     11  C   UNL     1      16.298 -31.291  13.590  1.00  0.00     0.053 C 
BRANCH  11  12
ATOM     12  C   UNL     1      17.459 -32.026  14.187  1.00  0.00     0.041 C 
ATOM     13  O   UNL     1      18.561 -32.074  13.578  1.00  0.00    -0.550 OA
ATOM     14  O   UNL     1      17.324 -32.658  15.418  1.00  0.00    -0.550 OA
ENDBRANCH  11  12
ENDBRANCH  10  11
ENDBRANCH   9  10
ENDBRANCH   8   9
ENDBRANCH   7   8
ENDBRANCH   6   7
ENDBRANCH   5   6
ENDBRANCH   4   5
ENDBRANCH   3   4
ENDBRANCH   2   3
ENDBRANCH   1   2
BRANCH   1  15
ATOM     15  C   UNL     1       7.705 -34.393  18.437  1.00  0.00     0.000 C 
BRANCH  15  16
ATOM     16  C   UNL     1       7.204 -35.768  17.960  1.00  0.00     0.000 C 
BRANCH  16  17
ATOM     17  C   UNL     1       5.875 -35.690  17.195  1.00  0.00     0.000 C 
BRANCH  17  18
ATOM     18  C   UNL     1       6.079 -36.011  15.709  1.00  0.00    -0.000 C 
BRANCH  18  19
ATOM     19  C   UNL     1       6.455 -37.487  15.508  1.00  0.00    -0.000 C 
BRANCH  19  20
ATOM     20  C   UNL     1       5.950 -38.055  14.170  1.00  0.00    -0.000 C 
BRANCH  20  21
ATOM     21  C   UNL     1       6.884 -37.819  12.965  1.00  0.00    -0.000 C 
BRANCH  21  22
ATOM     22  C   UNL     1       8.388 -37.886  13.282  1.00  0.00    -0.000 C 
BRANCH  22  23
ATOM     23  C   UNL     1       9.112 -36.556  13.030  1.00  0.00    -0.000 C 
BRANCH  23  24
ATOM     24  C   UNL     1      10.491 -36.547  13.699  1.00  0.00    -0.000 C 
BRANCH  24  25
ATOM     25  C   UNL     1      11.495 -35.730  12.876  1.00  0.00    -0.003 C 
ATOM     26  C   UNL     1      12.930 -36.156  13.179  1.00  0.00     0.004 C 
ENDBRANCH  24  25
ENDBRANCH  23  24
ENDBRANCH  22  23
ENDBRANCH  21  22
ENDBRANCH  20  21
ENDBRANCH  19  20
ENDBRANCH  18  19
ENDBRANCH  17  18
ENDBRANCH  16  17
ENDBRANCH  15  16
ENDBRANCH   1  15
TORSDOF 22
ENDMDL
MODEL 8
REMARK VINA RESULT:    -0.934      4.037      9.203
REMARK INTER + INTRA:          -3.915
REMARK INTER:                  -2.635
REMARK INTRA:                  -1.280
REMARK UNBOUND:                -1.779
REMARK SMILES CCCCCCCCCCCCCCCCCCCCCCCC(=O)[O-]
REMARK SMILES IDX 13 1 14 2 15 3 16 4 17 5 18 6 19 7 20 8 21 9 22 10 23 11
REMARK SMILES IDX 24 12 25 13 26 14 12 15 11 16 10 17 9 18 8 19 7 20 6 21 5 22
REMARK SMILES IDX 4 23 3 24 2 25 1 26
REMARK H PARENT
REMARK Flexibility Score: inf
ROOT
ATOM      1  C   UNL     1       7.522 -33.027  18.220  1.00  0.00     0.000 C 
ENDROOT
BRANCH   1   2
ATOM      2  C   UNL     1       6.714 -32.495  17.023  1.00  0.00     0.000 C 
BRANCH   2   3
ATOM      3  C   UNL     1       5.991 -33.611  16.254  1.00  0.00     0.000 C 
BRANCH   3   4
ATOM      4  C   UNL     1       6.957 -34.484  15.431  1.00  0.00     0.000 C 
BRANCH   4   5
ATOM      5  C   UNL     1       6.293 -35.085  14.181  1.00  0.00     0.000 C 
BRANCH   5   6
ATOM      6  C   UNL     1       6.502 -34.279  12.885  1.00  0.00     0.000 C 
BRANCH   6   7
ATOM      7  C   UNL     1       7.110 -32.878  13.108  1.00  0.00     0.000 C 
BRANCH   7   8
ATOM      8  C   UNL     1       8.464 -32.935  13.837  1.00  0.00     0.000 C 
BRANCH   8   9
ATOM      9  C   UNL     1       9.654 -32.696  12.892  1.00  0.00     0.000 C 
BRANCH   9  10
ATOM     10  C   UNL     1      10.641 -33.877  12.877  1.00  0.00     0.006 C 
BRANCH  10  11
ATOM     11  C   UNL     1      10.307 -34.923  13.950  1.00  0.00     0.053 C 
BRANCH  11  12
ATOM     12  C   UNL     1      10.603 -36.317  13.489  1.00  0.00     0.041 C 
ATOM     13  O   UNL     1      11.796 -36.702  13.357  1.00  0.00    -0.550 OA
ATOM     14  O   UNL     1       9.561 -37.192  13.206  1.00  0.00    -0.550 OA
ENDBRANCH  11  12
ENDBRANCH  10  11
ENDBRANCH   9  10
ENDBRANCH   8   9
ENDBRANCH   7   8
ENDBRANCH   6   7
ENDBRANCH   5   6
ENDBRANCH   4   5
ENDBRANCH   3   4
ENDBRANCH   2   3
ENDBRANCH   1   2
BRANCH   1  15
ATOM     15  C   UNL     1       9.024 -32.701  18.122  1.00  0.00     0.000 C 
BRANCH  15  16
ATOM     16  C   UNL     1       9.411 -31.287  18.591  1.00  0.00     0.000 C 
BRANCH  16  17
ATOM     17  C   UNL     1      10.155 -30.482  17.516  1.00  0.00     0.000 C 
BRANCH  17  18
ATOM     18  C   UNL     1      10.703 -31.406  16.421  1.00  0.00    -0.000 C 
BRANCH  18  19
ATOM     19  C   UNL     1      11.931 -30.787  15.737  1.00  0.00    -0.000 C 
BRANCH  19  20
ATOM     20  C   UNL     1      12.226 -31.408  14.360  1.00  0.00    -0.000 C 
BRANCH  20  21
ATOM     21  C   UNL     1      13.719 -31.483  13.983  1.00  0.00    -0.000 C 
BRANCH  21  22
ATOM     22  C   UNL     1      14.574 -30.296  14.462  1.00  0.00    -0.000 C 
BRANCH  22  23
ATOM     23  C   UNL     1      16.079 -30.594  14.434  1.00  0.00    -0.000 C 
BRANCH  23  24
ATOM     24  C   UNL     1      16.342 -32.098  14.575  1.00  0.00    -0.000 C 
BRANCH  24  25
ATOM     25  C   UNL     1      17.847 -32.395  14.571  1.00  0.00    -0.003 C 
ATOM     26  C   UNL     1      18.508 -31.872  13.297  1.00  0.00     0.004 C 
ENDBRANCH  24  25
ENDBRANCH  23  24
ENDBRANCH  22  23
ENDBRANCH  21  22
ENDBRANCH  20  21
ENDBRANCH  19  20
ENDBRANCH  18  19
ENDBRANCH  17  18
ENDBRANCH  16  17
ENDBRANCH  15  16
ENDBRANCH   1  15
TORSDOF 22
ENDMDL
MODEL 9
REMARK VINA RESULT:    -0.870      2.347      4.062
REMARK INTER + INTRA:          -3.768
REMARK INTER:                  -2.666
REMARK INTRA:                  -1.103
REMARK UNBOUND:                -1.779
REMARK SMILES CCCCCCCCCCCCCCCCCCCCCCCC(=O)[O-]
REMARK SMILES IDX 13 1 14 2 15 3 16 4 17 5 18 6 19 7 20 8 21 9 22 10 23 11
REMARK SMILES IDX 24 12 25 13 26 14 12 15 11 16 10 17 9 18 8 19 7 20 6 21 5 22
REMARK SMILES IDX 4 23 3 24 2 25 1 26
REMARK H PARENT
REMARK Flexibility Score: inf
ROOT
ATOM      1  C   UNL     1       7.098 -34.323  13.065  1.00  0.00     0.000 C 
ENDROOT
BRANCH   1   2
ATOM      2  C   UNL     1       8.402 -35.122  12.894  1.00  0.00     0.000 C 
BRANCH   2   3
ATOM      3  C   UNL     1       9.423 -34.834  14.004  1.00  0.00     0.000 C 
BRANCH   3   4
ATOM      4  C   UNL     1       9.540 -33.333  14.326  1.00  0.00     0.000 C 
BRANCH   4   5
ATOM      5  C   UNL     1       9.662 -32.463  13.063  1.00  0.00     0.000 C 
BRANCH   5   6
ATOM      6  C   UNL     1      10.894 -31.539  13.029  1.00  0.00     0.000 C 
BRANCH   6   7
ATOM      7  C   UNL     1      11.795 -31.647  14.277  1.00  0.00     0.000 C 
BRANCH   7   8
ATOM      8  C   UNL     1      13.286 -31.770  13.916  1.00  0.00     0.000 C 
BRANCH   8   9
ATOM      9  C   UNL     1      13.993 -30.406  13.854  1.00  0.00     0.000 C 
BRANCH   9  10
ATOM     10  C   UNL     1      15.463 -30.483  14.299  1.00  0.00     0.006 C 
BRANCH  10  11
ATOM     11  C   UNL     1      16.148 -31.769  13.817  1.00  0.00     0.053 C 
BRANCH  11  12
ATOM     12  C   UNL     1      17.475 -31.984  14.477  1.00  0.00     0.041 C 
ATOM     13  O   UNL     1      18.489 -31.344  14.088  1.00  0.00    -0.550 OA
ATOM     14  O   UNL     1      17.594 -32.891  15.524  1.00  0.00    -0.550 OA
ENDBRANCH  11  12
ENDBRANCH  10  11
ENDBRANCH   9  10
ENDBRANCH   8   9
ENDBRANCH   7   8
ENDBRANCH   6   7
ENDBRANCH   5   6
ENDBRANCH   4   5
ENDBRANCH   3   4
ENDBRANCH   2   3
ENDBRANCH   1   2
BRANCH   1  15
ATOM     15  C   UNL     1       5.881 -35.216  13.370  1.00  0.00     0.000 C 
BRANCH  15  16
ATOM     16  C   UNL     1       6.019 -36.677  12.905  1.00  0.00     0.000 C 
BRANCH  16  17
ATOM     17  C   UNL     1       6.807 -37.549  13.893  1.00  0.00     0.000 C 
BRANCH  17  18
ATOM     18  C   UNL     1       6.006 -37.777  15.181  1.00  0.00    -0.000 C 
BRANCH  18  19
ATOM     19  C   UNL     1       5.964 -36.504  16.039  1.00  0.00    -0.000 C 
BRANCH  19  20
ATOM     20  C   UNL     1       7.348 -36.095  16.571  1.00  0.00    -0.000 C 
BRANCH  20  21
ATOM     21  C   UNL     1       7.460 -36.013  18.108  1.00  0.00    -0.000 C 
BRANCH  21  22
ATOM     22  C   UNL     1       7.433 -34.588  18.689  1.00  0.00    -0.000 C 
BRANCH  22  23
ATOM     23  C   UNL     1       7.956 -33.532  17.705  1.00  0.00    -0.000 C 
BRANCH  23  24
ATOM     24  C   UNL     1       7.600 -32.118  18.179  1.00  0.00    -0.000 C 
BRANCH  24  25
ATOM     25  C   UNL     1       8.849 -31.371  18.666  1.00  0.00    -0.003 C 
ATOM     26  C   UNL     1       9.940 -31.369  17.598  1.00  0.00     0.004 C 
ENDBRANCH  24  25
ENDBRANCH  23  24
ENDBRANCH  22  23
ENDBRANCH  21  22
ENDBRANCH  20  21
ENDBRANCH  19  20
ENDBRANCH  18  19
ENDBRANCH  17  18
ENDBRANCH  16  17
ENDBRANCH  15  16
ENDBRANCH   1  15
TORSDOF 22
ENDMDL
