MODEL 1
REMARK VINA RESULT:    -4.002      0.000      0.000
REMARK INTER + INTRA:          -7.832
REMARK INTER:                  -6.342
REMARK INTRA:                  -1.490
REMARK UNBOUND:                -1.490
REMARK SMILES CCCCCCCCCCCC(=O)[O-]
REMARK SMILES IDX 7 1 8 2 9 3 10 4 11 5 12 6 13 7 14 8 6 9 5 10 4 11 3 12 2 13
REMARK SMILES IDX 1 14
REMARK H PARENT
REMARK Flexibility Score: inf
ROOT
ATOM      1  C   UNL     1      15.422 -33.196  24.297  1.00  0.00     0.000 C 
ENDROOT
BRANCH   1   2
ATOM      2  C   UNL     1      15.457 -34.588  23.642  1.00  0.00     0.000 C 
BRANCH   2   3
ATOM      3  C   UNL     1      16.233 -34.598  22.316  1.00  0.00     0.000 C 
BRANCH   3   4
ATOM      4  C   UNL     1      15.332 -34.899  21.107  1.00  0.00     0.006 C 
BRANCH   4   5
ATOM      5  C   UNL     1      16.070 -34.714  19.774  1.00  0.00     0.053 C 
BRANCH   5   6
ATOM      6  C   UNL     1      17.088 -35.788  19.546  1.00  0.00     0.041 C 
ATOM      7  O   UNL     1      18.289 -35.486  19.314  1.00  0.00    -0.550 OA
ATOM      8  O   UNL     1      16.706 -37.124  19.561  1.00  0.00    -0.550 OA
ENDBRANCH   5   6
ENDBRANCH   4   5
ENDBRANCH   3   4
ENDBRANCH   2   3
ENDBRANCH   1   2
BRANCH   1   9
ATOM      9  C   UNL     1      13.996 -32.634  24.414  1.00  0.00     0.000 C 
BRANCH   9  10
ATOM     10  C   UNL     1      13.834 -31.282  23.702  1.00  0.00    -0.000 C 
BRANCH  10  11
ATOM     11  C   UNL     1      13.241 -31.468  22.300  1.00  0.00    -0.000 C 
BRANCH  11  12
ATOM     12  C   UNL     1      14.340 -31.420  21.228  1.00  0.00    -0.000 C 
BRANCH  12  13
ATOM     13  C   UNL     1      15.510 -30.505  21.622  1.00  0.00    -0.003 C 
ATOM     14  C   UNL     1      16.874 -31.138  21.348  1.00  0.00     0.004 C 
ENDBRANCH  12  13
ENDBRANCH  11  12
ENDBRANCH  10  11
ENDBRANCH   9  10
ENDBRANCH   1   9
TORSDOF 10
ENDMDL
MODEL 2
REMARK VINA RESULT:    -3.906      3.941      5.872
REMARK INTER + INTRA:          -7.679
REMARK INTER:                  -6.731
REMARK INTRA:                  -0.949
REMARK UNBOUND:                -1.490
REMARK SMILES CCCCCCCCCCCC(=O)[O-]
REMARK SMILES IDX 7 1 8 2 9 3 10 4 11 5 12 6 13 7 14 8 6 9 5 10 4 11 3 12 2 13
REMARK SMILES IDX 1 14
REMARK H PARENT
REMARK Flexibility Score: inf
ROOT
ATOM      1  C   UNL     1      14.995 -33.827  22.189  1.00  0.00     0.000 C 
ENDROOT
BRANCH   1   2
ATOM      2  C   UNL     1      14.366 -33.128  20.970  1.00  0.00     0.000 C 
BRANCH   2   3
ATOM      3  C   UNL     1      13.818 -31.733  21.307  1.00  0.00     0.000 C 
BRANCH   3   4
ATOM      4  C   UNL     1      14.451 -31.139  22.576  1.00  0.00     0.006 C 
BRANCH   4   5
ATOM      5  C   UNL     1      13.458 -31.075  23.744  1.00  0.00     0.053 C 
BRANCH   5   6
ATOM      6  C   UNL     1      12.752 -29.756  23.803  1.00  0.00     0.041 C 
ATOM      7  O   UNL     1      13.144 -28.861  24.599  1.00  0.00    -0.550 OA
ATOM      8  O   UNL     1      11.641 -29.523  23.001  1.00  0.00    -0.550 OA
ENDBRANCH   5   6
ENDBRANCH   4   5
ENDBRANCH   3   4
ENDBRANCH   2   3
ENDBRANCH   1   2
BRANCH   1   9
ATOM      9  C   UNL     1      15.844 -35.047  21.798  1.00  0.00     0.000 C 
BRANCH   9  10
ATOM     10  C   UNL     1      15.697 -35.417  20.314  1.00  0.00    -0.000 C 
BRANCH  10  11
ATOM     11  C   UNL     1      17.071 -35.567  19.647  1.00  0.00    -0.000 C 
BRANCH  11  12
ATOM     12  C   UNL     1      17.604 -34.207  19.173  1.00  0.00    -0.000 C 
BRANCH  12  13
ATOM     13  C   UNL     1      18.525 -33.540  20.208  1.00  0.00    -0.003 C 
ATOM     14  C   UNL     1      18.018 -32.169  20.655  1.00  0.00     0.004 C 
ENDBRANCH  12  13
ENDBRANCH  11  12
ENDBRANCH  10  11
ENDBRANCH   9  10
ENDBRANCH   1   9
TORSDOF 10
ENDMDL
MODEL 3
REMARK VINA RESULT:    -3.890      4.515      6.787
REMARK INTER + INTRA:          -7.654
REMARK INTER:                  -7.003
REMARK INTRA:                  -0.651
REMARK UNBOUND:                -1.490
REMARK SMILES CCCCCCCCCCCC(=O)[O-]
REMARK SMILES IDX 7 1 8 2 9 3 10 4 11 5 12 6 13 7 14 8 6 9 5 10 4 11 3 12 2 13
REMARK SMILES IDX 1 14
REMARK H PARENT
REMARK Flexibility Score: inf
ROOT
ATOM      1  C   UNL     1      17.957 -35.719  25.982  1.00  0.00     0.000 C 
ENDROOT
BRANCH   1   2
ATOM      2  C   UNL     1      17.325 -34.326  25.807  1.00  0.00     0.000 C 
BRANCH   2   3
ATOM      3  C   UNL     1      16.182 -34.320  24.780  1.00  0.00     0.000 C 
BRANCH   3   4
ATOM      4  C   UNL     1      16.655 -33.925  23.371  1.00  0.00     0.006 C 
BRANCH   4   5
ATOM      5  C   UNL     1      16.465 -35.061  22.357  1.00  0.00     0.053 C 
BRANCH   5   6
ATOM      6  C   UNL     1      15.423 -34.727  21.334  1.00  0.00     0.041 C 
ATOM      7  O   UNL     1      15.336 -35.399  20.273  1.00  0.00    -0.550 OA
ATOM      8  O   UNL     1      14.565 -33.653  21.540  1.00  0.00    -0.550 OA
ENDBRANCH   5   6
ENDBRANCH   4   5
ENDBRANCH   3   4
ENDBRANCH   2   3
ENDBRANCH   1   2
BRANCH   1   9
ATOM      9  C   UNL     1      16.917 -36.850  25.926  1.00  0.00     0.000 C 
BRANCH   9  10
ATOM     10  C   UNL     1      17.279 -38.031  26.839  1.00  0.00    -0.000 C 
BRANCH  10  11
ATOM     11  C   UNL     1      16.017 -38.719  27.373  1.00  0.00    -0.000 C 
BRANCH  11  12
ATOM     12  C   UNL     1      16.133 -38.985  28.882  1.00  0.00    -0.000 C 
BRANCH  12  13
ATOM     13  C   UNL     1      17.061 -37.984  29.589  1.00  0.00    -0.003 C 
ATOM     14  C   UNL     1      18.168 -38.669  30.389  1.00  0.00     0.004 C 
ENDBRANCH  12  13
ENDBRANCH  11  12
ENDBRANCH  10  11
ENDBRANCH   9  10
ENDBRANCH   1   9
TORSDOF 10
ENDMDL
MODEL 4
REMARK VINA RESULT:    -3.854      3.273      5.346
REMARK INTER + INTRA:          -7.597
REMARK INTER:                  -6.135
REMARK INTRA:                  -1.462
REMARK UNBOUND:                -1.490
REMARK SMILES CCCCCCCCCCCC(=O)[O-]
REMARK SMILES IDX 7 1 8 2 9 3 10 4 11 5 12 6 13 7 14 8 6 9 5 10 4 11 3 12 2 13
REMARK SMILES IDX 1 14
REMARK H PARENT
REMARK Flexibility Score: inf
ROOT
ATOM      1  C   UNL     1      17.129 -35.803  19.731  1.00  0.00     0.000 C 
ENDROOT
BRANCH   1   2
ATOM      2  C   UNL     1      15.827 -35.576  20.519  1.00  0.00     0.000 C 
BRANCH   2   3
ATOM      3  C   UNL     1      15.103 -34.284  20.106  1.00  0.00     0.000 C 
BRANCH   3   4
ATOM      4  C   UNL     1      14.533 -33.516  21.310  1.00  0.00     0.006 C 
BRANCH   4   5
ATOM      5  C   UNL     1      13.781 -32.247  20.884  1.00  0.00     0.053 C 
BRANCH   5   6
ATOM      6  C   UNL     1      13.598 -31.298  22.028  1.00  0.00     0.041 C 
ATOM      7  O   UNL     1      12.625 -31.433  22.816  1.00  0.00    -0.550 OA
ATOM      8  O   UNL     1      14.486 -30.244  22.207  1.00  0.00    -0.550 OA
ENDBRANCH   5   6
ENDBRANCH   4   5
ENDBRANCH   3   4
ENDBRANCH   2   3
ENDBRANCH   1   2
BRANCH   1   9
ATOM      9  C   UNL     1      17.652 -34.516  19.071  1.00  0.00     0.000 C 
BRANCH   9  10
ATOM     10  C   UNL     1      19.145 -34.279  19.342  1.00  0.00    -0.000 C 
BRANCH  10  11
ATOM     11  C   UNL     1      19.346 -33.443  20.612  1.00  0.00    -0.000 C 
BRANCH  11  12
ATOM     12  C   UNL     1      18.367 -32.261  20.654  1.00  0.00    -0.000 C 
BRANCH  12  13
ATOM     13  C   UNL     1      17.741 -32.061  22.043  1.00  0.00    -0.003 C 
ATOM     14  C   UNL     1      17.896 -33.286  22.943  1.00  0.00     0.004 C 
ENDBRANCH  12  13
ENDBRANCH  11  12
ENDBRANCH  10  11
ENDBRANCH   9  10
ENDBRANCH   1   9
TORSDOF 10
ENDMDL
MODEL 5
REMARK VINA RESULT:    -3.818      3.236      5.218
REMARK INTER + INTRA:          -7.540
REMARK INTER:                  -6.089
REMARK INTRA:                  -1.451
REMARK UNBOUND:                -1.490
REMARK SMILES CCCCCCCCCCCC(=O)[O-]
REMARK SMILES IDX 7 1 8 2 9 3 10 4 11 5 12 6 13 7 14 8 6 9 5 10 4 11 3 12 2 13
REMARK SMILES IDX 1 14
REMARK H PARENT
REMARK Flexibility Score: inf
ROOT
ATOM      1  C   UNL     1      17.626 -34.348  19.083  1.00  0.00     0.000 C 
ENDROOT
BRANCH   1   2
ATOM      2  C   UNL     1      18.997 -34.036  19.708  1.00  0.00     0.000 C 
BRANCH   2   3
ATOM      3  C   UNL     1      18.889 -33.153  20.961  1.00  0.00     0.000 C 
BRANCH   3   4
ATOM      4  C   UNL     1      17.886 -32.000  20.786  1.00  0.00     0.006 C 
BRANCH   4   5
ATOM      5  C   UNL     1      17.791 -31.120  22.039  1.00  0.00     0.053 C 
BRANCH   5   6
ATOM      6  C   UNL     1      17.617 -29.673  21.692  1.00  0.00     0.041 C 
ATOM      7  O   UNL     1      18.616 -28.968  21.392  1.00  0.00    -0.550 OA
ATOM      8  O   UNL     1      16.353 -29.096  21.728  1.00  0.00    -0.550 OA
ENDBRANCH   5   6
ENDBRANCH   4   5
ENDBRANCH   3   4
ENDBRANCH   2   3
ENDBRANCH   1   2
BRANCH   1   9
ATOM      9  C   UNL     1      16.978 -35.609  19.678  1.00  0.00     0.000 C 
BRANCH   9  10
ATOM     10  C   UNL     1      15.625 -35.320  20.343  1.00  0.00    -0.000 C 
BRANCH  10  11
ATOM     11  C   UNL     1      15.803 -34.995  21.832  1.00  0.00    -0.000 C 
BRANCH  11  12
ATOM     12  C   UNL     1      14.998 -33.746  22.222  1.00  0.00    -0.000 C 
BRANCH  12  13
ATOM     13  C   UNL     1      14.266 -33.118  21.025  1.00  0.00    -0.003 C 
ATOM     14  C   UNL     1      14.052 -31.613  21.187  1.00  0.00     0.004 C 
ENDBRANCH  12  13
ENDBRANCH  11  12
ENDBRANCH  10  11
ENDBRANCH   9  10
ENDBRANCH   1   9
TORSDOF 10
ENDMDL
MODEL 6
REMARK VINA RESULT:    -3.810      4.057      5.742
REMARK INTER + INTRA:          -7.528
REMARK INTER:                  -5.884
REMARK INTRA:                  -1.644
REMARK UNBOUND:                -1.490
REMARK SMILES CCCCCCCCCCCC(=O)[O-]
REMARK SMILES IDX 7 1 8 2 9 3 10 4 11 5 12 6 13 7 14 8 6 9 5 10 4 11 3 12 2 13
REMARK SMILES IDX 1 14
REMARK H PARENT
REMARK Flexibility Score: inf
ROOT
ATOM      1  C   UNL     1      14.622 -33.488  21.065  1.00  0.00     0.000 C 
ENDROOT
BRANCH   1   2
ATOM      2  C   UNL     1      13.869 -32.258  21.603  1.00  0.00     0.000 C 
BRANCH   2   3
ATOM      3  C   UNL     1      14.700 -30.969  21.509  1.00  0.00     0.000 C 
BRANCH   3   4
ATOM      4  C   UNL     1      14.727 -30.186  22.833  1.00  0.00     0.006 C 
BRANCH   4   5
ATOM      5  C   UNL     1      13.574 -30.584  23.765  1.00  0.00     0.053 C 
BRANCH   5   6
ATOM      6  C   UNL     1      12.436 -29.613  23.690  1.00  0.00     0.041 C 
ATOM      7  O   UNL     1      11.576 -29.714  22.775  1.00  0.00    -0.550 OA
ATOM      8  O   UNL     1      12.341 -28.579  24.612  1.00  0.00    -0.550 OA
ENDBRANCH   5   6
ENDBRANCH   4   5
ENDBRANCH   3   4
ENDBRANCH   2   3
ENDBRANCH   1   2
BRANCH   1   9
ATOM      9  C   UNL     1      15.656 -34.032  22.065  1.00  0.00     0.000 C 
BRANCH   9  10
ATOM     10  C   UNL     1      15.084 -34.181  23.482  1.00  0.00    -0.000 C 
BRANCH  10  11
ATOM     11  C   UNL     1      15.921 -33.392  24.497  1.00  0.00    -0.000 C 
BRANCH  11  12
ATOM     12  C   UNL     1      17.337 -33.135  23.961  1.00  0.00    -0.000 C 
BRANCH  12  13
ATOM     13  C   UNL     1      17.774 -31.670  24.126  1.00  0.00    -0.003 C 
ATOM     14  C   UNL     1      18.337 -31.072  22.837  1.00  0.00     0.004 C 
ENDBRANCH  12  13
ENDBRANCH  11  12
ENDBRANCH  10  11
ENDBRANCH   9  10
ENDBRANCH   1   9
TORSDOF 10
ENDMDL
MODEL 7
REMARK VINA RESULT:    -3.774      1.374      2.671
REMARK INTER + INTRA:          -7.470
REMARK INTER:                  -5.903
REMARK INTRA:                  -1.567
REMARK UNBOUND:                -1.490
REMARK SMILES CCCCCCCCCCCC(=O)[O-]
REMARK SMILES IDX 7 1 8 2 9 3 10 4 11 5 12 6 13 7 14 8 6 9 5 10 4 11 3 12 2 13
REMARK SMILES IDX 1 14
REMARK H PARENT
REMARK Flexibility Score: inf
ROOT
ATOM      1  C   UNL     1      13.132 -31.587  22.435  1.00  0.00     0.000 C 
ENDROOT
BRANCH   1   2
ATOM      2  C   UNL     1      14.090 -31.708  21.236  1.00  0.00     0.000 C 
BRANCH   2   3
ATOM      3  C   UNL     1      13.928 -33.038  20.482  1.00  0.00     0.000 C 
BRANCH   3   4
ATOM      4  C   UNL     1      15.259 -33.790  20.319  1.00  0.00     0.006 C 
BRANCH   4   5
ATOM      5  C   UNL     1      15.404 -34.937  21.328  1.00  0.00     0.053 C 
BRANCH   5   6
ATOM      6  C   UNL     1      16.634 -35.752  21.072  1.00  0.00     0.041 C 
ATOM      7  O   UNL     1      16.815 -36.292  19.949  1.00  0.00    -0.550 OA
ATOM      8  O   UNL     1      17.568 -35.940  22.084  1.00  0.00    -0.550 OA
ENDBRANCH   5   6
ENDBRANCH   4   5
ENDBRANCH   3   4
ENDBRANCH   2   3
ENDBRANCH   1   2
BRANCH   1   9
ATOM      9  C   UNL     1      13.875 -31.462  23.775  1.00  0.00     0.000 C 
BRANCH   9  10
ATOM     10  C   UNL     1      14.076 -32.817  24.468  1.00  0.00    -0.000 C 
BRANCH  10  11
ATOM     11  C   UNL     1      15.532 -33.284  24.349  1.00  0.00    -0.000 C 
BRANCH  11  12
ATOM     12  C   UNL     1      16.462 -32.106  24.025  1.00  0.00    -0.000 C 
BRANCH  12  13
ATOM     13  C   UNL     1      17.635 -32.512  23.117  1.00  0.00    -0.003 C 
ATOM     14  C   UNL     1      17.777 -31.606  21.895  1.00  0.00     0.004 C 
ENDBRANCH  12  13
ENDBRANCH  11  12
ENDBRANCH  10  11
ENDBRANCH   9  10
ENDBRANCH   1   9
TORSDOF 10
ENDMDL
MODEL 8
REMARK VINA RESULT:    -3.751      2.373      2.934
REMARK INTER + INTRA:          -7.434
REMARK INTER:                  -5.813
REMARK INTRA:                  -1.621
REMARK UNBOUND:                -1.490
REMARK SMILES CCCCCCCCCCCC(=O)[O-]
REMARK SMILES IDX 7 1 8 2 9 3 10 4 11 5 12 6 13 7 14 8 6 9 5 10 4 11 3 12 2 13
REMARK SMILES IDX 1 14
REMARK H PARENT
REMARK Flexibility Score: inf
ROOT
ATOM      1  C   UNL     1      15.509 -33.234  24.204  1.00  0.00     0.000 C 
ENDROOT
BRANCH   1   2
ATOM      2  C   UNL     1      15.527 -34.634  23.565  1.00  0.00     0.000 C 
BRANCH   2   3
ATOM      3  C   UNL     1      16.362 -34.685  22.276  1.00  0.00     0.000 C 
BRANCH   3   4
ATOM      4  C   UNL     1      17.440 -33.590  22.227  1.00  0.00     0.006 C 
BRANCH   4   5
ATOM      5  C   UNL     1      17.589 -32.985  20.825  1.00  0.00     0.053 C 
BRANCH   5   6
ATOM      6  C   UNL     1      18.548 -31.835  20.812  1.00  0.00     0.041 C 
ATOM      7  O   UNL     1      18.119 -30.651  20.831  1.00  0.00    -0.550 OA
ATOM      8  O   UNL     1      19.916 -32.070  20.750  1.00  0.00    -0.550 OA
ENDBRANCH   5   6
ENDBRANCH   4   5
ENDBRANCH   3   4
ENDBRANCH   2   3
ENDBRANCH   1   2
BRANCH   1   9
ATOM      9  C   UNL     1      14.091 -32.777  24.584  1.00  0.00     0.000 C 
BRANCH   9  10
ATOM     10  C   UNL     1      13.585 -31.628  23.700  1.00  0.00    -0.000 C 
BRANCH  10  11
ATOM     11  C   UNL     1      14.749 -30.933  22.983  1.00  0.00    -0.000 C 
BRANCH  11  12
ATOM     12  C   UNL     1      14.563 -30.979  21.459  1.00  0.00    -0.000 C 
BRANCH  12  13
ATOM     13  C   UNL     1      13.418 -31.911  21.032  1.00  0.00    -0.003 C 
ATOM     14  C   UNL     1      13.901 -33.096  20.195  1.00  0.00     0.004 C 
ENDBRANCH  12  13
ENDBRANCH  11  12
ENDBRANCH  10  11
ENDBRANCH   9  10
ENDBRANCH   1   9
TORSDOF 10
ENDMDL
MODEL 9
REMARK VINA RESULT:    -3.710      1.424      2.634
REMARK INTER + INTRA:          -7.369
REMARK INTER:                  -5.912
REMARK INTRA:                  -1.457
REMARK UNBOUND:                -1.490
REMARK SMILES CCCCCCCCCCCC(=O)[O-]
REMARK SMILES IDX 7 1 8 2 9 3 10 4 11 5 12 6 13 7 14 8 6 9 5 10 4 11 3 12 2 13
REMARK SMILES IDX 1 14
REMARK H PARENT
REMARK Flexibility Score: inf
ROOT
ATOM      1  C   UNL     1      17.426 -32.269  23.717  1.00  0.00     0.000 C 
ENDROOT
BRANCH   1   2
ATOM      2  C   UNL     1      16.166 -32.983  24.241  1.00  0.00     0.000 C 
BRANCH   2   3
ATOM      3  C   UNL     1      16.091 -34.452  23.796  1.00  0.00     0.000 C 
BRANCH   3   4
ATOM      4  C   UNL     1      15.339 -34.629  22.467  1.00  0.00     0.006 C 
BRANCH   4   5
ATOM      5  C   UNL     1      16.237 -35.208  21.365  1.00  0.00     0.053 C 
BRANCH   5   6
ATOM      6  C   UNL     1      15.888 -34.660  20.016  1.00  0.00     0.041 C 
ATOM      7  O   UNL     1      14.718 -34.257  19.778  1.00  0.00    -0.550 OA
ATOM      8  O   UNL     1      16.846 -34.621  19.011  1.00  0.00    -0.550 OA
ENDBRANCH   5   6
ENDBRANCH   4   5
ENDBRANCH   3   4
ENDBRANCH   2   3
ENDBRANCH   1   2
BRANCH   1   9
ATOM      9  C   UNL     1      17.099 -30.960  22.980  1.00  0.00     0.000 C 
BRANCH   9  10
ATOM     10  C   UNL     1      16.374 -31.198  21.647  1.00  0.00    -0.000 C 
BRANCH  10  11
ATOM     11  C   UNL     1      15.029 -30.460  21.615  1.00  0.00    -0.000 C 
BRANCH  11  12
ATOM     12  C   UNL     1      13.857 -31.453  21.629  1.00  0.00    -0.000 C 
BRANCH  12  13
ATOM     13  C   UNL     1      12.881 -31.198  22.789  1.00  0.00    -0.003 C 
ATOM     14  C   UNL     1      13.512 -30.396  23.927  1.00  0.00     0.004 C 
ENDBRANCH  12  13
ENDBRANCH  11  12
ENDBRANCH  10  11
ENDBRANCH   9  10
ENDBRANCH   1   9
TORSDOF 10
ENDMDL
