MODEL 1
REMARK VINA RESULT:    -6.374      0.000      0.000
REMARK INTER + INTRA:          -7.887
REMARK INTER:                  -7.679
REMARK INTRA:                  -0.209
REMARK UNBOUND:                -0.209
REMARK SMILES O=c1c(O)c(-c2ccc(O)c(O)c2)oc2cc(O)cc(O)c12
REMARK SMILES IDX 5 1 3 2 2 3 1 4 22 5 20 6 19 7 17 8 16 9 15 10 14 11 6 12
REMARK SMILES IDX 7 13 8 14 9 15 13 16 11 17 10 18 12 20 4 22 21 24 18 26
REMARK H PARENT 10 19 12 21 4 23 21 25 18 27
REMARK Flexibility Score: inf
ROOT
ATOM      1  C   UNL     1     135.593 101.648  94.110  1.00  0.00     0.180 A 
ATOM      2  C   UNL     1     136.172 102.786  93.522  1.00  0.00     0.208 A 
ATOM      3  C   UNL     1     135.445 103.987  93.501  1.00  0.00     0.238 A 
ATOM      4  O   UNL     1     135.946 104.988  92.926  1.00  0.00    -0.285 OA
ATOM      5  C   UNL     1     134.155 104.039  94.082  1.00  0.00     0.111 A 
ATOM      6  C   UNL     1     133.345 105.213  94.152  1.00  0.00     0.134 A 
ATOM      7  C   UNL     1     132.033 105.119  94.632  1.00  0.00     0.093 A 
ATOM      8  C   UNL     1     131.523 103.910  95.103  1.00  0.00     0.123 A 
ATOM      9  C   UNL     1     132.326 102.768  95.094  1.00  0.00     0.094 A 
ATOM     10  C   UNL     1     133.628 102.824  94.588  1.00  0.00     0.146 A 
ATOM     11  O   UNL     1     134.356 101.713  94.587  1.00  0.00    -0.452 OA
ENDROOT
BRANCH   1  12
ATOM     12  C   UNL     1     136.307 100.354  94.193  1.00  0.00     0.025 A 
ATOM     13  C   UNL     1     135.921  99.253  93.410  1.00  0.00     0.016 A 
ATOM     14  C   UNL     1     136.625  98.048  93.488  1.00  0.00     0.051 A 
ATOM     15  C   UNL     1     137.732  97.931  94.339  1.00  0.00     0.157 A 
ATOM     16  C   UNL     1     137.430 100.237  95.029  1.00  0.00     0.062 A 
ATOM     17  C   UNL     1     138.137  99.029  95.109  1.00  0.00     0.158 A 
BRANCH  15  18
ATOM     18  O   UNL     1     138.436  96.731  94.421  1.00  0.00    -0.504 OA
ATOM     19  H   UNL     1     138.769  96.371  95.308  1.00  0.00     0.293 HD
ENDBRANCH  15  18
BRANCH  17  20
ATOM     20  O   UNL     1     139.243  98.911  95.949  1.00  0.00    -0.504 OA
ATOM     21  H   UNL     1     139.270  98.225  96.695  1.00  0.00     0.293 HD
ENDBRANCH  17  20
ENDBRANCH   1  12
BRANCH   2  22
ATOM     22  O   UNL     1     137.438 102.707  92.935  1.00  0.00    -0.502 OA
ATOM     23  H   UNL     1     137.898 101.825  92.751  1.00  0.00     0.293 HD
ENDBRANCH   2  22
BRANCH   6  24
ATOM     24  O   UNL     1     133.787 106.490  93.793  1.00  0.00    -0.507 OA
ATOM     25  H   UNL     1     134.686 106.877  94.041  1.00  0.00     0.293 HD
ENDBRANCH   6  24
BRANCH   8  26
ATOM     26  O   UNL     1     130.218 103.855  95.587  1.00  0.00    -0.508 OA
ATOM     27  H   UNL     1     129.526 103.239  95.177  1.00  0.00     0.293 HD
ENDBRANCH   8  26
TORSDOF 6
ENDMDL
MODEL 2
REMARK VINA RESULT:    -6.225      1.649      6.408
REMARK INTER + INTRA:          -7.708
REMARK INTER:                  -7.497
REMARK INTRA:                  -0.211
REMARK UNBOUND:                -0.209
REMARK SMILES O=c1c(O)c(-c2ccc(O)c(O)c2)oc2cc(O)cc(O)c12
REMARK SMILES IDX 5 1 3 2 2 3 1 4 22 5 20 6 19 7 17 8 16 9 15 10 14 11 6 12
REMARK SMILES IDX 7 13 8 14 9 15 13 16 11 17 10 18 12 20 4 22 21 24 18 26
REMARK H PARENT 10 19 12 21 4 23 21 25 18 27
REMARK Flexibility Score: inf
ROOT
ATOM      1  C   UNL     1     134.743 102.240  94.061  1.00  0.00     0.180 A 
ATOM      2  C   UNL     1     135.588 103.362  94.004  1.00  0.00     0.208 A 
ATOM      3  C   UNL     1     136.969 103.184  94.179  1.00  0.00     0.238 A 
ATOM      4  O   UNL     1     137.714 104.199  94.182  1.00  0.00    -0.285 OA
ATOM      5  C   UNL     1     137.491 101.885  94.392  1.00  0.00     0.111 A 
ATOM      6  C   UNL     1     138.878 101.583  94.541  1.00  0.00     0.134 A 
ATOM      7  C   UNL     1     139.269 100.282  94.877  1.00  0.00     0.093 A 
ATOM      8  C   UNL     1     138.332  99.258  95.005  1.00  0.00     0.123 A 
ATOM      9  C   UNL     1     136.978  99.529  94.802  1.00  0.00     0.094 A 
ATOM     10  C   UNL     1     136.553 100.827  94.501  1.00  0.00     0.146 A 
ATOM     11  O   UNL     1     135.255 101.045  94.326  1.00  0.00    -0.452 OA
ENDROOT
BRANCH   1  12
ATOM     12  C   UNL     1     133.279 102.345  93.860  1.00  0.00     0.025 A 
ATOM     13  C   UNL     1     132.657 101.813  92.718  1.00  0.00     0.016 A 
ATOM     14  C   UNL     1     131.271 101.902  92.562  1.00  0.00     0.051 A 
ATOM     15  C   UNL     1     130.487 102.513  93.549  1.00  0.00     0.157 A 
ATOM     16  C   UNL     1     132.486 102.937  94.856  1.00  0.00     0.062 A 
ATOM     17  C   UNL     1     131.096 103.028  94.701  1.00  0.00     0.158 A 
BRANCH  15  18
ATOM     18  O   UNL     1     129.105 102.605  93.396  1.00  0.00    -0.504 OA
ATOM     19  H   UNL     1     128.614 103.481  93.535  1.00  0.00     0.293 HD
ENDBRANCH  15  18
BRANCH  17  20
ATOM     20  O   UNL     1     130.312 103.629  95.685  1.00  0.00    -0.504 OA
ATOM     21  H   UNL     1     130.718 103.973  96.548  1.00  0.00     0.293 HD
ENDBRANCH  17  20
ENDBRANCH   1  12
BRANCH   2  22
ATOM     22  O   UNL     1     135.050 104.639  93.815  1.00  0.00    -0.502 OA
ATOM     23  H   UNL     1     135.532 105.361  93.295  1.00  0.00     0.293 HD
ENDBRANCH   2  22
BRANCH   6  24
ATOM     24  O   UNL     1     139.905 102.512  94.345  1.00  0.00    -0.507 OA
ATOM     25  H   UNL     1     139.843 103.493  94.572  1.00  0.00     0.293 HD
ENDBRANCH   6  24
BRANCH   8  26
ATOM     26  O   UNL     1     138.758  97.971  95.325  1.00  0.00    -0.508 OA
ATOM     27  H   UNL     1     138.218  97.371  95.938  1.00  0.00     0.293 HD
ENDBRANCH   8  26
TORSDOF 6
ENDMDL
MODEL 3
REMARK VINA RESULT:    -5.898      1.747      1.868
REMARK INTER + INTRA:          -7.314
REMARK INTER:                  -7.124
REMARK INTRA:                  -0.190
REMARK UNBOUND:                -0.209
REMARK SMILES O=c1c(O)c(-c2ccc(O)c(O)c2)oc2cc(O)cc(O)c12
REMARK SMILES IDX 5 1 3 2 2 3 1 4 22 5 20 6 19 7 17 8 16 9 15 10 14 11 6 12
REMARK SMILES IDX 7 13 8 14 9 15 13 16 11 17 10 18 12 20 4 22 21 24 18 26
REMARK H PARENT 10 19 12 21 4 23 21 25 18 27
REMARK Flexibility Score: inf
ROOT
ATOM      1  C   UNL     1     135.191 101.361  93.638  1.00  0.00     0.180 A 
ATOM      2  C   UNL     1     135.176 101.764  92.291  1.00  0.00     0.208 A 
ATOM      3  C   UNL     1     134.124 102.574  91.835  1.00  0.00     0.238 A 
ATOM      4  O   UNL     1     134.086 102.886  90.616  1.00  0.00    -0.285 OA
ATOM      5  C   UNL     1     133.110 102.984  92.733  1.00  0.00     0.111 A 
ATOM      6  C   UNL     1     132.018 103.838  92.389  1.00  0.00     0.134 A 
ATOM      7  C   UNL     1     131.004 104.073  93.324  1.00  0.00     0.093 A 
ATOM      8  C   UNL     1     131.072 103.539  94.610  1.00  0.00     0.123 A 
ATOM      9  C   UNL     1     132.164 102.752  94.977  1.00  0.00     0.094 A 
ATOM     10  C   UNL     1     133.175 102.470  94.054  1.00  0.00     0.146 A 
ATOM     11  O   UNL     1     134.191 101.709  94.439  1.00  0.00    -0.452 OA
ENDROOT
BRANCH   1  12
ATOM     12  C   UNL     1     136.280 100.528  94.199  1.00  0.00     0.025 A 
ATOM     13  C   UNL     1     136.462  99.194  93.797  1.00  0.00     0.016 A 
ATOM     14  C   UNL     1     137.511  98.434  94.322  1.00  0.00     0.051 A 
ATOM     15  C   UNL     1     138.399  99.001  95.246  1.00  0.00     0.157 A 
ATOM     16  C   UNL     1     137.185 101.096  95.110  1.00  0.00     0.062 A 
ATOM     17  C   UNL     1     138.237 100.336  95.638  1.00  0.00     0.158 A 
BRANCH  15  18
ATOM     18  O   UNL     1     139.445  98.246  95.774  1.00  0.00    -0.504 OA
ATOM     19  H   UNL     1     140.411  98.444  95.540  1.00  0.00     0.293 HD
ENDBRANCH  15  18
BRANCH  17  20
ATOM     20  O   UNL     1     139.127 100.898  96.553  1.00  0.00    -0.504 OA
ATOM     21  H   UNL     1     139.983 101.350  96.250  1.00  0.00     0.293 HD
ENDBRANCH  17  20
ENDBRANCH   1  12
BRANCH   2  22
ATOM     22  O   UNL     1     136.175 101.329  91.416  1.00  0.00    -0.502 OA
ATOM     23  H   UNL     1     137.085 101.769  91.367  1.00  0.00     0.293 HD
ENDBRANCH   2  22
BRANCH   6  24
ATOM     24  O   UNL     1     131.900 104.497  91.161  1.00  0.00    -0.507 OA
ATOM     25  H   UNL     1     131.877 104.037  90.263  1.00  0.00     0.293 HD
ENDBRANCH   6  24
BRANCH   8  26
ATOM     26  O   UNL     1     130.051 103.806  95.520  1.00  0.00    -0.508 OA
ATOM     27  H   UNL     1     129.480 103.064  95.908  1.00  0.00     0.293 HD
ENDBRANCH   8  26
TORSDOF 6
ENDMDL
MODEL 4
REMARK VINA RESULT:    -5.652      1.883      6.902
REMARK INTER + INTRA:          -7.017
REMARK INTER:                  -6.709
REMARK INTRA:                  -0.308
REMARK UNBOUND:                -0.209
REMARK SMILES O=c1c(O)c(-c2ccc(O)c(O)c2)oc2cc(O)cc(O)c12
REMARK SMILES IDX 5 1 3 2 2 3 1 4 22 5 20 6 19 7 17 8 16 9 15 10 14 11 6 12
REMARK SMILES IDX 7 13 8 14 9 15 13 16 11 17 10 18 12 20 4 22 21 24 18 26
REMARK H PARENT 10 19 12 21 4 23 21 25 18 27
REMARK Flexibility Score: inf
ROOT
ATOM      1  C   UNL     1     134.294 102.550  94.067  1.00  0.00     0.180 A 
ATOM      2  C   UNL     1     135.510 102.719  94.753  1.00  0.00     0.208 A 
ATOM      3  C   UNL     1     136.585 101.868  94.453  1.00  0.00     0.238 A 
ATOM      4  O   UNL     1     137.653 101.988  95.109  1.00  0.00    -0.285 OA
ATOM      5  C   UNL     1     136.438 100.871  93.459  1.00  0.00     0.111 A 
ATOM      6  C   UNL     1     137.474  99.980  93.044  1.00  0.00     0.134 A 
ATOM      7  C   UNL     1     137.179  98.948  92.146  1.00  0.00     0.093 A 
ATOM      8  C   UNL     1     135.905  98.813  91.597  1.00  0.00     0.123 A 
ATOM      9  C   UNL     1     134.899  99.715  91.949  1.00  0.00     0.094 A 
ATOM     10  C   UNL     1     135.154 100.733  92.871  1.00  0.00     0.146 A 
ATOM     11  O   UNL     1     134.168 101.564  93.187  1.00  0.00    -0.452 OA
ENDROOT
BRANCH   1  12
ATOM     12  C   UNL     1     133.124 103.424  94.311  1.00  0.00     0.025 A 
ATOM     13  C   UNL     1     132.101 103.047  95.198  1.00  0.00     0.016 A 
ATOM     14  C   UNL     1     131.018 103.899  95.431  1.00  0.00     0.051 A 
ATOM     15  C   UNL     1     130.947 105.142  94.790  1.00  0.00     0.157 A 
ATOM     16  C   UNL     1     133.058 104.681  93.687  1.00  0.00     0.062 A 
ATOM     17  C   UNL     1     131.971 105.536  93.919  1.00  0.00     0.158 A 
BRANCH  15  18
ATOM     18  O   UNL     1     129.868 105.994  95.018  1.00  0.00    -0.504 OA
ATOM     19  H   UNL     1     129.065 106.009  94.399  1.00  0.00     0.293 HD
ENDBRANCH  15  18
BRANCH  17  20
ATOM     20  O   UNL     1     131.902 106.777  93.288  1.00  0.00    -0.504 OA
ATOM     21  H   UNL     1     131.052 107.092  92.833  1.00  0.00     0.293 HD
ENDBRANCH  17  20
ENDBRANCH   1  12
BRANCH   2  22
ATOM     22  O   UNL     1     135.627 103.695  95.747  1.00  0.00    -0.502 OA
ATOM     23  H   UNL     1     136.518 103.958  96.149  1.00  0.00     0.293 HD
ENDBRANCH   2  22
BRANCH   6  24
ATOM     24  O   UNL     1     138.805 100.082  93.462  1.00  0.00    -0.507 OA
ATOM     25  H   UNL     1     139.248 100.937  93.764  1.00  0.00     0.293 HD
ENDBRANCH   6  24
BRANCH   8  26
ATOM     26  O   UNL     1     135.650  97.783  90.693  1.00  0.00    -0.508 OA
ATOM     27  H   UNL     1     135.747  96.810  90.958  1.00  0.00     0.293 HD
ENDBRANCH   8  26
TORSDOF 6
ENDMDL
MODEL 5
REMARK VINA RESULT:    -5.641      4.458      6.218
REMARK INTER + INTRA:          -7.004
REMARK INTER:                  -6.693
REMARK INTRA:                  -0.310
REMARK UNBOUND:                -0.209
REMARK SMILES O=c1c(O)c(-c2ccc(O)c(O)c2)oc2cc(O)cc(O)c12
REMARK SMILES IDX 5 1 3 2 2 3 1 4 22 5 20 6 19 7 17 8 16 9 15 10 14 11 6 12
REMARK SMILES IDX 7 13 8 14 9 15 13 16 11 17 10 18 12 20 4 22 21 24 18 26
REMARK H PARENT 10 19 12 21 4 23 21 25 18 27
REMARK Flexibility Score: inf
ROOT
ATOM      1  C   UNL     1     135.987  99.309  92.021  1.00  0.00     0.180 A 
ATOM      2  C   UNL     1     136.836  99.927  91.087  1.00  0.00     0.208 A 
ATOM      3  C   UNL     1     138.016 100.538  91.539  1.00  0.00     0.238 A 
ATOM      4  O   UNL     1     138.745 101.137  90.706  1.00  0.00    -0.285 OA
ATOM      5  C   UNL     1     138.340 100.511  92.917  1.00  0.00     0.111 A 
ATOM      6  C   UNL     1     139.530 101.064  93.481  1.00  0.00     0.134 A 
ATOM      7  C   UNL     1     139.685 101.094  94.872  1.00  0.00     0.093 A 
ATOM      8  C   UNL     1     138.727 100.535  95.716  1.00  0.00     0.123 A 
ATOM      9  C   UNL     1     137.588  99.938  95.173  1.00  0.00     0.094 A 
ATOM     10  C   UNL     1     137.388  99.925  93.790  1.00  0.00     0.146 A 
ATOM     11  O   UNL     1     136.287  99.357  93.314  1.00  0.00    -0.452 OA
ENDROOT
BRANCH   1  12
ATOM     12  C   UNL     1     134.739  98.622  91.618  1.00  0.00     0.025 A 
ATOM     13  C   UNL     1     133.544  99.334  91.414  1.00  0.00     0.016 A 
ATOM     14  C   UNL     1     132.384  98.667  91.010  1.00  0.00     0.051 A 
ATOM     15  C   UNL     1     132.405  97.283  90.793  1.00  0.00     0.157 A 
ATOM     16  C   UNL     1     134.758  97.238  91.378  1.00  0.00     0.062 A 
ATOM     17  C   UNL     1     133.596  96.568  90.974  1.00  0.00     0.158 A 
BRANCH  15  18
ATOM     18  O   UNL     1     131.250  96.614  90.392  1.00  0.00    -0.504 OA
ATOM     19  H   UNL     1     130.371  96.731  90.884  1.00  0.00     0.293 HD
ENDBRANCH  15  18
BRANCH  17  20
ATOM     20  O   UNL     1     133.614  95.192  90.749  1.00  0.00    -0.504 OA
ATOM     21  H   UNL     1     134.422  94.628  90.987  1.00  0.00     0.293 HD
ENDBRANCH  17  20
ENDBRANCH   1  12
BRANCH   2  22
ATOM     22  O   UNL     1     136.487  99.962  89.734  1.00  0.00    -0.502 OA
ATOM     23  H   UNL     1     136.985 100.527  89.058  1.00  0.00     0.293 HD
ENDBRANCH   2  22
BRANCH   6  24
ATOM     24  O   UNL     1     140.593 101.566  92.724  1.00  0.00    -0.507 OA
ATOM     25  H   UNL     1     140.588 101.661  91.719  1.00  0.00     0.293 HD
ENDBRANCH   6  24
BRANCH   8  26
ATOM     26  O   UNL     1     138.921 100.569  97.095  1.00  0.00    -0.508 OA
ATOM     27  H   UNL     1     138.834 101.431  97.621  1.00  0.00     0.293 HD
ENDBRANCH   8  26
TORSDOF 6
ENDMDL
MODEL 6
REMARK VINA RESULT:    -5.604      2.234      3.308
REMARK INTER + INTRA:          -6.960
REMARK INTER:                  -6.674
REMARK INTRA:                  -0.286
REMARK UNBOUND:                -0.209
REMARK SMILES O=c1c(O)c(-c2ccc(O)c(O)c2)oc2cc(O)cc(O)c12
REMARK SMILES IDX 5 1 3 2 2 3 1 4 22 5 20 6 19 7 17 8 16 9 15 10 14 11 6 12
REMARK SMILES IDX 7 13 8 14 9 15 13 16 11 17 10 18 12 20 4 22 21 24 18 26
REMARK H PARENT 10 19 12 21 4 23 21 25 18 27
REMARK Flexibility Score: inf
ROOT
ATOM      1  C   UNL     1     135.293 102.571  94.306  1.00  0.00     0.180 A 
ATOM      2  C   UNL     1     134.795 103.484  95.251  1.00  0.00     0.208 A 
ATOM      3  C   UNL     1     133.412 103.714  95.313  1.00  0.00     0.238 A 
ATOM      4  O   UNL     1     132.977 104.573  96.124  1.00  0.00    -0.285 OA
ATOM      5  C   UNL     1     132.542 103.016  94.441  1.00  0.00     0.111 A 
ATOM      6  C   UNL     1     131.120 103.140  94.444  1.00  0.00     0.134 A 
ATOM      7  C   UNL     1     130.369 102.501  93.450  1.00  0.00     0.093 A 
ATOM      8  C   UNL     1     130.980 101.691  92.495  1.00  0.00     0.123 A 
ATOM      9  C   UNL     1     132.364 101.514  92.518  1.00  0.00     0.094 A 
ATOM     10  C   UNL     1     133.144 102.168  93.476  1.00  0.00     0.146 A 
ATOM     11  O   UNL     1     134.458 101.982  93.458  1.00  0.00    -0.452 OA
ENDROOT
BRANCH   1  12
ATOM     12  C   UNL     1     136.737 102.258  94.197  1.00  0.00     0.025 A 
ATOM     13  C   UNL     1     137.628 103.130  93.549  1.00  0.00     0.016 A 
ATOM     14  C   UNL     1     138.990 102.824  93.480  1.00  0.00     0.051 A 
ATOM     15  C   UNL     1     139.482 101.651  94.066  1.00  0.00     0.157 A 
ATOM     16  C   UNL     1     137.238 101.093  94.801  1.00  0.00     0.062 A 
ATOM     17  C   UNL     1     138.604 100.785  94.732  1.00  0.00     0.158 A 
BRANCH  15  18
ATOM     18  O   UNL     1     140.839 101.342  93.998  1.00  0.00    -0.504 OA
ATOM     19  H   UNL     1     141.221 100.801  93.230  1.00  0.00     0.293 HD
ENDBRANCH  15  18
BRANCH  17  20
ATOM     20  O   UNL     1     139.097  99.622  95.320  1.00  0.00    -0.504 OA
ATOM     21  H   UNL     1     139.751  99.018  94.834  1.00  0.00     0.293 HD
ENDBRANCH  17  20
ENDBRANCH   1  12
BRANCH   2  22
ATOM     22  O   UNL     1     135.673 104.179  96.088  1.00  0.00    -0.502 OA
ATOM     23  H   UNL     1     136.275 104.920  95.750  1.00  0.00     0.293 HD
ENDBRANCH   2  22
BRANCH   6  24
ATOM     24  O   UNL     1     130.400 103.852  95.409  1.00  0.00    -0.507 OA
ATOM     25  H   UNL     1     130.741 104.071  96.333  1.00  0.00     0.293 HD
ENDBRANCH   6  24
BRANCH   8  26
ATOM     26  O   UNL     1     130.200 101.057  91.529  1.00  0.00    -0.508 OA
ATOM     27  H   UNL     1     129.860 100.112  91.660  1.00  0.00     0.293 HD
ENDBRANCH   8  26
TORSDOF 6
ENDMDL
MODEL 7
REMARK VINA RESULT:    -5.592      1.907      7.084
REMARK INTER + INTRA:          -6.945
REMARK INTER:                  -6.650
REMARK INTRA:                  -0.295
REMARK UNBOUND:                -0.209
REMARK SMILES O=c1c(O)c(-c2ccc(O)c(O)c2)oc2cc(O)cc(O)c12
REMARK SMILES IDX 5 1 3 2 2 3 1 4 22 5 20 6 19 7 17 8 16 9 15 10 14 11 6 12
REMARK SMILES IDX 7 13 8 14 9 15 13 16 11 17 10 18 12 20 4 22 21 24 18 26
REMARK H PARENT 10 19 12 21 4 23 21 25 18 27
REMARK Flexibility Score: inf
ROOT
ATOM      1  C   UNL     1     133.740 102.019  93.493  1.00  0.00     0.180 A 
ATOM      2  C   UNL     1     133.640 101.372  92.250  1.00  0.00     0.208 A 
ATOM      3  C   UNL     1     134.597 100.405  91.905  1.00  0.00     0.238 A 
ATOM      4  O   UNL     1     134.534  99.868  90.769  1.00  0.00    -0.285 OA
ATOM      5  C   UNL     1     135.634 100.085  92.815  1.00  0.00     0.111 A 
ATOM      6  C   UNL     1     136.635  99.092  92.588  1.00  0.00     0.134 A 
ATOM      7  C   UNL     1     137.687  98.951  93.500  1.00  0.00     0.093 A 
ATOM      8  C   UNL     1     137.741  99.719  94.662  1.00  0.00     0.123 A 
ATOM      9  C   UNL     1     136.736 100.651  94.924  1.00  0.00     0.094 A 
ATOM     10  C   UNL     1     135.692 100.840  94.015  1.00  0.00     0.146 A 
ATOM     11  O   UNL     1     134.761 101.743  94.297  1.00  0.00    -0.452 OA
ENDROOT
BRANCH   1  12
ATOM     12  C   UNL     1     132.754 103.031  93.937  1.00  0.00     0.025 A 
ATOM     13  C   UNL     1     131.733 102.707  94.847  1.00  0.00     0.016 A 
ATOM     14  C   UNL     1     130.828 103.685  95.270  1.00  0.00     0.051 A 
ATOM     15  C   UNL     1     130.938 105.000  94.801  1.00  0.00     0.157 A 
ATOM     16  C   UNL     1     132.872 104.356  93.486  1.00  0.00     0.062 A 
ATOM     17  C   UNL     1     131.965 105.337  93.909  1.00  0.00     0.158 A 
BRANCH  15  18
ATOM     18  O   UNL     1     130.037 105.977  95.219  1.00  0.00    -0.504 OA
ATOM     19  H   UNL     1     130.300 106.686  95.895  1.00  0.00     0.293 HD
ENDBRANCH  15  18
BRANCH  17  20
ATOM     20  O   UNL     1     132.077 106.648  93.449  1.00  0.00    -0.504 OA
ATOM     21  H   UNL     1     132.914 107.196  93.610  1.00  0.00     0.293 HD
ENDBRANCH  17  20
ENDBRANCH   1  12
BRANCH   2  22
ATOM     22  O   UNL     1     132.621 101.718  91.357  1.00  0.00    -0.502 OA
ATOM     23  H   UNL     1     132.787 101.849  90.367  1.00  0.00     0.293 HD
ENDBRANCH   2  22
BRANCH   6  24
ATOM     24  O   UNL     1     136.625  98.209  91.504  1.00  0.00    -0.507 OA
ATOM     25  H   UNL     1     136.272  97.264  91.537  1.00  0.00     0.293 HD
ENDBRANCH   6  24
BRANCH   8  26
ATOM     26  O   UNL     1     138.795  99.542  95.555  1.00  0.00    -0.508 OA
ATOM     27  H   UNL     1     138.675  99.684  96.551  1.00  0.00     0.293 HD
ENDBRANCH   8  26
TORSDOF 6
ENDMDL
MODEL 8
REMARK VINA RESULT:    -5.383     13.812     15.895
REMARK INTER + INTRA:          -6.694
REMARK INTER:                  -6.458
REMARK INTRA:                  -0.235
REMARK UNBOUND:                -0.209
REMARK SMILES O=c1c(O)c(-c2ccc(O)c(O)c2)oc2cc(O)cc(O)c12
REMARK SMILES IDX 5 1 3 2 2 3 1 4 22 5 20 6 19 7 17 8 16 9 15 10 14 11 6 12
REMARK SMILES IDX 7 13 8 14 9 15 13 16 11 17 10 18 12 20 4 22 21 24 18 26
REMARK H PARENT 10 19 12 21 4 23 21 25 18 27
REMARK Flexibility Score: inf
ROOT
ATOM      1  C   UNL     1     132.239  94.833 106.402  1.00  0.00     0.180 A 
ATOM      2  C   UNL     1     130.850  94.699 106.238  1.00  0.00     0.208 A 
ATOM      3  C   UNL     1     130.274  93.421 106.321  1.00  0.00     0.238 A 
ATOM      4  O   UNL     1     129.038  93.300 106.118  1.00  0.00    -0.285 OA
ATOM      5  C   UNL     1     131.093  92.296 106.583  1.00  0.00     0.111 A 
ATOM      6  C   UNL     1     130.611  90.959 106.728  1.00  0.00     0.134 A 
ATOM      7  C   UNL     1     131.525  89.907 106.857  1.00  0.00     0.093 A 
ATOM      8  C   UNL     1     132.897  90.146 106.912  1.00  0.00     0.123 A 
ATOM      9  C   UNL     1     133.376  91.454 106.831  1.00  0.00     0.094 A 
ATOM     10  C   UNL     1     132.490  92.523 106.666  1.00  0.00     0.146 A 
ATOM     11  O   UNL     1     132.987  93.751 106.583  1.00  0.00    -0.452 OA
ENDROOT
BRANCH   1  12
ATOM     12  C   UNL     1     132.915  96.150 106.353  1.00  0.00     0.025 A 
ATOM     13  C   UNL     1     133.446  96.743 107.512  1.00  0.00     0.016 A 
ATOM     14  C   UNL     1     134.101  97.976 107.437  1.00  0.00     0.051 A 
ATOM     15  C   UNL     1     134.244  98.626 106.205  1.00  0.00     0.157 A 
ATOM     16  C   UNL     1     133.080  96.797 105.118  1.00  0.00     0.062 A 
ATOM     17  C   UNL     1     133.736  98.034 105.042  1.00  0.00     0.158 A 
BRANCH  15  18
ATOM     18  O   UNL     1     134.895  99.856 106.127  1.00  0.00    -0.504 OA
ATOM     19  H   UNL     1     135.537 100.162 106.849  1.00  0.00     0.293 HD
ENDBRANCH  15  18
BRANCH  17  20
ATOM     20  O   UNL     1     133.886  98.680 103.816  1.00  0.00    -0.504 OA
ATOM     21  H   UNL     1     133.387  99.536 103.604  1.00  0.00     0.293 HD
ENDBRANCH  17  20
ENDBRANCH   1  12
BRANCH   2  22
ATOM     22  O   UNL     1     130.063  95.820 105.957  1.00  0.00    -0.502 OA
ATOM     23  H   UNL     1     130.435  96.761 105.966  1.00  0.00     0.293 HD
ENDBRANCH   2  22
BRANCH   6  24
ATOM     24  O   UNL     1     129.256  90.619 106.780  1.00  0.00    -0.507 OA
ATOM     25  H   UNL     1     128.843  89.832 106.302  1.00  0.00     0.293 HD
ENDBRANCH   6  24
BRANCH   8  26
ATOM     26  O   UNL     1     133.777  89.076 107.056  1.00  0.00    -0.508 OA
ATOM     27  H   UNL     1     134.186  88.843 107.953  1.00  0.00     0.293 HD
ENDBRANCH   8  26
TORSDOF 6
ENDMDL
MODEL 9
REMARK VINA RESULT:    -5.298      3.456      4.261
REMARK INTER + INTRA:          -6.591
REMARK INTER:                  -6.291
REMARK INTRA:                  -0.300
REMARK UNBOUND:                -0.209
REMARK SMILES O=c1c(O)c(-c2ccc(O)c(O)c2)oc2cc(O)cc(O)c12
REMARK SMILES IDX 5 1 3 2 2 3 1 4 22 5 20 6 19 7 17 8 16 9 15 10 14 11 6 12
REMARK SMILES IDX 7 13 8 14 9 15 13 16 11 17 10 18 12 20 4 22 21 24 18 26
REMARK H PARENT 10 19 12 21 4 23 21 25 18 27
REMARK Flexibility Score: inf
ROOT
ATOM      1  C   UNL     1     133.811 100.880  91.819  1.00  0.00     0.180 A 
ATOM      2  C   UNL     1     133.840 101.869  90.821  1.00  0.00     0.208 A 
ATOM      3  C   UNL     1     133.928 103.218  91.201  1.00  0.00     0.238 A 
ATOM      4  O   UNL     1     133.898 104.102  90.305  1.00  0.00    -0.285 OA
ATOM      5  C   UNL     1     134.004 103.560  92.572  1.00  0.00     0.111 A 
ATOM      6  C   UNL     1     134.136 104.892  93.070  1.00  0.00     0.134 A 
ATOM      7  C   UNL     1     134.071 105.124  94.449  1.00  0.00     0.093 A 
ATOM      8  C   UNL     1     133.942 104.069  95.351  1.00  0.00     0.123 A 
ATOM      9  C   UNL     1     133.871 102.758  94.879  1.00  0.00     0.094 A 
ATOM     10  C   UNL     1     133.898 102.498  93.506  1.00  0.00     0.146 A 
ATOM     11  O   UNL     1     133.818 101.237  93.098  1.00  0.00    -0.452 OA
ENDROOT
BRANCH   1  12
ATOM     12  C   UNL     1     133.744  99.436  91.497  1.00  0.00     0.025 A 
ATOM     13  C   UNL     1     134.895  98.629  91.512  1.00  0.00     0.016 A 
ATOM     14  C   UNL     1     134.804  97.264  91.228  1.00  0.00     0.051 A 
ATOM     15  C   UNL     1     133.562  96.684  90.936  1.00  0.00     0.157 A 
ATOM     16  C   UNL     1     132.499  98.846  91.224  1.00  0.00     0.062 A 
ATOM     17  C   UNL     1     132.407  97.477  90.937  1.00  0.00     0.158 A 
BRANCH  15  18
ATOM     18  O   UNL     1     133.468  95.324  90.650  1.00  0.00    -0.504 OA
ATOM     19  H   UNL     1     133.103  94.992  89.764  1.00  0.00     0.293 HD
ENDBRANCH  15  18
BRANCH  17  20
ATOM     20  O   UNL     1     131.172  96.896  90.654  1.00  0.00    -0.504 OA
ATOM     21  H   UNL     1     130.980  95.925  90.875  1.00  0.00     0.293 HD
ENDBRANCH  17  20
ENDBRANCH   1  12
BRANCH   2  22
ATOM     22  O   UNL     1     133.741 101.511  89.474  1.00  0.00    -0.502 OA
ATOM     23  H   UNL     1     134.239 100.721  89.083  1.00  0.00     0.293 HD
ENDBRANCH   2  22
BRANCH   6  24
ATOM     24  O   UNL     1     134.361 106.009  92.259  1.00  0.00    -0.507 OA
ATOM     25  H   UNL     1     135.266 106.301  91.922  1.00  0.00     0.293 HD
ENDBRANCH   6  24
BRANCH   8  26
ATOM     26  O   UNL     1     133.895 104.336  96.718  1.00  0.00    -0.508 OA
ATOM     27  H   UNL     1     134.077 105.263  97.084  1.00  0.00     0.293 HD
ENDBRANCH   8  26
TORSDOF 6
ENDMDL
