MODEL 1
REMARK VINA RESULT:    -3.104      0.000      0.000
REMARK INTER + INTRA:          -7.230
REMARK INTER:                  -5.282
REMARK INTRA:                  -1.948
REMARK UNBOUND:                -1.948
REMARK SMILES CCCCCCCCCCCCCC(=O)[O-]
REMARK SMILES IDX 8 1 9 2 10 3 11 4 12 5 13 6 14 7 15 8 16 9 7 10 6 11 5 12
REMARK SMILES IDX 4 13 3 14 2 15 1 16
REMARK H PARENT
REMARK Flexibility Score: inf
ROOT
ATOM      1  C   UNL     1      12.351  22.999  19.780  1.00  0.00     0.000 C 
ENDROOT
BRANCH   1   2
ATOM      2  C   UNL     1      11.878  21.609  20.242  1.00  0.00     0.000 C 
BRANCH   2   3
ATOM      3  C   UNL     1      10.385  21.583  20.604  1.00  0.00     0.000 C 
BRANCH   3   4
ATOM      4  C   UNL     1       9.630  22.823  20.104  1.00  0.00     0.000 C 
BRANCH   4   5
ATOM      5  C   UNL     1       8.359  22.422  19.341  1.00  0.00     0.006 C 
BRANCH   5   6
ATOM      6  C   UNL     1       7.887  21.007  19.700  1.00  0.00     0.053 C 
BRANCH   6   7
ATOM      7  C   UNL     1       6.686  20.601  18.903  1.00  0.00     0.041 C 
ATOM      8  O   UNL     1       5.614  20.289  19.485  1.00  0.00    -0.550 OA
ATOM      9  O   UNL     1       6.760  20.535  17.517  1.00  0.00    -0.550 OA
ENDBRANCH   6   7
ENDBRANCH   5   6
ENDBRANCH   4   5
ENDBRANCH   3   4
ENDBRANCH   2   3
ENDBRANCH   1   2
BRANCH   1  10
ATOM     10  C   UNL     1      13.054  22.959  18.413  1.00  0.00     0.000 C 
BRANCH  10  11
ATOM     11  C   UNL     1      12.094  22.605  17.264  1.00  0.00    -0.000 C 
BRANCH  11  12
ATOM     12  C   UNL     1      12.643  21.491  16.357  1.00  0.00    -0.000 C 
BRANCH  12  13
ATOM     13  C   UNL     1      11.567  20.473  15.948  1.00  0.00    -0.000 C 
BRANCH  13  14
ATOM     14  C   UNL     1      10.458  20.394  17.008  1.00  0.00    -0.000 C 
BRANCH  14  15
ATOM     15  C   UNL     1      10.560  19.131  17.878  1.00  0.00    -0.003 C 
ATOM     16  C   UNL     1       9.356  18.204  17.718  1.00  0.00     0.004 C 
ENDBRANCH  14  15
ENDBRANCH  13  14
ENDBRANCH  12  13
ENDBRANCH  11  12
ENDBRANCH  10  11
ENDBRANCH   1  10
TORSDOF 12
ENDMDL
MODEL 2
REMARK VINA RESULT:    -3.070      1.842      2.107
REMARK INTER + INTRA:          -7.171
REMARK INTER:                  -5.417
REMARK INTRA:                  -1.754
REMARK UNBOUND:                -1.948
REMARK SMILES CCCCCCCCCCCCCC(=O)[O-]
REMARK SMILES IDX 8 1 9 2 10 3 11 4 12 5 13 6 14 7 15 8 16 9 7 10 6 11 5 12
REMARK SMILES IDX 4 13 3 14 2 15 1 16
REMARK H PARENT
REMARK Flexibility Score: inf
ROOT
ATOM      1  C   UNL     1      13.012  22.722  19.630  1.00  0.00     0.000 C 
ENDROOT
BRANCH   1   2
ATOM      2  C   UNL     1      11.559  22.278  19.874  1.00  0.00     0.000 C 
BRANCH   2   3
ATOM      3  C   UNL     1      11.410  21.410  21.134  1.00  0.00     0.000 C 
BRANCH   3   4
ATOM      4  C   UNL     1       9.945  21.086  21.463  1.00  0.00     0.000 C 
BRANCH   4   5
ATOM      5  C   UNL     1       8.992  21.820  20.508  1.00  0.00     0.006 C 
BRANCH   5   6
ATOM      6  C   UNL     1       7.543  21.334  20.643  1.00  0.00     0.053 C 
BRANCH   6   7
ATOM      7  C   UNL     1       6.962  21.682  21.979  1.00  0.00     0.041 C 
ATOM      8  O   UNL     1       6.989  22.872  22.391  1.00  0.00    -0.550 OA
ATOM      9  O   UNL     1       6.422  20.687  22.785  1.00  0.00    -0.550 OA
ENDBRANCH   6   7
ENDBRANCH   5   6
ENDBRANCH   4   5
ENDBRANCH   3   4
ENDBRANCH   2   3
ENDBRANCH   1   2
BRANCH   1  10
ATOM     10  C   UNL     1      13.268  23.125  18.169  1.00  0.00     0.000 C 
BRANCH  10  11
ATOM     11  C   UNL     1      12.181  22.603  17.213  1.00  0.00    -0.000 C 
BRANCH  11  12
ATOM     12  C   UNL     1      12.650  21.394  16.387  1.00  0.00    -0.000 C 
BRANCH  12  13
ATOM     13  C   UNL     1      11.496  20.459  15.993  1.00  0.00    -0.000 C 
BRANCH  13  14
ATOM     14  C   UNL     1      10.183  20.901  16.656  1.00  0.00    -0.000 C 
BRANCH  14  15
ATOM     15  C   UNL     1       9.497  19.763  17.427  1.00  0.00    -0.003 C 
ATOM     16  C   UNL     1      10.449  19.032  18.373  1.00  0.00     0.004 C 
ENDBRANCH  14  15
ENDBRANCH  13  14
ENDBRANCH  12  13
ENDBRANCH  11  12
ENDBRANCH  10  11
ENDBRANCH   1  10
TORSDOF 12
ENDMDL
MODEL 3
REMARK VINA RESULT:    -3.028      9.737     12.493
REMARK INTER + INTRA:          -7.100
REMARK INTER:                  -6.174
REMARK INTRA:                  -0.926
REMARK UNBOUND:                -1.948
REMARK SMILES CCCCCCCCCCCCCC(=O)[O-]
REMARK SMILES IDX 8 1 9 2 10 3 11 4 12 5 13 6 14 7 15 8 16 9 7 10 6 11 5 12
REMARK SMILES IDX 4 13 3 14 2 15 1 16
REMARK H PARENT
REMARK Flexibility Score: inf
ROOT
ATOM      1  C   UNL     1       0.608  12.675  19.058  1.00  0.00     0.000 C 
ENDROOT
BRANCH   1   2
ATOM      2  C   UNL     1      -0.059  12.123  20.330  1.00  0.00     0.000 C 
BRANCH   2   3
ATOM      3  C   UNL     1       0.611  12.631  21.617  1.00  0.00     0.000 C 
BRANCH   3   4
ATOM      4  C   UNL     1       0.575  11.599  22.754  1.00  0.00     0.000 C 
BRANCH   4   5
ATOM      5  C   UNL     1       1.441  12.055  23.937  1.00  0.00     0.006 C 
BRANCH   5   6
ATOM      6  C   UNL     1       1.369  13.571  24.161  1.00  0.00     0.053 C 
BRANCH   6   7
ATOM      7  C   UNL     1       2.543  14.075  24.943  1.00  0.00     0.041 C 
ATOM      8  O   UNL     1       2.878  13.511  26.017  1.00  0.00    -0.550 OA
ATOM      9  O   UNL     1       3.247  15.189  24.502  1.00  0.00    -0.550 OA
ENDBRANCH   6   7
ENDBRANCH   5   6
ENDBRANCH   4   5
ENDBRANCH   3   4
ENDBRANCH   2   3
ENDBRANCH   1   2
BRANCH   1  10
ATOM     10  C   UNL     1       0.206  11.896  17.795  1.00  0.00     0.000 C 
BRANCH  10  11
ATOM     11  C   UNL     1       0.966  12.367  16.543  1.00  0.00    -0.000 C 
BRANCH  11  12
ATOM     12  C   UNL     1       2.211  13.202  16.886  1.00  0.00    -0.000 C 
BRANCH  12  13
ATOM     13  C   UNL     1       2.127  14.641  16.352  1.00  0.00    -0.000 C 
BRANCH  13  14
ATOM     14  C   UNL     1       2.984  15.590  17.203  1.00  0.00    -0.000 C 
BRANCH  14  15
ATOM     15  C   UNL     1       2.320  15.945  18.543  1.00  0.00    -0.003 C 
ATOM     16  C   UNL     1       0.853  16.343  18.389  1.00  0.00     0.004 C 
ENDBRANCH  14  15
ENDBRANCH  13  14
ENDBRANCH  12  13
ENDBRANCH  11  12
ENDBRANCH  10  11
ENDBRANCH   1  10
TORSDOF 12
ENDMDL
MODEL 4
REMARK VINA RESULT:    -3.014      1.739      3.413
REMARK INTER + INTRA:          -7.077
REMARK INTER:                  -5.101
REMARK INTRA:                  -1.976
REMARK UNBOUND:                -1.948
REMARK SMILES CCCCCCCCCCCCCC(=O)[O-]
REMARK SMILES IDX 8 1 9 2 10 3 11 4 12 5 13 6 14 7 15 8 16 9 7 10 6 11 5 12
REMARK SMILES IDX 4 13 3 14 2 15 1 16
REMARK H PARENT
REMARK Flexibility Score: inf
ROOT
ATOM      1  C   UNL     1       9.407  19.673  16.499  1.00  0.00     0.000 C 
ENDROOT
BRANCH   1   2
ATOM      2  C   UNL     1       8.154  20.168  17.244  1.00  0.00     0.000 C 
BRANCH   2   3
ATOM      3  C   UNL     1       8.117  21.698  17.386  1.00  0.00     0.000 C 
BRANCH   3   4
ATOM      4  C   UNL     1       7.465  22.158  18.698  1.00  0.00     0.000 C 
BRANCH   4   5
ATOM      5  C   UNL     1       7.207  20.965  19.631  1.00  0.00     0.006 C 
BRANCH   5   6
ATOM      6  C   UNL     1       7.331  21.348  21.112  1.00  0.00     0.053 C 
BRANCH   6   7
ATOM      7  C   UNL     1       6.082  21.029  21.875  1.00  0.00     0.041 C 
ATOM      8  O   UNL     1       6.146  20.384  22.954  1.00  0.00    -0.550 OA
ATOM      9  O   UNL     1       4.844  21.416  21.377  1.00  0.00    -0.550 OA
ENDBRANCH   6   7
ENDBRANCH   5   6
ENDBRANCH   4   5
ENDBRANCH   3   4
ENDBRANCH   2   3
ENDBRANCH   1   2
BRANCH   1  10
ATOM     10  C   UNL     1      10.291  20.827  16.000  1.00  0.00     0.000 C 
BRANCH  10  11
ATOM     11  C   UNL     1      11.791  20.492  16.061  1.00  0.00    -0.000 C 
BRANCH  11  12
ATOM     12  C   UNL     1      12.651  21.698  16.472  1.00  0.00    -0.000 C 
BRANCH  12  13
ATOM     13  C   UNL     1      11.991  22.555  17.564  1.00  0.00    -0.000 C 
BRANCH  13  14
ATOM     14  C   UNL     1      12.290  21.988  18.959  1.00  0.00    -0.000 C 
BRANCH  14  15
ATOM     15  C   UNL     1      11.016  21.609  19.729  1.00  0.00    -0.003 C 
ATOM     16  C   UNL     1      10.855  20.099  19.902  1.00  0.00     0.004 C 
ENDBRANCH  14  15
ENDBRANCH  13  14
ENDBRANCH  12  13
ENDBRANCH  11  12
ENDBRANCH  10  11
ENDBRANCH   1  10
TORSDOF 12
ENDMDL
MODEL 5
REMARK VINA RESULT:    -2.948      1.852      4.051
REMARK INTER + INTRA:          -6.964
REMARK INTER:                  -5.828
REMARK INTRA:                  -1.135
REMARK UNBOUND:                -1.948
REMARK SMILES CCCCCCCCCCCCCC(=O)[O-]
REMARK SMILES IDX 8 1 9 2 10 3 11 4 12 5 13 6 14 7 15 8 16 9 7 10 6 11 5 12
REMARK SMILES IDX 4 13 3 14 2 15 1 16
REMARK H PARENT
REMARK Flexibility Score: inf
ROOT
ATOM      1  C   UNL     1      10.937  19.925  17.289  1.00  0.00     0.000 C 
ENDROOT
BRANCH   1   2
ATOM      2  C   UNL     1       9.404  19.814  17.380  1.00  0.00     0.000 C 
BRANCH   2   3
ATOM      3  C   UNL     1       8.904  18.374  17.180  1.00  0.00     0.000 C 
BRANCH   3   4
ATOM      4  C   UNL     1       7.978  18.231  15.963  1.00  0.00     0.000 C 
BRANCH   4   5
ATOM      5  C   UNL     1       6.974  19.391  15.897  1.00  0.00     0.006 C 
BRANCH   5   6
ATOM      6  C   UNL     1       5.520  18.902  15.885  1.00  0.00     0.053 C 
BRANCH   6   7
ATOM      7  C   UNL     1       4.778  19.331  17.114  1.00  0.00     0.041 C 
ATOM      8  O   UNL     1       3.520  19.346  17.122  1.00  0.00    -0.550 OA
ATOM      9  O   UNL     1       5.478  19.747  18.240  1.00  0.00    -0.550 OA
ENDBRANCH   6   7
ENDBRANCH   5   6
ENDBRANCH   4   5
ENDBRANCH   3   4
ENDBRANCH   2   3
ENDBRANCH   1   2
BRANCH   1  10
ATOM     10  C   UNL     1      11.397  20.754  16.078  1.00  0.00     0.000 C 
BRANCH  10  11
ATOM     11  C   UNL     1      12.558  21.704  16.419  1.00  0.00    -0.000 C 
BRANCH  11  12
ATOM     12  C   UNL     1      12.174  22.750  17.479  1.00  0.00    -0.000 C 
BRANCH  12  13
ATOM     13  C   UNL     1      13.331  23.081  18.434  1.00  0.00    -0.000 C 
BRANCH  13  14
ATOM     14  C   UNL     1      12.882  22.965  19.898  1.00  0.00    -0.000 C 
BRANCH  14  15
ATOM     15  C   UNL     1      11.442  22.445  20.036  1.00  0.00    -0.003 C 
ATOM     16  C   UNL     1      11.369  21.078  20.715  1.00  0.00     0.004 C 
ENDBRANCH  14  15
ENDBRANCH  13  14
ENDBRANCH  12  13
ENDBRANCH  11  12
ENDBRANCH  10  11
ENDBRANCH   1  10
TORSDOF 12
ENDMDL
MODEL 6
REMARK VINA RESULT:    -2.939      1.821      2.453
REMARK INTER + INTRA:          -6.950
REMARK INTER:                  -4.979
REMARK INTRA:                  -1.971
REMARK UNBOUND:                -1.948
REMARK SMILES CCCCCCCCCCCCCC(=O)[O-]
REMARK SMILES IDX 8 1 9 2 10 3 11 4 12 5 13 6 14 7 15 8 16 9 7 10 6 11 5 12
REMARK SMILES IDX 4 13 3 14 2 15 1 16
REMARK H PARENT
REMARK Flexibility Score: inf
ROOT
ATOM      1  C   UNL     1      11.504  21.257  19.723  1.00  0.00     0.000 C 
ENDROOT
BRANCH   1   2
ATOM      2  C   UNL     1      10.121  21.593  20.309  1.00  0.00     0.000 C 
BRANCH   2   3
ATOM      3  C   UNL     1       9.393  22.689  19.515  1.00  0.00     0.000 C 
BRANCH   3   4
ATOM      4  C   UNL     1       7.975  22.274  19.093  1.00  0.00     0.000 C 
BRANCH   4   5
ATOM      5  C   UNL     1       7.560  20.963  19.777  1.00  0.00     0.006 C 
BRANCH   5   6
ATOM      6  C   UNL     1       6.292  21.126  20.626  1.00  0.00     0.053 C 
BRANCH   6   7
ATOM      7  C   UNL     1       6.606  21.182  22.089  1.00  0.00     0.041 C 
ATOM      8  O   UNL     1       6.065  20.371  22.886  1.00  0.00    -0.550 OA
ATOM      9  O   UNL     1       7.471  22.153  22.579  1.00  0.00    -0.550 OA
ENDBRANCH   6   7
ENDBRANCH   5   6
ENDBRANCH   4   5
ENDBRANCH   3   4
ENDBRANCH   2   3
ENDBRANCH   1   2
BRANCH   1  10
ATOM     10  C   UNL     1      12.515  22.402  19.904  1.00  0.00     0.000 C 
BRANCH  10  11
ATOM     11  C   UNL     1      13.003  22.976  18.562  1.00  0.00    -0.000 C 
BRANCH  11  12
ATOM     12  C   UNL     1      12.572  22.120  17.360  1.00  0.00    -0.000 C 
BRANCH  12  13
ATOM     13  C   UNL     1      11.646  22.874  16.394  1.00  0.00    -0.000 C 
BRANCH  13  14
ATOM     14  C   UNL     1      10.444  22.004  15.998  1.00  0.00    -0.000 C 
BRANCH  14  15
ATOM     15  C   UNL     1      10.727  20.501  16.144  1.00  0.00    -0.003 C 
ATOM     16  C   UNL     1       9.606  19.755  16.866  1.00  0.00     0.004 C 
ENDBRANCH  14  15
ENDBRANCH  13  14
ENDBRANCH  12  13
ENDBRANCH  11  12
ENDBRANCH  10  11
ENDBRANCH   1  10
TORSDOF 12
ENDMDL
MODEL 7
REMARK VINA RESULT:    -2.895      2.512      4.679
REMARK INTER + INTRA:          -6.874
REMARK INTER:                  -5.509
REMARK INTRA:                  -1.364
REMARK UNBOUND:                -1.948
REMARK SMILES CCCCCCCCCCCCCC(=O)[O-]
REMARK SMILES IDX 8 1 9 2 10 3 11 4 12 5 13 6 14 7 15 8 16 9 7 10 6 11 5 12
REMARK SMILES IDX 4 13 3 14 2 15 1 16
REMARK H PARENT
REMARK Flexibility Score: inf
ROOT
ATOM      1  C   UNL     1      10.945  20.502  15.896  1.00  0.00     0.000 C 
ENDROOT
BRANCH   1   2
ATOM      2  C   UNL     1      12.344  21.089  16.157  1.00  0.00     0.000 C 
BRANCH   2   3
ATOM      3  C   UNL     1      12.293  22.553  16.624  1.00  0.00     0.000 C 
BRANCH   3   4
ATOM      4  C   UNL     1      12.759  22.730  18.077  1.00  0.00     0.000 C 
BRANCH   4   5
ATOM      5  C   UNL     1      11.577  22.611  19.050  1.00  0.00     0.006 C 
BRANCH   5   6
ATOM      6  C   UNL     1      11.531  21.244  19.745  1.00  0.00     0.053 C 
BRANCH   6   7
ATOM      7  C   UNL     1      11.277  21.376  21.216  1.00  0.00     0.041 C 
ATOM      8  O   UNL     1      12.224  21.645  22.001  1.00  0.00    -0.550 OA
ATOM      9  O   UNL     1      10.001  21.166  21.724  1.00  0.00    -0.550 OA
ENDBRANCH   6   7
ENDBRANCH   5   6
ENDBRANCH   4   5
ENDBRANCH   3   4
ENDBRANCH   2   3
ENDBRANCH   1   2
BRANCH   1  10
ATOM     10  C   UNL     1       9.848  21.579  15.875  1.00  0.00     0.000 C 
BRANCH  10  11
ATOM     11  C   UNL     1       8.470  21.028  16.283  1.00  0.00    -0.000 C 
BRANCH  11  12
ATOM     12  C   UNL     1       8.563  19.658  16.974  1.00  0.00    -0.000 C 
BRANCH  12  13
ATOM     13  C   UNL     1       8.366  19.744  18.495  1.00  0.00    -0.000 C 
BRANCH  13  14
ATOM     14  C   UNL     1       6.914  20.108  18.839  1.00  0.00    -0.000 C 
BRANCH  14  15
ATOM     15  C   UNL     1       6.801  20.943  20.123  1.00  0.00    -0.003 C 
ATOM     16  C   UNL     1       5.803  22.093  19.996  1.00  0.00     0.004 C 
ENDBRANCH  14  15
ENDBRANCH  13  14
ENDBRANCH  12  13
ENDBRANCH  11  12
ENDBRANCH  10  11
ENDBRANCH   1  10
TORSDOF 12
ENDMDL
MODEL 8
REMARK VINA RESULT:    -2.884      2.607      5.444
REMARK INTER + INTRA:          -6.856
REMARK INTER:                  -5.225
REMARK INTRA:                  -1.631
REMARK UNBOUND:                -1.948
REMARK SMILES CCCCCCCCCCCCCC(=O)[O-]
REMARK SMILES IDX 8 1 9 2 10 3 11 4 12 5 13 6 14 7 15 8 16 9 7 10 6 11 5 12
REMARK SMILES IDX 4 13 3 14 2 15 1 16
REMARK H PARENT
REMARK Flexibility Score: inf
ROOT
ATOM      1  C   UNL     1       9.007  18.515  17.717  1.00  0.00     0.000 C 
ENDROOT
BRANCH   1   2
ATOM      2  C   UNL     1      10.436  19.086  17.654  1.00  0.00     0.000 C 
BRANCH   2   3
ATOM      3  C   UNL     1      10.548  20.296  16.713  1.00  0.00     0.000 C 
BRANCH   3   4
ATOM      4  C   UNL     1      11.954  20.456  16.116  1.00  0.00     0.000 C 
BRANCH   4   5
ATOM      5  C   UNL     1      12.601  21.770  16.579  1.00  0.00     0.006 C 
BRANCH   5   6
ATOM      6  C   UNL     1      11.778  22.471  17.667  1.00  0.00     0.053 C 
BRANCH   6   7
ATOM      7  C   UNL     1      12.402  22.320  19.021  1.00  0.00     0.041 C 
ATOM      8  O   UNL     1      11.895  21.540  19.869  1.00  0.00    -0.550 OA
ATOM      9  O   UNL     1      13.526  23.065  19.357  1.00  0.00    -0.550 OA
ENDBRANCH   6   7
ENDBRANCH   5   6
ENDBRANCH   4   5
ENDBRANCH   3   4
ENDBRANCH   2   3
ENDBRANCH   1   2
BRANCH   1  10
ATOM     10  C   UNL     1       8.269  18.624  16.373  1.00  0.00     0.000 C 
BRANCH  10  11
ATOM     11  C   UNL     1       6.949  19.408  16.485  1.00  0.00    -0.000 C 
BRANCH  11  12
ATOM     12  C   UNL     1       6.818  20.156  17.822  1.00  0.00    -0.000 C 
BRANCH  12  13
ATOM     13  C   UNL     1       7.052  21.668  17.683  1.00  0.00    -0.000 C 
BRANCH  13  14
ATOM     14  C   UNL     1       8.121  22.149  18.676  1.00  0.00    -0.000 C 
BRANCH  14  15
ATOM     15  C   UNL     1       8.194  21.273  19.936  1.00  0.00    -0.003 C 
ATOM     16  C   UNL     1       7.321  21.800  21.074  1.00  0.00     0.004 C 
ENDBRANCH  14  15
ENDBRANCH  13  14
ENDBRANCH  12  13
ENDBRANCH  11  12
ENDBRANCH  10  11
ENDBRANCH   1  10
TORSDOF 12
ENDMDL
MODEL 9
REMARK VINA RESULT:    -2.850      9.218     11.909
REMARK INTER + INTRA:          -6.798
REMARK INTER:                  -5.728
REMARK INTRA:                  -1.070
REMARK UNBOUND:                -1.948
REMARK SMILES CCCCCCCCCCCCCC(=O)[O-]
REMARK SMILES IDX 8 1 9 2 10 3 11 4 12 5 13 6 14 7 15 8 16 9 7 10 6 11 5 12
REMARK SMILES IDX 4 13 3 14 2 15 1 16
REMARK H PARENT
REMARK Flexibility Score: inf
ROOT
ATOM      1  C   UNL     1       0.040  13.020  18.865  1.00  0.00     0.000 C 
ENDROOT
BRANCH   1   2
ATOM      2  C   UNL     1       0.607  12.702  20.260  1.00  0.00     0.000 C 
BRANCH   2   3
ATOM      3  C   UNL     1       0.137  13.701  21.330  1.00  0.00     0.000 C 
BRANCH   3   4
ATOM      4  C   UNL     1       0.967  14.993  21.342  1.00  0.00     0.000 C 
BRANCH   4   5
ATOM      5  C   UNL     1       1.099  15.547  22.769  1.00  0.00     0.006 C 
BRANCH   5   6
ATOM      6  C   UNL     1       1.613  14.493  23.758  1.00  0.00     0.053 C 
BRANCH   6   7
ATOM      7  C   UNL     1       2.772  15.000  24.560  1.00  0.00     0.041 C 
ATOM      8  O   UNL     1       3.463  15.964  24.136  1.00  0.00    -0.550 OA
ATOM      9  O   UNL     1       3.110  14.387  25.760  1.00  0.00    -0.550 OA
ENDBRANCH   6   7
ENDBRANCH   5   6
ENDBRANCH   4   5
ENDBRANCH   3   4
ENDBRANCH   2   3
ENDBRANCH   1   2
BRANCH   1  10
ATOM     10  C   UNL     1       0.124  11.821  17.906  1.00  0.00     0.000 C 
BRANCH  10  11
ATOM     11  C   UNL     1       0.833  12.169  16.585  1.00  0.00    -0.000 C 
BRANCH  11  12
ATOM     12  C   UNL     1       1.950  13.209  16.770  1.00  0.00    -0.000 C 
BRANCH  12  13
ATOM     13  C   UNL     1       1.755  14.454  15.891  1.00  0.00    -0.000 C 
BRANCH  13  14
ATOM     14  C   UNL     1       2.558  15.642  16.441  1.00  0.00    -0.000 C 
BRANCH  14  15
ATOM     15  C   UNL     1       2.566  15.692  17.976  1.00  0.00    -0.003 C 
ATOM     16  C   UNL     1       2.530  17.119  18.523  1.00  0.00     0.004 C 
ENDBRANCH  14  15
ENDBRANCH  13  14
ENDBRANCH  12  13
ENDBRANCH  11  12
ENDBRANCH  10  11
ENDBRANCH   1  10
TORSDOF 12
ENDMDL
