MODEL 1
REMARK VINA RESULT:    -6.911      0.000      0.000
REMARK INTER + INTRA:          -8.650
REMARK INTER:                  -8.326
REMARK INTRA:                  -0.325
REMARK UNBOUND:                -0.325
REMARK SMILES O=c1c(O)c(-c2ccc(O)c(O)c2)oc2cc(O)cc(O)c12
REMARK SMILES IDX 5 1 3 2 2 3 1 4 22 5 20 6 19 7 17 8 16 9 15 10 14 11 6 12
REMARK SMILES IDX 7 13 8 14 9 15 13 16 11 17 10 18 12 20 4 22 21 24 18 26
REMARK H PARENT 10 19 12 21 4 23 21 25 18 27
REMARK Flexibility Score: inf
ROOT
ATOM      1  C   UNL     1      -7.281  66.565  29.709  1.00  0.00     0.180 A 
ATOM      2  C   UNL     1      -7.575  67.378  30.821  1.00  0.00     0.208 A 
ATOM      3  C   UNL     1      -8.907  67.483  31.250  1.00  0.00     0.238 A 
ATOM      4  O   UNL     1      -9.180  68.200  32.252  1.00  0.00    -0.285 OA
ATOM      5  C   UNL     1      -9.920  66.795  30.554  1.00  0.00     0.111 A 
ATOM      6  C   UNL     1     -11.288  66.851  30.921  1.00  0.00     0.134 A 
ATOM      7  C   UNL     1     -12.238  66.143  30.170  1.00  0.00     0.093 A 
ATOM      8  C   UNL     1     -11.851  65.383  29.064  1.00  0.00     0.123 A 
ATOM      9  C   UNL     1     -10.503  65.323  28.698  1.00  0.00     0.094 A 
ATOM     10  C   UNL     1      -9.539  66.020  29.433  1.00  0.00     0.146 A 
ATOM     11  O   UNL     1      -8.265  65.942  29.068  1.00  0.00    -0.452 OA
ENDROOT
BRANCH   1  12
ATOM     12  C   UNL     1      -5.899  66.389  29.207  1.00  0.00     0.025 A 
ATOM     13  C   UNL     1      -5.089  65.382  29.754  1.00  0.00     0.016 A 
ATOM     14  C   UNL     1      -3.776  65.211  29.310  1.00  0.00     0.051 A 
ATOM     15  C   UNL     1      -3.247  66.054  28.324  1.00  0.00     0.157 A 
ATOM     16  C   UNL     1      -5.359  67.246  28.232  1.00  0.00     0.062 A 
ATOM     17  C   UNL     1      -4.042  67.079  27.786  1.00  0.00     0.158 A 
BRANCH  15  18
ATOM     18  O   UNL     1      -1.937  65.879  27.880  1.00  0.00    -0.504 OA
ATOM     19  H   UNL     1      -1.645  65.033  27.406  1.00  0.00     0.293 HD
ENDBRANCH  15  18
BRANCH  17  20
ATOM     20  O   UNL     1      -3.543  67.944  26.814  1.00  0.00    -0.504 OA
ATOM     21  H   UNL     1      -3.531  67.700  25.830  1.00  0.00     0.293 HD
ENDBRANCH  17  20
ENDBRANCH   1  12
BRANCH   2  22
ATOM     22  O   UNL     1      -6.559  68.090  31.462  1.00  0.00    -0.502 OA
ATOM     23  H   UNL     1      -5.767  68.475  30.962  1.00  0.00     0.293 HD
ENDBRANCH   2  22
BRANCH   6  24
ATOM     24  O   UNL     1     -11.707  67.601  32.019  1.00  0.00    -0.507 OA
ATOM     25  H   UNL     1     -11.053  68.125  32.589  1.00  0.00     0.293 HD
ENDBRANCH   6  24
BRANCH   8  26
ATOM     26  O   UNL     1     -12.816  64.690  28.336  1.00  0.00    -0.508 OA
ATOM     27  H   UNL     1     -13.395  63.979  28.767  1.00  0.00     0.293 HD
ENDBRANCH   8  26
TORSDOF 6
ENDMDL
MODEL 2
REMARK VINA RESULT:    -6.829      3.086      4.181
REMARK INTER + INTRA:          -8.550
REMARK INTER:                  -8.231
REMARK INTRA:                  -0.319
REMARK UNBOUND:                -0.325
REMARK SMILES O=c1c(O)c(-c2ccc(O)c(O)c2)oc2cc(O)cc(O)c12
REMARK SMILES IDX 5 1 3 2 2 3 1 4 22 5 20 6 19 7 17 8 16 9 15 10 14 11 6 12
REMARK SMILES IDX 7 13 8 14 9 15 13 16 11 17 10 18 12 20 4 22 21 24 18 26
REMARK H PARENT 10 19 12 21 4 23 21 25 18 27
REMARK Flexibility Score: inf
ROOT
ATOM      1  C   UNL     1      -8.489  67.659  31.066  1.00  0.00     0.180 A 
ATOM      2  C   UNL     1      -8.654  68.891  30.405  1.00  0.00     0.208 A 
ATOM      3  C   UNL     1      -9.694  69.026  29.473  1.00  0.00     0.238 A 
ATOM      4  O   UNL     1      -9.858  70.129  28.882  1.00  0.00    -0.285 OA
ATOM      5  C   UNL     1     -10.535  67.927  29.203  1.00  0.00     0.111 A 
ATOM      6  C   UNL     1     -11.604  67.980  28.275  1.00  0.00     0.134 A 
ATOM      7  C   UNL     1     -12.391  66.840  28.056  1.00  0.00     0.093 A 
ATOM      8  C   UNL     1     -12.132  65.652  28.743  1.00  0.00     0.123 A 
ATOM      9  C   UNL     1     -11.078  65.595  29.660  1.00  0.00     0.094 A 
ATOM     10  C   UNL     1     -10.283  66.720  29.895  1.00  0.00     0.146 A 
ATOM     11  O   UNL     1      -9.292  66.640  30.775  1.00  0.00    -0.452 OA
ENDROOT
BRANCH   1  12
ATOM     12  C   UNL     1      -7.426  67.444  32.075  1.00  0.00     0.025 A 
ATOM     13  C   UNL     1      -6.148  67.041  31.658  1.00  0.00     0.016 A 
ATOM     14  C   UNL     1      -5.138  66.812  32.594  1.00  0.00     0.051 A 
ATOM     15  C   UNL     1      -5.393  66.966  33.963  1.00  0.00     0.157 A 
ATOM     16  C   UNL     1      -7.686  67.576  33.451  1.00  0.00     0.062 A 
ATOM     17  C   UNL     1      -6.676  67.345  34.393  1.00  0.00     0.158 A 
BRANCH  15  18
ATOM     18  O   UNL     1      -4.382  66.738  34.895  1.00  0.00    -0.504 OA
ATOM     19  H   UNL     1      -4.574  66.307  35.792  1.00  0.00     0.293 HD
ENDBRANCH  15  18
BRANCH  17  20
ATOM     20  O   UNL     1      -6.968  67.492  35.748  1.00  0.00    -0.504 OA
ATOM     21  H   UNL     1      -6.914  66.716  36.397  1.00  0.00     0.293 HD
ENDBRANCH  17  20
ENDBRANCH   1  12
BRANCH   2  22
ATOM     22  O   UNL     1      -7.775  69.949  30.653  1.00  0.00    -0.502 OA
ATOM     23  H   UNL     1      -7.146  69.956  31.447  1.00  0.00     0.293 HD
ENDBRANCH   2  22
BRANCH   6  24
ATOM     24  O   UNL     1     -11.889  69.151  27.573  1.00  0.00    -0.507 OA
ATOM     25  H   UNL     1     -12.398  69.918  27.997  1.00  0.00     0.293 HD
ENDBRANCH   6  24
BRANCH   8  26
ATOM     26  O   UNL     1     -12.928  64.534  28.505  1.00  0.00    -0.508 OA
ATOM     27  H   UNL     1     -13.723  64.316  29.095  1.00  0.00     0.293 HD
ENDBRANCH   8  26
TORSDOF 6
ENDMDL
MODEL 3
REMARK VINA RESULT:    -6.820      1.608      7.053
REMARK INTER + INTRA:          -8.541
REMARK INTER:                  -8.214
REMARK INTRA:                  -0.326
REMARK UNBOUND:                -0.325
REMARK SMILES O=c1c(O)c(-c2ccc(O)c(O)c2)oc2cc(O)cc(O)c12
REMARK SMILES IDX 5 1 3 2 2 3 1 4 22 5 20 6 19 7 17 8 16 9 15 10 14 11 6 12
REMARK SMILES IDX 7 13 8 14 9 15 13 16 11 17 10 18 12 20 4 22 21 24 18 26
REMARK H PARENT 10 19 12 21 4 23 21 25 18 27
REMARK Flexibility Score: inf
ROOT
ATOM      1  C   UNL     1      -7.626  66.906  28.996  1.00  0.00     0.180 A 
ATOM      2  C   UNL     1      -6.775  65.929  29.547  1.00  0.00     0.208 A 
ATOM      3  C   UNL     1      -5.424  65.916  29.169  1.00  0.00     0.238 A 
ATOM      4  O   UNL     1      -4.649  65.052  29.665  1.00  0.00    -0.285 OA
ATOM      5  C   UNL     1      -4.952  66.862  28.236  1.00  0.00     0.111 A 
ATOM      6  C   UNL     1      -3.605  66.914  27.800  1.00  0.00     0.134 A 
ATOM      7  C   UNL     1      -3.216  67.881  26.861  1.00  0.00     0.093 A 
ATOM      8  C   UNL     1      -4.142  68.793  26.351  1.00  0.00     0.123 A 
ATOM      9  C   UNL     1      -5.473  68.746  26.778  1.00  0.00     0.094 A 
ATOM     10  C   UNL     1      -5.882  67.792  27.714  1.00  0.00     0.146 A 
ATOM     11  O   UNL     1      -7.150  67.773  28.108  1.00  0.00    -0.452 OA
ENDROOT
BRANCH   1  12
ATOM     12  C   UNL     1      -9.059  66.996  29.359  1.00  0.00     0.025 A 
ATOM     13  C   UNL     1     -10.005  66.263  28.625  1.00  0.00     0.016 A 
ATOM     14  C   UNL     1     -11.364  66.349  28.936  1.00  0.00     0.051 A 
ATOM     15  C   UNL     1     -11.800  67.182  29.975  1.00  0.00     0.157 A 
ATOM     16  C   UNL     1      -9.502  67.848  30.386  1.00  0.00     0.062 A 
ATOM     17  C   UNL     1     -10.864  67.938  30.700  1.00  0.00     0.158 A 
BRANCH  15  18
ATOM     18  O   UNL     1     -13.157  67.265  30.285  1.00  0.00    -0.504 OA
ATOM     19  H   UNL     1     -13.476  67.617  31.179  1.00  0.00     0.293 HD
ENDBRANCH  15  18
BRANCH  17  20
ATOM     20  O   UNL     1     -11.266  68.788  31.729  1.00  0.00    -0.504 OA
ATOM     21  H   UNL     1     -11.409  68.457  32.676  1.00  0.00     0.293 HD
ENDBRANCH  17  20
ENDBRANCH   1  12
BRANCH   2  22
ATOM     22  O   UNL     1      -7.279  64.972  30.431  1.00  0.00    -0.502 OA
ATOM     23  H   UNL     1      -7.677  64.096  30.114  1.00  0.00     0.293 HD
ENDBRANCH   2  22
BRANCH   6  24
ATOM     24  O   UNL     1      -2.656  66.017  28.289  1.00  0.00    -0.507 OA
ATOM     25  H   UNL     1      -2.490  65.121  27.847  1.00  0.00     0.293 HD
ENDBRANCH   6  24
BRANCH   8  26
ATOM     26  O   UNL     1      -3.729  69.742  25.418  1.00  0.00    -0.508 OA
ATOM     27  H   UNL     1      -2.776  70.088  25.402  1.00  0.00     0.293 HD
ENDBRANCH   8  26
TORSDOF 6
ENDMDL
MODEL 4
REMARK VINA RESULT:    -6.717      2.839      6.780
REMARK INTER + INTRA:          -8.416
REMARK INTER:                  -8.099
REMARK INTRA:                  -0.317
REMARK UNBOUND:                -0.325
REMARK SMILES O=c1c(O)c(-c2ccc(O)c(O)c2)oc2cc(O)cc(O)c12
REMARK SMILES IDX 5 1 3 2 2 3 1 4 22 5 20 6 19 7 17 8 16 9 15 10 14 11 6 12
REMARK SMILES IDX 7 13 8 14 9 15 13 16 11 17 10 18 12 20 4 22 21 24 18 26
REMARK H PARENT 10 19 12 21 4 23 21 25 18 27
REMARK Flexibility Score: inf
ROOT
ATOM      1  C   UNL     1      -7.916  67.439  30.836  1.00  0.00     0.180 A 
ATOM      2  C   UNL     1      -7.274  68.578  30.314  1.00  0.00     0.208 A 
ATOM      3  C   UNL     1      -6.079  69.014  30.909  1.00  0.00     0.238 A 
ATOM      4  O   UNL     1      -5.489  70.027  30.443  1.00  0.00    -0.285 OA
ATOM      5  C   UNL     1      -5.560  68.320  32.020  1.00  0.00     0.111 A 
ATOM      6  C   UNL     1      -4.364  68.696  32.678  1.00  0.00     0.134 A 
ATOM      7  C   UNL     1      -3.917  67.959  33.785  1.00  0.00     0.093 A 
ATOM      8  C   UNL     1      -4.640  66.856  34.245  1.00  0.00     0.123 A 
ATOM      9  C   UNL     1      -5.822  66.480  33.599  1.00  0.00     0.094 A 
ATOM     10  C   UNL     1      -6.284  67.200  32.493  1.00  0.00     0.146 A 
ATOM     11  O   UNL     1      -7.406  66.818  31.894  1.00  0.00    -0.452 OA
ENDROOT
BRANCH   1  12
ATOM     12  C   UNL     1      -9.170  66.907  30.253  1.00  0.00     0.025 A 
ATOM     13  C   UNL     1      -9.104  65.907  29.270  1.00  0.00     0.016 A 
ATOM     14  C   UNL     1     -10.272  65.405  28.692  1.00  0.00     0.051 A 
ATOM     15  C   UNL     1     -11.523  65.907  29.076  1.00  0.00     0.157 A 
ATOM     16  C   UNL     1     -10.425  67.423  30.620  1.00  0.00     0.062 A 
ATOM     17  C   UNL     1     -11.599  66.924  30.041  1.00  0.00     0.158 A 
BRANCH  15  18
ATOM     18  O   UNL     1     -12.688  65.403  28.498  1.00  0.00    -0.504 OA
ATOM     19  H   UNL     1     -13.548  65.937  28.485  1.00  0.00     0.293 HD
ENDBRANCH  15  18
BRANCH  17  20
ATOM     20  O   UNL     1     -12.826  67.455  30.434  1.00  0.00    -0.504 OA
ATOM     21  H   UNL     1     -13.488  66.927  30.992  1.00  0.00     0.293 HD
ENDBRANCH  17  20
ENDBRANCH   1  12
BRANCH   2  22
ATOM     22  O   UNL     1      -7.836  69.278  29.244  1.00  0.00    -0.502 OA
ATOM     23  H   UNL     1      -7.331  69.995  28.739  1.00  0.00     0.293 HD
ENDBRANCH   2  22
BRANCH   6  24
ATOM     24  O   UNL     1      -3.619  69.793  32.243  1.00  0.00    -0.507 OA
ATOM     25  H   UNL     1      -3.826  70.267  31.373  1.00  0.00     0.293 HD
ENDBRANCH   6  24
BRANCH   8  26
ATOM     26  O   UNL     1      -4.175  66.142  35.347  1.00  0.00    -0.508 OA
ATOM     27  H   UNL     1      -4.632  65.292  35.658  1.00  0.00     0.293 HD
ENDBRANCH   8  26
TORSDOF 6
ENDMDL
MODEL 5
REMARK VINA RESULT:    -6.697      1.995      7.095
REMARK INTER + INTRA:          -8.391
REMARK INTER:                  -8.061
REMARK INTRA:                  -0.331
REMARK UNBOUND:                -0.325
REMARK SMILES O=c1c(O)c(-c2ccc(O)c(O)c2)oc2cc(O)cc(O)c12
REMARK SMILES IDX 5 1 3 2 2 3 1 4 22 5 20 6 19 7 17 8 16 9 15 10 14 11 6 12
REMARK SMILES IDX 7 13 8 14 9 15 13 16 11 17 10 18 12 20 4 22 21 24 18 26
REMARK H PARENT 10 19 12 21 4 23 21 25 18 27
REMARK Flexibility Score: inf
ROOT
ATOM      1  C   UNL     1      -9.736  66.560  29.473  1.00  0.00     0.180 A 
ATOM      2  C   UNL     1      -9.742  67.675  28.613  1.00  0.00     0.208 A 
ATOM      3  C   UNL     1      -8.530  68.102  28.049  1.00  0.00     0.238 A 
ATOM      4  O   UNL     1      -8.526  69.094  27.269  1.00  0.00    -0.285 OA
ATOM      5  C   UNL     1      -7.336  67.424  28.366  1.00  0.00     0.111 A 
ATOM      6  C   UNL     1      -6.073  67.793  27.841  1.00  0.00     0.134 A 
ATOM      7  C   UNL     1      -4.929  67.072  28.213  1.00  0.00     0.093 A 
ATOM      8  C   UNL     1      -5.021  65.994  29.095  1.00  0.00     0.123 A 
ATOM      9  C   UNL     1      -6.265  65.624  29.615  1.00  0.00     0.094 A 
ATOM     10  C   UNL     1      -7.419  66.328  29.257  1.00  0.00     0.146 A 
ATOM     11  O   UNL     1      -8.589  65.953  29.761  1.00  0.00    -0.452 OA
ENDROOT
BRANCH   1  12
ATOM     12  C   UNL     1     -10.976  66.037  30.093  1.00  0.00     0.025 A 
ATOM     13  C   UNL     1     -11.372  66.515  31.352  1.00  0.00     0.016 A 
ATOM     14  C   UNL     1     -12.526  66.021  31.965  1.00  0.00     0.051 A 
ATOM     15  C   UNL     1     -13.292  65.031  31.336  1.00  0.00     0.157 A 
ATOM     16  C   UNL     1     -11.735  65.028  29.474  1.00  0.00     0.062 A 
ATOM     17  C   UNL     1     -12.891  64.529  30.087  1.00  0.00     0.158 A 
BRANCH  15  18
ATOM     18  O   UNL     1     -14.445  64.541  31.950  1.00  0.00    -0.504 OA
ATOM     19  H   UNL     1     -14.731  64.855  32.869  1.00  0.00     0.293 HD
ENDBRANCH  15  18
BRANCH  17  20
ATOM     20  O   UNL     1     -13.623  63.533  29.442  1.00  0.00    -0.504 OA
ATOM     21  H   UNL     1     -13.730  63.512  28.434  1.00  0.00     0.293 HD
ENDBRANCH  17  20
ENDBRANCH   1  12
BRANCH   2  22
ATOM     22  O   UNL     1     -10.932  68.360  28.355  1.00  0.00    -0.502 OA
ATOM     23  H   UNL     1     -10.961  69.209  27.804  1.00  0.00     0.293 HD
ENDBRANCH   2  22
BRANCH   6  24
ATOM     24  O   UNL     1      -5.948  68.866  26.959  1.00  0.00    -0.507 OA
ATOM     25  H   UNL     1      -5.719  69.799  27.281  1.00  0.00     0.293 HD
ENDBRANCH   6  24
BRANCH   8  26
ATOM     26  O   UNL     1      -3.868  65.295  29.448  1.00  0.00    -0.508 OA
ATOM     27  H   UNL     1      -3.415  64.660  28.801  1.00  0.00     0.293 HD
ENDBRANCH   8  26
TORSDOF 6
ENDMDL
MODEL 6
REMARK VINA RESULT:    -6.670      3.235      7.178
REMARK INTER + INTRA:          -8.359
REMARK INTER:                  -8.103
REMARK INTRA:                  -0.256
REMARK UNBOUND:                -0.325
REMARK SMILES O=c1c(O)c(-c2ccc(O)c(O)c2)oc2cc(O)cc(O)c12
REMARK SMILES IDX 5 1 3 2 2 3 1 4 22 5 20 6 19 7 17 8 16 9 15 10 14 11 6 12
REMARK SMILES IDX 7 13 8 14 9 15 13 16 11 17 10 18 12 20 4 22 21 24 18 26
REMARK H PARENT 10 19 12 21 4 23 21 25 18 27
REMARK Flexibility Score: inf
ROOT
ATOM      1  C   UNL     1     -10.125  66.730  30.736  1.00  0.00     0.180 A 
ATOM      2  C   UNL     1     -10.002  67.956  30.054  1.00  0.00     0.208 A 
ATOM      3  C   UNL     1      -8.841  68.721  30.239  1.00  0.00     0.238 A 
ATOM      4  O   UNL     1      -8.715  69.815  29.624  1.00  0.00    -0.285 OA
ATOM      5  C   UNL     1      -7.835  68.261  31.114  1.00  0.00     0.111 A 
ATOM      6  C   UNL     1      -6.636  68.975  31.358  1.00  0.00     0.134 A 
ATOM      7  C   UNL     1      -5.687  68.454  32.251  1.00  0.00     0.093 A 
ATOM      8  C   UNL     1      -5.912  67.239  32.902  1.00  0.00     0.123 A 
ATOM      9  C   UNL     1      -7.094  66.530  32.664  1.00  0.00     0.094 A 
ATOM     10  C   UNL     1      -8.052  67.031  31.777  1.00  0.00     0.146 A 
ATOM     11  O   UNL     1      -9.163  66.335  31.565  1.00  0.00    -0.452 OA
ENDROOT
BRANCH   1  12
ATOM     12  C   UNL     1     -11.312  65.857  30.579  1.00  0.00     0.025 A 
ATOM     13  C   UNL     1     -11.484  65.134  29.389  1.00  0.00     0.016 A 
ATOM     14  C   UNL     1     -12.606  64.321  29.211  1.00  0.00     0.051 A 
ATOM     15  C   UNL     1     -13.581  64.232  30.213  1.00  0.00     0.157 A 
ATOM     16  C   UNL     1     -12.302  65.783  31.574  1.00  0.00     0.062 A 
ATOM     17  C   UNL     1     -13.430  64.970  31.399  1.00  0.00     0.158 A 
BRANCH  15  18
ATOM     18  O   UNL     1     -14.699  63.418  30.034  1.00  0.00    -0.504 OA
ATOM     19  H   UNL     1     -15.565  63.589  30.531  1.00  0.00     0.293 HD
ENDBRANCH  15  18
BRANCH  17  20
ATOM     20  O   UNL     1     -14.388  64.916  32.409  1.00  0.00    -0.504 OA
ATOM     21  H   UNL     1     -14.401  64.174  33.100  1.00  0.00     0.293 HD
ENDBRANCH  17  20
ENDBRANCH   1  12
BRANCH   2  22
ATOM     22  O   UNL     1     -11.036  68.412  29.232  1.00  0.00    -0.502 OA
ATOM     23  H   UNL     1     -11.334  69.380  29.222  1.00  0.00     0.293 HD
ENDBRANCH   2  22
BRANCH   6  24
ATOM     24  O   UNL     1      -6.382  70.191  30.724  1.00  0.00    -0.507 OA
ATOM     25  H   UNL     1      -6.758  71.064  31.074  1.00  0.00     0.293 HD
ENDBRANCH   6  24
BRANCH   8  26
ATOM     26  O   UNL     1      -4.953  66.745  33.784  1.00  0.00    -0.508 OA
ATOM     27  H   UNL     1      -4.197  66.151  33.465  1.00  0.00     0.293 HD
ENDBRANCH   8  26
TORSDOF 6
ENDMDL
MODEL 7
REMARK VINA RESULT:    -6.556      1.636      7.134
REMARK INTER + INTRA:          -8.222
REMARK INTER:                  -7.938
REMARK INTRA:                  -0.284
REMARK UNBOUND:                -0.325
REMARK SMILES O=c1c(O)c(-c2ccc(O)c(O)c2)oc2cc(O)cc(O)c12
REMARK SMILES IDX 5 1 3 2 2 3 1 4 22 5 20 6 19 7 17 8 16 9 15 10 14 11 6 12
REMARK SMILES IDX 7 13 8 14 9 15 13 16 11 17 10 18 12 20 4 22 21 24 18 26
REMARK H PARENT 10 19 12 21 4 23 21 25 18 27
REMARK Flexibility Score: inf
ROOT
ATOM      1  C   UNL     1      -7.714  67.422  28.571  1.00  0.00     0.180 A 
ATOM      2  C   UNL     1      -7.481  68.412  27.597  1.00  0.00     0.208 A 
ATOM      3  C   UNL     1      -6.186  68.560  27.077  1.00  0.00     0.238 A 
ATOM      4  O   UNL     1      -5.969  69.437  26.196  1.00  0.00    -0.285 OA
ATOM      5  C   UNL     1      -5.146  67.736  27.551  1.00  0.00     0.111 A 
ATOM      6  C   UNL     1      -3.812  67.824  27.081  1.00  0.00     0.134 A 
ATOM      7  C   UNL     1      -2.831  66.973  27.611  1.00  0.00     0.093 A 
ATOM      8  C   UNL     1      -3.155  66.038  28.596  1.00  0.00     0.123 A 
ATOM      9  C   UNL     1      -4.470  65.946  29.063  1.00  0.00     0.094 A 
ATOM     10  C   UNL     1      -5.463  66.784  28.548  1.00  0.00     0.146 A 
ATOM     11  O   UNL     1      -6.705  66.672  29.005  1.00  0.00    -0.452 OA
ENDROOT
BRANCH   1  12
ATOM     12  C   UNL     1      -9.055  67.191  29.154  1.00  0.00     0.025 A 
ATOM     13  C   UNL     1      -9.849  66.141  28.666  1.00  0.00     0.016 A 
ATOM     14  C   UNL     1     -11.125  65.918  29.187  1.00  0.00     0.051 A 
ATOM     15  C   UNL     1     -11.635  66.751  30.192  1.00  0.00     0.157 A 
ATOM     16  C   UNL     1      -9.578  68.039  30.147  1.00  0.00     0.062 A 
ATOM     17  C   UNL     1     -10.858  67.819  30.670  1.00  0.00     0.158 A 
BRANCH  15  18
ATOM     18  O   UNL     1     -12.909  66.525  30.712  1.00  0.00    -0.504 OA
ATOM     19  H   UNL     1     -13.578  67.278  30.822  1.00  0.00     0.293 HD
ENDBRANCH  15  18
BRANCH  17  20
ATOM     20  O   UNL     1     -11.341  68.676  31.658  1.00  0.00    -0.504 OA
ATOM     21  H   UNL     1     -12.139  68.437  32.236  1.00  0.00     0.293 HD
ENDBRANCH  17  20
ENDBRANCH   1  12
BRANCH   2  22
ATOM     22  O   UNL     1      -8.519  69.250  27.181  1.00  0.00    -0.502 OA
ATOM     23  H   UNL     1      -9.368  68.894  26.760  1.00  0.00     0.293 HD
ENDBRANCH   2  22
BRANCH   6  24
ATOM     24  O   UNL     1      -3.457  68.748  26.098  1.00  0.00    -0.507 OA
ATOM     25  H   UNL     1      -2.841  68.502  25.333  1.00  0.00     0.293 HD
ENDBRANCH   6  24
BRANCH   8  26
ATOM     26  O   UNL     1      -2.161  65.205  29.105  1.00  0.00    -0.508 OA
ATOM     27  H   UNL     1      -1.364  64.927  28.543  1.00  0.00     0.293 HD
ENDBRANCH   8  26
TORSDOF 6
ENDMDL
MODEL 8
REMARK VINA RESULT:    -6.545      2.686      7.190
REMARK INTER + INTRA:          -8.208
REMARK INTER:                  -7.972
REMARK INTRA:                  -0.237
REMARK UNBOUND:                -0.325
REMARK SMILES O=c1c(O)c(-c2ccc(O)c(O)c2)oc2cc(O)cc(O)c12
REMARK SMILES IDX 5 1 3 2 2 3 1 4 22 5 20 6 19 7 17 8 16 9 15 10 14 11 6 12
REMARK SMILES IDX 7 13 8 14 9 15 13 16 11 17 10 18 12 20 4 22 21 24 18 26
REMARK H PARENT 10 19 12 21 4 23 21 25 18 27
REMARK Flexibility Score: inf
ROOT
ATOM      1  C   UNL     1      -6.671  67.292  31.528  1.00  0.00     0.180 A 
ATOM      2  C   UNL     1      -6.230  66.978  32.828  1.00  0.00     0.208 A 
ATOM      3  C   UNL     1      -4.869  67.130  33.136  1.00  0.00     0.238 A 
ATOM      4  O   UNL     1      -4.465  66.862  34.301  1.00  0.00    -0.285 OA
ATOM      5  C   UNL     1      -3.974  67.569  32.141  1.00  0.00     0.111 A 
ATOM      6  C   UNL     1      -2.587  67.744  32.370  1.00  0.00     0.134 A 
ATOM      7  C   UNL     1      -1.759  68.178  31.324  1.00  0.00     0.093 A 
ATOM      8  C   UNL     1      -2.287  68.439  30.058  1.00  0.00     0.123 A 
ATOM      9  C   UNL     1      -3.656  68.268  29.826  1.00  0.00     0.094 A 
ATOM     10  C   UNL     1      -4.499  67.839  30.855  1.00  0.00     0.146 A 
ATOM     11  O   UNL     1      -5.796  67.690  30.611  1.00  0.00    -0.452 OA
ENDROOT
BRANCH   1  12
ATOM     12  C   UNL     1      -8.094  67.176  31.130  1.00  0.00     0.025 A 
ATOM     13  C   UNL     1      -8.469  66.214  30.179  1.00  0.00     0.016 A 
ATOM     14  C   UNL     1      -9.800  66.101  29.774  1.00  0.00     0.051 A 
ATOM     15  C   UNL     1     -10.775  66.959  30.301  1.00  0.00     0.157 A 
ATOM     16  C   UNL     1      -9.070  68.049  31.641  1.00  0.00     0.062 A 
ATOM     17  C   UNL     1     -10.406  67.940  31.236  1.00  0.00     0.158 A 
BRANCH  15  18
ATOM     18  O   UNL     1     -12.104  66.843  29.896  1.00  0.00    -0.504 OA
ATOM     19  H   UNL     1     -12.829  66.538  30.535  1.00  0.00     0.293 HD
ENDBRANCH  15  18
BRANCH  17  20
ATOM     20  O   UNL     1     -11.348  68.819  31.768  1.00  0.00    -0.504 OA
ATOM     21  H   UNL     1     -11.319  69.816  31.585  1.00  0.00     0.293 HD
ENDBRANCH  17  20
ENDBRANCH   1  12
BRANCH   2  22
ATOM     22  O   UNL     1      -7.130  66.496  33.781  1.00  0.00    -0.502 OA
ATOM     23  H   UNL     1      -8.023  66.091  33.529  1.00  0.00     0.293 HD
ENDBRANCH   2  22
BRANCH   6  24
ATOM     24  O   UNL     1      -2.028  67.492  33.623  1.00  0.00    -0.507 OA
ATOM     25  H   UNL     1      -1.166  66.969  33.727  1.00  0.00     0.293 HD
ENDBRANCH   6  24
BRANCH   8  26
ATOM     26  O   UNL     1      -1.442  68.867  29.036  1.00  0.00    -0.508 OA
ATOM     27  H   UNL     1      -0.845  68.219  28.537  1.00  0.00     0.293 HD
ENDBRANCH   8  26
TORSDOF 6
ENDMDL
