MODEL 1
REMARK VINA RESULT:    -7.156      0.000      0.000
REMARK INTER + INTRA:          -9.046
REMARK INTER:                  -8.620
REMARK INTRA:                  -0.426
REMARK UNBOUND:                -0.426
REMARK SMILES O=c1c(O)c(-c2ccc(O)cc2O)oc2cc(O)cc(O)c12
REMARK SMILES IDX 5 1 3 2 2 3 1 4 22 5 20 6 19 7 17 8 16 9 15 10 14 11 6 12
REMARK SMILES IDX 8 13 7 14 9 15 11 16 12 17 10 18 13 20 4 22 21 24 18 26
REMARK H PARENT 10 19 13 21 4 23 21 25 18 27
REMARK Flexibility Score: inf
ROOT
ATOM      1  C   UNL     1       8.325 -24.056 -13.611  1.00  0.00     0.184 A 
ATOM      2  C   UNL     1       8.169 -25.401 -13.995  1.00  0.00     0.208 A 
ATOM      3  C   UNL     1       8.795 -26.401 -13.233  1.00  0.00     0.238 A 
ATOM      4  O   UNL     1       8.654 -27.609 -13.563  1.00  0.00    -0.285 OA
ATOM      5  C   UNL     1       9.574 -26.040 -12.116  1.00  0.00     0.111 A 
ATOM      6  C   UNL     1      10.240 -26.986 -11.298  1.00  0.00     0.134 A 
ATOM      7  C   UNL     1      11.003 -26.546 -10.206  1.00  0.00     0.093 A 
ATOM      8  C   UNL     1      11.114 -25.180  -9.918  1.00  0.00     0.123 A 
ATOM      9  C   UNL     1      10.460 -24.245 -10.721  1.00  0.00     0.094 A 
ATOM     10  C   UNL     1       9.692 -24.663 -11.812  1.00  0.00     0.146 A 
ATOM     11  O   UNL     1       9.078 -23.752 -12.557  1.00  0.00    -0.451 OA
ENDROOT
BRANCH   1  12
ATOM     12  C   UNL     1       7.680 -22.950 -14.357  1.00  0.00     0.063 A 
ATOM     13  C   UNL     1       7.634 -21.438 -16.263  1.00  0.00     0.047 A 
ATOM     14  C   UNL     1       8.255 -22.462 -15.544  1.00  0.00     0.020 A 
ATOM     15  C   UNL     1       6.425 -20.896 -15.813  1.00  0.00     0.119 A 
ATOM     16  C   UNL     1       5.839 -21.384 -14.643  1.00  0.00     0.093 A 
ATOM     17  C   UNL     1       6.457 -22.410 -13.912  1.00  0.00     0.130 A 
BRANCH  15  18
ATOM     18  O   UNL     1       5.797 -19.875 -16.523  1.00  0.00    -0.508 OA
ATOM     19  H   UNL     1       6.252 -18.984 -16.684  1.00  0.00     0.293 HD
ENDBRANCH  15  18
BRANCH  17  20
ATOM     20  O   UNL     1       5.863 -22.883 -12.741  1.00  0.00    -0.507 OA
ATOM     21  H   UNL     1       4.959 -23.342 -12.752  1.00  0.00     0.293 HD
ENDBRANCH  17  20
ENDBRANCH   1  12
BRANCH   2  22
ATOM     22  O   UNL     1       7.424 -25.727 -15.131  1.00  0.00    -0.502 OA
ATOM     23  H   UNL     1       6.698 -25.123 -15.495  1.00  0.00     0.293 HD
ENDBRANCH   2  22
BRANCH   6  24
ATOM     24  O   UNL     1      10.148 -28.352 -11.560  1.00  0.00    -0.507 OA
ATOM     25  H   UNL     1      10.971 -28.939 -11.630  1.00  0.00     0.293 HD
ENDBRANCH   6  24
BRANCH   8  26
ATOM     26  O   UNL     1      11.874 -24.744  -8.835  1.00  0.00    -0.508 OA
ATOM     27  H   UNL     1      11.604 -24.950  -7.880  1.00  0.00     0.293 HD
ENDBRANCH   8  26
TORSDOF 6
ENDMDL
MODEL 2
REMARK VINA RESULT:    -7.075     11.701     13.931
REMARK INTER + INTRA:          -8.948
REMARK INTER:                  -8.552
REMARK INTRA:                  -0.396
REMARK UNBOUND:                -0.426
REMARK SMILES O=c1c(O)c(-c2ccc(O)cc2O)oc2cc(O)cc(O)c12
REMARK SMILES IDX 5 1 3 2 2 3 1 4 22 5 20 6 19 7 17 8 16 9 15 10 14 11 6 12
REMARK SMILES IDX 8 13 7 14 9 15 11 16 12 17 10 18 13 20 4 22 21 24 18 26
REMARK H PARENT 10 19 13 21 4 23 21 25 18 27
REMARK Flexibility Score: inf
ROOT
ATOM      1  C   UNL     1      15.254 -32.550 -19.405  1.00  0.00     0.184 A 
ATOM      2  C   UNL     1      15.477 -31.164 -19.312  1.00  0.00     0.208 A 
ATOM      3  C   UNL     1      16.586 -30.609 -19.972  1.00  0.00     0.238 A 
ATOM      4  O   UNL     1      16.789 -29.367 -19.903  1.00  0.00    -0.285 OA
ATOM      5  C   UNL     1      17.458 -31.448 -20.694  1.00  0.00     0.111 A 
ATOM      6  C   UNL     1      18.599 -30.970 -21.383  1.00  0.00     0.134 A 
ATOM      7  C   UNL     1      19.422 -31.871 -22.075  1.00  0.00     0.093 A 
ATOM      8  C   UNL     1      19.127 -33.239 -22.090  1.00  0.00     0.123 A 
ATOM      9  C   UNL     1      18.003 -33.715 -21.413  1.00  0.00     0.094 A 
ATOM     10  C   UNL     1      17.169 -32.833 -20.719  1.00  0.00     0.146 A 
ATOM     11  O   UNL     1      16.105 -33.313 -20.087  1.00  0.00    -0.451 OA
ENDROOT
BRANCH   1  12
ATOM     12  C   UNL     1      14.095 -33.201 -18.751  1.00  0.00     0.063 A 
ATOM     13  C   UNL     1      12.886 -33.816 -16.730  1.00  0.00     0.047 A 
ATOM     14  C   UNL     1      13.992 -33.227 -17.348  1.00  0.00     0.020 A 
ATOM     15  C   UNL     1      11.864 -34.377 -17.503  1.00  0.00     0.119 A 
ATOM     16  C   UNL     1      11.951 -34.343 -18.897  1.00  0.00     0.093 A 
ATOM     17  C   UNL     1      13.058 -33.756 -19.527  1.00  0.00     0.130 A 
BRANCH  15  18
ATOM     18  O   UNL     1      10.757 -34.966 -16.897  1.00  0.00    -0.508 OA
ATOM     19  H   UNL     1      10.660 -35.973 -16.836  1.00  0.00     0.293 HD
ENDBRANCH  15  18
BRANCH  17  20
ATOM     20  O   UNL     1      13.135 -33.735 -20.920  1.00  0.00    -0.507 OA
ATOM     21  H   UNL     1      13.347 -32.884 -21.428  1.00  0.00     0.293 HD
ENDBRANCH  17  20
ENDBRANCH   1  12
BRANCH   2  22
ATOM     22  O   UNL     1      14.619 -30.362 -18.556  1.00  0.00    -0.502 OA
ATOM     23  H   UNL     1      14.865 -30.024 -17.633  1.00  0.00     0.293 HD
ENDBRANCH   2  22
BRANCH   6  24
ATOM     24  O   UNL     1      18.919 -29.612 -21.386  1.00  0.00    -0.507 OA
ATOM     25  H   UNL     1      19.115 -29.108 -20.530  1.00  0.00     0.293 HD
ENDBRANCH   6  24
BRANCH   8  26
ATOM     26  O   UNL     1      19.946 -34.134 -22.775  1.00  0.00    -0.508 OA
ATOM     27  H   UNL     1      20.092 -35.080 -22.444  1.00  0.00     0.293 HD
ENDBRANCH   8  26
TORSDOF 6
ENDMDL
MODEL 3
REMARK VINA RESULT:    -7.027     12.675     14.161
REMARK INTER + INTRA:          -8.891
REMARK INTER:                  -8.456
REMARK INTRA:                  -0.435
REMARK UNBOUND:                -0.426
REMARK SMILES O=c1c(O)c(-c2ccc(O)cc2O)oc2cc(O)cc(O)c12
REMARK SMILES IDX 5 1 3 2 2 3 1 4 22 5 20 6 19 7 17 8 16 9 15 10 14 11 6 12
REMARK SMILES IDX 8 13 7 14 9 15 11 16 12 17 10 18 13 20 4 22 21 24 18 26
REMARK H PARENT 10 19 13 21 4 23 21 25 18 27
REMARK Flexibility Score: inf
ROOT
ATOM      1  C   UNL     1      17.683 -29.540 -21.495  1.00  0.00     0.184 A 
ATOM      2  C   UNL     1      17.825 -29.379 -20.103  1.00  0.00     0.208 A 
ATOM      3  C   UNL     1      17.130 -30.247 -19.246  1.00  0.00     0.238 A 
ATOM      4  O   UNL     1      17.258 -30.119 -17.998  1.00  0.00    -0.285 OA
ATOM      5  C   UNL     1      16.296 -31.245 -19.791  1.00  0.00     0.111 A 
ATOM      6  C   UNL     1      15.559 -32.157 -18.996  1.00  0.00     0.134 A 
ATOM      7  C   UNL     1      14.745 -33.117 -19.615  1.00  0.00     0.093 A 
ATOM      8  C   UNL     1      14.653 -33.183 -21.010  1.00  0.00     0.123 A 
ATOM      9  C   UNL     1      15.378 -32.286 -21.797  1.00  0.00     0.094 A 
ATOM     10  C   UNL     1      16.197 -31.322 -21.200  1.00  0.00     0.146 A 
ATOM     11  O   UNL     1      16.878 -30.485 -21.973  1.00  0.00    -0.451 OA
ENDROOT
BRANCH   1  12
ATOM     12  C   UNL     1      18.399 -28.672 -22.458  1.00  0.00     0.063 A 
ATOM     13  C   UNL     1      18.644 -26.532 -23.592  1.00  0.00     0.047 A 
ATOM     14  C   UNL     1      17.954 -27.361 -22.704  1.00  0.00     0.020 A 
ATOM     15  C   UNL     1      19.794 -26.997 -24.238  1.00  0.00     0.119 A 
ATOM     16  C   UNL     1      20.252 -28.294 -23.990  1.00  0.00     0.093 A 
ATOM     17  C   UNL     1      19.565 -29.134 -23.102  1.00  0.00     0.130 A 
BRANCH  15  18
ATOM     18  O   UNL     1      20.490 -26.179 -25.125  1.00  0.00    -0.508 OA
ATOM     19  H   UNL     1      21.002 -26.564 -25.911  1.00  0.00     0.293 HD
ENDBRANCH  15  18
BRANCH  17  20
ATOM     20  O   UNL     1      20.031 -30.428 -22.869  1.00  0.00    -0.507 OA
ATOM     21  H   UNL     1      20.883 -30.772 -23.297  1.00  0.00     0.293 HD
ENDBRANCH  17  20
ENDBRANCH   1  12
BRANCH   2  22
ATOM     22  O   UNL     1      18.626 -28.357 -19.591  1.00  0.00    -0.502 OA
ATOM     23  H   UNL     1      18.274 -27.665 -18.941  1.00  0.00     0.293 HD
ENDBRANCH   2  22
BRANCH   6  24
ATOM     24  O   UNL     1      15.630 -32.116 -17.604  1.00  0.00    -0.507 OA
ATOM     25  H   UNL     1      16.123 -31.379 -17.116  1.00  0.00     0.293 HD
ENDBRANCH   6  24
BRANCH   8  26
ATOM     26  O   UNL     1      13.844 -34.135 -21.624  1.00  0.00    -0.508 OA
ATOM     27  H   UNL     1      12.930 -34.371 -21.256  1.00  0.00     0.293 HD
ENDBRANCH   8  26
TORSDOF 6
ENDMDL
MODEL 4
REMARK VINA RESULT:    -6.780     11.992     13.601
REMARK INTER + INTRA:          -8.592
REMARK INTER:                  -8.217
REMARK INTRA:                  -0.376
REMARK UNBOUND:                -0.426
REMARK SMILES O=c1c(O)c(-c2ccc(O)cc2O)oc2cc(O)cc(O)c12
REMARK SMILES IDX 5 1 3 2 2 3 1 4 22 5 20 6 19 7 17 8 16 9 15 10 14 11 6 12
REMARK SMILES IDX 8 13 7 14 9 15 11 16 12 17 10 18 13 20 4 22 21 24 18 26
REMARK H PARENT 10 19 13 21 4 23 21 25 18 27
REMARK Flexibility Score: inf
ROOT
ATOM      1  C   UNL     1      17.767 -29.356 -20.504  1.00  0.00     0.184 A 
ATOM      2  C   UNL     1      16.791 -28.514 -21.070  1.00  0.00     0.208 A 
ATOM      3  C   UNL     1      16.344 -27.405 -20.334  1.00  0.00     0.238 A 
ATOM      4  O   UNL     1      15.477 -26.639 -20.834  1.00  0.00    -0.285 OA
ATOM      5  C   UNL     1      16.864 -27.168 -19.045  1.00  0.00     0.111 A 
ATOM      6  C   UNL     1      16.464 -26.076 -18.237  1.00  0.00     0.134 A 
ATOM      7  C   UNL     1      17.024 -25.912 -16.962  1.00  0.00     0.093 A 
ATOM      8  C   UNL     1      17.975 -26.819 -16.479  1.00  0.00     0.123 A 
ATOM      9  C   UNL     1      18.373 -27.897 -17.272  1.00  0.00     0.094 A 
ATOM     10  C   UNL     1      17.828 -28.076 -18.547  1.00  0.00     0.146 A 
ATOM     11  O   UNL     1      18.227 -29.108 -19.281  1.00  0.00    -0.451 OA
ENDROOT
BRANCH   1  12
ATOM     12  C   UNL     1      18.299 -30.533 -21.230  1.00  0.00     0.063 A 
ATOM     13  C   UNL     1      18.240 -32.919 -21.709  1.00  0.00     0.047 A 
ATOM     14  C   UNL     1      17.758 -31.812 -21.006  1.00  0.00     0.020 A 
ATOM     15  C   UNL     1      19.259 -32.762 -22.655  1.00  0.00     0.119 A 
ATOM     16  C   UNL     1      19.793 -31.493 -22.895  1.00  0.00     0.093 A 
ATOM     17  C   UNL     1      19.317 -30.376 -22.191  1.00  0.00     0.130 A 
BRANCH  15  18
ATOM     18  O   UNL     1      19.746 -33.858 -23.362  1.00  0.00    -0.508 OA
ATOM     19  H   UNL     1      20.668 -33.850 -23.784  1.00  0.00     0.293 HD
ENDBRANCH  15  18
BRANCH  17  20
ATOM     20  O   UNL     1      19.864 -29.116 -22.437  1.00  0.00    -0.507 OA
ATOM     21  H   UNL     1      20.447 -28.647 -21.754  1.00  0.00     0.293 HD
ENDBRANCH  17  20
ENDBRANCH   1  12
BRANCH   2  22
ATOM     22  O   UNL     1      16.264 -28.796 -22.332  1.00  0.00    -0.502 OA
ATOM     23  H   UNL     1      15.599 -28.185 -22.791  1.00  0.00     0.293 HD
ENDBRANCH   2  22
BRANCH   6  24
ATOM     24  O   UNL     1      15.518 -25.156 -18.690  1.00  0.00    -0.507 OA
ATOM     25  H   UNL     1      15.008 -25.296 -19.554  1.00  0.00     0.293 HD
ENDBRANCH   6  24
BRANCH   8  26
ATOM     26  O   UNL     1      18.530 -26.657 -15.212  1.00  0.00    -0.508 OA
ATOM     27  H   UNL     1      19.030 -25.814 -14.955  1.00  0.00     0.293 HD
ENDBRANCH   8  26
TORSDOF 6
ENDMDL
MODEL 5
REMARK VINA RESULT:    -6.707     11.449     13.151
REMARK INTER + INTRA:          -8.504
REMARK INTER:                  -8.037
REMARK INTRA:                  -0.467
REMARK UNBOUND:                -0.426
REMARK SMILES O=c1c(O)c(-c2ccc(O)cc2O)oc2cc(O)cc(O)c12
REMARK SMILES IDX 5 1 3 2 2 3 1 4 22 5 20 6 19 7 17 8 16 9 15 10 14 11 6 12
REMARK SMILES IDX 8 13 7 14 9 15 11 16 12 17 10 18 13 20 4 22 21 24 18 26
REMARK H PARENT 10 19 13 21 4 23 21 25 18 27
REMARK Flexibility Score: inf
ROOT
ATOM      1  C   UNL     1      14.428 -32.956 -19.603  1.00  0.00     0.184 A 
ATOM      2  C   UNL     1      14.351 -33.727 -18.427  1.00  0.00     0.208 A 
ATOM      3  C   UNL     1      13.091 -34.151 -17.976  1.00  0.00     0.238 A 
ATOM      4  O   UNL     1      13.012 -34.850 -16.929  1.00  0.00    -0.285 OA
ATOM      5  C   UNL     1      11.934 -33.786 -18.693  1.00  0.00     0.111 A 
ATOM      6  C   UNL     1      10.628 -34.170 -18.304  1.00  0.00     0.134 A 
ATOM      7  C   UNL     1       9.526 -33.760 -19.069  1.00  0.00     0.093 A 
ATOM      8  C   UNL     1       9.705 -32.974 -20.213  1.00  0.00     0.123 A 
ATOM      9  C   UNL     1      10.990 -32.594 -20.601  1.00  0.00     0.094 A 
ATOM     10  C   UNL     1      12.102 -32.994 -19.854  1.00  0.00     0.146 A 
ATOM     11  O   UNL     1      13.314 -32.621 -20.248  1.00  0.00    -0.451 OA
ENDROOT
BRANCH   1  12
ATOM     12  C   UNL     1      15.724 -32.489 -20.147  1.00  0.00     0.063 A 
ATOM     13  C   UNL     1      17.718 -32.891 -21.482  1.00  0.00     0.047 A 
ATOM     14  C   UNL     1      16.509 -33.339 -20.946  1.00  0.00     0.020 A 
ATOM     15  C   UNL     1      18.155 -31.584 -21.238  1.00  0.00     0.119 A 
ATOM     16  C   UNL     1      17.376 -30.728 -20.457  1.00  0.00     0.093 A 
ATOM     17  C   UNL     1      16.161 -31.169 -19.912  1.00  0.00     0.130 A 
BRANCH  15  18
ATOM     18  O   UNL     1      19.359 -31.127 -21.768  1.00  0.00    -0.508 OA
ATOM     19  H   UNL     1      19.594 -30.141 -21.778  1.00  0.00     0.293 HD
ENDBRANCH  15  18
BRANCH  17  20
ATOM     20  O   UNL     1      15.395 -30.304 -19.129  1.00  0.00    -0.507 OA
ATOM     21  H   UNL     1      15.219 -29.347 -19.411  1.00  0.00     0.293 HD
ENDBRANCH  17  20
ENDBRANCH   1  12
BRANCH   2  22
ATOM     22  O   UNL     1      15.510 -34.039 -17.714  1.00  0.00    -0.502 OA
ATOM     23  H   UNL     1      15.984 -33.365 -17.126  1.00  0.00     0.293 HD
ENDBRANCH   2  22
BRANCH   6  24
ATOM     24  O   UNL     1      10.418 -34.952 -17.168  1.00  0.00    -0.507 OA
ATOM     25  H   UNL     1      11.178 -35.212 -16.551  1.00  0.00     0.293 HD
ENDBRANCH   6  24
BRANCH   8  26
ATOM     26  O   UNL     1       8.610 -32.566 -20.971  1.00  0.00    -0.508 OA
ATOM     27  H   UNL     1       8.359 -33.032 -21.835  1.00  0.00     0.293 HD
ENDBRANCH   8  26
TORSDOF 6
ENDMDL
MODEL 6
REMARK VINA RESULT:    -6.683      1.659      6.945
REMARK INTER + INTRA:          -8.476
REMARK INTER:                  -8.009
REMARK INTRA:                  -0.467
REMARK UNBOUND:                -0.426
REMARK SMILES O=c1c(O)c(-c2ccc(O)cc2O)oc2cc(O)cc(O)c12
REMARK SMILES IDX 5 1 3 2 2 3 1 4 22 5 20 6 19 7 17 8 16 9 15 10 14 11 6 12
REMARK SMILES IDX 8 13 7 14 9 15 11 16 12 17 10 18 13 20 4 22 21 24 18 26
REMARK H PARENT 10 19 13 21 4 23 21 25 18 27
REMARK Flexibility Score: inf
ROOT
ATOM      1  C   UNL     1       8.010 -23.674 -13.797  1.00  0.00     0.184 A 
ATOM      2  C   UNL     1       6.825 -23.224 -13.184  1.00  0.00     0.208 A 
ATOM      3  C   UNL     1       6.123 -22.157 -13.769  1.00  0.00     0.238 A 
ATOM      4  O   UNL     1       5.056 -21.751 -13.234  1.00  0.00    -0.285 OA
ATOM      5  C   UNL     1       6.623 -21.552 -14.940  1.00  0.00     0.111 A 
ATOM      6  C   UNL     1       5.979 -20.471 -15.589  1.00  0.00     0.134 A 
ATOM      7  C   UNL     1       6.544 -19.919 -16.747  1.00  0.00     0.093 A 
ATOM      8  C   UNL     1       7.741 -20.425 -17.268  1.00  0.00     0.123 A 
ATOM      9  C   UNL     1       8.379 -21.491 -16.632  1.00  0.00     0.094 A 
ATOM     10  C   UNL     1       7.831 -22.057 -15.477  1.00  0.00     0.146 A 
ATOM     11  O   UNL     1       8.458 -23.072 -14.895  1.00  0.00    -0.451 OA
ENDROOT
BRANCH   1  12
ATOM     12  C   UNL     1       8.792 -24.806 -13.246  1.00  0.00     0.063 A 
ATOM     13  C   UNL     1       9.178 -27.200 -13.039  1.00  0.00     0.047 A 
ATOM     14  C   UNL     1       8.426 -26.132 -13.535  1.00  0.00     0.020 A 
ATOM     15  C   UNL     1      10.313 -26.957 -12.257  1.00  0.00     0.119 A 
ATOM     16  C   UNL     1      10.692 -25.642 -11.975  1.00  0.00     0.093 A 
ATOM     17  C   UNL     1       9.941 -24.564 -12.467  1.00  0.00     0.130 A 
BRANCH  15  18
ATOM     18  O   UNL     1      11.070 -28.014 -11.757  1.00  0.00    -0.508 OA
ATOM     19  H   UNL     1      10.645 -28.766 -11.228  1.00  0.00     0.293 HD
ENDBRANCH  15  18
BRANCH  17  20
ATOM     20  O   UNL     1      10.329 -23.256 -12.173  1.00  0.00    -0.507 OA
ATOM     21  H   UNL     1       9.929 -22.746 -11.394  1.00  0.00     0.293 HD
ENDBRANCH  17  20
ENDBRANCH   1  12
BRANCH   2  22
ATOM     22  O   UNL     1       6.375 -23.815 -12.002  1.00  0.00    -0.502 OA
ATOM     23  H   UNL     1       5.453 -23.636 -11.623  1.00  0.00     0.293 HD
ENDBRANCH   2  22
BRANCH   6  24
ATOM     24  O   UNL     1       4.786 -19.944 -15.093  1.00  0.00    -0.507 OA
ATOM     25  H   UNL     1       4.276 -20.392 -14.341  1.00  0.00     0.293 HD
ENDBRANCH   6  24
BRANCH   8  26
ATOM     26  O   UNL     1       8.303 -19.875 -18.418  1.00  0.00    -0.508 OA
ATOM     27  H   UNL     1       8.593 -18.905 -18.455  1.00  0.00     0.293 HD
ENDBRANCH   8  26
TORSDOF 6
ENDMDL
MODEL 7
REMARK VINA RESULT:    -6.681     10.310     12.603
REMARK INTER + INTRA:          -8.474
REMARK INTER:                  -8.030
REMARK INTRA:                  -0.444
REMARK UNBOUND:                -0.426
REMARK SMILES O=c1c(O)c(-c2ccc(O)cc2O)oc2cc(O)cc(O)c12
REMARK SMILES IDX 5 1 3 2 2 3 1 4 22 5 20 6 19 7 17 8 16 9 15 10 14 11 6 12
REMARK SMILES IDX 8 13 7 14 9 15 11 16 12 17 10 18 13 20 4 22 21 24 18 26
REMARK H PARENT 10 19 13 21 4 23 21 25 18 27
REMARK Flexibility Score: inf
ROOT
ATOM      1  C   UNL     1      13.721 -31.726 -19.850  1.00  0.00     0.184 A 
ATOM      2  C   UNL     1      12.667 -30.794 -19.894  1.00  0.00     0.208 A 
ATOM      3  C   UNL     1      11.364 -31.228 -19.601  1.00  0.00     0.238 A 
ATOM      4  O   UNL     1      10.415 -30.399 -19.628  1.00  0.00    -0.285 OA
ATOM      5  C   UNL     1      11.136 -32.583 -19.286  1.00  0.00     0.111 A 
ATOM      6  C   UNL     1       9.854 -33.102 -18.983  1.00  0.00     0.134 A 
ATOM      7  C   UNL     1       9.708 -34.465 -18.686  1.00  0.00     0.093 A 
ATOM      8  C   UNL     1      10.818 -35.319 -18.690  1.00  0.00     0.123 A 
ATOM      9  C   UNL     1      12.083 -34.811 -18.988  1.00  0.00     0.094 A 
ATOM     10  C   UNL     1      12.250 -33.455 -19.284  1.00  0.00     0.146 A 
ATOM     11  O   UNL     1      13.466 -32.999 -19.561  1.00  0.00    -0.451 OA
ENDROOT
BRANCH   1  12
ATOM     12  C   UNL     1      15.122 -31.335 -20.130  1.00  0.00     0.063 A 
ATOM     13  C   UNL     1      17.141 -30.131 -19.501  1.00  0.00     0.047 A 
ATOM     14  C   UNL     1      15.811 -30.479 -19.253  1.00  0.00     0.020 A 
ATOM     15  C   UNL     1      17.804 -30.641 -20.623  1.00  0.00     0.119 A 
ATOM     16  C   UNL     1      17.132 -31.504 -21.493  1.00  0.00     0.093 A 
ATOM     17  C   UNL     1      15.796 -31.857 -21.253  1.00  0.00     0.130 A 
BRANCH  15  18
ATOM     18  O   UNL     1      19.130 -30.301 -20.880  1.00  0.00    -0.508 OA
ATOM     19  H   UNL     1      19.376 -29.644 -21.611  1.00  0.00     0.293 HD
ENDBRANCH  15  18
BRANCH  17  20
ATOM     20  O   UNL     1      15.135 -32.714 -22.133  1.00  0.00    -0.507 OA
ATOM     21  H   UNL     1      15.064 -32.508 -23.123  1.00  0.00     0.293 HD
ENDBRANCH  17  20
ENDBRANCH   1  12
BRANCH   2  22
ATOM     22  O   UNL     1      12.916 -29.466 -20.248  1.00  0.00    -0.502 OA
ATOM     23  H   UNL     1      13.669 -29.203 -20.872  1.00  0.00     0.293 HD
ENDBRANCH   2  22
BRANCH   6  24
ATOM     24  O   UNL     1       8.729 -32.277 -18.972  1.00  0.00    -0.507 OA
ATOM     25  H   UNL     1       8.408 -31.824 -18.126  1.00  0.00     0.293 HD
ENDBRANCH   6  24
BRANCH   8  26
ATOM     26  O   UNL     1      10.672 -36.673 -18.397  1.00  0.00    -0.508 OA
ATOM     27  H   UNL     1       9.760 -37.112 -18.359  1.00  0.00     0.293 HD
ENDBRANCH   8  26
TORSDOF 6
ENDMDL
MODEL 8
REMARK VINA RESULT:    -6.619     10.971     13.401
REMARK INTER + INTRA:          -8.399
REMARK INTER:                  -7.935
REMARK INTRA:                  -0.464
REMARK UNBOUND:                -0.426
REMARK SMILES O=c1c(O)c(-c2ccc(O)cc2O)oc2cc(O)cc(O)c12
REMARK SMILES IDX 5 1 3 2 2 3 1 4 22 5 20 6 19 7 17 8 16 9 15 10 14 11 6 12
REMARK SMILES IDX 8 13 7 14 9 15 11 16 12 17 10 18 13 20 4 22 21 24 18 26
REMARK H PARENT 10 19 13 21 4 23 21 25 18 27
REMARK Flexibility Score: inf
ROOT
ATOM      1  C   UNL     1      13.362 -36.070 -10.315  1.00  0.00     0.184 A 
ATOM      2  C   UNL     1      13.352 -37.469 -10.159  1.00  0.00     0.208 A 
ATOM      3  C   UNL     1      13.724 -38.016  -8.921  1.00  0.00     0.238 A 
ATOM      4  O   UNL     1      13.710 -39.267  -8.767  1.00  0.00    -0.285 OA
ATOM      5  C   UNL     1      14.113 -37.161  -7.870  1.00  0.00     0.111 A 
ATOM      6  C   UNL     1      14.506 -37.632  -6.593  1.00  0.00     0.134 A 
ATOM      7  C   UNL     1      14.886 -36.716  -5.601  1.00  0.00     0.093 A 
ATOM      8  C   UNL     1      14.883 -35.341  -5.861  1.00  0.00     0.123 A 
ATOM      9  C   UNL     1      14.497 -34.872  -7.118  1.00  0.00     0.094 A 
ATOM     10  C   UNL     1      14.112 -35.768  -8.120  1.00  0.00     0.146 A 
ATOM     11  O   UNL     1      13.746 -35.295  -9.304  1.00  0.00    -0.451 OA
ENDROOT
BRANCH   1  12
ATOM     12  C   UNL     1      12.965 -35.423 -11.587  1.00  0.00     0.063 A 
ATOM     13  C   UNL     1      11.240 -34.797 -13.186  1.00  0.00     0.047 A 
ATOM     14  C   UNL     1      11.620 -35.430 -12.000  1.00  0.00     0.020 A 
ATOM     15  C   UNL     1      12.194 -34.138 -13.969  1.00  0.00     0.119 A 
ATOM     16  C   UNL     1      13.529 -34.114 -13.560  1.00  0.00     0.093 A 
ATOM     17  C   UNL     1      13.921 -34.749 -12.372  1.00  0.00     0.130 A 
BRANCH  15  18
ATOM     18  O   UNL     1      11.825 -33.504 -15.153  1.00  0.00    -0.508 OA
ATOM     19  H   UNL     1      12.369 -32.740 -15.536  1.00  0.00     0.293 HD
ENDBRANCH  15  18
BRANCH  17  20
ATOM     20  O   UNL     1      15.260 -34.721 -11.979  1.00  0.00    -0.507 OA
ATOM     21  H   UNL     1      15.593 -34.077 -11.270  1.00  0.00     0.293 HD
ENDBRANCH  17  20
ENDBRANCH   1  12
BRANCH   2  22
ATOM     22  O   UNL     1      13.001 -38.294 -11.230  1.00  0.00    -0.502 OA
ATOM     23  H   UNL     1      12.048 -38.379 -11.560  1.00  0.00     0.293 HD
ENDBRANCH   2  22
BRANCH   6  24
ATOM     24  O   UNL     1      14.520 -38.996  -6.304  1.00  0.00    -0.507 OA
ATOM     25  H   UNL     1      15.375 -39.482  -6.061  1.00  0.00     0.293 HD
ENDBRANCH   6  24
BRANCH   8  26
ATOM     26  O   UNL     1      15.262 -34.432  -4.876  1.00  0.00    -0.508 OA
ATOM     27  H   UNL     1      15.624 -34.740  -3.981  1.00  0.00     0.293 HD
ENDBRANCH   8  26
TORSDOF 6
ENDMDL
MODEL 9
REMARK VINA RESULT:    -6.613      9.842     10.715
REMARK INTER + INTRA:          -8.392
REMARK INTER:                  -7.924
REMARK INTRA:                  -0.468
REMARK UNBOUND:                -0.426
REMARK SMILES O=c1c(O)c(-c2ccc(O)cc2O)oc2cc(O)cc(O)c12
REMARK SMILES IDX 5 1 3 2 2 3 1 4 22 5 20 6 19 7 17 8 16 9 15 10 14 11 6 12
REMARK SMILES IDX 8 13 7 14 9 15 11 16 12 17 10 18 13 20 4 22 21 24 18 26
REMARK H PARENT 10 19 13 21 4 23 21 25 18 27
REMARK Flexibility Score: inf
ROOT
ATOM      1  C   UNL     1      11.140 -33.858 -15.403  1.00  0.00     0.184 A 
ATOM      2  C   UNL     1      10.576 -34.459 -14.262  1.00  0.00     0.208 A 
ATOM      3  C   UNL     1      11.381 -34.646 -13.126  1.00  0.00     0.238 A 
ATOM      4  O   UNL     1      10.884 -35.175 -12.095  1.00  0.00    -0.285 OA
ATOM      5  C   UNL     1      12.732 -34.245 -13.156  1.00  0.00     0.111 A 
ATOM      6  C   UNL     1      13.611 -34.401 -12.056  1.00  0.00     0.134 A 
ATOM      7  C   UNL     1      14.945 -33.983 -12.168  1.00  0.00     0.093 A 
ATOM      8  C   UNL     1      15.417 -33.414 -13.356  1.00  0.00     0.123 A 
ATOM      9  C   UNL     1      14.554 -33.258 -14.443  1.00  0.00     0.094 A 
ATOM     10  C   UNL     1      13.220 -33.667 -14.351  1.00  0.00     0.146 A 
ATOM     11  O   UNL     1      12.422 -33.503 -15.399  1.00  0.00    -0.451 OA
ENDROOT
BRANCH   1  12
ATOM     12  C   UNL     1      10.346 -33.614 -16.629  1.00  0.00     0.063 A 
ATOM     13  C   UNL     1       8.795 -32.231 -17.897  1.00  0.00     0.047 A 
ATOM     14  C   UNL     1       9.523 -32.477 -16.731  1.00  0.00     0.020 A 
ATOM     15  C   UNL     1       8.886 -33.111 -18.982  1.00  0.00     0.119 A 
ATOM     16  C   UNL     1       9.711 -34.235 -18.896  1.00  0.00     0.093 A 
ATOM     17  C   UNL     1      10.444 -34.491 -17.728  1.00  0.00     0.130 A 
BRANCH  15  18
ATOM     18  O   UNL     1       8.165 -32.875 -20.150  1.00  0.00    -0.508 OA
ATOM     19  H   UNL     1       8.298 -33.442 -20.979  1.00  0.00     0.293 HD
ENDBRANCH  15  18
BRANCH  17  20
ATOM     20  O   UNL     1      11.259 -35.621 -17.653  1.00  0.00    -0.507 OA
ATOM     21  H   UNL     1      10.873 -36.558 -17.674  1.00  0.00     0.293 HD
ENDBRANCH  17  20
ENDBRANCH   1  12
BRANCH   2  22
ATOM     22  O   UNL     1       9.245 -34.883 -14.274  1.00  0.00    -0.502 OA
ATOM     23  H   UNL     1       8.768 -35.195 -13.437  1.00  0.00     0.293 HD
ENDBRANCH   2  22
BRANCH   6  24
ATOM     24  O   UNL     1      13.170 -34.965 -10.859  1.00  0.00    -0.507 OA
ATOM     25  H   UNL     1      13.602 -34.740  -9.972  1.00  0.00     0.293 HD
ENDBRANCH   6  24
BRANCH   8  26
ATOM     26  O   UNL     1      16.742 -33.000 -13.467  1.00  0.00    -0.508 OA
ATOM     27  H   UNL     1      17.437 -33.255 -12.775  1.00  0.00     0.293 HD
ENDBRANCH   8  26
TORSDOF 6
ENDMDL
