MODEL 1
REMARK VINA RESULT:    -3.984      0.000      0.000
REMARK INTER + INTRA:          -8.688
REMARK INTER:                  -6.779
REMARK INTRA:                  -1.909
REMARK UNBOUND:                -1.909
REMARK SMILES CCCCCCCCCCCCCC(=O)[O-]
REMARK SMILES IDX 8 1 9 2 10 3 11 4 12 5 13 6 14 7 15 8 16 9 7 10 6 11 5 12
REMARK SMILES IDX 4 13 3 14 2 15 1 16
REMARK H PARENT
REMARK Flexibility Score: inf
ROOT
ATOM      1  C   UNL     1     103.800 307.770 202.554  1.00  0.00     0.000 C 
ENDROOT
BRANCH   1   2
ATOM      2  C   UNL     1     104.768 307.936 203.737  1.00  0.00     0.000 C 
BRANCH   2   3
ATOM      3  C   UNL     1     104.717 309.348 204.346  1.00  0.00     0.000 C 
BRANCH   3   4
ATOM      4  C   UNL     1     103.457 309.590 205.192  1.00  0.00     0.000 C 
BRANCH   4   5
ATOM      5  C   UNL     1     103.572 310.708 206.247  1.00  0.00     0.006 C 
BRANCH   5   6
ATOM      6  C   UNL     1     104.737 311.684 206.003  1.00  0.00     0.053 C 
BRANCH   6   7
ATOM      7  C   UNL     1     104.295 312.946 205.323  1.00  0.00     0.041 C 
ATOM      8  O   UNL     1     104.790 313.275 204.213  1.00  0.00    -0.550 OA
ATOM      9  O   UNL     1     103.306 313.737 205.894  1.00  0.00    -0.550 OA
ENDBRANCH   6   7
ENDBRANCH   5   6
ENDBRANCH   4   5
ENDBRANCH   3   4
ENDBRANCH   2   3
ENDBRANCH   1   2
BRANCH   1  10
ATOM     10  C   UNL     1     104.523 307.727 201.196  1.00  0.00     0.000 C 
BRANCH  10  11
ATOM     11  C   UNL     1     104.999 309.116 200.740  1.00  0.00    -0.000 C 
BRANCH  11  12
ATOM     12  C   UNL     1     103.831 310.080 200.468  1.00  0.00    -0.000 C 
BRANCH  12  13
ATOM     13  C   UNL     1     103.826 311.285 201.421  1.00  0.00    -0.000 C 
BRANCH  13  14
ATOM     14  C   UNL     1     102.483 311.460 202.146  1.00  0.00    -0.000 C 
BRANCH  14  15
ATOM     15  C   UNL     1     101.416 310.530 201.556  1.00  0.00    -0.003 C 
ATOM     16  C   UNL     1     100.758 309.685 202.642  1.00  0.00     0.004 C 
ENDBRANCH  14  15
ENDBRANCH  13  14
ENDBRANCH  12  13
ENDBRANCH  11  12
ENDBRANCH  10  11
ENDBRANCH   1  10
TORSDOF 12
ENDMDL
MODEL 2
REMARK VINA RESULT:    -3.953      2.998      4.626
REMARK INTER + INTRA:          -8.636
REMARK INTER:                  -6.737
REMARK INTRA:                  -1.899
REMARK UNBOUND:                -1.909
REMARK SMILES CCCCCCCCCCCCCC(=O)[O-]
REMARK SMILES IDX 8 1 9 2 10 3 11 4 12 5 13 6 14 7 15 8 16 9 7 10 6 11 5 12
REMARK SMILES IDX 4 13 3 14 2 15 1 16
REMARK H PARENT
REMARK Flexibility Score: inf
ROOT
ATOM      1  C   UNL     1     104.417 309.532 204.345  1.00  0.00     0.000 C 
ENDROOT
BRANCH   1   2
ATOM      2  C   UNL     1     103.676 309.712 205.680  1.00  0.00     0.000 C 
BRANCH   2   3
ATOM      3  C   UNL     1     102.353 310.481 205.520  1.00  0.00     0.000 C 
BRANCH   3   4
ATOM      4  C   UNL     1     101.866 310.537 204.063  1.00  0.00     0.000 C 
BRANCH   4   5
ATOM      5  C   UNL     1     100.790 309.500 203.684  1.00  0.00     0.006 C 
BRANCH   5   6
ATOM      6  C   UNL     1     100.331 309.577 202.217  1.00  0.00     0.053 C 
BRANCH   6   7
ATOM      7  C   UNL     1      98.870 309.276 202.057  1.00  0.00     0.041 C 
ATOM      8  O   UNL     1      98.158 309.032 203.067  1.00  0.00    -0.550 OA
ATOM      9  O   UNL     1      98.285 309.307 200.797  1.00  0.00    -0.550 OA
ENDBRANCH   6   7
ENDBRANCH   5   6
ENDBRANCH   4   5
ENDBRANCH   3   4
ENDBRANCH   2   3
ENDBRANCH   1   2
BRANCH   1  10
ATOM     10  C   UNL     1     104.959 308.105 204.154  1.00  0.00     0.000 C 
BRANCH  10  11
ATOM     11  C   UNL     1     104.042 307.240 203.274  1.00  0.00    -0.000 C 
BRANCH  11  12
ATOM     12  C   UNL     1     103.667 307.936 201.953  1.00  0.00    -0.000 C 
BRANCH  12  13
ATOM     13  C   UNL     1     104.866 308.089 201.005  1.00  0.00    -0.000 C 
BRANCH  13  14
ATOM     14  C   UNL     1     105.007 309.518 200.458  1.00  0.00    -0.000 C 
BRANCH  14  15
ATOM     15  C   UNL     1     103.695 310.297 200.612  1.00  0.00    -0.003 C 
ATOM     16  C   UNL     1     103.927 311.637 201.302  1.00  0.00     0.004 C 
ENDBRANCH  14  15
ENDBRANCH  13  14
ENDBRANCH  12  13
ENDBRANCH  11  12
ENDBRANCH  10  11
ENDBRANCH   1  10
TORSDOF 12
ENDMDL
MODEL 3
REMARK VINA RESULT:    -3.923      2.551      4.440
REMARK INTER + INTRA:          -8.584
REMARK INTER:                  -6.689
REMARK INTRA:                  -1.895
REMARK UNBOUND:                -1.909
REMARK SMILES CCCCCCCCCCCCCC(=O)[O-]
REMARK SMILES IDX 8 1 9 2 10 3 11 4 12 5 13 6 14 7 15 8 16 9 7 10 6 11 5 12
REMARK SMILES IDX 4 13 3 14 2 15 1 16
REMARK H PARENT
REMARK Flexibility Score: inf
ROOT
ATOM      1  C   UNL     1     103.722 307.807 201.931  1.00  0.00     0.000 C 
ENDROOT
BRANCH   1   2
ATOM      2  C   UNL     1     105.003 308.135 201.146  1.00  0.00     0.000 C 
BRANCH   2   3
ATOM      3  C   UNL     1     104.891 309.454 200.362  1.00  0.00     0.000 C 
BRANCH   3   4
ATOM      4  C   UNL     1     104.914 310.695 201.271  1.00  0.00     0.000 C 
BRANCH   4   5
ATOM      5  C   UNL     1     103.647 311.573 201.224  1.00  0.00     0.006 C 
BRANCH   5   6
ATOM      6  C   UNL     1     102.510 310.990 200.366  1.00  0.00     0.053 C 
BRANCH   6   7
ATOM      7  C   UNL     1     102.123 311.897 199.235  1.00  0.00     0.041 C 
ATOM      8  O   UNL     1     101.385 311.473 198.307  1.00  0.00    -0.550 OA
ATOM      9  O   UNL     1     102.541 313.222 199.228  1.00  0.00    -0.550 OA
ENDBRANCH   6   7
ENDBRANCH   5   6
ENDBRANCH   4   5
ENDBRANCH   3   4
ENDBRANCH   2   3
ENDBRANCH   1   2
BRANCH   1  10
ATOM     10  C   UNL     1     104.004 307.427 203.396  1.00  0.00     0.000 C 
BRANCH  10  11
ATOM     11  C   UNL     1     104.766 308.528 204.152  1.00  0.00    -0.000 C 
BRANCH  11  12
ATOM     12  C   UNL     1     103.895 309.227 205.210  1.00  0.00    -0.000 C 
BRANCH  12  13
ATOM     13  C   UNL     1     103.364 310.588 204.732  1.00  0.00    -0.000 C 
BRANCH  13  14
ATOM     14  C   UNL     1     101.873 310.784 205.047  1.00  0.00    -0.000 C 
BRANCH  14  15
ATOM     15  C   UNL     1     101.063 309.540 204.663  1.00  0.00    -0.003 C 
ATOM     16  C   UNL     1     100.722 309.541 203.176  1.00  0.00     0.004 C 
ENDBRANCH  14  15
ENDBRANCH  13  14
ENDBRANCH  12  13
ENDBRANCH  11  12
ENDBRANCH  10  11
ENDBRANCH   1  10
TORSDOF 12
ENDMDL
MODEL 4
REMARK VINA RESULT:    -3.896      2.468      4.447
REMARK INTER + INTRA:          -8.539
REMARK INTER:                  -7.141
REMARK INTRA:                  -1.398
REMARK UNBOUND:                -1.909
REMARK SMILES CCCCCCCCCCCCCC(=O)[O-]
REMARK SMILES IDX 8 1 9 2 10 3 11 4 12 5 13 6 14 7 15 8 16 9 7 10 6 11 5 12
REMARK SMILES IDX 4 13 3 14 2 15 1 16
REMARK H PARENT
REMARK Flexibility Score: inf
ROOT
ATOM      1  C   UNL     1     104.846 308.384 204.228  1.00  0.00     0.000 C 
ENDROOT
BRANCH   1   2
ATOM      2  C   UNL     1     104.043 307.355 203.415  1.00  0.00     0.000 C 
BRANCH   2   3
ATOM      3  C   UNL     1     103.727 307.845 201.992  1.00  0.00     0.000 C 
BRANCH   3   4
ATOM      4  C   UNL     1     104.988 308.040 201.133  1.00  0.00     0.000 C 
BRANCH   4   5
ATOM      5  C   UNL     1     105.042 309.353 200.325  1.00  0.00     0.006 C 
BRANCH   5   6
ATOM      6  C   UNL     1     104.858 310.622 201.176  1.00  0.00     0.053 C 
BRANCH   6   7
ATOM      7  C   UNL     1     103.614 311.379 200.815  1.00  0.00     0.041 C 
ATOM      8  O   UNL     1     103.366 312.487 201.358  1.00  0.00    -0.550 OA
ATOM      9  O   UNL     1     102.750 310.880 199.848  1.00  0.00    -0.550 OA
ENDBRANCH   6   7
ENDBRANCH   5   6
ENDBRANCH   4   5
ENDBRANCH   3   4
ENDBRANCH   2   3
ENDBRANCH   1   2
BRANCH   1  10
ATOM     10  C   UNL     1     103.958 309.232 205.155  1.00  0.00     0.000 C 
BRANCH  10  11
ATOM     11  C   UNL     1     103.740 310.657 204.618  1.00  0.00    -0.000 C 
BRANCH  11  12
ATOM     12  C   UNL     1     102.263 310.947 204.301  1.00  0.00    -0.000 C 
BRANCH  12  13
ATOM     13  C   UNL     1     101.368 309.710 204.470  1.00  0.00    -0.000 C 
BRANCH  13  14
ATOM     14  C   UNL     1     100.383 309.849 205.641  1.00  0.00    -0.000 C 
BRANCH  14  15
ATOM     15  C   UNL     1      99.187 308.906 205.466  1.00  0.00    -0.003 C 
ATOM     16  C   UNL     1      98.506 308.625 206.802  1.00  0.00     0.004 C 
ENDBRANCH  14  15
ENDBRANCH  13  14
ENDBRANCH  12  13
ENDBRANCH  11  12
ENDBRANCH  10  11
ENDBRANCH   1  10
TORSDOF 12
ENDMDL
MODEL 5
REMARK VINA RESULT:    -3.895      2.420      4.783
REMARK INTER + INTRA:          -8.536
REMARK INTER:                  -6.992
REMARK INTRA:                  -1.544
REMARK UNBOUND:                -1.909
REMARK SMILES CCCCCCCCCCCCCC(=O)[O-]
REMARK SMILES IDX 8 1 9 2 10 3 11 4 12 5 13 6 14 7 15 8 16 9 7 10 6 11 5 12
REMARK SMILES IDX 4 13 3 14 2 15 1 16
REMARK H PARENT
REMARK Flexibility Score: inf
ROOT
ATOM      1  C   UNL     1     103.823 307.764 202.319  1.00  0.00     0.000 C 
ENDROOT
BRANCH   1   2
ATOM      2  C   UNL     1     104.870 307.957 201.209  1.00  0.00     0.000 C 
BRANCH   2   3
ATOM      3  C   UNL     1     104.660 309.261 200.421  1.00  0.00     0.000 C 
BRANCH   3   4
ATOM      4  C   UNL     1     104.954 310.519 201.256  1.00  0.00     0.000 C 
BRANCH   4   5
ATOM      5  C   UNL     1     103.745 311.442 201.510  1.00  0.00     0.006 C 
BRANCH   5   6
ATOM      6  C   UNL     1     102.406 310.878 201.003  1.00  0.00     0.053 C 
BRANCH   6   7
ATOM      7  C   UNL     1     101.889 311.618 199.805  1.00  0.00     0.041 C 
ATOM      8  O   UNL     1     102.444 311.477 198.684  1.00  0.00    -0.550 OA
ATOM      9  O   UNL     1     100.769 312.432 199.918  1.00  0.00    -0.550 OA
ENDBRANCH   6   7
ENDBRANCH   5   6
ENDBRANCH   4   5
ENDBRANCH   3   4
ENDBRANCH   2   3
ENDBRANCH   1   2
BRANCH   1  10
ATOM     10  C   UNL     1     104.458 307.540 203.702  1.00  0.00     0.000 C 
BRANCH  10  11
ATOM     11  C   UNL     1     104.394 308.795 204.589  1.00  0.00    -0.000 C 
BRANCH  11  12
ATOM     12  C   UNL     1     103.017 309.480 204.541  1.00  0.00    -0.000 C 
BRANCH  12  13
ATOM     13  C   UNL     1     103.030 310.877 205.180  1.00  0.00    -0.000 C 
BRANCH  13  14
ATOM     14  C   UNL     1     104.038 310.990 206.334  1.00  0.00    -0.000 C 
BRANCH  14  15
ATOM     15  C   UNL     1     105.125 312.023 206.015  1.00  0.00    -0.003 C 
ATOM     16  C   UNL     1     104.565 313.441 206.047  1.00  0.00     0.004 C 
ENDBRANCH  14  15
ENDBRANCH  13  14
ENDBRANCH  12  13
ENDBRANCH  11  12
ENDBRANCH  10  11
ENDBRANCH   1  10
TORSDOF 12
ENDMDL
MODEL 6
REMARK VINA RESULT:    -3.883     16.120     18.815
REMARK INTER + INTRA:          -8.515
REMARK INTER:                  -6.828
REMARK INTRA:                  -1.687
REMARK UNBOUND:                -1.909
REMARK SMILES CCCCCCCCCCCCCC(=O)[O-]
REMARK SMILES IDX 8 1 9 2 10 3 11 4 12 5 13 6 14 7 15 8 16 9 7 10 6 11 5 12
REMARK SMILES IDX 4 13 3 14 2 15 1 16
REMARK H PARENT
REMARK Flexibility Score: inf
ROOT
ATOM      1  C   UNL     1      86.175 317.879 203.031  1.00  0.00     0.000 C 
ENDROOT
BRANCH   1   2
ATOM      2  C   UNL     1      84.875 317.679 202.235  1.00  0.00     0.000 C 
BRANCH   2   3
ATOM      3  C   UNL     1      84.884 316.380 201.410  1.00  0.00     0.000 C 
BRANCH   3   4
ATOM      4  C   UNL     1      85.591 315.219 202.127  1.00  0.00     0.000 C 
BRANCH   4   5
ATOM      5  C   UNL     1      86.910 314.748 201.484  1.00  0.00     0.006 C 
BRANCH   5   6
ATOM      6  C   UNL     1      86.827 314.540 199.961  1.00  0.00     0.053 C 
BRANCH   6   7
ATOM      7  C   UNL     1      88.100 313.990 199.387  1.00  0.00     0.041 C 
ATOM      8  O   UNL     1      88.142 312.808 198.957  1.00  0.00    -0.550 OA
ATOM      9  O   UNL     1      89.226 314.797 199.289  1.00  0.00    -0.550 OA
ENDBRANCH   6   7
ENDBRANCH   5   6
ENDBRANCH   4   5
ENDBRANCH   3   4
ENDBRANCH   2   3
ENDBRANCH   1   2
BRANCH   1  10
ATOM     10  C   UNL     1      85.948 318.607 204.367  1.00  0.00     0.000 C 
BRANCH  10  11
ATOM     11  C   UNL     1      84.963 317.861 205.283  1.00  0.00    -0.000 C 
BRANCH  11  12
ATOM     12  C   UNL     1      85.676 316.928 206.278  1.00  0.00    -0.000 C 
BRANCH  12  13
ATOM     13  C   UNL     1      85.691 315.465 205.809  1.00  0.00    -0.000 C 
BRANCH  13  14
ATOM     14  C   UNL     1      87.109 314.956 205.505  1.00  0.00    -0.000 C 
BRANCH  14  15
ATOM     15  C   UNL     1      88.164 315.970 205.961  1.00  0.00    -0.003 C 
ATOM     16  C   UNL     1      89.089 316.359 204.812  1.00  0.00     0.004 C 
ENDBRANCH  14  15
ENDBRANCH  13  14
ENDBRANCH  12  13
ENDBRANCH  11  12
ENDBRANCH  10  11
ENDBRANCH   1  10
TORSDOF 12
ENDMDL
MODEL 7
REMARK VINA RESULT:    -3.872      1.847      4.316
REMARK INTER + INTRA:          -8.496
REMARK INTER:                  -6.781
REMARK INTRA:                  -1.716
REMARK UNBOUND:                -1.909
REMARK SMILES CCCCCCCCCCCCCC(=O)[O-]
REMARK SMILES IDX 8 1 9 2 10 3 11 4 12 5 13 6 14 7 15 8 16 9 7 10 6 11 5 12
REMARK SMILES IDX 4 13 3 14 2 15 1 16
REMARK H PARENT
REMARK Flexibility Score: inf
ROOT
ATOM      1  C   UNL     1     104.644 308.999 200.509  1.00  0.00     0.000 C 
ENDROOT
BRANCH   1   2
ATOM      2  C   UNL     1     105.034 310.413 200.972  1.00  0.00     0.000 C 
BRANCH   2   3
ATOM      3  C   UNL     1     103.809 311.304 201.240  1.00  0.00     0.000 C 
BRANCH   3   4
ATOM      4  C   UNL     1     102.544 310.819 200.512  1.00  0.00     0.000 C 
BRANCH   4   5
ATOM      5  C   UNL     1     101.253 310.822 201.354  1.00  0.00     0.006 C 
BRANCH   5   6
ATOM      6  C   UNL     1     101.171 309.681 202.383  1.00  0.00     0.053 C 
BRANCH   6   7
ATOM      7  C   UNL     1     100.831 310.173 203.760  1.00  0.00     0.041 C 
ATOM      8  O   UNL     1     100.823 311.408 204.007  1.00  0.00    -0.550 OA
ATOM      9  O   UNL     1     100.484 309.272 204.757  1.00  0.00    -0.550 OA
ENDBRANCH   6   7
ENDBRANCH   5   6
ENDBRANCH   4   5
ENDBRANCH   3   4
ENDBRANCH   2   3
ENDBRANCH   1   2
BRANCH   1  10
ATOM     10  C   UNL     1     105.035 307.913 201.526  1.00  0.00     0.000 C 
BRANCH  10  11
ATOM     11  C   UNL     1     104.047 307.822 202.700  1.00  0.00    -0.000 C 
BRANCH  11  12
ATOM     12  C   UNL     1     104.740 307.965 204.066  1.00  0.00    -0.000 C 
BRANCH  12  13
ATOM     13  C   UNL     1     104.067 309.015 204.963  1.00  0.00    -0.000 C 
BRANCH  13  14
ATOM     14  C   UNL     1     104.456 310.453 204.584  1.00  0.00    -0.000 C 
BRANCH  14  15
ATOM     15  C   UNL     1     104.047 311.439 205.683  1.00  0.00    -0.003 C 
ATOM     16  C   UNL     1     103.990 310.756 207.046  1.00  0.00     0.004 C 
ENDBRANCH  14  15
ENDBRANCH  13  14
ENDBRANCH  12  13
ENDBRANCH  11  12
ENDBRANCH  10  11
ENDBRANCH   1  10
TORSDOF 12
ENDMDL
MODEL 8
REMARK VINA RESULT:    -3.835      1.674      3.805
REMARK INTER + INTRA:          -8.434
REMARK INTER:                  -6.379
REMARK INTRA:                  -2.055
REMARK UNBOUND:                -1.909
REMARK SMILES CCCCCCCCCCCCCC(=O)[O-]
REMARK SMILES IDX 8 1 9 2 10 3 11 4 12 5 13 6 14 7 15 8 16 9 7 10 6 11 5 12
REMARK SMILES IDX 4 13 3 14 2 15 1 16
REMARK H PARENT
REMARK Flexibility Score: inf
ROOT
ATOM      1  C   UNL     1     104.552 307.738 203.658  1.00  0.00     0.000 C 
ENDROOT
BRANCH   1   2
ATOM      2  C   UNL     1     103.817 307.775 202.308  1.00  0.00     0.000 C 
BRANCH   2   3
ATOM      3  C   UNL     1     104.783 307.851 201.113  1.00  0.00     0.000 C 
BRANCH   3   4
ATOM      4  C   UNL     1     104.871 309.260 200.504  1.00  0.00     0.000 C 
BRANCH   4   5
ATOM      5  C   UNL     1     103.695 310.200 200.836  1.00  0.00     0.006 C 
BRANCH   5   6
ATOM      6  C   UNL     1     104.110 311.493 201.559  1.00  0.00     0.053 C 
BRANCH   6   7
ATOM      7  C   UNL     1     103.276 312.672 201.151  1.00  0.00     0.041 C 
ATOM      8  O   UNL     1     102.569 312.617 200.111  1.00  0.00    -0.550 OA
ATOM      9  O   UNL     1     103.247 313.813 201.941  1.00  0.00    -0.550 OA
ENDBRANCH   6   7
ENDBRANCH   5   6
ENDBRANCH   4   5
ENDBRANCH   3   4
ENDBRANCH   2   3
ENDBRANCH   1   2
BRANCH   1  10
ATOM     10  C   UNL     1     104.753 309.137 204.264  1.00  0.00     0.000 C 
BRANCH  10  11
ATOM     11  C   UNL     1     103.633 309.519 205.246  1.00  0.00    -0.000 C 
BRANCH  11  12
ATOM     12  C   UNL     1     103.121 310.954 205.027  1.00  0.00    -0.000 C 
BRANCH  12  13
ATOM     13  C   UNL     1     101.714 310.992 204.412  1.00  0.00    -0.000 C 
BRANCH  13  14
ATOM     14  C   UNL     1     101.124 309.589 204.200  1.00  0.00    -0.000 C 
BRANCH  14  15
ATOM     15  C   UNL     1     100.591 309.428 202.771  1.00  0.00    -0.003 C 
ATOM     16  C   UNL     1     100.228 310.779 202.163  1.00  0.00     0.004 C 
ENDBRANCH  14  15
ENDBRANCH  13  14
ENDBRANCH  12  13
ENDBRANCH  11  12
ENDBRANCH  10  11
ENDBRANCH   1  10
TORSDOF 12
ENDMDL
MODEL 9
REMARK VINA RESULT:    -3.786      0.975      1.724
REMARK INTER + INTRA:          -8.350
REMARK INTER:                  -6.542
REMARK INTRA:                  -1.808
REMARK UNBOUND:                -1.909
REMARK SMILES CCCCCCCCCCCCCC(=O)[O-]
REMARK SMILES IDX 8 1 9 2 10 3 11 4 12 5 13 6 14 7 15 8 16 9 7 10 6 11 5 12
REMARK SMILES IDX 4 13 3 14 2 15 1 16
REMARK H PARENT
REMARK Flexibility Score: inf
ROOT
ATOM      1  C   UNL     1     105.036 308.137 201.149  1.00  0.00     0.000 C 
ENDROOT
BRANCH   1   2
ATOM      2  C   UNL     1     103.748 307.747 201.891  1.00  0.00     0.000 C 
BRANCH   2   3
ATOM      3  C   UNL     1     104.003 307.387 203.365  1.00  0.00     0.000 C 
BRANCH   3   4
ATOM      4  C   UNL     1     104.787 308.474 204.119  1.00  0.00     0.000 C 
BRANCH   4   5
ATOM      5  C   UNL     1     103.997 309.224 205.210  1.00  0.00     0.006 C 
BRANCH   5   6
ATOM      6  C   UNL     1     103.348 310.533 204.728  1.00  0.00     0.053 C 
BRANCH   6   7
ATOM      7  C   UNL     1     104.149 311.744 205.106  1.00  0.00     0.041 C 
ATOM      8  O   UNL     1     105.125 312.105 204.397  1.00  0.00    -0.550 OA
ATOM      9  O   UNL     1     103.793 312.497 206.218  1.00  0.00    -0.550 OA
ENDBRANCH   6   7
ENDBRANCH   5   6
ENDBRANCH   4   5
ENDBRANCH   3   4
ENDBRANCH   2   3
ENDBRANCH   1   2
BRANCH   1  10
ATOM     10  C   UNL     1     104.879 309.425 200.322  1.00  0.00     0.000 C 
BRANCH  10  11
ATOM     11  C   UNL     1     105.007 310.694 201.180  1.00  0.00    -0.000 C 
BRANCH  11  12
ATOM     12  C   UNL     1     103.727 311.548 201.162  1.00  0.00    -0.000 C 
BRANCH  12  13
ATOM     13  C   UNL     1     102.486 310.745 200.744  1.00  0.00    -0.000 C 
BRANCH  13  14
ATOM     14  C   UNL     1     101.296 310.960 201.692  1.00  0.00    -0.000 C 
BRANCH  14  15
ATOM     15  C   UNL     1     100.803 309.626 202.266  1.00  0.00    -0.003 C 
ATOM     16  C   UNL     1      99.786 309.847 203.380  1.00  0.00     0.004 C 
ENDBRANCH  14  15
ENDBRANCH  13  14
ENDBRANCH  12  13
ENDBRANCH  11  12
ENDBRANCH  10  11
ENDBRANCH   1  10
TORSDOF 12
ENDMDL
