MODEL 1
REMARK VINA RESULT:     3.521      0.000      0.000
REMARK INTER + INTRA:           6.551
REMARK INTER:                   6.609
REMARK INTRA:                  -0.058
REMARK UNBOUND:                -0.058
REMARK SMILES CCCCCCCCC=CCCCCCCCC(=O)[O-]
REMARK SMILES IDX 10 1 9 2 11 3 12 4 13 5 14 6 15 7 16 8 17 9 18 10 19 11
REMARK SMILES IDX 20 12 8 13 7 14 6 15 5 16 4 17 3 18 2 19 1 20
REMARK H PARENT
REMARK Flexibility Score: inf
ROOT
ATOM      1  C   UNL     1     -17.388   1.893   6.747  1.00  0.00    -0.031 C 
ATOM      2  C   UNL     1     -17.604   2.963   5.957  1.00  0.00    -0.031 C 
ENDROOT
BRANCH   1   3
ATOM      3  C   UNL     1     -17.965   1.712   8.132  1.00  0.00     0.027 C 
BRANCH   3   4
ATOM      4  C   UNL     1     -17.555   0.364   8.741  1.00  0.00     0.004 C 
BRANCH   4   5
ATOM      5  C   UNL     1     -16.255  -0.176   8.118  1.00  0.00     0.000 C 
BRANCH   5   6
ATOM      6  C   UNL     1     -15.745  -1.445   8.819  1.00  0.00     0.000 C 
BRANCH   6   7
ATOM      7  C   UNL     1     -16.673  -2.654   8.601  1.00  0.00     0.000 C 
BRANCH   7   8
ATOM      8  C   UNL     1     -17.748  -2.784   9.700  1.00  0.00     0.006 C 
BRANCH   8   9
ATOM      9  C   UNL     1     -17.510  -1.867  10.912  1.00  0.00     0.053 C 
BRANCH   9  10
ATOM     10  C   UNL     1     -17.773  -2.560  12.213  1.00  0.00     0.041 C 
ATOM     11  O   UNL     1     -17.094  -2.269  13.236  1.00  0.00    -0.550 OA
ATOM     12  O   UNL     1     -18.765  -3.530  12.297  1.00  0.00    -0.550 OA
ENDBRANCH   9  10
ENDBRANCH   8   9
ENDBRANCH   7   8
ENDBRANCH   6   7
ENDBRANCH   5   6
ENDBRANCH   4   5
ENDBRANCH   3   4
ENDBRANCH   1   3
BRANCH   2  13
ATOM     13  C   UNL     1     -18.402   4.177   6.357  1.00  0.00     0.027 C 
BRANCH  13  14
ATOM     14  C   UNL     1     -18.832   4.986   5.122  1.00  0.00     0.004 C 
BRANCH  14  15
ATOM     15  C   UNL     1     -18.853   6.499   5.385  1.00  0.00     0.000 C 
BRANCH  15  16
ATOM     16  C   UNL     1     -17.520   7.179   5.039  1.00  0.00     0.000 C 
BRANCH  16  17
ATOM     17  C   UNL     1     -17.546   7.743   3.613  1.00  0.00    -0.000 C 
BRANCH  17  18
ATOM     18  C   UNL     1     -18.899   7.472   2.939  1.00  0.00    -0.000 C 
BRANCH  18  19
ATOM     19  C   UNL     1     -18.991   8.085   1.533  1.00  0.00    -0.003 C 
ATOM     20  C   UNL     1     -17.642   8.124   0.816  1.00  0.00     0.004 C 
ENDBRANCH  18  19
ENDBRANCH  17  18
ENDBRANCH  16  17
ENDBRANCH  15  16
ENDBRANCH  14  15
ENDBRANCH  13  14
ENDBRANCH   2  13
TORSDOF 15
ENDMDL
MODEL 2
REMARK VINA RESULT:     3.798      1.535      2.906
REMARK INTER + INTRA:           7.071
REMARK INTER:                   8.323
REMARK INTRA:                  -1.253
REMARK UNBOUND:                -0.058
REMARK SMILES CCCCCCCCC=CCCCCCCCC(=O)[O-]
REMARK SMILES IDX 10 1 9 2 11 3 12 4 13 5 14 6 15 7 16 8 17 9 18 10 19 11
REMARK SMILES IDX 20 12 8 13 7 14 6 15 5 16 4 17 3 18 2 19 1 20
REMARK H PARENT
REMARK Flexibility Score: inf
ROOT
ATOM      1  C   UNL     1     -17.631   2.448   6.304  1.00  0.00    -0.031 C 
ATOM      2  C   UNL     1     -17.779   3.586   5.598  1.00  0.00    -0.031 C 
ENDROOT
BRANCH   1   3
ATOM      3  C   UNL     1     -18.496   2.037   7.473  1.00  0.00     0.027 C 
BRANCH   3   4
ATOM      4  C   UNL     1     -17.810   0.967   8.332  1.00  0.00     0.004 C 
BRANCH   4   5
ATOM      5  C   UNL     1     -16.336   0.768   7.935  1.00  0.00     0.000 C 
BRANCH   5   6
ATOM      6  C   UNL     1     -15.798  -0.617   8.327  1.00  0.00     0.000 C 
BRANCH   6   7
ATOM      7  C   UNL     1     -16.923  -1.635   8.588  1.00  0.00     0.000 C 
BRANCH   7   8
ATOM      8  C   UNL     1     -16.829  -2.280   9.986  1.00  0.00     0.006 C 
BRANCH   8   9
ATOM      9  C   UNL     1     -17.999  -1.919  10.915  1.00  0.00     0.053 C 
BRANCH   9  10
ATOM     10  C   UNL     1     -18.010  -2.739  12.168  1.00  0.00     0.041 C 
ATOM     11  O   UNL     1     -18.959  -3.538  12.396  1.00  0.00    -0.550 OA
ATOM     12  O   UNL     1     -16.974  -2.617  13.087  1.00  0.00    -0.550 OA
ENDBRANCH   9  10
ENDBRANCH   8   9
ENDBRANCH   7   8
ENDBRANCH   6   7
ENDBRANCH   5   6
ENDBRANCH   4   5
ENDBRANCH   3   4
ENDBRANCH   1   3
BRANCH   2  13
ATOM     13  C   UNL     1     -18.793   4.659   5.904  1.00  0.00     0.027 C 
BRANCH  13  14
ATOM     14  C   UNL     1     -19.010   5.575   4.689  1.00  0.00     0.004 C 
BRANCH  14  15
ATOM     15  C   UNL     1     -17.781   6.441   4.375  1.00  0.00     0.000 C 
BRANCH  15  16
ATOM     16  C   UNL     1     -17.959   7.902   4.814  1.00  0.00     0.000 C 
BRANCH  16  17
ATOM     17  C   UNL     1     -17.440   8.113   6.242  1.00  0.00    -0.000 C 
BRANCH  17  18
ATOM     18  C   UNL     1     -18.598   8.124   7.251  1.00  0.00    -0.000 C 
BRANCH  18  19
ATOM     19  C   UNL     1     -18.274   7.334   8.528  1.00  0.00    -0.003 C 
ATOM     20  C   UNL     1     -17.003   7.824   9.220  1.00  0.00     0.004 C 
ENDBRANCH  18  19
ENDBRANCH  17  18
ENDBRANCH  16  17
ENDBRANCH  15  16
ENDBRANCH  14  15
ENDBRANCH  13  14
ENDBRANCH   2  13
TORSDOF 15
ENDMDL
MODEL 3
REMARK VINA RESULT:     3.852      3.755      9.676
REMARK INTER + INTRA:           7.171
REMARK INTER:                   8.279
REMARK INTRA:                  -1.108
REMARK UNBOUND:                -0.058
REMARK SMILES CCCCCCCCC=CCCCCCCCC(=O)[O-]
REMARK SMILES IDX 10 1 9 2 11 3 12 4 13 5 14 6 15 7 16 8 17 9 18 10 19 11
REMARK SMILES IDX 20 12 8 13 7 14 6 15 5 16 4 17 3 18 2 19 1 20
REMARK H PARENT
REMARK Flexibility Score: inf
ROOT
ATOM      1  C   UNL     1     -17.880   2.958   5.389  1.00  0.00    -0.031 C 
ATOM      2  C   UNL     1     -17.554   2.043   6.323  1.00  0.00    -0.031 C 
ENDROOT
BRANCH   1   3
ATOM      3  C   UNL     1     -18.485   4.312   5.681  1.00  0.00     0.027 C 
BRANCH   3   4
ATOM      4  C   UNL     1     -18.933   5.018   4.394  1.00  0.00     0.004 C 
BRANCH   4   5
ATOM      5  C   UNL     1     -18.940   6.549   4.551  1.00  0.00     0.000 C 
BRANCH   5   6
ATOM      6  C   UNL     1     -17.682   7.211   3.967  1.00  0.00     0.000 C 
BRANCH   6   7
ATOM      7  C   UNL     1     -16.863   7.965   5.029  1.00  0.00     0.000 C 
BRANCH   7   8
ATOM      8  C   UNL     1     -17.623   8.125   6.362  1.00  0.00     0.006 C 
BRANCH   8   9
ATOM      9  C   UNL     1     -16.807   7.700   7.595  1.00  0.00     0.053 C 
BRANCH   9  10
ATOM     10  C   UNL     1     -17.579   7.845   8.870  1.00  0.00     0.041 C 
ATOM     11  O   UNL     1     -16.978   7.849   9.979  1.00  0.00    -0.550 OA
ATOM     12  O   UNL     1     -18.963   7.969   8.835  1.00  0.00    -0.550 OA
ENDBRANCH   9  10
ENDBRANCH   8   9
ENDBRANCH   7   8
ENDBRANCH   6   7
ENDBRANCH   5   6
ENDBRANCH   4   5
ENDBRANCH   3   4
ENDBRANCH   1   3
BRANCH   2  13
ATOM     13  C   UNL     1     -17.801   2.201   7.801  1.00  0.00     0.027 C 
BRANCH  13  14
ATOM     14  C   UNL     1     -18.044   0.837   8.468  1.00  0.00     0.004 C 
BRANCH  14  15
ATOM     15  C   UNL     1     -16.743   0.168   8.936  1.00  0.00     0.000 C 
BRANCH  15  16
ATOM     16  C   UNL     1     -16.392  -1.083   8.116  1.00  0.00     0.000 C 
BRANCH  16  17
ATOM     17  C   UNL     1     -15.932  -2.226   9.030  1.00  0.00    -0.000 C 
BRANCH  17  18
ATOM     18  C   UNL     1     -17.110  -2.794   9.836  1.00  0.00    -0.000 C 
BRANCH  18  19
ATOM     19  C   UNL     1     -16.906  -2.660  11.352  1.00  0.00    -0.003 C 
ATOM     20  C   UNL     1     -18.181  -2.247  12.087  1.00  0.00     0.004 C 
ENDBRANCH  18  19
ENDBRANCH  17  18
ENDBRANCH  16  17
ENDBRANCH  15  16
ENDBRANCH  14  15
ENDBRANCH  13  14
ENDBRANCH   2  13
TORSDOF 15
ENDMDL
MODEL 4
REMARK VINA RESULT:     4.142     13.415     15.530
REMARK INTER + INTRA:           7.717
REMARK INTER:                   8.596
REMARK INTRA:                  -0.879
REMARK UNBOUND:                -0.058
REMARK SMILES CCCCCCCCC=CCCCCCCCC(=O)[O-]
REMARK SMILES IDX 10 1 9 2 11 3 12 4 13 5 14 6 15 7 16 8 17 9 18 10 19 11
REMARK SMILES IDX 20 12 8 13 7 14 6 15 5 16 4 17 3 18 2 19 1 20
REMARK H PARENT
REMARK Flexibility Score: inf
ROOT
ATOM      1  C   UNL     1      -6.746   4.143  16.750  1.00  0.00    -0.031 C 
ATOM      2  C   UNL     1      -7.990   3.904  17.206  1.00  0.00    -0.031 C 
ENDROOT
BRANCH   1   3
ATOM      3  C   UNL     1      -6.404   4.508  15.323  1.00  0.00     0.027 C 
BRANCH   3   4
ATOM      4  C   UNL     1      -5.984   3.275  14.512  1.00  0.00     0.004 C 
BRANCH   4   5
ATOM      5  C   UNL     1      -4.799   3.578  13.577  1.00  0.00     0.000 C 
BRANCH   5   6
ATOM      6  C   UNL     1      -5.191   3.535  12.092  1.00  0.00     0.000 C 
BRANCH   6   7
ATOM      7  C   UNL     1      -5.029   4.900  11.398  1.00  0.00     0.000 C 
BRANCH   7   8
ATOM      8  C   UNL     1      -4.357   5.952  12.305  1.00  0.00     0.006 C 
BRANCH   8   9
ATOM      9  C   UNL     1      -3.014   6.469  11.763  1.00  0.00     0.053 C 
BRANCH   9  10
ATOM     10  C   UNL     1      -1.854   6.043  12.609  1.00  0.00     0.041 C 
ATOM     11  O   UNL     1      -1.005   6.892  12.996  1.00  0.00    -0.550 OA
ATOM     12  O   UNL     1      -1.706   4.707  12.964  1.00  0.00    -0.550 OA
ENDBRANCH   9  10
ENDBRANCH   8   9
ENDBRANCH   7   8
ENDBRANCH   6   7
ENDBRANCH   5   6
ENDBRANCH   4   5
ENDBRANCH   3   4
ENDBRANCH   1   3
BRANCH   2  13
ATOM     13  C   UNL     1      -9.231   3.899  16.351  1.00  0.00     0.027 C 
BRANCH  13  14
ATOM     14  C   UNL     1     -10.132   5.101  16.680  1.00  0.00     0.004 C 
BRANCH  14  15
ATOM     15  C   UNL     1     -11.627   4.762  16.583  1.00  0.00     0.000 C 
BRANCH  15  16
ATOM     16  C   UNL     1     -12.526   5.902  17.086  1.00  0.00     0.000 C 
BRANCH  16  17
ATOM     17  C   UNL     1     -13.886   5.364  17.549  1.00  0.00    -0.000 C 
BRANCH  17  18
ATOM     18  C   UNL     1     -14.247   5.903  18.941  1.00  0.00    -0.000 C 
BRANCH  18  19
ATOM     19  C   UNL     1     -14.436   7.427  18.951  1.00  0.00    -0.003 C 
ATOM     20  C   UNL     1     -15.731   7.857  19.641  1.00  0.00     0.004 C 
ENDBRANCH  18  19
ENDBRANCH  17  18
ENDBRANCH  16  17
ENDBRANCH  15  16
ENDBRANCH  14  15
ENDBRANCH  13  14
ENDBRANCH   2  13
TORSDOF 15
ENDMDL
MODEL 5
REMARK VINA RESULT:     4.481      5.103     10.917
REMARK INTER + INTRA:           8.351
REMARK INTER:                   8.470
REMARK INTRA:                  -0.119
REMARK UNBOUND:                -0.058
REMARK SMILES CCCCCCCCC=CCCCCCCCC(=O)[O-]
REMARK SMILES IDX 10 1 9 2 11 3 12 4 13 5 14 6 15 7 16 8 17 9 18 10 19 11
REMARK SMILES IDX 20 12 8 13 7 14 6 15 5 16 4 17 3 18 2 19 1 20
REMARK H PARENT
REMARK Flexibility Score: inf
ROOT
ATOM      1  C   UNL     1     -19.124  -2.701  11.488  1.00  0.00    -0.031 C 
ATOM      2  C   UNL     1     -18.842  -3.443  12.576  1.00  0.00    -0.031 C 
ENDROOT
BRANCH   1   3
ATOM      3  C   UNL     1     -18.116  -2.277  10.444  1.00  0.00     0.027 C 
BRANCH   3   4
ATOM      4  C   UNL     1     -18.034  -3.291   9.296  1.00  0.00     0.004 C 
BRANCH   4   5
ATOM      5  C   UNL     1     -16.619  -3.367   8.695  1.00  0.00     0.000 C 
BRANCH   5   6
ATOM      6  C   UNL     1     -15.556  -2.728   9.601  1.00  0.00     0.000 C 
BRANCH   6   7
ATOM      7  C   UNL     1     -15.311  -1.245   9.270  1.00  0.00     0.000 C 
BRANCH   7   8
ATOM      8  C   UNL     1     -16.213  -0.734   8.128  1.00  0.00     0.006 C 
BRANCH   8   9
ATOM      9  C   UNL     1     -17.313   0.235   8.593  1.00  0.00     0.053 C 
BRANCH   9  10
ATOM     10  C   UNL     1     -17.310   1.517   7.820  1.00  0.00     0.041 C 
ATOM     11  O   UNL     1     -18.392   2.127   7.597  1.00  0.00    -0.550 OA
ATOM     12  O   UNL     1     -16.113   2.038   7.340  1.00  0.00    -0.550 OA
ENDBRANCH   9  10
ENDBRANCH   8   9
ENDBRANCH   7   8
ENDBRANCH   6   7
ENDBRANCH   5   6
ENDBRANCH   4   5
ENDBRANCH   3   4
ENDBRANCH   1   3
BRANCH   2  13
ATOM     13  C   UNL     1     -17.462  -3.914  12.957  1.00  0.00     0.027 C 
BRANCH  13  14
ATOM     14  C   UNL     1     -16.463  -2.745  12.965  1.00  0.00     0.004 C 
BRANCH  14  15
ATOM     15  C   UNL     1     -16.480  -1.962  14.286  1.00  0.00     0.000 C 
BRANCH  15  16
ATOM     16  C   UNL     1     -15.070  -1.685  14.829  1.00  0.00     0.000 C 
BRANCH  16  17
ATOM     17  C   UNL     1     -14.291  -2.992  15.025  1.00  0.00    -0.000 C 
BRANCH  17  18
ATOM     18  C   UNL     1     -13.184  -2.821  16.076  1.00  0.00    -0.000 C 
BRANCH  18  19
ATOM     19  C   UNL     1     -12.504  -4.150  16.438  1.00  0.00    -0.003 C 
ATOM     20  C   UNL     1     -11.874  -4.132  17.830  1.00  0.00     0.004 C 
ENDBRANCH  18  19
ENDBRANCH  17  18
ENDBRANCH  16  17
ENDBRANCH  15  16
ENDBRANCH  14  15
ENDBRANCH  13  14
ENDBRANCH   2  13
TORSDOF 15
ENDMDL
MODEL 6
REMARK VINA RESULT:     4.660     12.741     14.658
REMARK INTER + INTRA:           8.688
REMARK INTER:                   9.323
REMARK INTRA:                  -0.635
REMARK UNBOUND:                -0.058
REMARK SMILES CCCCCCCCC=CCCCCCCCC(=O)[O-]
REMARK SMILES IDX 10 1 9 2 11 3 12 4 13 5 14 6 15 7 16 8 17 9 18 10 19 11
REMARK SMILES IDX 20 12 8 13 7 14 6 15 5 16 4 17 3 18 2 19 1 20
REMARK H PARENT
REMARK Flexibility Score: inf
ROOT
ATOM      1  C   UNL     1      -7.120   4.722  16.049  1.00  0.00    -0.031 C 
ATOM      2  C   UNL     1      -6.169   4.543  15.112  1.00  0.00    -0.031 C 
ENDROOT
BRANCH   1   3
ATOM      3  C   UNL     1      -8.003   3.628  16.604  1.00  0.00     0.027 C 
BRANCH   3   4
ATOM      4  C   UNL     1      -9.203   4.205  17.367  1.00  0.00     0.004 C 
BRANCH   4   5
ATOM      5  C   UNL     1     -10.390   4.501  16.433  1.00  0.00     0.000 C 
BRANCH   5   6
ATOM      6  C   UNL     1     -11.384   5.505  17.038  1.00  0.00     0.000 C 
BRANCH   6   7
ATOM      7  C   UNL     1     -12.848   5.062  16.870  1.00  0.00     0.000 C 
BRANCH   7   8
ATOM      8  C   UNL     1     -13.849   6.090  17.437  1.00  0.00     0.006 C 
BRANCH   8   9
ATOM      9  C   UNL     1     -14.199   5.863  18.917  1.00  0.00     0.053 C 
BRANCH   9  10
ATOM     10  C   UNL     1     -14.631   7.123  19.602  1.00  0.00     0.041 C 
ATOM     11  O   UNL     1     -15.838   7.285  19.930  1.00  0.00    -0.550 OA
ATOM     12  O   UNL     1     -13.702   8.121  19.874  1.00  0.00    -0.550 OA
ENDBRANCH   9  10
ENDBRANCH   8   9
ENDBRANCH   7   8
ENDBRANCH   6   7
ENDBRANCH   5   6
ENDBRANCH   4   5
ENDBRANCH   3   4
ENDBRANCH   1   3
BRANCH   2  13
ATOM     13  C   UNL     1      -5.880   3.234  14.423  1.00  0.00     0.027 C 
BRANCH  13  14
ATOM     14  C   UNL     1      -4.742   3.388  13.400  1.00  0.00     0.004 C 
BRANCH  14  15
ATOM     15  C   UNL     1      -5.257   3.534  11.961  1.00  0.00     0.000 C 
BRANCH  15  16
ATOM     16  C   UNL     1      -5.051   4.949  11.399  1.00  0.00     0.000 C 
BRANCH  16  17
ATOM     17  C   UNL     1      -4.385   5.860  12.438  1.00  0.00    -0.000 C 
BRANCH  17  18
ATOM     18  C   UNL     1      -3.158   6.567  11.844  1.00  0.00    -0.000 C 
BRANCH  18  19
ATOM     19  C   UNL     1      -1.850   6.164  12.542  1.00  0.00    -0.003 C 
ATOM     20  C   UNL     1      -1.833   4.694  12.962  1.00  0.00     0.004 C 
ENDBRANCH  18  19
ENDBRANCH  17  18
ENDBRANCH  16  17
ENDBRANCH  15  16
ENDBRANCH  14  15
ENDBRANCH  13  14
ENDBRANCH   2  13
TORSDOF 15
ENDMDL
MODEL 7
REMARK VINA RESULT:     4.797      2.987      5.014
REMARK INTER + INTRA:           8.946
REMARK INTER:                   9.512
REMARK INTRA:                  -0.566
REMARK UNBOUND:                -0.058
REMARK SMILES CCCCCCCCC=CCCCCCCCC(=O)[O-]
REMARK SMILES IDX 10 1 9 2 11 3 12 4 13 5 14 6 15 7 16 8 17 9 18 10 19 11
REMARK SMILES IDX 20 12 8 13 7 14 6 15 5 16 4 17 3 18 2 19 1 20
REMARK H PARENT
REMARK Flexibility Score: inf
ROOT
ATOM      1  C   UNL     1     -16.696  -2.161   8.932  1.00  0.00    -0.031 C 
ATOM      2  C   UNL     1     -16.842  -1.206   7.993  1.00  0.00    -0.031 C 
ENDROOT
BRANCH   1   3
ATOM      3  C   UNL     1     -16.594  -1.902  10.418  1.00  0.00     0.027 C 
BRANCH   3   4
ATOM      4  C   UNL     1     -17.896  -2.267  11.144  1.00  0.00     0.004 C 
BRANCH   4   5
ATOM      5  C   UNL     1     -17.652  -2.618  12.623  1.00  0.00     0.000 C 
BRANCH   5   6
ATOM      6  C   UNL     1     -16.258  -2.192  13.109  1.00  0.00     0.000 C 
BRANCH   6   7
ATOM      7  C   UNL     1     -16.179  -2.068  14.642  1.00  0.00     0.000 C 
BRANCH   7   8
ATOM      8  C   UNL     1     -14.738  -1.857  15.148  1.00  0.00     0.006 C 
BRANCH   8   9
ATOM      9  C   UNL     1     -13.948  -3.163  15.330  1.00  0.00     0.053 C 
BRANCH   9  10
ATOM     10  C   UNL     1     -12.776  -3.001  16.249  1.00  0.00     0.041 C 
ATOM     11  O   UNL     1     -12.226  -1.874  16.383  1.00  0.00    -0.550 OA
ATOM     12  O   UNL     1     -12.288  -4.095  16.954  1.00  0.00    -0.550 OA
ENDBRANCH   9  10
ENDBRANCH   8   9
ENDBRANCH   7   8
ENDBRANCH   6   7
ENDBRANCH   5   6
ENDBRANCH   4   5
ENDBRANCH   3   4
ENDBRANCH   1   3
BRANCH   2  13
ATOM     13  C   UNL     1     -16.861   0.275   8.271  1.00  0.00     0.027 C 
BRANCH  13  14
ATOM     14  C   UNL     1     -17.893   0.989   7.383  1.00  0.00     0.004 C 
BRANCH  14  15
ATOM     15  C   UNL     1     -17.605   2.491   7.234  1.00  0.00     0.000 C 
BRANCH  15  16
ATOM     16  C   UNL     1     -18.009   3.037   5.857  1.00  0.00     0.000 C 
BRANCH  16  17
ATOM     17  C   UNL     1     -18.691   4.405   5.988  1.00  0.00    -0.000 C 
BRANCH  17  18
ATOM     18  C   UNL     1     -18.788   5.104   4.624  1.00  0.00    -0.000 C 
BRANCH  18  19
ATOM     19  C   UNL     1     -18.325   6.568   4.678  1.00  0.00    -0.003 C 
ATOM     20  C   UNL     1     -18.137   7.181   3.291  1.00  0.00     0.004 C 
ENDBRANCH  18  19
ENDBRANCH  17  18
ENDBRANCH  16  17
ENDBRANCH  15  16
ENDBRANCH  14  15
ENDBRANCH  13  14
ENDBRANCH   2  13
TORSDOF 15
ENDMDL
MODEL 8
REMARK VINA RESULT:     4.943      1.276      2.382
REMARK INTER + INTRA:           9.220
REMARK INTER:                  10.017
REMARK INTRA:                  -0.798
REMARK UNBOUND:                -0.058
REMARK SMILES CCCCCCCCC=CCCCCCCCC(=O)[O-]
REMARK SMILES IDX 10 1 9 2 11 3 12 4 13 5 14 6 15 7 16 8 17 9 18 10 19 11
REMARK SMILES IDX 20 12 8 13 7 14 6 15 5 16 4 17 3 18 2 19 1 20
REMARK H PARENT
REMARK Flexibility Score: inf
ROOT
ATOM      1  C   UNL     1     -16.222   0.893   8.265  1.00  0.00    -0.031 C 
ATOM      2  C   UNL     1     -16.762   2.014   7.750  1.00  0.00    -0.031 C 
ENDROOT
BRANCH   1   3
ATOM      3  C   UNL     1     -16.815  -0.491   8.134  1.00  0.00     0.027 C 
BRANCH   3   4
ATOM      4  C   UNL     1     -15.920  -1.551   8.791  1.00  0.00     0.004 C 
BRANCH   4   5
ATOM      5  C   UNL     1     -16.551  -2.954   8.730  1.00  0.00     0.000 C 
BRANCH   5   6
ATOM      6  C   UNL     1     -18.051  -2.944   9.064  1.00  0.00     0.000 C 
BRANCH   6   7
ATOM      7  C   UNL     1     -18.346  -3.475  10.478  1.00  0.00     0.000 C 
BRANCH   7   8
ATOM      8  C   UNL     1     -18.817  -2.368  11.443  1.00  0.00     0.006 C 
BRANCH   8   9
ATOM      9  C   UNL     1     -17.674  -1.504  12.002  1.00  0.00     0.053 C 
BRANCH   9  10
ATOM     10  C   UNL     1     -16.750  -2.281  12.887  1.00  0.00     0.041 C 
ATOM     11  O   UNL     1     -16.670  -2.010  14.116  1.00  0.00    -0.550 OA
ATOM     12  O   UNL     1     -15.972  -3.303  12.355  1.00  0.00    -0.550 OA
ENDBRANCH   9  10
ENDBRANCH   8   9
ENDBRANCH   7   8
ENDBRANCH   6   7
ENDBRANCH   5   6
ENDBRANCH   4   5
ENDBRANCH   3   4
ENDBRANCH   1   3
BRANCH   2  13
ATOM     13  C   UNL     1     -18.077   2.073   7.015  1.00  0.00     0.027 C 
BRANCH  13  14
ATOM     14  C   UNL     1     -17.954   2.907   5.730  1.00  0.00     0.004 C 
BRANCH  14  15
ATOM     15  C   UNL     1     -18.646   4.274   5.844  1.00  0.00     0.000 C 
BRANCH  15  16
ATOM     16  C   UNL     1     -18.807   4.972   4.485  1.00  0.00     0.000 C 
BRANCH  16  17
ATOM     17  C   UNL     1     -18.670   6.493   4.631  1.00  0.00    -0.000 C 
BRANCH  17  18
ATOM     18  C   UNL     1     -18.249   7.137   3.302  1.00  0.00    -0.000 C 
BRANCH  18  19
ATOM     19  C   UNL     1     -16.966   7.972   3.432  1.00  0.00    -0.003 C 
ATOM     20  C   UNL     1     -16.503   8.123   4.881  1.00  0.00     0.004 C 
ENDBRANCH  18  19
ENDBRANCH  17  18
ENDBRANCH  16  17
ENDBRANCH  15  16
ENDBRANCH  14  15
ENDBRANCH  13  14
ENDBRANCH   2  13
TORSDOF 15
ENDMDL
MODEL 9
REMARK VINA RESULT:     5.060      4.139      7.616
REMARK INTER + INTRA:           9.440
REMARK INTER:                   8.975
REMARK INTRA:                   0.465
REMARK UNBOUND:                -0.058
REMARK SMILES CCCCCCCCC=CCCCCCCCC(=O)[O-]
REMARK SMILES IDX 10 1 9 2 11 3 12 4 13 5 14 6 15 7 16 8 17 9 18 10 19 11
REMARK SMILES IDX 20 12 8 13 7 14 6 15 5 16 4 17 3 18 2 19 1 20
REMARK H PARENT
REMARK Flexibility Score: inf
ROOT
ATOM      1  C   UNL     1     -18.385  -2.146  11.609  1.00  0.00    -0.031 C 
ATOM      2  C   UNL     1     -17.959  -2.025  10.337  1.00  0.00    -0.031 C 
ENDROOT
BRANCH   1   3
ATOM      3  C   UNL     1     -18.851  -3.436  12.245  1.00  0.00     0.027 C 
BRANCH   3   4
ATOM      4  C   UNL     1     -17.717  -4.125  13.017  1.00  0.00     0.004 C 
BRANCH   4   5
ATOM      5  C   UNL     1     -16.477  -3.222  13.144  1.00  0.00     0.000 C 
BRANCH   5   6
ATOM      6  C   UNL     1     -16.734  -1.982  14.013  1.00  0.00     0.000 C 
BRANCH   6   7
ATOM      7  C   UNL     1     -15.578  -1.694  14.989  1.00  0.00     0.000 C 
BRANCH   7   8
ATOM      8  C   UNL     1     -14.434  -2.723  14.876  1.00  0.00     0.006 C 
BRANCH   8   9
ATOM      9  C   UNL     1     -13.365  -2.583  15.972  1.00  0.00     0.053 C 
BRANCH   9  10
ATOM     10  C   UNL     1     -12.756  -3.899  16.349  1.00  0.00     0.041 C 
ATOM     11  O   UNL     1     -12.974  -4.923  15.646  1.00  0.00    -0.550 OA
ATOM     12  O   UNL     1     -11.953  -3.995  17.479  1.00  0.00    -0.550 OA
ENDBRANCH   9  10
ENDBRANCH   8   9
ENDBRANCH   7   8
ENDBRANCH   6   7
ENDBRANCH   5   6
ENDBRANCH   4   5
ENDBRANCH   3   4
ENDBRANCH   1   3
BRANCH   2  13
ATOM     13  C   UNL     1     -17.941  -3.144   9.328  1.00  0.00     0.027 C 
BRANCH  13  14
ATOM     14  C   UNL     1     -16.618  -3.159   8.544  1.00  0.00     0.004 C 
BRANCH  14  15
ATOM     15  C   UNL     1     -15.456  -2.542   9.337  1.00  0.00     0.000 C 
BRANCH  15  16
ATOM     16  C   UNL     1     -15.375  -1.016   9.177  1.00  0.00     0.000 C 
BRANCH  16  17
ATOM     17  C   UNL     1     -16.449  -0.508   8.208  1.00  0.00    -0.000 C 
BRANCH  17  18
ATOM     18  C   UNL     1     -16.627   1.012   8.330  1.00  0.00    -0.000 C 
BRANCH  18  19
ATOM     19  C   UNL     1     -17.956   1.500   7.734  1.00  0.00    -0.003 C 
ATOM     20  C   UNL     1     -17.765   2.340   6.471  1.00  0.00     0.004 C 
ENDBRANCH  18  19
ENDBRANCH  17  18
ENDBRANCH  16  17
ENDBRANCH  15  16
ENDBRANCH  14  15
ENDBRANCH  13  14
ENDBRANCH   2  13
TORSDOF 15
ENDMDL
