MODEL 1
REMARK VINA RESULT:    -4.927      0.000      0.000
REMARK INTER + INTRA:         -11.074
REMARK INTER:                  -8.960
REMARK INTRA:                  -2.114
REMARK UNBOUND:                -2.114
REMARK SMILES CCCCCCCCCCCCCCCC(=O)[O-]
REMARK SMILES IDX 9 1 10 2 11 3 12 4 13 5 14 6 15 7 16 8 17 9 18 10 8 11 7 12
REMARK SMILES IDX 6 13 5 14 4 15 3 16 2 17 1 18
REMARK H PARENT
REMARK Flexibility Score: inf
ROOT
ATOM      1  C   UNL     1      24.123  36.261 147.393  1.00  0.00     0.000 C 
ENDROOT
BRANCH   1   2
ATOM      2  C   UNL     1      23.689  36.806 148.766  1.00  0.00     0.000 C 
BRANCH   2   3
ATOM      3  C   UNL     1      23.989  38.297 149.007  1.00  0.00     0.000 C 
BRANCH   3   4
ATOM      4  C   UNL     1      24.200  39.086 147.703  1.00  0.00     0.000 C 
BRANCH   4   5
ATOM      5  C   UNL     1      25.558  39.805 147.663  1.00  0.00     0.000 C 
BRANCH   5   6
ATOM      6  C   UNL     1      25.469  41.204 147.026  1.00  0.00     0.006 C 
BRANCH   6   7
ATOM      7  C   UNL     1      24.301  42.023 147.591  1.00  0.00     0.053 C 
BRANCH   7   8
ATOM      8  C   UNL     1      24.583  42.516 148.977  1.00  0.00     0.041 C 
ATOM      9  O   UNL     1      25.317  43.523 149.153  1.00  0.00    -0.550 OA
ATOM     10  O   UNL     1      24.061  41.843 150.075  1.00  0.00    -0.550 OA
ENDBRANCH   7   8
ENDBRANCH   6   7
ENDBRANCH   5   6
ENDBRANCH   4   5
ENDBRANCH   3   4
ENDBRANCH   2   3
ENDBRANCH   1   2
BRANCH   1  11
ATOM     11  C   UNL     1      24.225  34.726 147.360  1.00  0.00     0.000 C 
BRANCH  11  12
ATOM     12  C   UNL     1      24.018  34.083 148.743  1.00  0.00    -0.000 C 
BRANCH  12  13
ATOM     13  C   UNL     1      25.294  33.541 149.419  1.00  0.00    -0.000 C 
BRANCH  13  14
ATOM     14  C   UNL     1      26.526  33.426 148.504  1.00  0.00    -0.000 C 
BRANCH  14  15
ATOM     15  C   UNL     1      27.713  34.276 148.992  1.00  0.00    -0.000 C 
BRANCH  15  16
ATOM     16  C   UNL     1      27.335  35.195 150.165  1.00  0.00    -0.000 C 
BRANCH  16  17
ATOM     17  C   UNL     1      27.374  36.683 149.788  1.00  0.00    -0.003 C 
ATOM     18  C   UNL     1      27.700  36.865 148.307  1.00  0.00     0.004 C 
ENDBRANCH  16  17
ENDBRANCH  15  16
ENDBRANCH  14  15
ENDBRANCH  13  14
ENDBRANCH  12  13
ENDBRANCH  11  12
ENDBRANCH   1  11
TORSDOF 14
ENDMDL
MODEL 2
REMARK VINA RESULT:    -4.853      1.005      2.100
REMARK INTER + INTRA:         -10.939
REMARK INTER:                  -8.714
REMARK INTRA:                  -2.225
REMARK UNBOUND:                -2.114
REMARK SMILES CCCCCCCCCCCCCCCC(=O)[O-]
REMARK SMILES IDX 9 1 10 2 11 3 12 4 13 5 14 6 15 7 16 8 17 9 18 10 8 11 7 12
REMARK SMILES IDX 6 13 5 14 4 15 3 16 2 17 1 18
REMARK H PARENT
REMARK Flexibility Score: inf
ROOT
ATOM      1  C   UNL     1      24.220  34.138 147.342  1.00  0.00     0.000 C 
ENDROOT
BRANCH   1   2
ATOM      2  C   UNL     1      23.240  35.296 147.080  1.00  0.00     0.000 C 
BRANCH   2   3
ATOM      3  C   UNL     1      23.777  36.701 147.412  1.00  0.00     0.000 C 
BRANCH   3   4
ATOM      4  C   UNL     1      23.375  37.181 148.817  1.00  0.00     0.000 C 
BRANCH   4   5
ATOM      5  C   UNL     1      23.638  38.682 149.025  1.00  0.00     0.000 C 
BRANCH   5   6
ATOM      6  C   UNL     1      23.952  39.415 147.708  1.00  0.00     0.006 C 
BRANCH   6   7
ATOM      7  C   UNL     1      25.004  40.516 147.896  1.00  0.00     0.053 C 
BRANCH   7   8
ATOM      8  C   UNL     1      24.400  41.782 148.419  1.00  0.00     0.041 C 
ATOM      9  O   UNL     1      24.060  42.697 147.624  1.00  0.00    -0.550 OA
ATOM     10  O   UNL     1      24.242  41.965 149.788  1.00  0.00    -0.550 OA
ENDBRANCH   7   8
ENDBRANCH   6   7
ENDBRANCH   5   6
ENDBRANCH   4   5
ENDBRANCH   3   4
ENDBRANCH   2   3
ENDBRANCH   1   2
BRANCH   1  11
ATOM     11  C   UNL     1      24.193  33.645 148.798  1.00  0.00     0.000 C 
BRANCH  11  12
ATOM     12  C   UNL     1      25.435  34.075 149.599  1.00  0.00    -0.000 C 
BRANCH  12  13
ATOM     13  C   UNL     1      26.783  33.925 148.863  1.00  0.00    -0.000 C 
BRANCH  13  14
ATOM     14  C   UNL     1      27.752  35.111 149.016  1.00  0.00    -0.000 C 
BRANCH  14  15
ATOM     15  C   UNL     1      27.085  36.349 149.641  1.00  0.00    -0.000 C 
BRANCH  15  16
ATOM     16  C   UNL     1      27.238  37.605 148.768  1.00  0.00    -0.000 C 
BRANCH  16  17
ATOM     17  C   UNL     1      27.237  37.286 147.266  1.00  0.00    -0.003 C 
ATOM     18  C   UNL     1      28.414  37.958 146.562  1.00  0.00     0.004 C 
ENDBRANCH  16  17
ENDBRANCH  15  16
ENDBRANCH  14  15
ENDBRANCH  13  14
ENDBRANCH  12  13
ENDBRANCH  11  12
ENDBRANCH   1  11
TORSDOF 14
ENDMDL
MODEL 3
REMARK VINA RESULT:    -4.849      3.270      5.893
REMARK INTER + INTRA:         -10.932
REMARK INTER:                  -8.143
REMARK INTRA:                  -2.789
REMARK UNBOUND:                -2.114
REMARK SMILES CCCCCCCCCCCCCCCC(=O)[O-]
REMARK SMILES IDX 9 1 10 2 11 3 12 4 13 5 14 6 15 7 16 8 17 9 18 10 8 11 7 12
REMARK SMILES IDX 6 13 5 14 4 15 3 16 2 17 1 18
REMARK H PARENT
REMARK Flexibility Score: inf
ROOT
ATOM      1  C   UNL     1      24.070  40.764 148.035  1.00  0.00     0.000 C 
ENDROOT
BRANCH   1   2
ATOM      2  C   UNL     1      23.726  39.291 147.748  1.00  0.00     0.000 C 
BRANCH   2   3
ATOM      3  C   UNL     1      23.333  38.454 148.979  1.00  0.00     0.000 C 
BRANCH   3   4
ATOM      4  C   UNL     1      23.584  36.948 148.787  1.00  0.00     0.000 C 
BRANCH   4   5
ATOM      5  C   UNL     1      24.305  36.635 147.464  1.00  0.00     0.000 C 
BRANCH   5   6
ATOM      6  C   UNL     1      25.560  35.768 147.666  1.00  0.00     0.006 C 
BRANCH   6   7
ATOM      7  C   UNL     1      25.538  35.020 149.006  1.00  0.00     0.053 C 
BRANCH   7   8
ATOM      8  C   UNL     1      26.880  34.453 149.351  1.00  0.00     0.041 C 
ATOM      9  O   UNL     1      27.393  33.557 148.630  1.00  0.00    -0.550 OA
ATOM     10  O   UNL     1      27.551  34.891 150.487  1.00  0.00    -0.550 OA
ENDBRANCH   7   8
ENDBRANCH   6   7
ENDBRANCH   5   6
ENDBRANCH   4   5
ENDBRANCH   3   4
ENDBRANCH   2   3
ENDBRANCH   1   2
BRANCH   1  11
ATOM     11  C   UNL     1      24.370  41.033 149.519  1.00  0.00     0.000 C 
BRANCH  11  12
ATOM     12  C   UNL     1      25.739  41.700 149.742  1.00  0.00    -0.000 C 
BRANCH  12  13
ATOM     13  C   UNL     1      26.773  40.850 150.509  1.00  0.00    -0.000 C 
BRANCH  13  14
ATOM     14  C   UNL     1      26.312  39.429 150.881  1.00  0.00    -0.000 C 
BRANCH  14  15
ATOM     15  C   UNL     1      26.968  38.343 150.010  1.00  0.00    -0.000 C 
BRANCH  15  16
ATOM     16  C   UNL     1      27.925  38.929 148.960  1.00  0.00    -0.000 C 
BRANCH  16  17
ATOM     17  C   UNL     1      27.393  38.784 147.527  1.00  0.00    -0.003 C 
ATOM     18  C   UNL     1      27.472  40.110 146.775  1.00  0.00     0.004 C 
ENDBRANCH  16  17
ENDBRANCH  15  16
ENDBRANCH  14  15
ENDBRANCH  13  14
ENDBRANCH  12  13
ENDBRANCH  11  12
ENDBRANCH   1  11
TORSDOF 14
ENDMDL
MODEL 4
REMARK VINA RESULT:    -4.791      1.313      2.977
REMARK INTER + INTRA:         -10.826
REMARK INTER:                  -8.617
REMARK INTRA:                  -2.209
REMARK UNBOUND:                -2.114
REMARK SMILES CCCCCCCCCCCCCCCC(=O)[O-]
REMARK SMILES IDX 9 1 10 2 11 3 12 4 13 5 14 6 15 7 16 8 17 9 18 10 8 11 7 12
REMARK SMILES IDX 6 13 5 14 4 15 3 16 2 17 1 18
REMARK H PARENT
REMARK Flexibility Score: inf
ROOT
ATOM      1  C   UNL     1      25.294  33.277 149.102  1.00  0.00     0.000 C 
ENDROOT
BRANCH   1   2
ATOM      2  C   UNL     1      24.033  34.122 148.846  1.00  0.00     0.000 C 
BRANCH   2   3
ATOM      3  C   UNL     1      24.169  35.192 147.748  1.00  0.00     0.000 C 
BRANCH   3   4
ATOM      4  C   UNL     1      23.955  36.622 148.273  1.00  0.00     0.000 C 
BRANCH   4   5
ATOM      5  C   UNL     1      24.714  37.673 147.446  1.00  0.00     0.000 C 
BRANCH   5   6
ATOM      6  C   UNL     1      24.374  39.115 147.865  1.00  0.00     0.006 C 
BRANCH   6   7
ATOM      7  C   UNL     1      23.946  39.204 149.336  1.00  0.00     0.053 C 
BRANCH   7   8
ATOM      8  C   UNL     1      24.383  40.490 149.967  1.00  0.00     0.041 C 
ATOM      9  O   UNL     1      24.073  41.591 149.441  1.00  0.00    -0.550 OA
ATOM     10  O   UNL     1      25.160  40.472 151.119  1.00  0.00    -0.550 OA
ENDBRANCH   7   8
ENDBRANCH   6   7
ENDBRANCH   5   6
ENDBRANCH   4   5
ENDBRANCH   3   4
ENDBRANCH   2   3
ENDBRANCH   1   2
BRANCH   1  11
ATOM     11  C   UNL     1      26.496  33.715 148.249  1.00  0.00     0.000 C 
BRANCH  11  12
ATOM     12  C   UNL     1      27.711  34.132 149.095  1.00  0.00    -0.000 C 
BRANCH  12  13
ATOM     13  C   UNL     1      27.418  35.145 150.222  1.00  0.00    -0.000 C 
BRANCH  13  14
ATOM     14  C   UNL     1      27.333  36.617 149.779  1.00  0.00    -0.000 C 
BRANCH  14  15
ATOM     15  C   UNL     1      28.106  36.892 148.477  1.00  0.00    -0.000 C 
BRANCH  15  16
ATOM     16  C   UNL     1      28.784  38.272 148.476  1.00  0.00    -0.000 C 
BRANCH  16  17
ATOM     17  C   UNL     1      28.062  39.288 149.371  1.00  0.00    -0.003 C 
ATOM     18  C   UNL     1      27.761  40.575 148.608  1.00  0.00     0.004 C 
ENDBRANCH  16  17
ENDBRANCH  15  16
ENDBRANCH  14  15
ENDBRANCH  13  14
ENDBRANCH  12  13
ENDBRANCH  11  12
ENDBRANCH   1  11
TORSDOF 14
ENDMDL
MODEL 5
REMARK VINA RESULT:    -4.789      3.196      6.511
REMARK INTER + INTRA:         -10.822
REMARK INTER:                  -8.310
REMARK INTRA:                  -2.512
REMARK UNBOUND:                -2.114
REMARK SMILES CCCCCCCCCCCCCCCC(=O)[O-]
REMARK SMILES IDX 9 1 10 2 11 3 12 4 13 5 14 6 15 7 16 8 17 9 18 10 8 11 7 12
REMARK SMILES IDX 6 13 5 14 4 15 3 16 2 17 1 18
REMARK H PARENT
REMARK Flexibility Score: inf
ROOT
ATOM      1  C   UNL     1      25.563  39.825 151.021  1.00  0.00     0.000 C 
ENDROOT
BRANCH   1   2
ATOM      2  C   UNL     1      26.951  39.232 150.719  1.00  0.00     0.000 C 
BRANCH   2   3
ATOM      3  C   UNL     1      26.944  37.876 149.991  1.00  0.00     0.000 C 
BRANCH   3   4
ATOM      4  C   UNL     1      28.016  37.779 148.891  1.00  0.00     0.000 C 
BRANCH   4   5
ATOM      5  C   UNL     1      27.469  37.176 147.586  1.00  0.00     0.000 C 
BRANCH   5   6
ATOM      6  C   UNL     1      27.688  35.655 147.500  1.00  0.00     0.006 C 
BRANCH   6   7
ATOM      7  C   UNL     1      26.381  34.896 147.238  1.00  0.00     0.053 C 
BRANCH   7   8
ATOM      8  C   UNL     1      25.946  34.103 148.433  1.00  0.00     0.041 C 
ATOM      9  O   UNL     1      26.363  34.410 149.581  1.00  0.00    -0.550 OA
ATOM     10  O   UNL     1      25.107  33.007 148.274  1.00  0.00    -0.550 OA
ENDBRANCH   7   8
ENDBRANCH   6   7
ENDBRANCH   5   6
ENDBRANCH   4   5
ENDBRANCH   3   4
ENDBRANCH   2   3
ENDBRANCH   1   2
BRANCH   1  11
ATOM     11  C   UNL     1      25.288  41.132 150.258  1.00  0.00     0.000 C 
BRANCH  11  12
ATOM     12  C   UNL     1      26.122  41.261 148.971  1.00  0.00    -0.000 C 
BRANCH  12  13
ATOM     13  C   UNL     1      25.420  40.799 147.678  1.00  0.00    -0.000 C 
BRANCH  13  14
ATOM     14  C   UNL     1      23.886  40.929 147.679  1.00  0.00    -0.000 C 
BRANCH  14  15
ATOM     15  C   UNL     1      23.175  39.580 147.470  1.00  0.00    -0.000 C 
BRANCH  15  16
ATOM     16  C   UNL     1      24.150  38.391 147.489  1.00  0.00    -0.000 C 
BRANCH  16  17
ATOM     17  C   UNL     1      23.673  37.248 148.396  1.00  0.00    -0.003 C 
ATOM     18  C   UNL     1      22.955  37.790 149.630  1.00  0.00     0.004 C 
ENDBRANCH  16  17
ENDBRANCH  15  16
ENDBRANCH  14  15
ENDBRANCH  13  14
ENDBRANCH  12  13
ENDBRANCH  11  12
ENDBRANCH   1  11
TORSDOF 14
ENDMDL
MODEL 6
REMARK VINA RESULT:    -4.782      3.392      6.266
REMARK INTER + INTRA:         -10.810
REMARK INTER:                  -8.303
REMARK INTRA:                  -2.507
REMARK UNBOUND:                -2.114
REMARK SMILES CCCCCCCCCCCCCCCC(=O)[O-]
REMARK SMILES IDX 9 1 10 2 11 3 12 4 13 5 14 6 15 7 16 8 17 9 18 10 8 11 7 12
REMARK SMILES IDX 6 13 5 14 4 15 3 16 2 17 1 18
REMARK H PARENT
REMARK Flexibility Score: inf
ROOT
ATOM      1  C   UNL     1      24.522  39.488 150.295  1.00  0.00     0.000 C 
ENDROOT
BRANCH   1   2
ATOM      2  C   UNL     1      23.520  38.459 149.741  1.00  0.00     0.000 C 
BRANCH   2   3
ATOM      3  C   UNL     1      23.198  38.595 148.241  1.00  0.00     0.000 C 
BRANCH   3   4
ATOM      4  C   UNL     1      23.909  37.540 147.376  1.00  0.00     0.000 C 
BRANCH   4   5
ATOM      5  C   UNL     1      24.323  36.298 148.182  1.00  0.00     0.000 C 
BRANCH   5   6
ATOM      6  C   UNL     1      25.375  35.443 147.453  1.00  0.00     0.006 C 
BRANCH   6   7
ATOM      7  C   UNL     1      25.787  34.211 148.270  1.00  0.00     0.053 C 
BRANCH   7   8
ATOM      8  C   UNL     1      24.600  33.428 148.737  1.00  0.00     0.041 C 
ATOM      9  O   UNL     1      24.371  33.299 149.968  1.00  0.00    -0.550 OA
ATOM     10  O   UNL     1      23.763  32.813 147.813  1.00  0.00    -0.550 OA
ENDBRANCH   7   8
ENDBRANCH   6   7
ENDBRANCH   5   6
ENDBRANCH   4   5
ENDBRANCH   3   4
ENDBRANCH   2   3
ENDBRANCH   1   2
BRANCH   1  11
ATOM     11  C   UNL     1      24.325  40.896 149.707  1.00  0.00     0.000 C 
BRANCH  11  12
ATOM     12  C   UNL     1      25.653  41.586 149.348  1.00  0.00    -0.000 C 
BRANCH  12  13
ATOM     13  C   UNL     1      25.861  41.881 147.848  1.00  0.00    -0.000 C 
BRANCH  13  14
ATOM     14  C   UNL     1      25.941  40.641 146.938  1.00  0.00    -0.000 C 
BRANCH  14  15
ATOM     15  C   UNL     1      27.345  40.013 146.910  1.00  0.00    -0.000 C 
BRANCH  15  16
ATOM     16  C   UNL     1      27.378  38.617 147.553  1.00  0.00    -0.000 C 
BRANCH  16  17
ATOM     17  C   UNL     1      27.966  38.633 148.972  1.00  0.00    -0.003 C 
ATOM     18  C   UNL     1      27.471  37.438 149.783  1.00  0.00     0.004 C 
ENDBRANCH  16  17
ENDBRANCH  15  16
ENDBRANCH  14  15
ENDBRANCH  13  14
ENDBRANCH  12  13
ENDBRANCH  11  12
ENDBRANCH   1  11
TORSDOF 14
ENDMDL
MODEL 7
REMARK VINA RESULT:    -4.774      2.727      5.479
REMARK INTER + INTRA:         -10.795
REMARK INTER:                  -8.836
REMARK INTRA:                  -1.959
REMARK UNBOUND:                -2.114
REMARK SMILES CCCCCCCCCCCCCCCC(=O)[O-]
REMARK SMILES IDX 9 1 10 2 11 3 12 4 13 5 14 6 15 7 16 8 17 9 18 10 8 11 7 12
REMARK SMILES IDX 6 13 5 14 4 15 3 16 2 17 1 18
REMARK H PARENT
REMARK Flexibility Score: inf
ROOT
ATOM      1  C   UNL     1      24.094  33.525 148.153  1.00  0.00     0.000 C 
ENDROOT
BRANCH   1   2
ATOM      2  C   UNL     1      25.277  33.496 149.138  1.00  0.00     0.000 C 
BRANCH   2   3
ATOM      3  C   UNL     1      26.670  33.387 148.491  1.00  0.00     0.000 C 
BRANCH   3   4
ATOM      4  C   UNL     1      27.655  34.452 149.004  1.00  0.00     0.000 C 
BRANCH   4   5
ATOM      5  C   UNL     1      26.943  35.705 149.540  1.00  0.00     0.000 C 
BRANCH   5   6
ATOM      6  C   UNL     1      27.319  36.978 148.762  1.00  0.00     0.006 C 
BRANCH   6   7
ATOM      7  C   UNL     1      27.392  36.731 147.249  1.00  0.00     0.053 C 
BRANCH   7   8
ATOM      8  C   UNL     1      28.696  37.186 146.671  1.00  0.00     0.041 C 
ATOM      9  O   UNL     1      29.779  36.702 147.093  1.00  0.00    -0.550 OA
ATOM     10  O   UNL     1      28.718  38.169 145.688  1.00  0.00    -0.550 OA
ENDBRANCH   7   8
ENDBRANCH   6   7
ENDBRANCH   5   6
ENDBRANCH   4   5
ENDBRANCH   3   4
ENDBRANCH   2   3
ENDBRANCH   1   2
BRANCH   1  11
ATOM     11  C   UNL     1      24.275  34.555 147.025  1.00  0.00     0.000 C 
BRANCH  11  12
ATOM     12  C   UNL     1      23.304  35.743 147.138  1.00  0.00    -0.000 C 
BRANCH  12  13
ATOM     13  C   UNL     1      23.707  36.835 148.152  1.00  0.00    -0.000 C 
BRANCH  13  14
ATOM     14  C   UNL     1      23.329  38.273 147.756  1.00  0.00    -0.000 C 
BRANCH  14  15
ATOM     15  C   UNL     1      24.556  39.187 147.589  1.00  0.00    -0.000 C 
BRANCH  15  16
ATOM     16  C   UNL     1      24.174  40.672 147.476  1.00  0.00    -0.000 C 
BRANCH  16  17
ATOM     17  C   UNL     1      25.397  41.588 147.331  1.00  0.00    -0.003 C 
ATOM     18  C   UNL     1      26.575  40.838 146.715  1.00  0.00     0.004 C 
ENDBRANCH  16  17
ENDBRANCH  15  16
ENDBRANCH  14  15
ENDBRANCH  13  14
ENDBRANCH  12  13
ENDBRANCH  11  12
ENDBRANCH   1  11
TORSDOF 14
ENDMDL
MODEL 8
REMARK VINA RESULT:    -4.707      3.230      6.121
REMARK INTER + INTRA:         -10.674
REMARK INTER:                  -8.403
REMARK INTRA:                  -2.272
REMARK UNBOUND:                -2.114
REMARK SMILES CCCCCCCCCCCCCCCC(=O)[O-]
REMARK SMILES IDX 9 1 10 2 11 3 12 4 13 5 14 6 15 7 16 8 17 9 18 10 8 11 7 12
REMARK SMILES IDX 6 13 5 14 4 15 3 16 2 17 1 18
REMARK H PARENT
REMARK Flexibility Score: inf
ROOT
ATOM      1  C   UNL     1      26.469  40.552 149.563  1.00  0.00     0.000 C 
ENDROOT
BRANCH   1   2
ATOM      2  C   UNL     1      26.671  39.410 150.575  1.00  0.00     0.000 C 
BRANCH   2   3
ATOM      3  C   UNL     1      26.890  38.015 149.960  1.00  0.00     0.000 C 
BRANCH   3   4
ATOM      4  C   UNL     1      27.798  38.043 148.718  1.00  0.00     0.000 C 
BRANCH   4   5
ATOM      5  C   UNL     1      27.068  37.582 147.445  1.00  0.00     0.000 C 
BRANCH   5   6
ATOM      6  C   UNL     1      27.499  36.176 146.992  1.00  0.00     0.006 C 
BRANCH   6   7
ATOM      7  C   UNL     1      28.527  35.551 147.945  1.00  0.00     0.053 C 
BRANCH   7   8
ATOM      8  C   UNL     1      27.958  34.385 148.694  1.00  0.00     0.041 C 
ATOM      9  O   UNL     1      27.770  33.287 148.107  1.00  0.00    -0.550 OA
ATOM     10  O   UNL     1      27.607  34.520 150.031  1.00  0.00    -0.550 OA
ENDBRANCH   7   8
ENDBRANCH   6   7
ENDBRANCH   5   6
ENDBRANCH   4   5
ENDBRANCH   3   4
ENDBRANCH   2   3
ENDBRANCH   1   2
BRANCH   1  11
ATOM     11  C   UNL     1      24.989  40.815 149.241  1.00  0.00     0.000 C 
BRANCH  11  12
ATOM     12  C   UNL     1      24.613  40.433 147.798  1.00  0.00    -0.000 C 
BRANCH  12  13
ATOM     13  C   UNL     1      23.649  39.236 147.659  1.00  0.00    -0.000 C 
BRANCH  13  14
ATOM     14  C   UNL     1      23.336  38.488 148.967  1.00  0.00    -0.000 C 
BRANCH  14  15
ATOM     15  C   UNL     1      23.514  36.965 148.840  1.00  0.00    -0.000 C 
BRANCH  15  16
ATOM     16  C   UNL     1      23.743  36.518 147.386  1.00  0.00    -0.000 C 
BRANCH  16  17
ATOM     17  C   UNL     1      23.281  35.077 147.130  1.00  0.00    -0.003 C 
ATOM     18  C   UNL     1      24.461  34.108 147.168  1.00  0.00     0.004 C 
ENDBRANCH  16  17
ENDBRANCH  15  16
ENDBRANCH  14  15
ENDBRANCH  13  14
ENDBRANCH  12  13
ENDBRANCH  11  12
ENDBRANCH   1  11
TORSDOF 14
ENDMDL
MODEL 9
REMARK VINA RESULT:    -4.705      2.959      5.722
REMARK INTER + INTRA:         -10.670
REMARK INTER:                  -8.333
REMARK INTRA:                  -2.337
REMARK UNBOUND:                -2.114
REMARK SMILES CCCCCCCCCCCCCCCC(=O)[O-]
REMARK SMILES IDX 9 1 10 2 11 3 12 4 13 5 14 6 15 7 16 8 17 9 18 10 8 11 7 12
REMARK SMILES IDX 6 13 5 14 4 15 3 16 2 17 1 18
REMARK H PARENT
REMARK Flexibility Score: inf
ROOT
ATOM      1  C   UNL     1      24.255  37.362 147.401  1.00  0.00     0.000 C 
ENDROOT
BRANCH   1   2
ATOM      2  C   UNL     1      23.564  35.987 147.452  1.00  0.00     0.000 C 
BRANCH   2   3
ATOM      3  C   UNL     1      24.498  34.789 147.697  1.00  0.00     0.000 C 
BRANCH   3   4
ATOM      4  C   UNL     1      24.874  34.614 149.179  1.00  0.00     0.000 C 
BRANCH   4   5
ATOM      5  C   UNL     1      26.357  34.258 149.373  1.00  0.00     0.000 C 
BRANCH   5   6
ATOM      6  C   UNL     1      27.158  35.399 150.026  1.00  0.00     0.006 C 
BRANCH   6   7
ATOM      7  C   UNL     1      27.423  36.553 149.049  1.00  0.00     0.053 C 
BRANCH   7   8
ATOM      8  C   UNL     1      28.097  36.081 147.797  1.00  0.00     0.041 C 
ATOM      9  O   UNL     1      27.546  36.252 146.678  1.00  0.00    -0.550 OA
ATOM     10  O   UNL     1      29.320  35.423 147.869  1.00  0.00    -0.550 OA
ENDBRANCH   7   8
ENDBRANCH   6   7
ENDBRANCH   5   6
ENDBRANCH   4   5
ENDBRANCH   3   4
ENDBRANCH   2   3
ENDBRANCH   1   2
BRANCH   1  11
ATOM     11  C   UNL     1      23.412  38.483 148.032  1.00  0.00     0.000 C 
BRANCH  11  12
ATOM     12  C   UNL     1      23.506  38.510 149.568  1.00  0.00    -0.000 C 
BRANCH  12  13
ATOM     13  C   UNL     1      24.240  39.729 150.165  1.00  0.00    -0.000 C 
BRANCH  13  14
ATOM     14  C   UNL     1      25.737  39.517 150.457  1.00  0.00    -0.000 C 
BRANCH  14  15
ATOM     15  C   UNL     1      26.647  40.354 149.541  1.00  0.00    -0.000 C 
BRANCH  15  16
ATOM     16  C   UNL     1      25.850  41.254 148.583  1.00  0.00    -0.000 C 
BRANCH  16  17
ATOM     17  C   UNL     1      26.081  40.900 147.107  1.00  0.00    -0.003 C 
ATOM     18  C   UNL     1      27.099  39.771 146.967  1.00  0.00     0.004 C 
ENDBRANCH  16  17
ENDBRANCH  15  16
ENDBRANCH  14  15
ENDBRANCH  13  14
ENDBRANCH  12  13
ENDBRANCH  11  12
ENDBRANCH   1  11
TORSDOF 14
ENDMDL
