MODEL 1
REMARK VINA RESULT:    13.975      0.000      0.000
REMARK INTER + INTRA:          35.805
REMARK INTER:                  36.851
REMARK INTRA:                  -1.046
REMARK UNBOUND:                -1.046
REMARK SMILES CCCCCCCCCCCCCCCCCCCCCCCCCCCCCC(=O)[O-]
REMARK SMILES IDX 16 1 17 2 18 3 19 4 20 5 21 6 22 7 23 8 24 9 25 10 26 11
REMARK SMILES IDX 27 12 28 13 29 14 30 15 31 16 32 17 15 18 14 19 13 20 12 21
REMARK SMILES IDX 11 22 10 23 9 24 8 25 7 26 6 27 5 28 4 29 3 30 2 31 1 32
REMARK H PARENT
REMARK Flexibility Score: inf
ROOT
ATOM      1  C   UNL     1       2.779   6.783  11.517  1.00  0.00     0.000 C 
ENDROOT
BRANCH   1   2
ATOM      2  C   UNL     1       2.312   6.651  10.057  1.00  0.00     0.000 C 
BRANCH   2   3
ATOM      3  C   UNL     1       1.840   7.989   9.460  1.00  0.00     0.000 C 
BRANCH   3   4
ATOM      4  C   UNL     1       1.452   7.935   7.968  1.00  0.00     0.000 C 
BRANCH   4   5
ATOM      5  C   UNL     1       2.293   8.833   7.043  1.00  0.00     0.000 C 
BRANCH   5   6
ATOM      6  C   UNL     1       1.443   9.576   6.001  1.00  0.00     0.000 C 
BRANCH   6   7
ATOM      7  C   UNL     1       2.165   9.641   4.649  1.00  0.00     0.000 C 
BRANCH   7   8
ATOM      8  C   UNL     1       1.468   8.750   3.610  1.00  0.00     0.000 C 
BRANCH   8   9
ATOM      9  C   UNL     1       1.283   7.305   4.101  1.00  0.00     0.000 C 
BRANCH   9  10
ATOM     10  C   UNL     1       1.724   6.266   3.054  1.00  0.00     0.000 C 
BRANCH  10  11
ATOM     11  C   UNL     1       2.531   6.891   1.904  1.00  0.00     0.000 C 
BRANCH  11  12
ATOM     12  C   UNL     1       4.041   6.925   2.194  1.00  0.00     0.000 C 
BRANCH  12  13
ATOM     13  C   UNL     1       4.369   6.552   3.654  1.00  0.00     0.006 C 
BRANCH  13  14
ATOM     14  C   UNL     1       5.870   6.346   3.914  1.00  0.00     0.053 C 
BRANCH  14  15
ATOM     15  C   UNL     1       6.657   6.229   2.646  1.00  0.00     0.041 C 
ATOM     16  O   UNL     1       6.527   5.217   1.910  1.00  0.00    -0.550 OA
ATOM     17  O   UNL     1       7.552   7.231   2.290  1.00  0.00    -0.550 OA
ENDBRANCH  14  15
ENDBRANCH  13  14
ENDBRANCH  12  13
ENDBRANCH  11  12
ENDBRANCH  10  11
ENDBRANCH   9  10
ENDBRANCH   8   9
ENDBRANCH   7   8
ENDBRANCH   6   7
ENDBRANCH   5   6
ENDBRANCH   4   5
ENDBRANCH   3   4
ENDBRANCH   2   3
ENDBRANCH   1   2
BRANCH   1  18
ATOM     18  C   UNL     1       3.152   5.429  12.138  1.00  0.00     0.000 C 
BRANCH  18  19
ATOM     19  C   UNL     1       2.021   4.846  13.004  1.00  0.00     0.000 C 
BRANCH  19  20
ATOM     20  C   UNL     1       2.468   4.543  14.447  1.00  0.00     0.000 C 
BRANCH  20  21
ATOM     21  C   UNL     1       3.481   3.392  14.582  1.00  0.00     0.000 C 
BRANCH  21  22
ATOM     22  C   UNL     1       3.634   2.897  16.028  1.00  0.00     0.000 C 
BRANCH  22  23
ATOM     23  C   UNL     1       2.742   3.703  16.980  1.00  0.00     0.000 C 
BRANCH  23  24
ATOM     24  C   UNL     1       3.029   3.335  18.444  1.00  0.00    -0.000 C 
BRANCH  24  25
ATOM     25  C   UNL     1       3.378   4.561  19.302  1.00  0.00    -0.000 C 
BRANCH  25  26
ATOM     26  C   UNL     1       3.807   4.176  20.729  1.00  0.00    -0.000 C 
BRANCH  26  27
ATOM     27  C   UNL     1       3.482   5.268  21.763  1.00  0.00    -0.000 C 
BRANCH  27  28
ATOM     28  C   UNL     1       2.470   6.338  21.297  1.00  0.00    -0.000 C 
BRANCH  28  29
ATOM     29  C   UNL     1       1.169   6.427  22.122  1.00  0.00    -0.000 C 
BRANCH  29  30
ATOM     30  C   UNL     1      -0.124   6.254  21.294  1.00  0.00    -0.000 C 
BRANCH  30  31
ATOM     31  C   UNL     1      -1.020   7.503  21.277  1.00  0.00    -0.003 C 
ATOM     32  C   UNL     1      -0.388   8.700  21.985  1.00  0.00     0.004 C 
ENDBRANCH  30  31
ENDBRANCH  29  30
ENDBRANCH  28  29
ENDBRANCH  27  28
ENDBRANCH  26  27
ENDBRANCH  25  26
ENDBRANCH  24  25
ENDBRANCH  23  24
ENDBRANCH  22  23
ENDBRANCH  21  22
ENDBRANCH  20  21
ENDBRANCH  19  20
ENDBRANCH  18  19
ENDBRANCH   1  18
TORSDOF 28
ENDMDL
MODEL 2
REMARK VINA RESULT:    14.268      7.095     10.939
REMARK INTER + INTRA:          36.578
REMARK INTER:                  37.920
REMARK INTRA:                  -1.342
REMARK UNBOUND:                -1.046
REMARK SMILES CCCCCCCCCCCCCCCCCCCCCCCCCCCCCC(=O)[O-]
REMARK SMILES IDX 16 1 17 2 18 3 19 4 20 5 21 6 22 7 23 8 24 9 25 10 26 11
REMARK SMILES IDX 27 12 28 13 29 14 30 15 31 16 32 17 15 18 14 19 13 20 12 21
REMARK SMILES IDX 11 22 10 23 9 24 8 25 7 26 6 27 5 28 4 29 3 30 2 31 1 32
REMARK H PARENT
REMARK Flexibility Score: inf
ROOT
ATOM      1  C   UNL     1       2.791   5.764  20.902  1.00  0.00     0.000 C 
ENDROOT
BRANCH   1   2
ATOM      2  C   UNL     1       4.064   5.555  21.741  1.00  0.00     0.000 C 
BRANCH   2   3
ATOM      3  C   UNL     1       4.813   4.261  21.374  1.00  0.00     0.000 C 
BRANCH   3   4
ATOM      4  C   UNL     1       6.329   4.429  21.144  1.00  0.00     0.000 C 
BRANCH   4   5
ATOM      5  C   UNL     1       6.714   5.339  19.965  1.00  0.00     0.000 C 
BRANCH   5   6
ATOM      6  C   UNL     1       7.949   4.838  19.204  1.00  0.00     0.000 C 
BRANCH   6   7
ATOM      7  C   UNL     1       8.101   5.566  17.862  1.00  0.00     0.000 C 
BRANCH   7   8
ATOM      8  C   UNL     1       9.523   5.404  17.306  1.00  0.00     0.000 C 
BRANCH   8   9
ATOM      9  C   UNL     1       9.555   4.621  15.984  1.00  0.00     0.000 C 
BRANCH   9  10
ATOM     10  C   UNL     1       9.497   5.541  14.752  1.00  0.00     0.000 C 
BRANCH  10  11
ATOM     11  C   UNL     1      10.799   6.332  14.543  1.00  0.00     0.000 C 
BRANCH  11  12
ATOM     12  C   UNL     1      11.533   5.929  13.253  1.00  0.00     0.000 C 
BRANCH  12  13
ATOM     13  C   UNL     1      12.138   4.513  13.338  1.00  0.00     0.006 C 
BRANCH  13  14
ATOM     14  C   UNL     1      13.110   4.189  12.192  1.00  0.00     0.053 C 
BRANCH  14  15
ATOM     15  C   UNL     1      12.401   3.932  10.899  1.00  0.00     0.041 C 
ATOM     16  O   UNL     1      11.328   3.273  10.884  1.00  0.00    -0.550 OA
ATOM     17  O   UNL     1      12.937   4.402   9.707  1.00  0.00    -0.550 OA
ENDBRANCH  14  15
ENDBRANCH  13  14
ENDBRANCH  12  13
ENDBRANCH  11  12
ENDBRANCH  10  11
ENDBRANCH   9  10
ENDBRANCH   8   9
ENDBRANCH   7   8
ENDBRANCH   6   7
ENDBRANCH   5   6
ENDBRANCH   4   5
ENDBRANCH   3   4
ENDBRANCH   2   3
ENDBRANCH   1   2
BRANCH   1  18
ATOM     18  C   UNL     1       1.672   6.455  21.697  1.00  0.00     0.000 C 
BRANCH  18  19
ATOM     19  C   UNL     1       1.519   7.941  21.327  1.00  0.00     0.000 C 
BRANCH  19  20
ATOM     20  C   UNL     1       0.082   8.460  21.520  1.00  0.00     0.000 C 
BRANCH  20  21
ATOM     21  C   UNL     1      -0.975   7.782  20.629  1.00  0.00     0.000 C 
BRANCH  21  22
ATOM     22  C   UNL     1      -1.097   6.273  20.888  1.00  0.00     0.000 C 
BRANCH  22  23
ATOM     23  C   UNL     1      -1.123   5.491  19.569  1.00  0.00     0.000 C 
BRANCH  23  24
ATOM     24  C   UNL     1      -0.804   6.410  18.380  1.00  0.00    -0.000 C 
BRANCH  24  25
ATOM     25  C   UNL     1      -0.283   5.634  17.159  1.00  0.00    -0.000 C 
BRANCH  25  26
ATOM     26  C   UNL     1      -0.427   6.433  15.852  1.00  0.00    -0.000 C 
BRANCH  26  27
ATOM     27  C   UNL     1       0.828   6.352  14.966  1.00  0.00    -0.000 C 
BRANCH  27  28
ATOM     28  C   UNL     1       1.049   4.999  14.255  1.00  0.00    -0.000 C 
BRANCH  28  29
ATOM     29  C   UNL     1       2.490   4.448  14.305  1.00  0.00    -0.000 C 
BRANCH  29  30
ATOM     30  C   UNL     1       2.677   3.233  15.241  1.00  0.00    -0.000 C 
BRANCH  30  31
ATOM     31  C   UNL     1       3.818   3.404  16.257  1.00  0.00    -0.003 C 
ATOM     32  C   UNL     1       4.623   2.123  16.472  1.00  0.00     0.004 C 
ENDBRANCH  30  31
ENDBRANCH  29  30
ENDBRANCH  28  29
ENDBRANCH  27  28
ENDBRANCH  26  27
ENDBRANCH  25  26
ENDBRANCH  24  25
ENDBRANCH  23  24
ENDBRANCH  22  23
ENDBRANCH  21  22
ENDBRANCH  20  21
ENDBRANCH  19  20
ENDBRANCH  18  19
ENDBRANCH   1  18
TORSDOF 28
ENDMDL
MODEL 3
REMARK VINA RESULT:    14.884      1.422      2.759
REMARK INTER + INTRA:          38.203
REMARK INTER:                  37.884
REMARK INTRA:                   0.318
REMARK UNBOUND:                -1.046
REMARK SMILES CCCCCCCCCCCCCCCCCCCCCCCCCCCCCC(=O)[O-]
REMARK SMILES IDX 16 1 17 2 18 3 19 4 20 5 21 6 22 7 23 8 24 9 25 10 26 11
REMARK SMILES IDX 27 12 28 13 29 14 30 15 31 16 32 17 15 18 14 19 13 20 12 21
REMARK SMILES IDX 11 22 10 23 9 24 8 25 7 26 6 27 5 28 4 29 3 30 2 31 1 32
REMARK H PARENT
REMARK Flexibility Score: inf
ROOT
ATOM      1  C   UNL     1       1.713   8.199   8.976  1.00  0.00     0.000 C 
ENDROOT
BRANCH   1   2
ATOM      2  C   UNL     1       2.101   8.353   7.494  1.00  0.00     0.000 C 
BRANCH   2   3
ATOM      3  C   UNL     1       1.501   9.616   6.851  1.00  0.00     0.000 C 
BRANCH   3   4
ATOM      4  C   UNL     1       1.569   9.656   5.310  1.00  0.00     0.000 C 
BRANCH   4   5
ATOM      5  C   UNL     1       0.470   8.859   4.587  1.00  0.00     0.000 C 
BRANCH   5   6
ATOM      6  C   UNL     1       0.717   7.343   4.614  1.00  0.00     0.000 C 
BRANCH   6   7
ATOM      7  C   UNL     1      -0.084   6.636   3.514  1.00  0.00     0.000 C 
BRANCH   7   8
ATOM      8  C   UNL     1       0.720   6.562   2.208  1.00  0.00     0.000 C 
BRANCH   8   9
ATOM      9  C   UNL     1       1.714   7.725   2.060  1.00  0.00     0.000 C 
BRANCH   9  10
ATOM     10  C   UNL     1       3.163   7.240   1.875  1.00  0.00     0.000 C 
BRANCH  10  11
ATOM     11  C   UNL     1       3.418   5.871   2.527  1.00  0.00     0.000 C 
BRANCH  11  12
ATOM     12  C   UNL     1       4.666   5.868   3.424  1.00  0.00     0.000 C 
BRANCH  12  13
ATOM     13  C   UNL     1       5.921   6.383   2.689  1.00  0.00     0.006 C 
BRANCH  13  14
ATOM     14  C   UNL     1       6.067   7.913   2.719  1.00  0.00     0.053 C 
BRANCH  14  15
ATOM     15  C   UNL     1       5.295   8.537   3.841  1.00  0.00     0.041 C 
ATOM     16  O   UNL     1       4.802   9.688   3.708  1.00  0.00    -0.550 OA
ATOM     17  O   UNL     1       5.141   7.855   5.041  1.00  0.00    -0.550 OA
ENDBRANCH  14  15
ENDBRANCH  13  14
ENDBRANCH  12  13
ENDBRANCH  11  12
ENDBRANCH  10  11
ENDBRANCH   9  10
ENDBRANCH   8   9
ENDBRANCH   7   8
ENDBRANCH   6   7
ENDBRANCH   5   6
ENDBRANCH   4   5
ENDBRANCH   3   4
ENDBRANCH   2   3
ENDBRANCH   1   2
BRANCH   1  18
ATOM     18  C   UNL     1       2.640   7.233   9.727  1.00  0.00     0.000 C 
BRANCH  18  19
ATOM     19  C   UNL     1       1.866   6.254  10.628  1.00  0.00     0.000 C 
BRANCH  19  20
ATOM     20  C   UNL     1       2.506   6.088  12.019  1.00  0.00     0.000 C 
BRANCH  20  21
ATOM     21  C   UNL     1       2.307   4.703  12.662  1.00  0.00     0.000 C 
BRANCH  21  22
ATOM     22  C   UNL     1       2.550   4.708  14.179  1.00  0.00     0.000 C 
BRANCH  22  23
ATOM     23  C   UNL     1       2.744   3.281  14.707  1.00  0.00     0.000 C 
BRANCH  23  24
ATOM     24  C   UNL     1       2.536   3.226  16.228  1.00  0.00    -0.000 C 
BRANCH  24  25
ATOM     25  C   UNL     1       3.857   3.332  17.007  1.00  0.00    -0.000 C 
BRANCH  25  26
ATOM     26  C   UNL     1       3.791   4.377  18.134  1.00  0.00    -0.000 C 
BRANCH  26  27
ATOM     27  C   UNL     1       3.157   3.822  19.422  1.00  0.00    -0.000 C 
BRANCH  27  28
ATOM     28  C   UNL     1       3.713   4.411  20.738  1.00  0.00    -0.000 C 
BRANCH  28  29
ATOM     29  C   UNL     1       3.083   5.746  21.188  1.00  0.00    -0.000 C 
BRANCH  29  30
ATOM     30  C   UNL     1       1.580   5.657  21.537  1.00  0.00    -0.000 C 
BRANCH  30  31
ATOM     31  C   UNL     1       0.880   7.023  21.608  1.00  0.00    -0.003 C 
ATOM     32  C   UNL     1       1.829   8.194  21.361  1.00  0.00     0.004 C 
ENDBRANCH  30  31
ENDBRANCH  29  30
ENDBRANCH  28  29
ENDBRANCH  27  28
ENDBRANCH  26  27
ENDBRANCH  25  26
ENDBRANCH  24  25
ENDBRANCH  23  24
ENDBRANCH  22  23
ENDBRANCH  21  22
ENDBRANCH  20  21
ENDBRANCH  19  20
ENDBRANCH  18  19
ENDBRANCH   1  18
TORSDOF 28
ENDMDL
MODEL 4
REMARK VINA RESULT:    15.707      1.799      4.006
REMARK INTER + INTRA:          40.373
REMARK INTER:                  41.611
REMARK INTRA:                  -1.238
REMARK UNBOUND:                -1.046
REMARK SMILES CCCCCCCCCCCCCCCCCCCCCCCCCCCCCC(=O)[O-]
REMARK SMILES IDX 16 1 17 2 18 3 19 4 20 5 21 6 22 7 23 8 24 9 25 10 26 11
REMARK SMILES IDX 27 12 28 13 29 14 30 15 31 16 32 17 15 18 14 19 13 20 12 21
REMARK SMILES IDX 11 22 10 23 9 24 8 25 7 26 6 27 5 28 4 29 3 30 2 31 1 32
REMARK H PARENT
REMARK Flexibility Score: inf
ROOT
ATOM      1  C   UNL     1       2.431   5.148  13.520  1.00  0.00     0.000 C 
ENDROOT
BRANCH   1   2
ATOM      2  C   UNL     1       1.752   5.235  12.142  1.00  0.00     0.000 C 
BRANCH   2   3
ATOM      3  C   UNL     1       2.373   6.318  11.241  1.00  0.00     0.000 C 
BRANCH   3   4
ATOM      4  C   UNL     1       1.515   6.724  10.025  1.00  0.00     0.000 C 
BRANCH   4   5
ATOM      5  C   UNL     1       2.226   7.615   8.992  1.00  0.00     0.000 C 
BRANCH   5   6
ATOM      6  C   UNL     1       1.683   9.051   8.970  1.00  0.00     0.000 C 
BRANCH   6   7
ATOM      7  C   UNL     1       1.417   9.516   7.533  1.00  0.00     0.000 C 
BRANCH   7   8
ATOM      8  C   UNL     1       2.236   8.692   6.528  1.00  0.00     0.000 C 
BRANCH   8   9
ATOM      9  C   UNL     1       1.821   8.956   5.072  1.00  0.00     0.000 C 
BRANCH   9  10
ATOM     10  C   UNL     1       0.405   8.442   4.760  1.00  0.00     0.000 C 
BRANCH  10  11
ATOM     11  C   UNL     1       0.251   7.979   3.302  1.00  0.00     0.000 C 
BRANCH  11  12
ATOM     12  C   UNL     1       1.038   6.692   3.005  1.00  0.00     0.000 C 
BRANCH  12  13
ATOM     13  C   UNL     1       2.360   6.969   2.260  1.00  0.00     0.006 C 
BRANCH  13  14
ATOM     14  C   UNL     1       3.610   6.547   3.048  1.00  0.00     0.053 C 
BRANCH  14  15
ATOM     15  C   UNL     1       4.515   7.703   3.342  1.00  0.00     0.041 C 
ATOM     16  O   UNL     1       5.225   7.704   4.382  1.00  0.00    -0.550 OA
ATOM     17  O   UNL     1       4.556   8.790   2.478  1.00  0.00    -0.550 OA
ENDBRANCH  14  15
ENDBRANCH  13  14
ENDBRANCH  12  13
ENDBRANCH  11  12
ENDBRANCH  10  11
ENDBRANCH   9  10
ENDBRANCH   8   9
ENDBRANCH   7   8
ENDBRANCH   6   7
ENDBRANCH   5   6
ENDBRANCH   4   5
ENDBRANCH   3   4
ENDBRANCH   2   3
ENDBRANCH   1   2
BRANCH   1  18
ATOM     18  C   UNL     1       1.906   3.972  14.359  1.00  0.00     0.000 C 
BRANCH  18  19
ATOM     19  C   UNL     1       1.795   4.319  15.854  1.00  0.00     0.000 C 
BRANCH  19  20
ATOM     20  C   UNL     1       0.560   5.181  16.178  1.00  0.00     0.000 C 
BRANCH  20  21
ATOM     21  C   UNL     1       0.155   5.199  17.663  1.00  0.00     0.000 C 
BRANCH  21  22
ATOM     22  C   UNL     1      -0.692   6.425  18.037  1.00  0.00     0.000 C 
BRANCH  22  23
ATOM     23  C   UNL     1      -1.119   6.367  19.509  1.00  0.00     0.000 C 
BRANCH  23  24
ATOM     24  C   UNL     1      -1.039   7.757  20.158  1.00  0.00    -0.000 C 
BRANCH  24  25
ATOM     25  C   UNL     1       0.345   8.047  20.761  1.00  0.00    -0.000 C 
BRANCH  25  26
ATOM     26  C   UNL     1       0.732   7.037  21.855  1.00  0.00    -0.000 C 
BRANCH  26  27
ATOM     27  C   UNL     1       1.421   5.783  21.289  1.00  0.00    -0.000 C 
BRANCH  27  28
ATOM     28  C   UNL     1       2.803   5.458  21.898  1.00  0.00    -0.000 C 
BRANCH  28  29
ATOM     29  C   UNL     1       4.020   5.858  21.037  1.00  0.00    -0.000 C 
BRANCH  29  30
ATOM     30  C   UNL     1       5.233   4.909  21.168  1.00  0.00    -0.000 C 
BRANCH  30  31
ATOM     31  C   UNL     1       6.179   4.944  19.956  1.00  0.00    -0.003 C 
ATOM     32  C   UNL     1       7.648   5.091  20.350  1.00  0.00     0.004 C 
ENDBRANCH  30  31
ENDBRANCH  29  30
ENDBRANCH  28  29
ENDBRANCH  27  28
ENDBRANCH  26  27
ENDBRANCH  25  26
ENDBRANCH  24  25
ENDBRANCH  23  24
ENDBRANCH  22  23
ENDBRANCH  21  22
ENDBRANCH  20  21
ENDBRANCH  19  20
ENDBRANCH  18  19
ENDBRANCH   1  18
TORSDOF 28
ENDMDL
MODEL 5
REMARK VINA RESULT:    15.790      6.122      8.589
REMARK INTER + INTRA:          40.590
REMARK INTER:                  42.102
REMARK INTRA:                  -1.513
REMARK UNBOUND:                -1.046
REMARK SMILES CCCCCCCCCCCCCCCCCCCCCCCCCCCCCC(=O)[O-]
REMARK SMILES IDX 16 1 17 2 18 3 19 4 20 5 21 6 22 7 23 8 24 9 25 10 26 11
REMARK SMILES IDX 27 12 28 13 29 14 30 15 31 16 32 17 15 18 14 19 13 20 12 21
REMARK SMILES IDX 11 22 10 23 9 24 8 25 7 26 6 27 5 28 4 29 3 30 2 31 1 32
REMARK H PARENT
REMARK Flexibility Score: inf
ROOT
ATOM      1  C   UNL     1       6.261   6.781   6.079  1.00  0.00     0.000 C 
ENDROOT
BRANCH   1   2
ATOM      2  C   UNL     1       6.301   6.474   4.572  1.00  0.00     0.000 C 
BRANCH   2   3
ATOM      3  C   UNL     1       4.995   6.857   3.852  1.00  0.00     0.000 C 
BRANCH   3   4
ATOM      4  C   UNL     1       5.172   7.782   2.631  1.00  0.00     0.000 C 
BRANCH   4   5
ATOM      5  C   UNL     1       4.914   9.275   2.900  1.00  0.00     0.000 C 
BRANCH   5   6
ATOM      6  C   UNL     1       3.457   9.684   2.642  1.00  0.00     0.000 C 
BRANCH   6   7
ATOM      7  C   UNL     1       2.756  10.074   3.950  1.00  0.00     0.000 C 
BRANCH   7   8
ATOM      8  C   UNL     1       2.472   8.835   4.812  1.00  0.00     0.000 C 
BRANCH   8   9
ATOM      9  C   UNL     1       1.119   8.919   5.537  1.00  0.00     0.000 C 
BRANCH   9  10
ATOM     10  C   UNL     1       0.280  10.125   5.081  1.00  0.00     0.000 C 
BRANCH  10  11
ATOM     11  C   UNL     1      -0.940   9.713   4.241  1.00  0.00     0.000 C 
BRANCH  11  12
ATOM     12  C   UNL     1      -0.547   8.967   2.955  1.00  0.00     0.000 C 
BRANCH  12  13
ATOM     13  C   UNL     1      -1.125   7.538   2.904  1.00  0.00     0.006 C 
BRANCH  13  14
ATOM     14  C   UNL     1      -0.088   6.468   2.527  1.00  0.00     0.053 C 
BRANCH  14  15
ATOM     15  C   UNL     1       0.238   5.562   3.674  1.00  0.00     0.041 C 
ATOM     16  O   UNL     1      -0.619   4.744   4.100  1.00  0.00    -0.550 OA
ATOM     17  O   UNL     1       1.483   5.638   4.287  1.00  0.00    -0.550 OA
ENDBRANCH  14  15
ENDBRANCH  13  14
ENDBRANCH  12  13
ENDBRANCH  11  12
ENDBRANCH  10  11
ENDBRANCH   9  10
ENDBRANCH   8   9
ENDBRANCH   7   8
ENDBRANCH   6   7
ENDBRANCH   5   6
ENDBRANCH   4   5
ENDBRANCH   3   4
ENDBRANCH   2   3
ENDBRANCH   1   2
BRANCH   1  18
ATOM     18  C   UNL     1       7.587   6.451   6.780  1.00  0.00     0.000 C 
BRANCH  18  19
ATOM     19  C   UNL     1       7.386   5.992   8.236  1.00  0.00     0.000 C 
BRANCH  19  20
ATOM     20  C   UNL     1       7.903   4.563   8.488  1.00  0.00     0.000 C 
BRANCH  20  21
ATOM     21  C   UNL     1       9.413   4.371   8.255  1.00  0.00     0.000 C 
BRANCH  21  22
ATOM     22  C   UNL     1       9.909   2.977   8.666  1.00  0.00     0.000 C 
BRANCH  22  23
ATOM     23  C   UNL     1      11.440   2.942   8.746  1.00  0.00     0.000 C 
BRANCH  23  24
ATOM     24  C   UNL     1      11.957   3.922   9.810  1.00  0.00    -0.000 C 
BRANCH  24  25
ATOM     25  C   UNL     1      11.367   3.645  11.202  1.00  0.00    -0.000 C 
BRANCH  25  26
ATOM     26  C   UNL     1      12.380   3.907  12.331  1.00  0.00    -0.000 C 
BRANCH  26  27
ATOM     27  C   UNL     1      12.874   5.364  12.359  1.00  0.00    -0.000 C 
BRANCH  27  28
ATOM     28  C   UNL     1      11.909   6.377  13.014  1.00  0.00    -0.000 C 
BRANCH  28  29
ATOM     29  C   UNL     1      10.584   5.788  13.541  1.00  0.00    -0.000 C 
BRANCH  29  30
ATOM     30  C   UNL     1      10.740   4.871  14.776  1.00  0.00    -0.000 C 
BRANCH  30  31
ATOM     31  C   UNL     1       9.436   4.665  15.563  1.00  0.00    -0.003 C 
ATOM     32  C   UNL     1       9.563   5.045  17.038  1.00  0.00     0.004 C 
ENDBRANCH  30  31
ENDBRANCH  29  30
ENDBRANCH  28  29
ENDBRANCH  27  28
ENDBRANCH  26  27
ENDBRANCH  25  26
ENDBRANCH  24  25
ENDBRANCH  23  24
ENDBRANCH  22  23
ENDBRANCH  21  22
ENDBRANCH  20  21
ENDBRANCH  19  20
ENDBRANCH  18  19
ENDBRANCH   1  18
TORSDOF 28
ENDMDL
MODEL 6
REMARK VINA RESULT:    15.890      5.349      7.121
REMARK INTER + INTRA:          40.856
REMARK INTER:                  42.263
REMARK INTRA:                  -1.408
REMARK UNBOUND:                -1.046
REMARK SMILES CCCCCCCCCCCCCCCCCCCCCCCCCCCCCC(=O)[O-]
REMARK SMILES IDX 16 1 17 2 18 3 19 4 20 5 21 6 22 7 23 8 24 9 25 10 26 11
REMARK SMILES IDX 27 12 28 13 29 14 30 15 31 16 32 17 15 18 14 19 13 20 12 21
REMARK SMILES IDX 11 22 10 23 9 24 8 25 7 26 6 27 5 28 4 29 3 30 2 31 1 32
REMARK H PARENT
REMARK Flexibility Score: inf
ROOT
ATOM      1  C   UNL     1       9.769   3.407   8.088  1.00  0.00     0.000 C 
ENDROOT
BRANCH   1   2
ATOM      2  C   UNL     1       9.420   4.883   7.828  1.00  0.00     0.000 C 
BRANCH   2   3
ATOM      3  C   UNL     1       7.914   5.107   7.600  1.00  0.00     0.000 C 
BRANCH   3   4
ATOM      4  C   UNL     1       7.536   6.509   7.078  1.00  0.00     0.000 C 
BRANCH   4   5
ATOM      5  C   UNL     1       6.193   6.587   6.330  1.00  0.00     0.000 C 
BRANCH   5   6
ATOM      6  C   UNL     1       6.365   6.765   4.815  1.00  0.00     0.000 C 
BRANCH   6   7
ATOM      7  C   UNL     1       5.035   7.147   4.153  1.00  0.00     0.000 C 
BRANCH   7   8
ATOM      8  C   UNL     1       5.135   8.519   3.469  1.00  0.00     0.000 C 
BRANCH   8   9
ATOM      9  C   UNL     1       3.758   9.146   3.200  1.00  0.00     0.000 C 
BRANCH   9  10
ATOM     10  C   UNL     1       3.203   9.896   4.423  1.00  0.00     0.000 C 
BRANCH  10  11
ATOM     11  C   UNL     1       2.199   9.054   5.228  1.00  0.00     0.000 C 
BRANCH  11  12
ATOM     12  C   UNL     1       0.739   9.354   4.849  1.00  0.00     0.000 C 
BRANCH  12  13
ATOM     13  C   UNL     1       0.274   8.553   3.616  1.00  0.00     0.006 C 
BRANCH  13  14
ATOM     14  C   UNL     1      -0.307   7.172   3.962  1.00  0.00     0.053 C 
BRANCH  14  15
ATOM     15  C   UNL     1       0.736   6.098   3.961  1.00  0.00     0.041 C 
ATOM     16  O   UNL     1       1.743   6.193   3.212  1.00  0.00    -0.550 OA
ATOM     17  O   UNL     1       0.583   4.981   4.772  1.00  0.00    -0.550 OA
ENDBRANCH  14  15
ENDBRANCH  13  14
ENDBRANCH  12  13
ENDBRANCH  11  12
ENDBRANCH  10  11
ENDBRANCH   9  10
ENDBRANCH   8   9
ENDBRANCH   7   8
ENDBRANCH   6   7
ENDBRANCH   5   6
ENDBRANCH   4   5
ENDBRANCH   3   4
ENDBRANCH   2   3
ENDBRANCH   1   2
BRANCH   1  18
ATOM     18  C   UNL     1      10.410   3.190   9.467  1.00  0.00     0.000 C 
BRANCH  18  19
ATOM     19  C   UNL     1      11.771   3.897   9.600  1.00  0.00     0.000 C 
BRANCH  19  20
ATOM     20  C   UNL     1      12.558   3.447  10.846  1.00  0.00     0.000 C 
BRANCH  20  21
ATOM     21  C   UNL     1      12.740   4.532  11.923  1.00  0.00     0.000 C 
BRANCH  21  22
ATOM     22  C   UNL     1      11.423   4.917  12.613  1.00  0.00     0.000 C 
BRANCH  22  23
ATOM     23  C   UNL     1      11.529   6.301  13.264  1.00  0.00     0.000 C 
BRANCH  23  24
ATOM     24  C   UNL     1      11.135   6.241  14.747  1.00  0.00    -0.000 C 
BRANCH  24  25
ATOM     25  C   UNL     1       9.655   5.880  14.950  1.00  0.00    -0.000 C 
BRANCH  25  26
ATOM     26  C   UNL     1       9.465   4.703  15.923  1.00  0.00    -0.000 C 
BRANCH  26  27
ATOM     27  C   UNL     1       9.395   5.153  17.393  1.00  0.00    -0.000 C 
BRANCH  27  28
ATOM     28  C   UNL     1       8.023   5.693  17.853  1.00  0.00    -0.000 C 
BRANCH  28  29
ATOM     29  C   UNL     1       7.365   4.930  19.022  1.00  0.00    -0.000 C 
BRANCH  29  30
ATOM     30  C   UNL     1       6.138   5.641  19.637  1.00  0.00    -0.000 C 
BRANCH  30  31
ATOM     31  C   UNL     1       5.715   5.074  21.002  1.00  0.00    -0.003 C 
ATOM     32  C   UNL     1       6.865   4.405  21.753  1.00  0.00     0.004 C 
ENDBRANCH  30  31
ENDBRANCH  29  30
ENDBRANCH  28  29
ENDBRANCH  27  28
ENDBRANCH  26  27
ENDBRANCH  25  26
ENDBRANCH  24  25
ENDBRANCH  23  24
ENDBRANCH  22  23
ENDBRANCH  21  22
ENDBRANCH  20  21
ENDBRANCH  19  20
ENDBRANCH  18  19
ENDBRANCH   1  18
TORSDOF 28
ENDMDL
MODEL 7
REMARK VINA RESULT:    15.900      1.982      2.763
REMARK INTER + INTRA:          40.881
REMARK INTER:                  42.764
REMARK INTRA:                  -1.884
REMARK UNBOUND:                -1.046
REMARK SMILES CCCCCCCCCCCCCCCCCCCCCCCCCCCCCC(=O)[O-]
REMARK SMILES IDX 16 1 17 2 18 3 19 4 20 5 21 6 22 7 23 8 24 9 25 10 26 11
REMARK SMILES IDX 27 12 28 13 29 14 30 15 31 16 32 17 15 18 14 19 13 20 12 21
REMARK SMILES IDX 11 22 10 23 9 24 8 25 7 26 6 27 5 28 4 29 3 30 2 31 1 32
REMARK H PARENT
REMARK Flexibility Score: inf
ROOT
ATOM      1  C   UNL     1       2.669   6.890  11.544  1.00  0.00     0.000 C 
ENDROOT
BRANCH   1   2
ATOM      2  C   UNL     1       2.154   6.874  10.094  1.00  0.00     0.000 C 
BRANCH   2   3
ATOM      3  C   UNL     1       1.692   8.261   9.612  1.00  0.00     0.000 C 
BRANCH   3   4
ATOM      4  C   UNL     1       1.262   8.326   8.132  1.00  0.00     0.000 C 
BRANCH   4   5
ATOM      5  C   UNL     1       2.413   8.493   7.125  1.00  0.00     0.000 C 
BRANCH   5   6
ATOM      6  C   UNL     1       2.626   9.954   6.700  1.00  0.00     0.000 C 
BRANCH   6   7
ATOM      7  C   UNL     1       2.416  10.123   5.191  1.00  0.00     0.000 C 
BRANCH   7   8
ATOM      8  C   UNL     1       2.925   8.895   4.422  1.00  0.00     0.000 C 
BRANCH   8   9
ATOM      9  C   UNL     1       4.455   8.886   4.272  1.00  0.00     0.000 C 
BRANCH   9  10
ATOM     10  C   UNL     1       5.042   7.464   4.315  1.00  0.00     0.000 C 
BRANCH  10  11
ATOM     11  C   UNL     1       3.992   6.380   4.023  1.00  0.00     0.000 C 
BRANCH  11  12
ATOM     12  C   UNL     1       4.089   5.836   2.588  1.00  0.00     0.000 C 
BRANCH  12  13
ATOM     13  C   UNL     1       2.741   5.289   2.074  1.00  0.00     0.006 C 
BRANCH  13  14
ATOM     14  C   UNL     1       1.598   6.314   2.131  1.00  0.00     0.053 C 
BRANCH  14  15
ATOM     15  C   UNL     1       0.488   5.880   3.037  1.00  0.00     0.041 C 
ATOM     16  O   UNL     1       0.650   5.883   4.285  1.00  0.00    -0.550 OA
ATOM     17  O   UNL     1      -0.719   5.450   2.499  1.00  0.00    -0.550 OA
ENDBRANCH  14  15
ENDBRANCH  13  14
ENDBRANCH  12  13
ENDBRANCH  11  12
ENDBRANCH  10  11
ENDBRANCH   9  10
ENDBRANCH   8   9
ENDBRANCH   7   8
ENDBRANCH   6   7
ENDBRANCH   5   6
ENDBRANCH   4   5
ENDBRANCH   3   4
ENDBRANCH   2   3
ENDBRANCH   1   2
BRANCH   1  18
ATOM     18  C   UNL     1       3.160   5.509  12.006  1.00  0.00     0.000 C 
BRANCH  18  19
ATOM     19  C   UNL     1       2.160   4.814  12.949  1.00  0.00     0.000 C 
BRANCH  19  20
ATOM     20  C   UNL     1       2.715   4.627  14.374  1.00  0.00     0.000 C 
BRANCH  20  21
ATOM     21  C   UNL     1       3.584   3.371  14.569  1.00  0.00     0.000 C 
BRANCH  21  22
ATOM     22  C   UNL     1       3.935   3.110  16.042  1.00  0.00     0.000 C 
BRANCH  22  23
ATOM     23  C   UNL     1       2.957   3.833  16.975  1.00  0.00     0.000 C 
BRANCH  23  24
ATOM     24  C   UNL     1       3.352   3.633  18.446  1.00  0.00    -0.000 C 
BRANCH  24  25
ATOM     25  C   UNL     1       2.483   4.460  19.407  1.00  0.00    -0.000 C 
BRANCH  25  26
ATOM     26  C   UNL     1       3.320   5.194  20.470  1.00  0.00    -0.000 C 
BRANCH  26  27
ATOM     27  C   UNL     1       2.452   5.920  21.512  1.00  0.00    -0.000 C 
BRANCH  27  28
ATOM     28  C   UNL     1       0.963   5.508  21.535  1.00  0.00    -0.000 C 
BRANCH  28  29
ATOM     29  C   UNL     1      -0.050   6.667  21.433  1.00  0.00    -0.000 C 
BRANCH  29  30
ATOM     30  C   UNL     1       0.568   8.019  21.010  1.00  0.00    -0.000 C 
BRANCH  30  31
ATOM     31  C   UNL     1       0.506   9.097  22.104  1.00  0.00    -0.003 C 
ATOM     32  C   UNL     1       1.740   9.998  22.125  1.00  0.00     0.004 C 
ENDBRANCH  30  31
ENDBRANCH  29  30
ENDBRANCH  28  29
ENDBRANCH  27  28
ENDBRANCH  26  27
ENDBRANCH  25  26
ENDBRANCH  24  25
ENDBRANCH  23  24
ENDBRANCH  22  23
ENDBRANCH  21  22
ENDBRANCH  20  21
ENDBRANCH  19  20
ENDBRANCH  18  19
ENDBRANCH   1  18
TORSDOF 28
ENDMDL
MODEL 8
REMARK VINA RESULT:    16.197      1.435      2.849
REMARK INTER + INTRA:          41.665
REMARK INTER:                  41.972
REMARK INTRA:                  -0.308
REMARK UNBOUND:                -1.046
REMARK SMILES CCCCCCCCCCCCCCCCCCCCCCCCCCCCCC(=O)[O-]
REMARK SMILES IDX 16 1 17 2 18 3 19 4 20 5 21 6 22 7 23 8 24 9 25 10 26 11
REMARK SMILES IDX 27 12 28 13 29 14 30 15 31 16 32 17 15 18 14 19 13 20 12 21
REMARK SMILES IDX 11 22 10 23 9 24 8 25 7 26 6 27 5 28 4 29 3 30 2 31 1 32
REMARK H PARENT
REMARK Flexibility Score: inf
ROOT
ATOM      1  C   UNL     1       2.147   8.146   9.387  1.00  0.00     0.000 C 
ENDROOT
BRANCH   1   2
ATOM      2  C   UNL     1       1.636   8.883   8.136  1.00  0.00     0.000 C 
BRANCH   2   3
ATOM      3  C   UNL     1       1.557   7.969   6.899  1.00  0.00     0.000 C 
BRANCH   3   4
ATOM      4  C   UNL     1       1.582   8.705   5.544  1.00  0.00     0.000 C 
BRANCH   4   5
ATOM      5  C   UNL     1       0.423   8.360   4.593  1.00  0.00     0.000 C 
BRANCH   5   6
ATOM      6  C   UNL     1       0.901   7.970   3.187  1.00  0.00     0.000 C 
BRANCH   6   7
ATOM      7  C   UNL     1       2.432   7.995   3.101  1.00  0.00     0.000 C 
BRANCH   7   8
ATOM      8  C   UNL     1       2.934   9.368   2.629  1.00  0.00     0.000 C 
BRANCH   8   9
ATOM      9  C   UNL     1       4.277   9.281   1.885  1.00  0.00     0.000 C 
BRANCH   9  10
ATOM     10  C   UNL     1       5.447   8.932   2.821  1.00  0.00     0.000 C 
BRANCH  10  11
ATOM     11  C   UNL     1       5.100   7.804   3.807  1.00  0.00     0.000 C 
BRANCH  11  12
ATOM     12  C   UNL     1       6.169   6.699   3.840  1.00  0.00     0.000 C 
BRANCH  12  13
ATOM     13  C   UNL     1       6.521   6.179   2.432  1.00  0.00     0.006 C 
BRANCH  13  14
ATOM     14  C   UNL     1       5.509   5.163   1.880  1.00  0.00     0.053 C 
BRANCH  14  15
ATOM     15  C   UNL     1       5.361   3.966   2.768  1.00  0.00     0.041 C 
ATOM     16  O   UNL     1       4.527   3.976   3.711  1.00  0.00    -0.550 OA
ATOM     17  O   UNL     1       6.161   2.848   2.566  1.00  0.00    -0.550 OA
ENDBRANCH  14  15
ENDBRANCH  13  14
ENDBRANCH  12  13
ENDBRANCH  11  12
ENDBRANCH  10  11
ENDBRANCH   9  10
ENDBRANCH   8   9
ENDBRANCH   7   8
ENDBRANCH   6   7
ENDBRANCH   5   6
ENDBRANCH   4   5
ENDBRANCH   3   4
ENDBRANCH   2   3
ENDBRANCH   1   2
BRANCH   1  18
ATOM     18  C   UNL     1       1.828   6.644   9.354  1.00  0.00     0.000 C 
BRANCH  18  19
ATOM     19  C   UNL     1       1.287   6.127  10.699  1.00  0.00     0.000 C 
BRANCH  19  20
ATOM     20  C   UNL     1       2.402   5.645  11.646  1.00  0.00     0.000 C 
BRANCH  20  21
ATOM     21  C   UNL     1       1.966   4.579  12.668  1.00  0.00     0.000 C 
BRANCH  21  22
ATOM     22  C   UNL     1       2.663   4.735  14.028  1.00  0.00     0.000 C 
BRANCH  22  23
ATOM     23  C   UNL     1       2.250   3.613  14.988  1.00  0.00     0.000 C 
BRANCH  23  24
ATOM     24  C   UNL     1       3.400   3.255  15.941  1.00  0.00    -0.000 C 
BRANCH  24  25
ATOM     25  C   UNL     1       3.339   4.042  17.260  1.00  0.00    -0.000 C 
BRANCH  25  26
ATOM     26  C   UNL     1       3.419   3.127  18.494  1.00  0.00    -0.000 C 
BRANCH  26  27
ATOM     27  C   UNL     1       3.676   3.906  19.796  1.00  0.00    -0.000 C 
BRANCH  27  28
ATOM     28  C   UNL     1       2.492   4.761  20.299  1.00  0.00    -0.000 C 
BRANCH  28  29
ATOM     29  C   UNL     1       2.718   5.488  21.640  1.00  0.00    -0.000 C 
BRANCH  29  30
ATOM     30  C   UNL     1       2.566   7.025  21.566  1.00  0.00    -0.000 C 
BRANCH  30  31
ATOM     31  C   UNL     1       1.110   7.508  21.665  1.00  0.00    -0.003 C 
ATOM     32  C   UNL     1       0.124   6.376  21.948  1.00  0.00     0.004 C 
ENDBRANCH  30  31
ENDBRANCH  29  30
ENDBRANCH  28  29
ENDBRANCH  27  28
ENDBRANCH  26  27
ENDBRANCH  25  26
ENDBRANCH  24  25
ENDBRANCH  23  24
ENDBRANCH  22  23
ENDBRANCH  21  22
ENDBRANCH  20  21
ENDBRANCH  19  20
ENDBRANCH  18  19
ENDBRANCH   1  18
TORSDOF 28
ENDMDL
MODEL 9
REMARK VINA RESULT:    16.310      5.420      6.857
REMARK INTER + INTRA:          41.963
REMARK INTER:                  43.234
REMARK INTRA:                  -1.271
REMARK UNBOUND:                -1.046
REMARK SMILES CCCCCCCCCCCCCCCCCCCCCCCCCCCCCC(=O)[O-]
REMARK SMILES IDX 16 1 17 2 18 3 19 4 20 5 21 6 22 7 23 8 24 9 25 10 26 11
REMARK SMILES IDX 27 12 28 13 29 14 30 15 31 16 32 17 15 18 14 19 13 20 12 21
REMARK SMILES IDX 11 22 10 23 9 24 8 25 7 26 6 27 5 28 4 29 3 30 2 31 1 32
REMARK H PARENT
REMARK Flexibility Score: inf
ROOT
ATOM      1  C   UNL     1      12.136   3.921   8.959  1.00  0.00     0.000 C 
ENDROOT
BRANCH   1   2
ATOM      2  C   UNL     1      10.698   3.559   9.368  1.00  0.00     0.000 C 
BRANCH   2   3
ATOM      3  C   UNL     1       9.721   3.565   8.178  1.00  0.00     0.000 C 
BRANCH   3   4
ATOM      4  C   UNL     1       8.425   4.369   8.404  1.00  0.00     0.000 C 
BRANCH   4   5
ATOM      5  C   UNL     1       8.239   5.583   7.476  1.00  0.00     0.000 C 
BRANCH   5   6
ATOM      6  C   UNL     1       6.773   6.024   7.358  1.00  0.00     0.000 C 
BRANCH   6   7
ATOM      7  C   UNL     1       6.584   6.991   6.183  1.00  0.00     0.000 C 
BRANCH   7   8
ATOM      8  C   UNL     1       6.151   6.240   4.915  1.00  0.00     0.000 C 
BRANCH   8   9
ATOM      9  C   UNL     1       4.937   6.887   4.230  1.00  0.00     0.000 C 
BRANCH   9  10
ATOM     10  C   UNL     1       4.955   8.423   4.328  1.00  0.00     0.000 C 
BRANCH  10  11
ATOM     11  C   UNL     1       4.446   9.103   3.046  1.00  0.00     0.000 C 
BRANCH  11  12
ATOM     12  C   UNL     1       3.324  10.118   3.322  1.00  0.00     0.000 C 
BRANCH  12  13
ATOM     13  C   UNL     1       1.921   9.490   3.202  1.00  0.00     0.006 C 
BRANCH  13  14
ATOM     14  C   UNL     1       1.638   8.409   4.257  1.00  0.00     0.053 C 
BRANCH  14  15
ATOM     15  C   UNL     1       1.300   7.086   3.641  1.00  0.00     0.041 C 
ATOM     16  O   UNL     1       0.794   6.171   4.341  1.00  0.00    -0.550 OA
ATOM     17  O   UNL     1       1.566   6.859   2.297  1.00  0.00    -0.550 OA
ENDBRANCH  14  15
ENDBRANCH  13  14
ENDBRANCH  12  13
ENDBRANCH  11  12
ENDBRANCH  10  11
ENDBRANCH   9  10
ENDBRANCH   8   9
ENDBRANCH   7   8
ENDBRANCH   6   7
ENDBRANCH   5   6
ENDBRANCH   4   5
ENDBRANCH   3   4
ENDBRANCH   2   3
ENDBRANCH   1   2
BRANCH   1  18
ATOM     18  C   UNL     1      13.090   3.980  10.162  1.00  0.00     0.000 C 
BRANCH  18  19
ATOM     19  C   UNL     1      12.550   4.865  11.299  1.00  0.00     0.000 C 
BRANCH  19  20
ATOM     20  C   UNL     1      12.109   4.052  12.531  1.00  0.00     0.000 C 
BRANCH  20  21
ATOM     21  C   UNL     1      10.861   4.595  13.252  1.00  0.00     0.000 C 
BRANCH  21  22
ATOM     22  C   UNL     1      11.031   6.044  13.732  1.00  0.00     0.000 C 
BRANCH  22  23
ATOM     23  C   UNL     1       9.905   6.437  14.696  1.00  0.00     0.000 C 
BRANCH  23  24
ATOM     24  C   UNL     1      10.393   6.402  16.152  1.00  0.00    -0.000 C 
BRANCH  24  25
ATOM     25  C   UNL     1       9.719   5.291  16.973  1.00  0.00    -0.000 C 
BRANCH  25  26
ATOM     26  C   UNL     1       8.300   5.675  17.427  1.00  0.00    -0.000 C 
BRANCH  26  27
ATOM     27  C   UNL     1       7.769   4.767  18.550  1.00  0.00    -0.000 C 
BRANCH  27  28
ATOM     28  C   UNL     1       6.946   5.482  19.644  1.00  0.00    -0.000 C 
BRANCH  28  29
ATOM     29  C   UNL     1       6.721   4.676  20.941  1.00  0.00    -0.000 C 
BRANCH  29  30
ATOM     30  C   UNL     1       5.399   5.000  21.672  1.00  0.00    -0.000 C 
BRANCH  30  31
ATOM     31  C   UNL     1       4.144   4.524  20.921  1.00  0.00    -0.003 C 
ATOM     32  C   UNL     1       3.072   5.607  20.805  1.00  0.00     0.004 C 
ENDBRANCH  30  31
ENDBRANCH  29  30
ENDBRANCH  28  29
ENDBRANCH  27  28
ENDBRANCH  26  27
ENDBRANCH  25  26
ENDBRANCH  24  25
ENDBRANCH  23  24
ENDBRANCH  22  23
ENDBRANCH  21  22
ENDBRANCH  20  21
ENDBRANCH  19  20
ENDBRANCH  18  19
ENDBRANCH   1  18
TORSDOF 28
ENDMDL
