MODEL 1
REMARK VINA RESULT:    -4.121      0.000      0.000
REMARK INTER + INTRA:          -7.855
REMARK INTER:                  -6.529
REMARK INTRA:                  -1.326
REMARK UNBOUND:                -1.326
REMARK SMILES CCCCCCCCCCCC(=O)[O-]
REMARK SMILES IDX 7 1 8 2 9 3 10 4 11 5 12 6 13 7 14 8 6 9 5 10 4 11 3 12 2 13
REMARK SMILES IDX 1 14
REMARK H PARENT
REMARK Flexibility Score: inf
ROOT
ATOM      1  C   UNL     1      -2.819   8.474 -58.426  1.00  0.00     0.000 C 
ENDROOT
BRANCH   1   2
ATOM      2  C   UNL     1      -3.031   8.240 -56.918  1.00  0.00     0.000 C 
BRANCH   2   3
ATOM      3  C   UNL     1      -4.381   7.604 -56.537  1.00  0.00     0.000 C 
BRANCH   3   4
ATOM      4  C   UNL     1      -5.374   7.558 -57.708  1.00  0.00     0.006 C 
BRANCH   4   5
ATOM      5  C   UNL     1      -6.278   6.325 -57.611  1.00  0.00     0.053 C 
BRANCH   5   6
ATOM      6  C   UNL     1      -7.713   6.715 -57.765  1.00  0.00     0.041 C 
ATOM      7  O   UNL     1      -8.024   7.915 -57.988  1.00  0.00    -0.550 OA
ATOM      8  O   UNL     1      -8.706   5.746 -57.712  1.00  0.00    -0.550 OA
ENDBRANCH   5   6
ENDBRANCH   4   5
ENDBRANCH   3   4
ENDBRANCH   2   3
ENDBRANCH   1   2
BRANCH   1   9
ATOM      9  C   UNL     1      -1.797   7.506 -59.045  1.00  0.00     0.000 C 
BRANCH   9  10
ATOM     10  C   UNL     1      -2.444   6.205 -59.547  1.00  0.00    -0.000 C 
BRANCH  10  11
ATOM     11  C   UNL     1      -2.256   5.033 -58.572  1.00  0.00    -0.000 C 
BRANCH  11  12
ATOM     12  C   UNL     1      -0.843   5.046 -57.968  1.00  0.00    -0.000 C 
BRANCH  12  13
ATOM     13  C   UNL     1      -0.853   4.913 -56.438  1.00  0.00    -0.003 C 
ATOM     14  C   UNL     1      -0.194   6.101 -55.737  1.00  0.00     0.004 C 
ENDBRANCH  12  13
ENDBRANCH  11  12
ENDBRANCH  10  11
ENDBRANCH   9  10
ENDBRANCH   1   9
TORSDOF 10
ENDMDL
MODEL 2
REMARK VINA RESULT:    -4.098      3.359      5.618
REMARK INTER + INTRA:          -7.819
REMARK INTER:                  -6.684
REMARK INTRA:                  -1.135
REMARK UNBOUND:                -1.326
REMARK SMILES CCCCCCCCCCCC(=O)[O-]
REMARK SMILES IDX 7 1 8 2 9 3 10 4 11 5 12 6 13 7 14 8 6 9 5 10 4 11 3 12 2 13
REMARK SMILES IDX 1 14
REMARK H PARENT
REMARK Flexibility Score: inf
ROOT
ATOM      1  C   UNL     1      -2.708   6.135 -59.929  1.00  0.00     0.000 C 
ENDROOT
BRANCH   1   2
ATOM      2  C   UNL     1      -1.713   7.028 -59.165  1.00  0.00     0.000 C 
BRANCH   2   3
ATOM      3  C   UNL     1      -0.653   6.273 -58.342  1.00  0.00     0.000 C 
BRANCH   3   4
ATOM      4  C   UNL     1      -1.225   5.635 -57.067  1.00  0.00     0.006 C 
BRANCH   4   5
ATOM      5  C   UNL     1      -1.784   6.703 -56.123  1.00  0.00     0.053 C 
BRANCH   5   6
ATOM      6  C   UNL     1      -0.940   6.807 -54.893  1.00  0.00     0.041 C 
ATOM      7  O   UNL     1       0.308   6.943 -54.990  1.00  0.00    -0.550 OA
ATOM      8  O   UNL     1      -1.536   6.804 -53.638  1.00  0.00    -0.550 OA
ENDBRANCH   5   6
ENDBRANCH   4   5
ENDBRANCH   3   4
ENDBRANCH   2   3
ENDBRANCH   1   2
BRANCH   1   9
ATOM      9  C   UNL     1      -4.165   6.609 -59.794  1.00  0.00     0.000 C 
BRANCH   9  10
ATOM     10  C   UNL     1      -4.278   7.984 -59.114  1.00  0.00    -0.000 C 
BRANCH  10  11
ATOM     11  C   UNL     1      -5.047   7.928 -57.785  1.00  0.00    -0.000 C 
BRANCH  11  12
ATOM     12  C   UNL     1      -5.508   6.494 -57.480  1.00  0.00    -0.000 C 
BRANCH  12  13
ATOM     13  C   UNL     1      -7.036   6.341 -57.536  1.00  0.00    -0.003 C 
ATOM     14  C   UNL     1      -7.743   7.620 -57.983  1.00  0.00     0.004 C 
ENDBRANCH  12  13
ENDBRANCH  11  12
ENDBRANCH  10  11
ENDBRANCH   9  10
ENDBRANCH   1   9
TORSDOF 10
ENDMDL
MODEL 3
REMARK VINA RESULT:    -4.083      3.506      5.515
REMARK INTER + INTRA:          -7.795
REMARK INTER:                  -6.496
REMARK INTRA:                  -1.299
REMARK UNBOUND:                -1.326
REMARK SMILES CCCCCCCCCCCC(=O)[O-]
REMARK SMILES IDX 7 1 8 2 9 3 10 4 11 5 12 6 13 7 14 8 6 9 5 10 4 11 3 12 2 13
REMARK SMILES IDX 1 14
REMARK H PARENT
REMARK Flexibility Score: inf
ROOT
ATOM      1  C   UNL     1      -1.575   6.774 -59.480  1.00  0.00     0.000 C 
ENDROOT
BRANCH   1   2
ATOM      2  C   UNL     1      -0.738   6.383 -58.247  1.00  0.00     0.000 C 
BRANCH   2   3
ATOM      3  C   UNL     1      -1.301   5.214 -57.418  1.00  0.00     0.000 C 
BRANCH   3   4
ATOM      4  C   UNL     1      -1.330   5.506 -55.910  1.00  0.00     0.006 C 
BRANCH   4   5
ATOM      5  C   UNL     1      -0.132   6.364 -55.495  1.00  0.00     0.053 C 
BRANCH   5   6
ATOM      6  C   UNL     1      -0.419   7.080 -54.214  1.00  0.00     0.041 C 
ATOM      7  O   UNL     1      -1.328   6.666 -53.446  1.00  0.00    -0.550 OA
ATOM      8  O   UNL     1       0.349   8.177 -53.843  1.00  0.00    -0.550 OA
ENDBRANCH   5   6
ENDBRANCH   4   5
ENDBRANCH   3   4
ENDBRANCH   2   3
ENDBRANCH   1   2
BRANCH   1   9
ATOM      9  C   UNL     1      -2.727   5.793 -59.758  1.00  0.00     0.000 C 
BRANCH   9  10
ATOM     10  C   UNL     1      -4.076   6.505 -59.949  1.00  0.00    -0.000 C 
BRANCH  10  11
ATOM     11  C   UNL     1      -4.564   7.206 -58.671  1.00  0.00    -0.000 C 
BRANCH  11  12
ATOM     12  C   UNL     1      -4.540   8.732 -58.841  1.00  0.00    -0.000 C 
BRANCH  12  13
ATOM     13  C   UNL     1      -3.570   9.421 -57.869  1.00  0.00    -0.003 C 
ATOM     14  C   UNL     1      -3.328   8.606 -56.599  1.00  0.00     0.004 C 
ENDBRANCH  12  13
ENDBRANCH  11  12
ENDBRANCH  10  11
ENDBRANCH   9  10
ENDBRANCH   1   9
TORSDOF 10
ENDMDL
MODEL 4
REMARK VINA RESULT:    -3.943      2.551      3.462
REMARK INTER + INTRA:          -7.574
REMARK INTER:                  -6.479
REMARK INTRA:                  -1.095
REMARK UNBOUND:                -1.326
REMARK SMILES CCCCCCCCCCCC(=O)[O-]
REMARK SMILES IDX 7 1 8 2 9 3 10 4 11 5 12 6 13 7 14 8 6 9 5 10 4 11 3 12 2 13
REMARK SMILES IDX 1 14
REMARK H PARENT
REMARK Flexibility Score: inf
ROOT
ATOM      1  C   UNL     1      -1.604   6.796 -59.557  1.00  0.00     0.000 C 
ENDROOT
BRANCH   1   2
ATOM      2  C   UNL     1      -2.819   5.881 -59.800  1.00  0.00     0.000 C 
BRANCH   2   3
ATOM      3  C   UNL     1      -4.188   6.584 -59.753  1.00  0.00     0.000 C 
BRANCH   3   4
ATOM      4  C   UNL     1      -4.720   6.768 -58.323  1.00  0.00     0.006 C 
BRANCH   4   5
ATOM      5  C   UNL     1      -4.971   8.247 -58.018  1.00  0.00     0.053 C 
BRANCH   5   6
ATOM      6  C   UNL     1      -3.707   8.913 -57.578  1.00  0.00     0.041 C 
ATOM      7  O   UNL     1      -3.158   9.779 -58.309  1.00  0.00    -0.550 OA
ATOM      8  O   UNL     1      -3.159   8.612 -56.337  1.00  0.00    -0.550 OA
ENDBRANCH   5   6
ENDBRANCH   4   5
ENDBRANCH   3   4
ENDBRANCH   2   3
ENDBRANCH   1   2
BRANCH   1   9
ATOM      9  C   UNL     1      -0.830   6.436 -58.276  1.00  0.00     0.000 C 
BRANCH   9  10
ATOM     10  C   UNL     1      -1.402   5.195 -57.571  1.00  0.00    -0.000 C 
BRANCH  10  11
ATOM     11  C   UNL     1      -1.420   5.338 -56.041  1.00  0.00    -0.000 C 
BRANCH  11  12
ATOM     12  C   UNL     1      -0.401   6.391 -55.578  1.00  0.00    -0.000 C 
BRANCH  12  13
ATOM     13  C   UNL     1      -0.803   7.062 -54.256  1.00  0.00    -0.003 C 
ATOM     14  C   UNL     1       0.300   7.951 -53.684  1.00  0.00     0.004 C 
ENDBRANCH  12  13
ENDBRANCH  11  12
ENDBRANCH  10  11
ENDBRANCH   9  10
ENDBRANCH   1   9
TORSDOF 10
ENDMDL
MODEL 5
REMARK VINA RESULT:    -3.886      3.188      5.211
REMARK INTER + INTRA:          -7.484
REMARK INTER:                  -6.051
REMARK INTRA:                  -1.433
REMARK UNBOUND:                -1.326
REMARK SMILES CCCCCCCCCCCC(=O)[O-]
REMARK SMILES IDX 7 1 8 2 9 3 10 4 11 5 12 6 13 7 14 8 6 9 5 10 4 11 3 12 2 13
REMARK SMILES IDX 1 14
REMARK H PARENT
REMARK Flexibility Score: inf
ROOT
ATOM      1  C   UNL     1      -2.198   8.163 -59.065  1.00  0.00     0.000 C 
ENDROOT
BRANCH   1   2
ATOM      2  C   UNL     1      -1.940   6.648 -58.963  1.00  0.00     0.000 C 
BRANCH   2   3
ATOM      3  C   UNL     1      -0.562   6.254 -58.400  1.00  0.00     0.000 C 
BRANCH   3   4
ATOM      4  C   UNL     1      -0.625   5.056 -57.440  1.00  0.00     0.006 C 
BRANCH   4   5
ATOM      5  C   UNL     1      -1.593   5.329 -56.286  1.00  0.00     0.053 C 
BRANCH   5   6
ATOM      6  C   UNL     1      -1.068   6.422 -55.410  1.00  0.00     0.041 C 
ATOM      7  O   UNL     1      -1.826   7.356 -55.038  1.00  0.00    -0.550 OA
ATOM      8  O   UNL     1       0.247   6.383 -54.963  1.00  0.00    -0.550 OA
ENDBRANCH   5   6
ENDBRANCH   4   5
ENDBRANCH   3   4
ENDBRANCH   2   3
ENDBRANCH   1   2
BRANCH   1   9
ATOM      9  C   UNL     1      -3.174   8.678 -57.994  1.00  0.00     0.000 C 
BRANCH   9  10
ATOM     10  C   UNL     1      -4.592   8.901 -58.545  1.00  0.00    -0.000 C 
BRANCH  10  11
ATOM     11  C   UNL     1      -5.601   7.867 -58.021  1.00  0.00    -0.000 C 
BRANCH  11  12
ATOM     12  C   UNL     1      -5.044   7.133 -56.792  1.00  0.00    -0.000 C 
BRANCH  12  13
ATOM     13  C   UNL     1      -5.262   5.614 -56.862  1.00  0.00    -0.003 C 
ATOM     14  C   UNL     1      -5.165   5.068 -58.286  1.00  0.00     0.004 C 
ENDBRANCH  12  13
ENDBRANCH  11  12
ENDBRANCH  10  11
ENDBRANCH   9  10
ENDBRANCH   1   9
TORSDOF 10
ENDMDL
MODEL 6
REMARK VINA RESULT:    -3.857     11.244     13.125
REMARK INTER + INTRA:          -7.437
REMARK INTER:                  -6.445
REMARK INTRA:                  -0.992
REMARK UNBOUND:                -1.326
REMARK SMILES CCCCCCCCCCCC(=O)[O-]
REMARK SMILES IDX 7 1 8 2 9 3 10 4 11 5 12 6 13 7 14 8 6 9 5 10 4 11 3 12 2 13
REMARK SMILES IDX 1 14
REMARK H PARENT
REMARK Flexibility Score: inf
ROOT
ATOM      1  C   UNL     1      -5.863  16.861 -61.014  1.00  0.00     0.000 C 
ENDROOT
BRANCH   1   2
ATOM      2  C   UNL     1      -7.396  16.765 -60.901  1.00  0.00     0.000 C 
BRANCH   2   3
ATOM      3  C   UNL     1      -7.989  15.377 -61.207  1.00  0.00     0.000 C 
BRANCH   3   4
ATOM      4  C   UNL     1      -9.041  15.406 -62.326  1.00  0.00     0.006 C 
BRANCH   4   5
ATOM      5  C   UNL     1      -9.002  16.739 -63.079  1.00  0.00     0.053 C 
BRANCH   5   6
ATOM      6  C   UNL     1      -9.601  16.588 -64.441  1.00  0.00     0.041 C 
ATOM      7  O   UNL     1      -9.725  15.445 -64.956  1.00  0.00    -0.550 OA
ATOM      8  O   UNL     1     -10.067  17.705 -65.123  1.00  0.00    -0.550 OA
ENDBRANCH   5   6
ENDBRANCH   4   5
ENDBRANCH   3   4
ENDBRANCH   2   3
ENDBRANCH   1   2
BRANCH   1   9
ATOM      9  C   UNL     1      -5.239  17.766 -59.938  1.00  0.00     0.000 C 
BRANCH   9  10
ATOM     10  C   UNL     1      -4.692  19.082 -60.516  1.00  0.00    -0.000 C 
BRANCH  10  11
ATOM     11  C   UNL     1      -5.391  20.321 -59.935  1.00  0.00    -0.000 C 
BRANCH  11  12
ATOM     12  C   UNL     1      -6.418  20.886 -60.928  1.00  0.00    -0.000 C 
BRANCH  12  13
ATOM     13  C   UNL     1      -6.053  20.587 -62.390  1.00  0.00    -0.003 C 
ATOM     14  C   UNL     1      -7.170  19.864 -63.142  1.00  0.00     0.004 C 
ENDBRANCH  12  13
ENDBRANCH  11  12
ENDBRANCH  10  11
ENDBRANCH   9  10
ENDBRANCH   1   9
TORSDOF 10
ENDMDL
MODEL 7
REMARK VINA RESULT:    -3.822     11.280     13.365
REMARK INTER + INTRA:          -7.381
REMARK INTER:                  -6.153
REMARK INTRA:                  -1.229
REMARK UNBOUND:                -1.326
REMARK SMILES CCCCCCCCCCCC(=O)[O-]
REMARK SMILES IDX 7 1 8 2 9 3 10 4 11 5 12 6 13 7 14 8 6 9 5 10 4 11 3 12 2 13
REMARK SMILES IDX 1 14
REMARK H PARENT
REMARK Flexibility Score: inf
ROOT
ATOM      1  C   UNL     1      -7.798  15.166 -60.925  1.00  0.00     0.000 C 
ENDROOT
BRANCH   1   2
ATOM      2  C   UNL     1      -7.272  16.569 -60.566  1.00  0.00     0.000 C 
BRANCH   2   3
ATOM      3  C   UNL     1      -5.765  16.783 -60.800  1.00  0.00     0.000 C 
BRANCH   3   4
ATOM      4  C   UNL     1      -5.176  17.906 -59.933  1.00  0.00     0.006 C 
BRANCH   4   5
ATOM      5  C   UNL     1      -4.972  19.182 -60.753  1.00  0.00     0.053 C 
BRANCH   5   6
ATOM      6  C   UNL     1      -5.647  20.342 -60.094  1.00  0.00     0.041 C 
ATOM      7  O   UNL     1      -5.315  20.691 -58.931  1.00  0.00    -0.550 OA
ATOM      8  O   UNL     1      -6.611  21.068 -60.782  1.00  0.00    -0.550 OA
ENDBRANCH   5   6
ENDBRANCH   4   5
ENDBRANCH   3   4
ENDBRANCH   2   3
ENDBRANCH   1   2
BRANCH   1   9
ATOM      9  C   UNL     1      -8.764  15.178 -62.123  1.00  0.00     0.000 C 
BRANCH   9  10
ATOM     10  C   UNL     1      -9.308  16.583 -62.429  1.00  0.00    -0.000 C 
BRANCH  10  11
ATOM     11  C   UNL     1      -9.125  16.982 -63.902  1.00  0.00    -0.000 C 
BRANCH  11  12
ATOM     12  C   UNL     1      -8.806  18.480 -64.027  1.00  0.00    -0.000 C 
BRANCH  12  13
ATOM     13  C   UNL     1      -7.390  18.825 -63.543  1.00  0.00    -0.003 C 
ATOM     14  C   UNL     1      -6.313  17.963 -64.201  1.00  0.00     0.004 C 
ENDBRANCH  12  13
ENDBRANCH  11  12
ENDBRANCH  10  11
ENDBRANCH   9  10
ENDBRANCH   1   9
TORSDOF 10
ENDMDL
MODEL 8
REMARK VINA RESULT:    -3.707      1.514      2.657
REMARK INTER + INTRA:          -7.200
REMARK INTER:                  -6.297
REMARK INTRA:                  -0.903
REMARK UNBOUND:                -1.326
REMARK SMILES CCCCCCCCCCCC(=O)[O-]
REMARK SMILES IDX 7 1 8 2 9 3 10 4 11 5 12 6 13 7 14 8 6 9 5 10 4 11 3 12 2 13
REMARK SMILES IDX 1 14
REMARK H PARENT
REMARK Flexibility Score: inf
ROOT
ATOM      1  C   UNL     1      -2.297   5.480 -58.580  1.00  0.00     0.000 C 
ENDROOT
BRANCH   1   2
ATOM      2  C   UNL     1      -3.028   6.685 -59.202  1.00  0.00     0.000 C 
BRANCH   2   3
ATOM      3  C   UNL     1      -2.883   8.009 -58.429  1.00  0.00     0.000 C 
BRANCH   3   4
ATOM      4  C   UNL     1      -4.218   8.533 -57.880  1.00  0.00     0.006 C 
BRANCH   4   5
ATOM      5  C   UNL     1      -5.386   8.092 -58.765  1.00  0.00     0.053 C 
BRANCH   5   6
ATOM      6  C   UNL     1      -6.449   7.437 -57.942  1.00  0.00     0.041 C 
ATOM      7  O   UNL     1      -7.648   7.809 -58.041  1.00  0.00    -0.550 OA
ATOM      8  O   UNL     1      -6.124   6.382 -57.099  1.00  0.00    -0.550 OA
ENDBRANCH   5   6
ENDBRANCH   4   5
ENDBRANCH   3   4
ENDBRANCH   2   3
ENDBRANCH   1   2
BRANCH   1   9
ATOM      9  C   UNL     1      -0.839   5.794 -58.202  1.00  0.00     0.000 C 
BRANCH   9  10
ATOM     10  C   UNL     1      -0.489   5.344 -56.774  1.00  0.00    -0.000 C 
BRANCH  10  11
ATOM     11  C   UNL     1      -1.596   5.674 -55.760  1.00  0.00    -0.000 C 
BRANCH  11  12
ATOM     12  C   UNL     1      -1.311   7.008 -55.053  1.00  0.00    -0.000 C 
BRANCH  12  13
ATOM     13  C   UNL     1      -0.377   6.849 -53.844  1.00  0.00    -0.003 C 
ATOM     14  C   UNL     1       0.278   8.165 -53.425  1.00  0.00     0.004 C 
ENDBRANCH  12  13
ENDBRANCH  11  12
ENDBRANCH  10  11
ENDBRANCH   9  10
ENDBRANCH   1   9
TORSDOF 10
ENDMDL
MODEL 9
REMARK VINA RESULT:    -3.672      3.780      5.476
REMARK INTER + INTRA:          -7.144
REMARK INTER:                  -6.026
REMARK INTRA:                  -1.119
REMARK UNBOUND:                -1.326
REMARK SMILES CCCCCCCCCCCC(=O)[O-]
REMARK SMILES IDX 7 1 8 2 9 3 10 4 11 5 12 6 13 7 14 8 6 9 5 10 4 11 3 12 2 13
REMARK SMILES IDX 1 14
REMARK H PARENT
REMARK Flexibility Score: inf
ROOT
ATOM      1  C   UNL     1      -4.809   7.188 -56.640  1.00  0.00     0.000 C 
ENDROOT
BRANCH   1   2
ATOM      2  C   UNL     1      -4.567   5.687 -56.391  1.00  0.00     0.000 C 
BRANCH   2   3
ATOM      3  C   UNL     1      -3.136   5.318 -55.959  1.00  0.00     0.000 C 
BRANCH   3   4
ATOM      4  C   UNL     1      -2.249   6.546 -55.706  1.00  0.00     0.006 C 
BRANCH   4   5
ATOM      5  C   UNL     1      -0.776   6.221 -55.969  1.00  0.00     0.053 C 
BRANCH   5   6
ATOM      6  C   UNL     1       0.038   6.447 -54.735  1.00  0.00     0.041 C 
ATOM      7  O   UNL     1       0.283   7.619 -54.343  1.00  0.00    -0.550 OA
ATOM      8  O   UNL     1       0.487   5.364 -53.990  1.00  0.00    -0.550 OA
ENDBRANCH   5   6
ENDBRANCH   4   5
ENDBRANCH   3   4
ENDBRANCH   2   3
ENDBRANCH   1   2
BRANCH   1   9
ATOM      9  C   UNL     1      -5.561   7.464 -57.954  1.00  0.00     0.000 C 
BRANCH   9  10
ATOM     10  C   UNL     1      -4.644   8.023 -59.054  1.00  0.00    -0.000 C 
BRANCH  10  11
ATOM     11  C   UNL     1      -3.183   8.156 -58.596  1.00  0.00    -0.000 C 
BRANCH  11  12
ATOM     12  C   UNL     1      -2.259   7.272 -59.450  1.00  0.00    -0.000 C 
BRANCH  12  13
ATOM     13  C   UNL     1      -2.806   5.848 -59.630  1.00  0.00    -0.003 C 
ATOM     14  C   UNL     1      -3.373   5.605 -61.028  1.00  0.00     0.004 C 
ENDBRANCH  12  13
ENDBRANCH  11  12
ENDBRANCH  10  11
ENDBRANCH   9  10
ENDBRANCH   1   9
TORSDOF 10
ENDMDL
