MODEL 1
REMARK VINA RESULT:    -4.467      0.000      0.000
REMARK INTER + INTRA:         -17.359
REMARK INTER:                 -11.257
REMARK INTRA:                  -6.101
REMARK UNBOUND:                -6.101
REMARK SMILES CCCCCCCCCCCCCCCCCCCCCCCCCCCC(=O)[O-]
REMARK SMILES IDX 15 1 16 2 17 3 18 4 19 5 20 6 21 7 22 8 23 9 24 10 25 11
REMARK SMILES IDX 26 12 27 13 28 14 29 15 30 16 14 17 13 18 12 19 11 20 10 21
REMARK SMILES IDX 9 22 8 23 7 24 6 25 5 26 4 27 3 28 2 29 1 30
REMARK H PARENT
REMARK Flexibility Score: inf
ROOT
ATOM      1  C   UNL     1      17.350  -0.315  22.948  1.00  0.00     0.000 C 
ENDROOT
BRANCH   1   2
ATOM      2  C   UNL     1      18.692  -0.386  23.695  1.00  0.00     0.000 C 
BRANCH   2   3
ATOM      3  C   UNL     1      19.889  -0.041  22.796  1.00  0.00     0.000 C 
BRANCH   3   4
ATOM      4  C   UNL     1      21.154   0.189  23.635  1.00  0.00     0.000 C 
BRANCH   4   5
ATOM      5  C   UNL     1      21.984  -1.093  23.831  1.00  0.00     0.000 C 
BRANCH   5   6
ATOM      6  C   UNL     1      22.729  -1.586  22.574  1.00  0.00     0.000 C 
BRANCH   6   7
ATOM      7  C   UNL     1      22.310  -2.981  22.068  1.00  0.00     0.000 C 
BRANCH   7   8
ATOM      8  C   UNL     1      22.195  -3.104  20.538  1.00  0.00     0.000 C 
BRANCH   8   9
ATOM      9  C   UNL     1      22.423  -4.542  20.038  1.00  0.00     0.000 C 
BRANCH   9  10
ATOM     10  C   UNL     1      21.168  -5.147  19.391  1.00  0.00     0.000 C 
BRANCH  10  11
ATOM     11  C   UNL     1      20.678  -6.408  20.124  1.00  0.00     0.000 C 
BRANCH  11  12
ATOM     12  C   UNL     1      19.222  -6.726  19.757  1.00  0.00     0.006 C 
BRANCH  12  13
ATOM     13  C   UNL     1      18.875  -6.291  18.327  1.00  0.00     0.053 C 
BRANCH  13  14
ATOM     14  C   UNL     1      17.394  -6.214  18.115  1.00  0.00     0.041 C 
ATOM     15  O   UNL     1      16.607  -6.785  18.913  1.00  0.00    -0.550 OA
ATOM     16  O   UNL     1      16.881  -5.479  17.053  1.00  0.00    -0.550 OA
ENDBRANCH  13  14
ENDBRANCH  12  13
ENDBRANCH  11  12
ENDBRANCH  10  11
ENDBRANCH   9  10
ENDBRANCH   8   9
ENDBRANCH   7   8
ENDBRANCH   6   7
ENDBRANCH   5   6
ENDBRANCH   4   5
ENDBRANCH   3   4
ENDBRANCH   2   3
ENDBRANCH   1   2
BRANCH   1  17
ATOM     17  C   UNL     1      16.363  -1.401  23.411  1.00  0.00     0.000 C 
BRANCH  17  18
ATOM     18  C   UNL     1      16.427  -1.653  24.925  1.00  0.00     0.000 C 
BRANCH  18  19
ATOM     19  C   UNL     1      15.947  -3.060  25.315  1.00  0.00     0.000 C 
BRANCH  19  20
ATOM     20  C   UNL     1      16.906  -4.135  24.794  1.00  0.00     0.000 C 
BRANCH  20  21
ATOM     21  C   UNL     1      18.357  -3.805  25.172  1.00  0.00     0.000 C 
BRANCH  21  22
ATOM     22  C   UNL     1      19.350  -4.080  24.031  1.00  0.00    -0.000 C 
BRANCH  22  23
ATOM     23  C   UNL     1      18.680  -4.601  22.741  1.00  0.00    -0.000 C 
BRANCH  23  24
ATOM     24  C   UNL     1      18.668  -3.540  21.626  1.00  0.00    -0.000 C 
BRANCH  24  25
ATOM     25  C   UNL     1      17.400  -3.607  20.748  1.00  0.00    -0.000 C 
BRANCH  25  26
ATOM     26  C   UNL     1      17.480  -2.758  19.465  1.00  0.00    -0.000 C 
BRANCH  26  27
ATOM     27  C   UNL     1      18.899  -2.351  19.034  1.00  0.00    -0.000 C 
BRANCH  27  28
ATOM     28  C   UNL     1      19.168  -0.833  18.988  1.00  0.00    -0.000 C 
BRANCH  28  29
ATOM     29  C   UNL     1      17.940   0.036  19.328  1.00  0.00    -0.003 C 
ATOM     30  C   UNL     1      18.312   1.438  19.820  1.00  0.00     0.004 C 
ENDBRANCH  28  29
ENDBRANCH  27  28
ENDBRANCH  26  27
ENDBRANCH  25  26
ENDBRANCH  24  25
ENDBRANCH  23  24
ENDBRANCH  22  23
ENDBRANCH  21  22
ENDBRANCH  20  21
ENDBRANCH  19  20
ENDBRANCH  18  19
ENDBRANCH  17  18
ENDBRANCH   1  17
TORSDOF 26
ENDMDL
MODEL 2
REMARK VINA RESULT:    -4.435      1.778      5.193
REMARK INTER + INTRA:         -17.278
REMARK INTER:                 -11.554
REMARK INTRA:                  -5.724
REMARK UNBOUND:                -6.101
REMARK SMILES CCCCCCCCCCCCCCCCCCCCCCCCCCCC(=O)[O-]
REMARK SMILES IDX 15 1 16 2 17 3 18 4 19 5 20 6 21 7 22 8 23 9 24 10 25 11
REMARK SMILES IDX 26 12 27 13 28 14 29 15 30 16 14 17 13 18 12 19 11 20 10 21
REMARK SMILES IDX 9 22 8 23 7 24 6 25 5 26 4 27 3 28 2 29 1 30
REMARK H PARENT
REMARK Flexibility Score: inf
ROOT
ATOM      1  C   UNL     1      21.006  -2.624  17.767  1.00  0.00     0.000 C 
ENDROOT
BRANCH   1   2
ATOM      2  C   UNL     1      22.393  -2.678  18.430  1.00  0.00     0.000 C 
BRANCH   2   3
ATOM      3  C   UNL     1      23.097  -4.026  18.219  1.00  0.00     0.000 C 
BRANCH   3   4
ATOM      4  C   UNL     1      22.566  -4.729  16.962  1.00  0.00     0.000 C 
BRANCH   4   5
ATOM      5  C   UNL     1      22.668  -6.263  17.046  1.00  0.00     0.000 C 
BRANCH   5   6
ATOM      6  C   UNL     1      21.318  -7.007  17.069  1.00  0.00     0.000 C 
BRANCH   6   7
ATOM      7  C   UNL     1      20.223  -6.354  17.937  1.00  0.00     0.000 C 
BRANCH   7   8
ATOM      8  C   UNL     1      20.377  -6.587  19.451  1.00  0.00     0.000 C 
BRANCH   8   9
ATOM      9  C   UNL     1      19.023  -6.707  20.174  1.00  0.00     0.000 C 
BRANCH   9  10
ATOM     10  C   UNL     1      18.225  -5.394  20.153  1.00  0.00     0.000 C 
BRANCH  10  11
ATOM     11  C   UNL     1      16.832  -5.562  19.525  1.00  0.00     0.000 C 
BRANCH  11  12
ATOM     12  C   UNL     1      16.356  -4.251  18.884  1.00  0.00     0.006 C 
BRANCH  12  13
ATOM     13  C   UNL     1      16.760  -4.146  17.408  1.00  0.00     0.053 C 
BRANCH  13  14
ATOM     14  C   UNL     1      15.826  -4.911  16.521  1.00  0.00     0.041 C 
ATOM     15  O   UNL     1      14.583  -4.732  16.602  1.00  0.00    -0.550 OA
ATOM     16  O   UNL     1      16.331  -5.797  15.578  1.00  0.00    -0.550 OA
ENDBRANCH  13  14
ENDBRANCH  12  13
ENDBRANCH  11  12
ENDBRANCH  10  11
ENDBRANCH   9  10
ENDBRANCH   8   9
ENDBRANCH   7   8
ENDBRANCH   6   7
ENDBRANCH   5   6
ENDBRANCH   4   5
ENDBRANCH   3   4
ENDBRANCH   2   3
ENDBRANCH   1   2
BRANCH   1  17
ATOM     17  C   UNL     1      19.868  -2.508  18.795  1.00  0.00     0.000 C 
BRANCH  17  18
ATOM     18  C   UNL     1      19.400  -1.059  19.000  1.00  0.00     0.000 C 
BRANCH  18  19
ATOM     19  C   UNL     1      18.787  -0.822  20.389  1.00  0.00     0.000 C 
BRANCH  19  20
ATOM     20  C   UNL     1      18.397  -2.146  21.054  1.00  0.00     0.000 C 
BRANCH  20  21
ATOM     21  C   UNL     1      17.553  -1.900  22.312  1.00  0.00     0.000 C 
BRANCH  21  22
ATOM     22  C   UNL     1      16.577  -3.050  22.612  1.00  0.00    -0.000 C 
BRANCH  22  23
ATOM     23  C   UNL     1      17.173  -4.145  23.523  1.00  0.00    -0.000 C 
BRANCH  23  24
ATOM     24  C   UNL     1      18.012  -3.552  24.668  1.00  0.00    -0.000 C 
BRANCH  24  25
ATOM     25  C   UNL     1      19.463  -4.080  24.683  1.00  0.00    -0.000 C 
BRANCH  25  26
ATOM     26  C   UNL     1      19.912  -4.716  23.353  1.00  0.00    -0.000 C 
BRANCH  26  27
ATOM     27  C   UNL     1      21.389  -4.498  22.986  1.00  0.00    -0.000 C 
BRANCH  27  28
ATOM     28  C   UNL     1      21.641  -3.615  21.747  1.00  0.00    -0.000 C 
BRANCH  28  29
ATOM     29  C   UNL     1      22.352  -2.282  22.055  1.00  0.00    -0.003 C 
ATOM     30  C   UNL     1      21.512  -1.339  22.921  1.00  0.00     0.004 C 
ENDBRANCH  28  29
ENDBRANCH  27  28
ENDBRANCH  26  27
ENDBRANCH  25  26
ENDBRANCH  24  25
ENDBRANCH  23  24
ENDBRANCH  22  23
ENDBRANCH  21  22
ENDBRANCH  20  21
ENDBRANCH  19  20
ENDBRANCH  18  19
ENDBRANCH  17  18
ENDBRANCH   1  17
TORSDOF 26
ENDMDL
MODEL 3
REMARK VINA RESULT:    -4.326      1.463      4.445
REMARK INTER + INTRA:         -17.002
REMARK INTER:                 -11.728
REMARK INTRA:                  -5.274
REMARK UNBOUND:                -6.101
REMARK SMILES CCCCCCCCCCCCCCCCCCCCCCCCCCCC(=O)[O-]
REMARK SMILES IDX 15 1 16 2 17 3 18 4 19 5 20 6 21 7 22 8 23 9 24 10 25 11
REMARK SMILES IDX 26 12 27 13 28 14 29 15 30 16 14 17 13 18 12 19 11 20 10 21
REMARK SMILES IDX 9 22 8 23 7 24 6 25 5 26 4 27 3 28 2 29 1 30
REMARK H PARENT
REMARK Flexibility Score: inf
ROOT
ATOM      1  C   UNL     1      19.056  -0.611  22.794  1.00  0.00     0.000 C 
ENDROOT
BRANCH   1   2
ATOM      2  C   UNL     1      19.074  -1.476  21.523  1.00  0.00     0.000 C 
BRANCH   2   3
ATOM      3  C   UNL     1      19.328  -0.654  20.251  1.00  0.00     0.000 C 
BRANCH   3   4
ATOM      4  C   UNL     1      18.925  -1.447  18.999  1.00  0.00     0.000 C 
BRANCH   4   5
ATOM      5  C   UNL     1      20.129  -2.089  18.285  1.00  0.00     0.000 C 
BRANCH   5   6
ATOM      6  C   UNL     1      20.631  -3.408  18.906  1.00  0.00     0.000 C 
BRANCH   6   7
ATOM      7  C   UNL     1      21.100  -4.473  17.895  1.00  0.00     0.000 C 
BRANCH   7   8
ATOM      8  C   UNL     1      20.264  -5.766  17.885  1.00  0.00     0.000 C 
BRANCH   8   9
ATOM      9  C   UNL     1      20.337  -6.529  19.220  1.00  0.00     0.000 C 
BRANCH   9  10
ATOM     10  C   UNL     1      18.948  -6.841  19.798  1.00  0.00     0.000 C 
BRANCH  10  11
ATOM     11  C   UNL     1      18.104  -5.574  20.014  1.00  0.00     0.000 C 
BRANCH  11  12
ATOM     12  C   UNL     1      16.795  -5.643  19.214  1.00  0.00     0.006 C 
BRANCH  12  13
ATOM     13  C   UNL     1      16.172  -4.258  18.999  1.00  0.00     0.053 C 
BRANCH  13  14
ATOM     14  C   UNL     1      16.345  -3.785  17.587  1.00  0.00     0.041 C 
ATOM     15  O   UNL     1      17.309  -4.198  16.893  1.00  0.00    -0.550 OA
ATOM     16  O   UNL     1      15.418  -2.915  17.027  1.00  0.00    -0.550 OA
ENDBRANCH  13  14
ENDBRANCH  12  13
ENDBRANCH  11  12
ENDBRANCH  10  11
ENDBRANCH   9  10
ENDBRANCH   8   9
ENDBRANCH   7   8
ENDBRANCH   6   7
ENDBRANCH   5   6
ENDBRANCH   4   5
ENDBRANCH   3   4
ENDBRANCH   2   3
ENDBRANCH   1   2
BRANCH   1  17
ATOM     17  C   UNL     1      20.057   0.556  22.725  1.00  0.00     0.000 C 
BRANCH  17  18
ATOM     18  C   UNL     1      21.205   0.411  23.736  1.00  0.00     0.000 C 
BRANCH  18  19
ATOM     19  C   UNL     1      21.722  -1.031  23.849  1.00  0.00     0.000 C 
BRANCH  19  20
ATOM     20  C   UNL     1      22.688  -1.363  22.706  1.00  0.00     0.000 C 
BRANCH  20  21
ATOM     21  C   UNL     1      22.345  -2.718  22.075  1.00  0.00     0.000 C 
BRANCH  21  22
ATOM     22  C   UNL     1      21.689  -3.692  23.068  1.00  0.00    -0.000 C 
BRANCH  22  23
ATOM     23  C   UNL     1      20.695  -4.672  22.407  1.00  0.00    -0.000 C 
BRANCH  23  24
ATOM     24  C   UNL     1      19.413  -4.844  23.241  1.00  0.00    -0.000 C 
BRANCH  24  25
ATOM     25  C   UNL     1      19.395  -3.953  24.502  1.00  0.00    -0.000 C 
BRANCH  25  26
ATOM     26  C   UNL     1      18.037  -3.924  25.230  1.00  0.00    -0.000 C 
BRANCH  26  27
ATOM     27  C   UNL     1      17.531  -2.526  25.623  1.00  0.00    -0.000 C 
BRANCH  27  28
ATOM     28  C   UNL     1      16.332  -2.002  24.807  1.00  0.00    -0.000 C 
BRANCH  28  29
ATOM     29  C   UNL     1      15.681  -3.059  23.892  1.00  0.00    -0.003 C 
ATOM     30  C   UNL     1      15.979  -2.833  22.407  1.00  0.00     0.004 C 
ENDBRANCH  28  29
ENDBRANCH  27  28
ENDBRANCH  26  27
ENDBRANCH  25  26
ENDBRANCH  24  25
ENDBRANCH  23  24
ENDBRANCH  22  23
ENDBRANCH  21  22
ENDBRANCH  20  21
ENDBRANCH  19  20
ENDBRANCH  18  19
ENDBRANCH  17  18
ENDBRANCH   1  17
TORSDOF 26
ENDMDL
MODEL 4
REMARK VINA RESULT:    -4.285      1.492      5.635
REMARK INTER + INTRA:         -16.899
REMARK INTER:                 -11.563
REMARK INTRA:                  -5.336
REMARK UNBOUND:                -6.101
REMARK SMILES CCCCCCCCCCCCCCCCCCCCCCCCCCCC(=O)[O-]
REMARK SMILES IDX 15 1 16 2 17 3 18 4 19 5 20 6 21 7 22 8 23 9 24 10 25 11
REMARK SMILES IDX 26 12 27 13 28 14 29 15 30 16 14 17 13 18 12 19 11 20 10 21
REMARK SMILES IDX 9 22 8 23 7 24 6 25 5 26 4 27 3 28 2 29 1 30
REMARK H PARENT
REMARK Flexibility Score: inf
ROOT
ATOM      1  C   UNL     1      20.404  -6.267  18.586  1.00  0.00     0.000 C 
ENDROOT
BRANCH   1   2
ATOM      2  C   UNL     1      20.316  -4.944  17.808  1.00  0.00     0.000 C 
BRANCH   2   3
ATOM      3  C   UNL     1      21.585  -4.090  17.947  1.00  0.00     0.000 C 
BRANCH   3   4
ATOM      4  C   UNL     1      21.227  -2.617  18.193  1.00  0.00     0.000 C 
BRANCH   4   5
ATOM      5  C   UNL     1      19.713  -2.388  18.356  1.00  0.00     0.000 C 
BRANCH   5   6
ATOM      6  C   UNL     1      19.324  -1.279  19.355  1.00  0.00     0.000 C 
BRANCH   6   7
ATOM      7  C   UNL     1      18.848  -1.776  20.735  1.00  0.00     0.000 C 
BRANCH   7   8
ATOM      8  C   UNL     1      17.330  -1.673  20.969  1.00  0.00     0.000 C 
BRANCH   8   9
ATOM      9  C   UNL     1      16.738  -2.950  21.591  1.00  0.00     0.000 C 
BRANCH   9  10
ATOM     10  C   UNL     1      16.888  -4.176  20.676  1.00  0.00     0.000 C 
BRANCH  10  11
ATOM     11  C   UNL     1      16.377  -3.911  19.251  1.00  0.00     0.000 C 
BRANCH  11  12
ATOM     12  C   UNL     1      16.631  -5.123  18.343  1.00  0.00     0.006 C 
BRANCH  12  13
ATOM     13  C   UNL     1      16.668  -4.738  16.858  1.00  0.00     0.053 C 
BRANCH  13  14
ATOM     14  C   UNL     1      16.305  -5.894  15.976  1.00  0.00     0.041 C 
ATOM     15  O   UNL     1      15.977  -5.699  14.777  1.00  0.00    -0.550 OA
ATOM     16  O   UNL     1      16.363  -7.191  16.470  1.00  0.00    -0.550 OA
ENDBRANCH  13  14
ENDBRANCH  12  13
ENDBRANCH  11  12
ENDBRANCH  10  11
ENDBRANCH   9  10
ENDBRANCH   8   9
ENDBRANCH   7   8
ENDBRANCH   6   7
ENDBRANCH   5   6
ENDBRANCH   4   5
ENDBRANCH   3   4
ENDBRANCH   2   3
ENDBRANCH   1   2
BRANCH   1  17
ATOM     17  C   UNL     1      21.070  -6.095  19.963  1.00  0.00     0.000 C 
BRANCH  17  18
ATOM     18  C   UNL     1      20.082  -5.632  21.045  1.00  0.00     0.000 C 
BRANCH  18  19
ATOM     19  C   UNL     1      20.671  -4.555  21.968  1.00  0.00     0.000 C 
BRANCH  19  20
ATOM     20  C   UNL     1      22.091  -4.173  21.534  1.00  0.00     0.000 C 
BRANCH  20  21
ATOM     21  C   UNL     1      22.360  -2.684  21.790  1.00  0.00     0.000 C 
BRANCH  21  22
ATOM     22  C   UNL     1      21.762  -2.187  23.117  1.00  0.00    -0.000 C 
BRANCH  22  23
ATOM     23  C   UNL     1      22.261  -0.787  23.534  1.00  0.00    -0.000 C 
BRANCH  23  24
ATOM     24  C   UNL     1      21.137   0.070  24.142  1.00  0.00    -0.000 C 
BRANCH  24  25
ATOM     25  C   UNL     1      19.728  -0.424  23.748  1.00  0.00    -0.000 C 
BRANCH  25  26
ATOM     26  C   UNL     1      18.641  -0.121  24.798  1.00  0.00    -0.000 C 
BRANCH  26  27
ATOM     27  C   UNL     1      17.358  -0.961  24.677  1.00  0.00    -0.000 C 
BRANCH  27  28
ATOM     28  C   UNL     1      17.091  -1.935  25.842  1.00  0.00    -0.000 C 
BRANCH  28  29
ATOM     29  C   UNL     1      17.148  -3.424  25.446  1.00  0.00    -0.003 C 
ATOM     30  C   UNL     1      18.458  -3.812  24.754  1.00  0.00     0.004 C 
ENDBRANCH  28  29
ENDBRANCH  27  28
ENDBRANCH  26  27
ENDBRANCH  25  26
ENDBRANCH  24  25
ENDBRANCH  23  24
ENDBRANCH  22  23
ENDBRANCH  21  22
ENDBRANCH  20  21
ENDBRANCH  19  20
ENDBRANCH  18  19
ENDBRANCH  17  18
ENDBRANCH   1  17
TORSDOF 26
ENDMDL
MODEL 5
REMARK VINA RESULT:    -4.269      2.407      5.170
REMARK INTER + INTRA:         -16.858
REMARK INTER:                 -11.215
REMARK INTRA:                  -5.643
REMARK UNBOUND:                -6.101
REMARK SMILES CCCCCCCCCCCCCCCCCCCCCCCCCCCC(=O)[O-]
REMARK SMILES IDX 15 1 16 2 17 3 18 4 19 5 20 6 21 7 22 8 23 9 24 10 25 11
REMARK SMILES IDX 26 12 27 13 28 14 29 15 30 16 14 17 13 18 12 19 11 20 10 21
REMARK SMILES IDX 9 22 8 23 7 24 6 25 5 26 4 27 3 28 2 29 1 30
REMARK H PARENT
REMARK Flexibility Score: inf
ROOT
ATOM      1  C   UNL     1      19.697   0.098  23.245  1.00  0.00     0.000 C 
ENDROOT
BRANCH   1   2
ATOM      2  C   UNL     1      18.569   0.986  23.796  1.00  0.00     0.000 C 
BRANCH   2   3
ATOM      3  C   UNL     1      17.240   0.231  23.944  1.00  0.00     0.000 C 
BRANCH   3   4
ATOM      4  C   UNL     1      17.071  -0.302  25.374  1.00  0.00     0.000 C 
BRANCH   4   5
ATOM      5  C   UNL     1      16.459  -1.715  25.419  1.00  0.00     0.000 C 
BRANCH   5   6
ATOM      6  C   UNL     1      17.465  -2.853  25.684  1.00  0.00     0.000 C 
BRANCH   6   7
ATOM      7  C   UNL     1      18.154  -3.427  24.429  1.00  0.00     0.000 C 
BRANCH   7   8
ATOM      8  C   UNL     1      17.257  -4.323  23.556  1.00  0.00     0.000 C 
BRANCH   8   9
ATOM      9  C   UNL     1      16.793  -3.621  22.267  1.00  0.00     0.000 C 
BRANCH   9  10
ATOM     10  C   UNL     1      17.854  -2.664  21.701  1.00  0.00     0.000 C 
BRANCH  10  11
ATOM     11  C   UNL     1      17.361  -1.909  20.456  1.00  0.00     0.000 C 
BRANCH  11  12
ATOM     12  C   UNL     1      18.164  -0.618  20.243  1.00  0.00     0.006 C 
BRANCH  12  13
ATOM     13  C   UNL     1      17.781   0.096  18.940  1.00  0.00     0.053 C 
BRANCH  13  14
ATOM     14  C   UNL     1      16.851   1.244  19.190  1.00  0.00     0.041 C 
ATOM     15  O   UNL     1      16.598   2.068  18.272  1.00  0.00    -0.550 OA
ATOM     16  O   UNL     1      16.234   1.384  20.426  1.00  0.00    -0.550 OA
ENDBRANCH  13  14
ENDBRANCH  12  13
ENDBRANCH  11  12
ENDBRANCH  10  11
ENDBRANCH   9  10
ENDBRANCH   8   9
ENDBRANCH   7   8
ENDBRANCH   6   7
ENDBRANCH   5   6
ENDBRANCH   4   5
ENDBRANCH   3   4
ENDBRANCH   2   3
ENDBRANCH   1   2
BRANCH   1  17
ATOM     17  C   UNL     1      20.923   0.062  24.174  1.00  0.00     0.000 C 
BRANCH  17  18
ATOM     18  C   UNL     1      21.853  -1.125  23.882  1.00  0.00     0.000 C 
BRANCH  18  19
ATOM     19  C   UNL     1      21.479  -1.871  22.591  1.00  0.00     0.000 C 
BRANCH  19  20
ATOM     20  C   UNL     1      21.531  -3.389  22.796  1.00  0.00     0.000 C 
BRANCH  20  21
ATOM     21  C   UNL     1      22.347  -4.063  21.685  1.00  0.00     0.000 C 
BRANCH  21  22
ATOM     22  C   UNL     1      21.616  -5.255  21.045  1.00  0.00    -0.000 C 
BRANCH  22  23
ATOM     23  C   UNL     1      20.119  -5.335  21.419  1.00  0.00    -0.000 C 
BRANCH  23  24
ATOM     24  C   UNL     1      19.348  -6.310  20.512  1.00  0.00    -0.000 C 
BRANCH  24  25
ATOM     25  C   UNL     1      18.468  -5.588  19.468  1.00  0.00    -0.000 C 
BRANCH  25  26
ATOM     26  C   UNL     1      19.028  -5.640  18.033  1.00  0.00    -0.000 C 
BRANCH  26  27
ATOM     27  C   UNL     1      20.156  -4.640  17.731  1.00  0.00    -0.000 C 
BRANCH  27  28
ATOM     28  C   UNL     1      19.869  -3.177  18.125  1.00  0.00    -0.000 C 
BRANCH  28  29
ATOM     29  C   UNL     1      21.117  -2.386  18.566  1.00  0.00    -0.003 C 
ATOM     30  C   UNL     1      22.430  -3.039  18.126  1.00  0.00     0.004 C 
ENDBRANCH  28  29
ENDBRANCH  27  28
ENDBRANCH  26  27
ENDBRANCH  25  26
ENDBRANCH  24  25
ENDBRANCH  23  24
ENDBRANCH  22  23
ENDBRANCH  21  22
ENDBRANCH  20  21
ENDBRANCH  19  20
ENDBRANCH  18  19
ENDBRANCH  17  18
ENDBRANCH   1  17
TORSDOF 26
ENDMDL
MODEL 6
REMARK VINA RESULT:    -4.266      4.783      8.569
REMARK INTER + INTRA:         -16.852
REMARK INTER:                 -12.656
REMARK INTRA:                  -4.197
REMARK UNBOUND:                -6.101
REMARK SMILES CCCCCCCCCCCCCCCCCCCCCCCCCCCC(=O)[O-]
REMARK SMILES IDX 15 1 16 2 17 3 18 4 19 5 20 6 21 7 22 8 23 9 24 10 25 11
REMARK SMILES IDX 26 12 27 13 28 14 29 15 30 16 14 17 13 18 12 19 11 20 10 21
REMARK SMILES IDX 9 22 8 23 7 24 6 25 5 26 4 27 3 28 2 29 1 30
REMARK H PARENT
REMARK Flexibility Score: inf
ROOT
ATOM      1  C   UNL     1      19.351   8.510  21.778  1.00  0.00     0.000 C 
ENDROOT
BRANCH   1   2
ATOM      2  C   UNL     1      18.564   7.278  22.255  1.00  0.00     0.000 C 
BRANCH   2   3
ATOM      3  C   UNL     1      18.279   7.305  23.764  1.00  0.00     0.000 C 
BRANCH   3   4
ATOM      4  C   UNL     1      17.522   6.042  24.199  1.00  0.00     0.000 C 
BRANCH   4   5
ATOM      5  C   UNL     1      17.168   5.120  23.018  1.00  0.00     0.000 C 
BRANCH   5   6
ATOM      6  C   UNL     1      16.340   3.873  23.388  1.00  0.00     0.000 C 
BRANCH   6   7
ATOM      7  C   UNL     1      16.855   3.081  24.608  1.00  0.00     0.000 C 
BRANCH   7   8
ATOM      8  C   UNL     1      17.380   1.670  24.285  1.00  0.00     0.000 C 
BRANCH   8   9
ATOM      9  C   UNL     1      17.032   0.644  25.379  1.00  0.00     0.000 C 
BRANCH   9  10
ATOM     10  C   UNL     1      17.804  -0.675  25.216  1.00  0.00     0.000 C 
BRANCH  10  11
ATOM     11  C   UNL     1      16.873  -1.876  24.982  1.00  0.00     0.000 C 
BRANCH  11  12
ATOM     12  C   UNL     1      17.572  -3.193  25.346  1.00  0.00     0.006 C 
BRANCH  12  13
ATOM     13  C   UNL     1      18.856  -3.413  24.536  1.00  0.00     0.053 C 
BRANCH  13  14
ATOM     14  C   UNL     1      18.562  -3.666  23.089  1.00  0.00     0.041 C 
ATOM     15  O   UNL     1      18.282  -4.826  22.691  1.00  0.00    -0.550 OA
ATOM     16  O   UNL     1      18.561  -2.611  22.184  1.00  0.00    -0.550 OA
ENDBRANCH  13  14
ENDBRANCH  12  13
ENDBRANCH  11  12
ENDBRANCH  10  11
ENDBRANCH   9  10
ENDBRANCH   8   9
ENDBRANCH   7   8
ENDBRANCH   6   7
ENDBRANCH   5   6
ENDBRANCH   4   5
ENDBRANCH   3   4
ENDBRANCH   2   3
ENDBRANCH   1   2
BRANCH   1  17
ATOM     17  C   UNL     1      20.132   8.241  20.480  1.00  0.00     0.000 C 
BRANCH  17  18
ATOM     18  C   UNL     1      21.607   7.894  20.738  1.00  0.00     0.000 C 
BRANCH  18  19
ATOM     19  C   UNL     1      22.154   8.535  22.023  1.00  0.00     0.000 C 
BRANCH  19  20
ATOM     20  C   UNL     1      22.757   7.477  22.954  1.00  0.00     0.000 C 
BRANCH  20  21
ATOM     21  C   UNL     1      21.920   7.332  24.233  1.00  0.00     0.000 C 
BRANCH  21  22
ATOM     22  C   UNL     1      21.427   5.895  24.465  1.00  0.00    -0.000 C 
BRANCH  22  23
ATOM     23  C   UNL     1      21.262   5.080  23.163  1.00  0.00    -0.000 C 
BRANCH  23  24
ATOM     24  C   UNL     1      20.632   3.700  23.421  1.00  0.00    -0.000 C 
BRANCH  24  25
ATOM     25  C   UNL     1      20.618   3.319  24.917  1.00  0.00    -0.000 C 
BRANCH  25  26
ATOM     26  C   UNL     1      20.916   1.831  25.188  1.00  0.00    -0.000 C 
BRANCH  26  27
ATOM     27  C   UNL     1      21.111   0.961  23.935  1.00  0.00    -0.000 C 
BRANCH  27  28
ATOM     28  C   UNL     1      21.583  -0.483  24.197  1.00  0.00    -0.000 C 
BRANCH  28  29
ATOM     29  C   UNL     1      22.585  -1.019  23.153  1.00  0.00    -0.003 C 
ATOM     30  C   UNL     1      22.038  -2.198  22.345  1.00  0.00     0.004 C 
ENDBRANCH  28  29
ENDBRANCH  27  28
ENDBRANCH  26  27
ENDBRANCH  25  26
ENDBRANCH  24  25
ENDBRANCH  23  24
ENDBRANCH  22  23
ENDBRANCH  21  22
ENDBRANCH  20  21
ENDBRANCH  19  20
ENDBRANCH  18  19
ENDBRANCH  17  18
ENDBRANCH   1  17
TORSDOF 26
ENDMDL
MODEL 7
REMARK VINA RESULT:    -4.243     11.907     15.694
REMARK INTER + INTRA:         -16.792
REMARK INTER:                 -12.625
REMARK INTRA:                  -4.168
REMARK UNBOUND:                -6.101
REMARK SMILES CCCCCCCCCCCCCCCCCCCCCCCCCCCC(=O)[O-]
REMARK SMILES IDX 15 1 16 2 17 3 18 4 19 5 20 6 21 7 22 8 23 9 24 10 25 11
REMARK SMILES IDX 26 12 27 13 28 14 29 15 30 16 14 17 13 18 12 19 11 20 10 21
REMARK SMILES IDX 9 22 8 23 7 24 6 25 5 26 4 27 3 28 2 29 1 30
REMARK H PARENT
REMARK Flexibility Score: inf
ROOT
ATOM      1  C   UNL     1      14.530   1.881   8.414  1.00  0.00     0.000 C 
ENDROOT
BRANCH   1   2
ATOM      2  C   UNL     1      13.653   1.457   7.224  1.00  0.00     0.000 C 
BRANCH   2   3
ATOM      3  C   UNL     1      13.390   2.608   6.243  1.00  0.00     0.000 C 
BRANCH   3   4
ATOM      4  C   UNL     1      14.344   3.782   6.510  1.00  0.00     0.000 C 
BRANCH   4   5
ATOM      5  C   UNL     1      13.707   5.151   6.208  1.00  0.00     0.000 C 
BRANCH   5   6
ATOM      6  C   UNL     1      12.864   5.745   7.355  1.00  0.00     0.000 C 
BRANCH   6   7
ATOM      7  C   UNL     1      13.337   5.376   8.776  1.00  0.00     0.000 C 
BRANCH   7   8
ATOM      8  C   UNL     1      12.282   5.578   9.879  1.00  0.00     0.000 C 
BRANCH   8   9
ATOM      9  C   UNL     1      12.344   4.490  10.966  1.00  0.00     0.000 C 
BRANCH   9  10
ATOM     10  C   UNL     1      13.784   4.066  11.295  1.00  0.00     0.000 C 
BRANCH  10  11
ATOM     11  C   UNL     1      13.840   2.849  12.232  1.00  0.00     0.000 C 
BRANCH  11  12
ATOM     12  C   UNL     1      15.289   2.512  12.609  1.00  0.00     0.006 C 
BRANCH  12  13
ATOM     13  C   UNL     1      16.274   3.597  12.158  1.00  0.00     0.053 C 
BRANCH  13  14
ATOM     14  C   UNL     1      17.007   4.198  13.318  1.00  0.00     0.041 C 
ATOM     15  O   UNL     1      18.264   4.172  13.358  1.00  0.00    -0.550 OA
ATOM     16  O   UNL     1      16.301   4.820  14.340  1.00  0.00    -0.550 OA
ENDBRANCH  13  14
ENDBRANCH  12  13
ENDBRANCH  11  12
ENDBRANCH  10  11
ENDBRANCH   9  10
ENDBRANCH   8   9
ENDBRANCH   7   8
ENDBRANCH   6   7
ENDBRANCH   5   6
ENDBRANCH   4   5
ENDBRANCH   3   4
ENDBRANCH   2   3
ENDBRANCH   1   2
BRANCH   1  17
ATOM     17  C   UNL     1      14.925   0.691   9.307  1.00  0.00     0.000 C 
BRANCH  17  18
ATOM     18  C   UNL     1      15.470  -0.498   8.501  1.00  0.00     0.000 C 
BRANCH  18  19
ATOM     19  C   UNL     1      14.872  -1.842   8.944  1.00  0.00     0.000 C 
BRANCH  19  20
ATOM     20  C   UNL     1      14.534  -2.722   7.736  1.00  0.00     0.000 C 
BRANCH  20  21
ATOM     21  C   UNL     1      13.265  -2.223   7.032  1.00  0.00     0.000 C 
BRANCH  21  22
ATOM     22  C   UNL     1      12.313  -3.364   6.636  1.00  0.00    -0.000 C 
BRANCH  22  23
ATOM     23  C   UNL     1      10.959  -3.324   7.376  1.00  0.00    -0.000 C 
BRANCH  23  24
ATOM     24  C   UNL     1      10.874  -2.147   8.364  1.00  0.00    -0.000 C 
BRANCH  24  25
ATOM     25  C   UNL     1       9.596  -2.184   9.230  1.00  0.00    -0.000 C 
BRANCH  25  26
ATOM     26  C   UNL     1       8.568  -1.091   8.878  1.00  0.00    -0.000 C 
BRANCH  26  27
ATOM     27  C   UNL     1       8.613   0.164   9.764  1.00  0.00    -0.000 C 
BRANCH  27  28
ATOM     28  C   UNL     1       8.786   1.500   9.013  1.00  0.00    -0.000 C 
BRANCH  28  29
ATOM     29  C   UNL     1      10.254   1.926   8.811  1.00  0.00    -0.003 C 
ATOM     30  C   UNL     1      11.190   1.391   9.899  1.00  0.00     0.004 C 
ENDBRANCH  28  29
ENDBRANCH  27  28
ENDBRANCH  26  27
ENDBRANCH  25  26
ENDBRANCH  24  25
ENDBRANCH  23  24
ENDBRANCH  22  23
ENDBRANCH  21  22
ENDBRANCH  20  21
ENDBRANCH  19  20
ENDBRANCH  18  19
ENDBRANCH  17  18
ENDBRANCH   1  17
TORSDOF 26
ENDMDL
MODEL 8
REMARK VINA RESULT:    -4.213     12.524     15.583
REMARK INTER + INTRA:         -16.717
REMARK INTER:                 -11.783
REMARK INTRA:                  -4.934
REMARK UNBOUND:                -6.101
REMARK SMILES CCCCCCCCCCCCCCCCCCCCCCCCCCCC(=O)[O-]
REMARK SMILES IDX 15 1 16 2 17 3 18 4 19 5 20 6 21 7 22 8 23 9 24 10 25 11
REMARK SMILES IDX 26 12 27 13 28 14 29 15 30 16 14 17 13 18 12 19 11 20 10 21
REMARK SMILES IDX 9 22 8 23 7 24 6 25 5 26 4 27 3 28 2 29 1 30
REMARK H PARENT
REMARK Flexibility Score: inf
ROOT
ATOM      1  C   UNL     1       6.409   3.720  12.274  1.00  0.00     0.000 C 
ENDROOT
BRANCH   1   2
ATOM      2  C   UNL     1       5.717   2.388  12.609  1.00  0.00     0.000 C 
BRANCH   2   3
ATOM      3  C   UNL     1       4.448   2.155  11.776  1.00  0.00     0.000 C 
BRANCH   3   4
ATOM      4  C   UNL     1       3.236   1.905  12.686  1.00  0.00     0.000 C 
BRANCH   4   5
ATOM      5  C   UNL     1       3.528   2.208  14.167  1.00  0.00     0.000 C 
BRANCH   5   6
ATOM      6  C   UNL     1       2.879   1.235  15.172  1.00  0.00     0.000 C 
BRANCH   6   7
ATOM      7  C   UNL     1       3.695  -0.038  15.475  1.00  0.00     0.000 C 
BRANCH   7   8
ATOM      8  C   UNL     1       5.211   0.187  15.619  1.00  0.00     0.000 C 
BRANCH   8   9
ATOM      9  C   UNL     1       6.032  -0.635  14.610  1.00  0.00     0.000 C 
BRANCH   9  10
ATOM     10  C   UNL     1       5.161  -1.249  13.502  1.00  0.00     0.000 C 
BRANCH  10  11
ATOM     11  C   UNL     1       5.901  -1.345  12.158  1.00  0.00     0.000 C 
BRANCH  11  12
ATOM     12  C   UNL     1       7.404  -1.092  12.339  1.00  0.00     0.006 C 
BRANCH  12  13
ATOM     13  C   UNL     1       7.990  -0.235  11.210  1.00  0.00     0.053 C 
BRANCH  13  14
ATOM     14  C   UNL     1       8.611  -1.078  10.139  1.00  0.00     0.041 C 
ATOM     15  O   UNL     1       8.895  -2.283  10.363  1.00  0.00    -0.550 OA
ATOM     16  O   UNL     1       8.843  -0.541   8.878  1.00  0.00    -0.550 OA
ENDBRANCH  13  14
ENDBRANCH  12  13
ENDBRANCH  11  12
ENDBRANCH  10  11
ENDBRANCH   9  10
ENDBRANCH   8   9
ENDBRANCH   7   8
ENDBRANCH   6   7
ENDBRANCH   5   6
ENDBRANCH   4   5
ENDBRANCH   3   4
ENDBRANCH   2   3
ENDBRANCH   1   2
BRANCH   1  17
ATOM     17  C   UNL     1       7.795   3.842  12.931  1.00  0.00     0.000 C 
BRANCH  17  18
ATOM     18  C   UNL     1       8.058   2.741  13.970  1.00  0.00     0.000 C 
BRANCH  18  19
ATOM     19  C   UNL     1       7.935   3.246  15.417  1.00  0.00     0.000 C 
BRANCH  19  20
ATOM     20  C   UNL     1       8.105   4.767  15.487  1.00  0.00     0.000 C 
BRANCH  20  21
ATOM     21  C   UNL     1       7.720   5.297  16.875  1.00  0.00     0.000 C 
BRANCH  21  22
ATOM     22  C   UNL     1       6.873   4.300  17.682  1.00  0.00    -0.000 C 
BRANCH  22  23
ATOM     23  C   UNL     1       7.440   4.002  19.087  1.00  0.00    -0.000 C 
BRANCH  23  24
ATOM     24  C   UNL     1       7.870   2.532  19.237  1.00  0.00    -0.000 C 
BRANCH  24  25
ATOM     25  C   UNL     1       6.880   1.549  18.576  1.00  0.00    -0.000 C 
BRANCH  25  26
ATOM     26  C   UNL     1       7.321   0.073  18.645  1.00  0.00    -0.000 C 
BRANCH  26  27
ATOM     27  C   UNL     1       8.299  -0.372  17.545  1.00  0.00    -0.000 C 
BRANCH  27  28
ATOM     28  C   UNL     1       8.766  -1.840  17.628  1.00  0.00    -0.000 C 
BRANCH  28  29
ATOM     29  C   UNL     1       8.498  -2.660  16.350  1.00  0.00    -0.003 C 
ATOM     30  C   UNL     1       9.708  -2.728  15.414  1.00  0.00     0.004 C 
ENDBRANCH  28  29
ENDBRANCH  27  28
ENDBRANCH  26  27
ENDBRANCH  25  26
ENDBRANCH  24  25
ENDBRANCH  23  24
ENDBRANCH  22  23
ENDBRANCH  21  22
ENDBRANCH  20  21
ENDBRANCH  19  20
ENDBRANCH  18  19
ENDBRANCH  17  18
ENDBRANCH   1  17
TORSDOF 26
ENDMDL
MODEL 9
REMARK VINA RESULT:    -4.174     11.476     14.773
REMARK INTER + INTRA:         -16.620
REMARK INTER:                 -11.705
REMARK INTRA:                  -4.915
REMARK UNBOUND:                -6.101
REMARK SMILES CCCCCCCCCCCCCCCCCCCCCCCCCCCC(=O)[O-]
REMARK SMILES IDX 15 1 16 2 17 3 18 4 19 5 20 6 21 7 22 8 23 9 24 10 25 11
REMARK SMILES IDX 26 12 27 13 28 14 29 15 30 16 14 17 13 18 12 19 11 20 10 21
REMARK SMILES IDX 9 22 8 23 7 24 6 25 5 26 4 27 3 28 2 29 1 30
REMARK H PARENT
REMARK Flexibility Score: inf
ROOT
ATOM      1  C   UNL     1       8.916   2.569  13.929  1.00  0.00     0.000 C 
ENDROOT
BRANCH   1   2
ATOM      2  C   UNL     1       7.880   2.399  15.052  1.00  0.00     0.000 C 
BRANCH   2   3
ATOM      3  C   UNL     1       6.465   2.133  14.516  1.00  0.00     0.000 C 
BRANCH   3   4
ATOM      4  C   UNL     1       5.489   1.853  15.668  1.00  0.00     0.000 C 
BRANCH   4   5
ATOM      5  C   UNL     1       5.808   0.546  16.417  1.00  0.00     0.000 C 
BRANCH   5   6
ATOM      6  C   UNL     1       6.153   0.717  17.911  1.00  0.00     0.000 C 
BRANCH   6   7
ATOM      7  C   UNL     1       7.223  -0.254  18.452  1.00  0.00     0.000 C 
BRANCH   7   8
ATOM      8  C   UNL     1       8.674   0.243  18.311  1.00  0.00     0.000 C 
BRANCH   8   9
ATOM      9  C   UNL     1       9.511  -0.633  17.362  1.00  0.00     0.000 C 
BRANCH   9  10
ATOM     10  C   UNL     1       8.878  -2.012  17.119  1.00  0.00     0.000 C 
BRANCH  10  11
ATOM     11  C   UNL     1       8.255  -2.134  15.719  1.00  0.00     0.000 C 
BRANCH  11  12
ATOM     12  C   UNL     1       8.867  -1.110  14.754  1.00  0.00     0.006 C 
BRANCH  12  13
ATOM     13  C   UNL     1       8.673  -1.507  13.285  1.00  0.00     0.053 C 
BRANCH  13  14
ATOM     14  C   UNL     1       7.439  -0.890  12.702  1.00  0.00     0.041 C 
ATOM     15  O   UNL     1       7.529  -0.053  11.766  1.00  0.00    -0.550 OA
ATOM     16  O   UNL     1       6.186  -1.266  13.167  1.00  0.00    -0.550 OA
ENDBRANCH  13  14
ENDBRANCH  12  13
ENDBRANCH  11  12
ENDBRANCH  10  11
ENDBRANCH   9  10
ENDBRANCH   8   9
ENDBRANCH   7   8
ENDBRANCH   6   7
ENDBRANCH   5   6
ENDBRANCH   4   5
ENDBRANCH   3   4
ENDBRANCH   2   3
ENDBRANCH   1   2
BRANCH   1  17
ATOM     17  C   UNL     1       8.320   3.228  12.673  1.00  0.00     0.000 C 
BRANCH  17  18
ATOM     18  C   UNL     1       9.280   3.196  11.474  1.00  0.00     0.000 C 
BRANCH  18  19
ATOM     19  C   UNL     1      10.582   3.970  11.732  1.00  0.00     0.000 C 
BRANCH  19  20
ATOM     20  C   UNL     1      10.570   5.324  11.015  1.00  0.00     0.000 C 
BRANCH  20  21
ATOM     21  C   UNL     1      10.376   6.472  12.015  1.00  0.00     0.000 C 
BRANCH  21  22
ATOM     22  C   UNL     1      11.040   6.199  13.375  1.00  0.00    -0.000 C 
BRANCH  22  23
ATOM     23  C   UNL     1      10.228   6.729  14.577  1.00  0.00    -0.000 C 
BRANCH  23  24
ATOM     24  C   UNL     1       8.733   6.385  14.460  1.00  0.00    -0.000 C 
BRANCH  24  25
ATOM     25  C   UNL     1       8.163   5.750  15.747  1.00  0.00    -0.000 C 
BRANCH  25  26
ATOM     26  C   UNL     1       7.761   6.774  16.827  1.00  0.00    -0.000 C 
BRANCH  26  27
ATOM     27  C   UNL     1       7.092   6.181  18.078  1.00  0.00    -0.000 C 
BRANCH  27  28
ATOM     28  C   UNL     1       6.896   4.651  18.063  1.00  0.00    -0.000 C 
BRANCH  28  29
ATOM     29  C   UNL     1       7.946   3.873  18.882  1.00  0.00    -0.003 C 
ATOM     30  C   UNL     1       7.393   3.322  20.200  1.00  0.00     0.004 C 
ENDBRANCH  28  29
ENDBRANCH  27  28
ENDBRANCH  26  27
ENDBRANCH  25  26
ENDBRANCH  24  25
ENDBRANCH  23  24
ENDBRANCH  22  23
ENDBRANCH  21  22
ENDBRANCH  20  21
ENDBRANCH  19  20
ENDBRANCH  18  19
ENDBRANCH  17  18
ENDBRANCH   1  17
TORSDOF 26
ENDMDL
