MODEL 1
REMARK VINA RESULT:    -5.672      0.000      0.000
REMARK INTER + INTRA:          -9.412
REMARK INTER:                  -8.987
REMARK INTRA:                  -0.425
REMARK UNBOUND:                -0.425
REMARK SMILES CCCCCCCCCCCC(=O)[O-]
REMARK SMILES IDX 7 1 8 2 9 3 10 4 11 5 12 6 13 7 14 8 6 9 5 10 4 11 3 12 2 13
REMARK SMILES IDX 1 14
REMARK H PARENT
REMARK Flexibility Score: inf
ROOT
ATOM      1  C   UNL     1     -22.361 -31.742  23.533  1.00  0.00     0.000 C 
ENDROOT
BRANCH   1   2
ATOM      2  C   UNL     1     -23.046 -31.220  24.811  1.00  0.00     0.000 C 
BRANCH   2   3
ATOM      3  C   UNL     1     -24.553 -31.516  24.912  1.00  0.00     0.000 C 
BRANCH   3   4
ATOM      4  C   UNL     1     -24.857 -32.814  25.674  1.00  0.00     0.006 C 
BRANCH   4   5
ATOM      5  C   UNL     1     -26.226 -32.740  26.358  1.00  0.00     0.053 C 
BRANCH   5   6
ATOM      6  C   UNL     1     -27.299 -32.471  25.351  1.00  0.00     0.041 C 
ATOM      7  O   UNL     1     -27.459 -33.247  24.373  1.00  0.00    -0.550 OA
ATOM      8  O   UNL     1     -28.155 -31.389  25.519  1.00  0.00    -0.550 OA
ENDBRANCH   5   6
ENDBRANCH   4   5
ENDBRANCH   3   4
ENDBRANCH   2   3
ENDBRANCH   1   2
BRANCH   1   9
ATOM      9  C   UNL     1     -20.863 -31.405  23.411  1.00  0.00     0.000 C 
BRANCH   9  10
ATOM     10  C   UNL     1     -20.410 -30.332  24.412  1.00  0.00    -0.000 C 
BRANCH  10  11
ATOM     11  C   UNL     1     -18.897 -30.090  24.307  1.00  0.00    -0.000 C 
BRANCH  11  12
ATOM     12  C   UNL     1     -18.157 -31.224  23.574  1.00  0.00    -0.000 C 
BRANCH  12  13
ATOM     13  C   UNL     1     -16.626 -31.070  23.525  1.00  0.00    -0.003 C 
ATOM     14  C   UNL     1     -16.129 -30.442  22.224  1.00  0.00     0.004 C 
ENDBRANCH  12  13
ENDBRANCH  11  12
ENDBRANCH  10  11
ENDBRANCH   9  10
ENDBRANCH   1   9
TORSDOF 10
ENDMDL
MODEL 2
REMARK VINA RESULT:    -5.492      1.321      1.708
REMARK INTER + INTRA:          -9.127
REMARK INTER:                  -8.674
REMARK INTRA:                  -0.453
REMARK UNBOUND:                -0.425
REMARK SMILES CCCCCCCCCCCC(=O)[O-]
REMARK SMILES IDX 7 1 8 2 9 3 10 4 11 5 12 6 13 7 14 8 6 9 5 10 4 11 3 12 2 13
REMARK SMILES IDX 1 14
REMARK H PARENT
REMARK Flexibility Score: inf
ROOT
ATOM      1  C   UNL     1     -21.600 -32.098  22.930  1.00  0.00     0.000 C 
ENDROOT
BRANCH   1   2
ATOM      2  C   UNL     1     -23.060 -31.728  23.256  1.00  0.00     0.000 C 
BRANCH   2   3
ATOM      3  C   UNL     1     -23.326 -31.349  24.724  1.00  0.00     0.000 C 
BRANCH   3   4
ATOM      4  C   UNL     1     -24.351 -32.269  25.402  1.00  0.00     0.006 C 
BRANCH   4   5
ATOM      5  C   UNL     1     -25.698 -32.218  24.674  1.00  0.00     0.053 C 
BRANCH   5   6
ATOM      6  C   UNL     1     -26.448 -30.979  25.046  1.00  0.00     0.041 C 
ATOM      7  O   UNL     1     -26.815 -30.794  26.235  1.00  0.00    -0.550 OA
ATOM      8  O   UNL     1     -26.699 -30.004  24.088  1.00  0.00    -0.550 OA
ENDBRANCH   5   6
ENDBRANCH   4   5
ENDBRANCH   3   4
ENDBRANCH   2   3
ENDBRANCH   1   2
BRANCH   1   9
ATOM      9  C   UNL     1     -20.535 -31.270  23.671  1.00  0.00     0.000 C 
BRANCH   9  10
ATOM     10  C   UNL     1     -19.100 -31.678  23.305  1.00  0.00    -0.000 C 
BRANCH  10  11
ATOM     11  C   UNL     1     -18.083 -30.684  23.884  1.00  0.00    -0.000 C 
BRANCH  11  12
ATOM     12  C   UNL     1     -16.625 -31.066  23.571  1.00  0.00    -0.000 C 
BRANCH  12  13
ATOM     13  C   UNL     1     -16.144 -30.681  22.160  1.00  0.00    -0.003 C 
ATOM     14  C   UNL     1     -16.324 -29.195  21.852  1.00  0.00     0.004 C 
ENDBRANCH  12  13
ENDBRANCH  11  12
ENDBRANCH  10  11
ENDBRANCH   9  10
ENDBRANCH   1   9
TORSDOF 10
ENDMDL
MODEL 3
REMARK VINA RESULT:    -5.455      1.712      2.201
REMARK INTER + INTRA:          -9.068
REMARK INTER:                  -8.479
REMARK INTRA:                  -0.589
REMARK UNBOUND:                -0.425
REMARK SMILES CCCCCCCCCCCC(=O)[O-]
REMARK SMILES IDX 7 1 8 2 9 3 10 4 11 5 12 6 13 7 14 8 6 9 5 10 4 11 3 12 2 13
REMARK SMILES IDX 1 14
REMARK H PARENT
REMARK Flexibility Score: inf
ROOT
ATOM      1  C   UNL     1     -23.151 -31.112  24.031  1.00  0.00     0.000 C 
ENDROOT
BRANCH   1   2
ATOM      2  C   UNL     1     -23.972 -31.806  25.135  1.00  0.00     0.000 C 
BRANCH   2   3
ATOM      3  C   UNL     1     -25.451 -32.058  24.789  1.00  0.00     0.000 C 
BRANCH   3   4
ATOM      4  C   UNL     1     -25.937 -31.217  23.599  1.00  0.00     0.006 C 
BRANCH   4   5
ATOM      5  C   UNL     1     -26.437 -32.115  22.463  1.00  0.00     0.053 C 
BRANCH   5   6
ATOM      6  C   UNL     1     -27.926 -32.034  22.349  1.00  0.00     0.041 C 
ATOM      7  O   UNL     1     -28.563 -32.925  21.728  1.00  0.00    -0.550 OA
ATOM      8  O   UNL     1     -28.616 -31.000  22.969  1.00  0.00    -0.550 OA
ENDBRANCH   5   6
ENDBRANCH   4   5
ENDBRANCH   3   4
ENDBRANCH   2   3
ENDBRANCH   1   2
BRANCH   1   9
ATOM      9  C   UNL     1     -22.368 -32.061  23.106  1.00  0.00     0.000 C 
BRANCH   9  10
ATOM     10  C   UNL     1     -20.846 -31.911  23.248  1.00  0.00    -0.000 C 
BRANCH  10  11
ATOM     11  C   UNL     1     -20.490 -30.619  23.997  1.00  0.00    -0.000 C 
BRANCH  11  12
ATOM     12  C   UNL     1     -18.979 -30.470  24.253  1.00  0.00    -0.000 C 
BRANCH  12  13
ATOM     13  C   UNL     1     -18.082 -31.325  23.341  1.00  0.00    -0.003 C 
ATOM     14  C   UNL     1     -16.600 -30.971  23.458  1.00  0.00     0.004 C 
ENDBRANCH  12  13
ENDBRANCH  11  12
ENDBRANCH  10  11
ENDBRANCH   9  10
ENDBRANCH   1   9
TORSDOF 10
ENDMDL
MODEL 4
REMARK VINA RESULT:    -5.427      4.482      8.175
REMARK INTER + INTRA:          -9.024
REMARK INTER:                  -8.525
REMARK INTRA:                  -0.498
REMARK UNBOUND:                -0.425
REMARK SMILES CCCCCCCCCCCC(=O)[O-]
REMARK SMILES IDX 7 1 8 2 9 3 10 4 11 5 12 6 13 7 14 8 6 9 5 10 4 11 3 12 2 13
REMARK SMILES IDX 1 14
REMARK H PARENT
REMARK Flexibility Score: inf
ROOT
ATOM      1  C   UNL     1     -21.784 -32.138  23.094  1.00  0.00     0.000 C 
ENDROOT
BRANCH   1   2
ATOM      2  C   UNL     1     -20.293 -31.807  23.301  1.00  0.00     0.000 C 
BRANCH   2   3
ATOM      3  C   UNL     1     -20.012 -30.462  23.994  1.00  0.00     0.000 C 
BRANCH   3   4
ATOM      4  C   UNL     1     -18.530 -30.273  24.353  1.00  0.00     0.006 C 
BRANCH   4   5
ATOM      5  C   UNL     1     -17.640 -31.180  23.498  1.00  0.00     0.053 C 
BRANCH   5   6
ATOM      6  C   UNL     1     -16.889 -30.373  22.487  1.00  0.00     0.041 C 
ATOM      7  O   UNL     1     -17.083 -29.132  22.397  1.00  0.00    -0.550 OA
ATOM      8  O   UNL     1     -15.940 -30.982  21.676  1.00  0.00    -0.550 OA
ENDBRANCH   5   6
ENDBRANCH   4   5
ENDBRANCH   3   4
ENDBRANCH   2   3
ENDBRANCH   1   2
BRANCH   1   9
ATOM      9  C   UNL     1     -22.768 -31.124  23.705  1.00  0.00     0.000 C 
BRANCH   9  10
ATOM     10  C   UNL     1     -24.126 -31.750  24.056  1.00  0.00    -0.000 C 
BRANCH  10  11
ATOM     11  C   UNL     1     -24.175 -32.158  25.536  1.00  0.00    -0.000 C 
BRANCH  11  12
ATOM     12  C   UNL     1     -25.194 -33.279  25.816  1.00  0.00    -0.000 C 
BRANCH  12  13
ATOM     13  C   UNL     1     -26.367 -32.872  26.726  1.00  0.00    -0.003 C 
ATOM     14  C   UNL     1     -26.955 -31.507  26.369  1.00  0.00     0.004 C 
ENDBRANCH  12  13
ENDBRANCH  11  12
ENDBRANCH  10  11
ENDBRANCH   9  10
ENDBRANCH   1   9
TORSDOF 10
ENDMDL
MODEL 5
REMARK VINA RESULT:    -5.420      0.741      1.687
REMARK INTER + INTRA:          -9.013
REMARK INTER:                  -8.479
REMARK INTRA:                  -0.534
REMARK UNBOUND:                -0.425
REMARK SMILES CCCCCCCCCCCC(=O)[O-]
REMARK SMILES IDX 7 1 8 2 9 3 10 4 11 5 12 6 13 7 14 8 6 9 5 10 4 11 3 12 2 13
REMARK SMILES IDX 1 14
REMARK H PARENT
REMARK Flexibility Score: inf
ROOT
ATOM      1  C   UNL     1     -23.011 -30.786  24.750  1.00  0.00     0.000 C 
ENDROOT
BRANCH   1   2
ATOM      2  C   UNL     1     -24.467 -31.116  25.133  1.00  0.00     0.000 C 
BRANCH   2   3
ATOM      3  C   UNL     1     -24.712 -32.568  25.583  1.00  0.00     0.000 C 
BRANCH   3   4
ATOM      4  C   UNL     1     -26.190 -32.860  25.879  1.00  0.00     0.006 C 
BRANCH   4   5
ATOM      5  C   UNL     1     -27.078 -31.692  25.440  1.00  0.00     0.053 C 
BRANCH   5   6
ATOM      6  C   UNL     1     -27.941 -32.096  24.287  1.00  0.00     0.041 C 
ATOM      7  O   UNL     1     -28.840 -31.321  23.866  1.00  0.00    -0.550 OA
ATOM      8  O   UNL     1     -27.721 -33.308  23.645  1.00  0.00    -0.550 OA
ENDBRANCH   5   6
ENDBRANCH   4   5
ENDBRANCH   3   4
ENDBRANCH   2   3
ENDBRANCH   1   2
BRANCH   1   9
ATOM      9  C   UNL     1     -22.359 -31.767  23.759  1.00  0.00     0.000 C 
BRANCH   9  10
ATOM     10  C   UNL     1     -20.886 -31.435  23.474  1.00  0.00    -0.000 C 
BRANCH  10  11
ATOM     11  C   UNL     1     -20.377 -30.342  24.425  1.00  0.00    -0.000 C 
BRANCH  11  12
ATOM     12  C   UNL     1     -18.843 -30.210  24.421  1.00  0.00    -0.000 C 
BRANCH  12  13
ATOM     13  C   UNL     1     -18.121 -31.092  23.387  1.00  0.00    -0.003 C 
ATOM     14  C   UNL     1     -16.601 -31.066  23.536  1.00  0.00     0.004 C 
ENDBRANCH  12  13
ENDBRANCH  11  12
ENDBRANCH  10  11
ENDBRANCH   9  10
ENDBRANCH   1   9
TORSDOF 10
ENDMDL
MODEL 6
REMARK VINA RESULT:    -5.311      4.089      7.038
REMARK INTER + INTRA:          -8.840
REMARK INTER:                  -7.550
REMARK INTRA:                  -1.290
REMARK UNBOUND:                -0.425
REMARK SMILES CCCCCCCCCCCC(=O)[O-]
REMARK SMILES IDX 7 1 8 2 9 3 10 4 11 5 12 6 13 7 14 8 6 9 5 10 4 11 3 12 2 13
REMARK SMILES IDX 1 14
REMARK H PARENT
REMARK Flexibility Score: inf
ROOT
ATOM      1  C   UNL     1     -24.271 -31.925  25.479  1.00  0.00     0.000 C 
ENDROOT
BRANCH   1   2
ATOM      2  C   UNL     1     -23.933 -31.782  23.982  1.00  0.00     0.000 C 
BRANCH   2   3
ATOM      3  C   UNL     1     -24.984 -31.033  23.143  1.00  0.00     0.000 C 
BRANCH   3   4
ATOM      4  C   UNL     1     -25.998 -31.976  22.478  1.00  0.00     0.006 C 
BRANCH   4   5
ATOM      5  C   UNL     1     -27.264 -31.216  22.067  1.00  0.00     0.053 C 
BRANCH   5   6
ATOM      6  C   UNL     1     -28.448 -32.129  22.078  1.00  0.00     0.041 C 
ATOM      7  O   UNL     1     -29.604 -31.670  21.880  1.00  0.00    -0.550 OA
ATOM      8  O   UNL     1     -28.272 -33.495  22.260  1.00  0.00    -0.550 OA
ENDBRANCH   5   6
ENDBRANCH   4   5
ENDBRANCH   3   4
ENDBRANCH   2   3
ENDBRANCH   1   2
BRANCH   1   9
ATOM      9  C   UNL     1     -24.987 -33.231  25.864  1.00  0.00     0.000 C 
BRANCH   9  10
ATOM     10  C   UNL     1     -26.314 -32.990  26.600  1.00  0.00    -0.000 C 
BRANCH  10  11
ATOM     11  C   UNL     1     -26.830 -31.565  26.346  1.00  0.00    -0.000 C 
BRANCH  11  12
ATOM     12  C   UNL     1     -28.209 -31.539  25.662  1.00  0.00    -0.000 C 
BRANCH  12  13
ATOM     13  C   UNL     1     -28.727 -30.134  25.306  1.00  0.00    -0.003 C 
ATOM     14  C   UNL     1     -30.244 -30.084  25.128  1.00  0.00     0.004 C 
ENDBRANCH  12  13
ENDBRANCH  11  12
ENDBRANCH  10  11
ENDBRANCH   9  10
ENDBRANCH   1   9
TORSDOF 10
ENDMDL
MODEL 7
REMARK VINA RESULT:    -5.248      2.308      3.612
REMARK INTER + INTRA:          -8.740
REMARK INTER:                  -7.395
REMARK INTRA:                  -1.346
REMARK UNBOUND:                -0.425
REMARK SMILES CCCCCCCCCCCC(=O)[O-]
REMARK SMILES IDX 7 1 8 2 9 3 10 4 11 5 12 6 13 7 14 8 6 9 5 10 4 11 3 12 2 13
REMARK SMILES IDX 1 14
REMARK H PARENT
REMARK Flexibility Score: inf
ROOT
ATOM      1  C   UNL     1     -24.959 -30.816  25.130  1.00  0.00     0.000 C 
ENDROOT
BRANCH   1   2
ATOM      2  C   UNL     1     -24.972 -32.340  25.358  1.00  0.00     0.000 C 
BRANCH   2   3
ATOM      3  C   UNL     1     -26.218 -32.882  26.081  1.00  0.00     0.000 C 
BRANCH   3   4
ATOM      4  C   UNL     1     -27.523 -32.582  25.328  1.00  0.00     0.006 C 
BRANCH   4   5
ATOM      5  C   UNL     1     -27.528 -33.256  23.952  1.00  0.00     0.053 C 
BRANCH   5   6
ATOM      6  C   UNL     1     -28.081 -32.329  22.918  1.00  0.00     0.041 C 
ATOM      7  O   UNL     1     -28.379 -32.761  21.774  1.00  0.00    -0.550 OA
ATOM      8  O   UNL     1     -28.314 -30.995  23.232  1.00  0.00    -0.550 OA
ENDBRANCH   5   6
ENDBRANCH   4   5
ENDBRANCH   3   4
ENDBRANCH   2   3
ENDBRANCH   1   2
BRANCH   1   9
ATOM      9  C   UNL     1     -24.816 -30.377  23.661  1.00  0.00     0.000 C 
BRANCH   9  10
ATOM     10  C   UNL     1     -24.415 -31.531  22.730  1.00  0.00    -0.000 C 
BRANCH  10  11
ATOM     11  C   UNL     1     -22.966 -31.368  22.249  1.00  0.00    -0.000 C 
BRANCH  11  12
ATOM     12  C   UNL     1     -21.934 -31.912  23.254  1.00  0.00    -0.000 C 
BRANCH  12  13
ATOM     13  C   UNL     1     -20.868 -30.895  23.699  1.00  0.00    -0.003 C 
ATOM     14  C   UNL     1     -21.279 -30.100  24.937  1.00  0.00     0.004 C 
ENDBRANCH  12  13
ENDBRANCH  11  12
ENDBRANCH  10  11
ENDBRANCH   9  10
ENDBRANCH   1   9
TORSDOF 10
ENDMDL
MODEL 8
REMARK VINA RESULT:    -5.203      3.617      7.593
REMARK INTER + INTRA:          -8.670
REMARK INTER:                  -7.545
REMARK INTRA:                  -1.125
REMARK UNBOUND:                -0.425
REMARK SMILES CCCCCCCCCCCC(=O)[O-]
REMARK SMILES IDX 7 1 8 2 9 3 10 4 11 5 12 6 13 7 14 8 6 9 5 10 4 11 3 12 2 13
REMARK SMILES IDX 1 14
REMARK H PARENT
REMARK Flexibility Score: inf
ROOT
ATOM      1  C   UNL     1     -26.740 -32.678  26.428  1.00  0.00     0.000 C 
ENDROOT
BRANCH   1   2
ATOM      2  C   UNL     1     -25.332 -33.030  25.908  1.00  0.00     0.000 C 
BRANCH   2   3
ATOM      3  C   UNL     1     -24.816 -32.138  24.764  1.00  0.00     0.000 C 
BRANCH   3   4
ATOM      4  C   UNL     1     -23.456 -31.496  25.073  1.00  0.00     0.006 C 
BRANCH   4   5
ATOM      5  C   UNL     1     -22.731 -31.101  23.783  1.00  0.00     0.053 C 
BRANCH   5   6
ATOM      6  C   UNL     1     -21.285 -30.832  24.056  1.00  0.00     0.041 C 
ATOM      7  O   UNL     1     -20.397 -31.550  23.529  1.00  0.00    -0.550 OA
ATOM      8  O   UNL     1     -20.917 -29.757  24.856  1.00  0.00    -0.550 OA
ENDBRANCH   5   6
ENDBRANCH   4   5
ENDBRANCH   3   4
ENDBRANCH   2   3
ENDBRANCH   1   2
BRANCH   1   9
ATOM      9  C   UNL     1     -27.144 -31.202  26.269  1.00  0.00     0.000 C 
BRANCH   9  10
ATOM     10  C   UNL     1     -28.478 -31.025  25.526  1.00  0.00    -0.000 C 
BRANCH  10  11
ATOM     11  C   UNL     1     -28.250 -30.438  24.126  1.00  0.00    -0.000 C 
BRANCH  11  12
ATOM     12  C   UNL     1     -28.757 -31.358  23.000  1.00  0.00    -0.000 C 
BRANCH  12  13
ATOM     13  C   UNL     1     -27.733 -32.393  22.501  1.00  0.00    -0.003 C 
ATOM     14  C   UNL     1     -27.985 -33.796  23.053  1.00  0.00     0.004 C 
ENDBRANCH  12  13
ENDBRANCH  11  12
ENDBRANCH  10  11
ENDBRANCH   9  10
ENDBRANCH   1   9
TORSDOF 10
ENDMDL
MODEL 9
REMARK VINA RESULT:    -5.114      1.760      2.408
REMARK INTER + INTRA:          -8.528
REMARK INTER:                  -7.528
REMARK INTRA:                  -1.000
REMARK UNBOUND:                -0.425
REMARK SMILES CCCCCCCCCCCC(=O)[O-]
REMARK SMILES IDX 7 1 8 2 9 3 10 4 11 5 12 6 13 7 14 8 6 9 5 10 4 11 3 12 2 13
REMARK SMILES IDX 1 14
REMARK H PARENT
REMARK Flexibility Score: inf
ROOT
ATOM      1  C   UNL     1     -22.925 -31.522  22.422  1.00  0.00     0.000 C 
ENDROOT
BRANCH   1   2
ATOM      2  C   UNL     1     -24.311 -30.902  22.686  1.00  0.00     0.000 C 
BRANCH   2   3
ATOM      3  C   UNL     1     -25.507 -31.766  22.248  1.00  0.00     0.000 C 
BRANCH   3   4
ATOM      4  C   UNL     1     -26.367 -32.239  23.431  1.00  0.00     0.006 C 
BRANCH   4   5
ATOM      5  C   UNL     1     -25.954 -31.529  24.725  1.00  0.00     0.053 C 
BRANCH   5   6
ATOM      6  C   UNL     1     -25.660 -32.529  25.798  1.00  0.00     0.041 C 
ATOM      7  O   UNL     1     -26.578 -32.924  26.564  1.00  0.00    -0.550 OA
ATOM      8  O   UNL     1     -24.383 -33.062  25.921  1.00  0.00    -0.550 OA
ENDBRANCH   5   6
ENDBRANCH   4   5
ENDBRANCH   3   4
ENDBRANCH   2   3
ENDBRANCH   1   2
BRANCH   1   9
ATOM      9  C   UNL     1     -21.994 -31.583  23.647  1.00  0.00     0.000 C 
BRANCH   9  10
ATOM     10  C   UNL     1     -22.274 -30.467  24.665  1.00  0.00    -0.000 C 
BRANCH  10  11
ATOM     11  C   UNL     1     -20.963 -29.886  25.215  1.00  0.00    -0.000 C 
BRANCH  11  12
ATOM     12  C   UNL     1     -19.924 -29.602  24.115  1.00  0.00    -0.000 C 
BRANCH  12  13
ATOM     13  C   UNL     1     -18.550 -30.258  24.339  1.00  0.00    -0.003 C 
ATOM     14  C   UNL     1     -18.248 -31.371  23.337  1.00  0.00     0.004 C 
ENDBRANCH  12  13
ENDBRANCH  11  12
ENDBRANCH  10  11
ENDBRANCH   9  10
ENDBRANCH   1   9
TORSDOF 10
ENDMDL
