MODEL 1
REMARK VINA RESULT:     9.784      0.000      0.000
REMARK INTER + INTRA:          17.842
REMARK INTER:                  18.935
REMARK INTRA:                  -1.092
REMARK UNBOUND:                -1.092
REMARK SMILES CCCCCCCCCCCCCCCCCC(=O)[O-]
REMARK SMILES IDX 10 1 11 2 12 3 13 4 14 5 15 6 16 7 17 8 18 9 19 10 20 11
REMARK SMILES IDX 9 12 8 13 7 14 6 15 5 16 4 17 3 18 2 19 1 20
REMARK H PARENT
REMARK Flexibility Score: inf
ROOT
ATOM      1  C   UNL     1       9.248 -31.870 -16.612  1.00  0.00     0.000 C 
ENDROOT
BRANCH   1   2
ATOM      2  C   UNL     1       9.090 -31.821 -15.084  1.00  0.00     0.000 C 
BRANCH   2   3
ATOM      3  C   UNL     1       9.649 -30.525 -14.469  1.00  0.00     0.000 C 
BRANCH   3   4
ATOM      4  C   UNL     1       8.577 -29.722 -13.715  1.00  0.00     0.000 C 
BRANCH   4   5
ATOM      5  C   UNL     1       8.642 -29.938 -12.193  1.00  0.00     0.000 C 
BRANCH   5   6
ATOM      6  C   UNL     1      10.085 -29.990 -11.665  1.00  0.00     0.000 C 
BRANCH   6   7
ATOM      7  C   UNL     1      10.152 -29.967 -10.128  1.00  0.00     0.006 C 
BRANCH   7   8
ATOM      8  C   UNL     1       9.130 -28.998  -9.519  1.00  0.00     0.053 C 
BRANCH   8   9
ATOM      9  C   UNL     1       9.703 -27.625  -9.341  1.00  0.00     0.041 C 
ATOM     10  O   UNL     1      10.926 -27.417  -9.559  1.00  0.00    -0.550 OA
ATOM     11  O   UNL     1       8.895 -26.585  -8.899  1.00  0.00    -0.550 OA
ENDBRANCH   8   9
ENDBRANCH   7   8
ENDBRANCH   6   7
ENDBRANCH   5   6
ENDBRANCH   4   5
ENDBRANCH   3   4
ENDBRANCH   2   3
ENDBRANCH   1   2
BRANCH   1  12
ATOM     12  C   UNL     1       9.899 -30.596 -17.179  1.00  0.00     0.000 C 
BRANCH  12  13
ATOM     13  C   UNL     1       8.971 -29.839 -18.142  1.00  0.00    -0.000 C 
BRANCH  13  14
ATOM     14  C   UNL     1       8.066 -28.824 -17.419  1.00  0.00    -0.000 C 
BRANCH  14  15
ATOM     15  C   UNL     1       6.627 -28.825 -17.958  1.00  0.00    -0.000 C 
BRANCH  15  16
ATOM     16  C   UNL     1       6.520 -29.466 -19.352  1.00  0.00    -0.000 C 
BRANCH  16  17
ATOM     17  C   UNL     1       6.781 -28.461 -20.485  1.00  0.00    -0.000 C 
BRANCH  17  18
ATOM     18  C   UNL     1       6.489 -29.046 -21.878  1.00  0.00    -0.000 C 
BRANCH  18  19
ATOM     19  C   UNL     1       6.839 -28.069 -23.011  1.00  0.00    -0.003 C 
ATOM     20  C   UNL     1       5.875 -26.885 -23.089  1.00  0.00     0.004 C 
ENDBRANCH  18  19
ENDBRANCH  17  18
ENDBRANCH  16  17
ENDBRANCH  15  16
ENDBRANCH  14  15
ENDBRANCH  13  14
ENDBRANCH  12  13
ENDBRANCH   1  12
TORSDOF 16
ENDMDL
MODEL 2
REMARK VINA RESULT:     9.992      4.253      9.309
REMARK INTER + INTRA:          18.246
REMARK INTER:                  18.455
REMARK INTRA:                  -0.208
REMARK UNBOUND:                -1.092
REMARK SMILES CCCCCCCCCCCCCCCCCC(=O)[O-]
REMARK SMILES IDX 10 1 11 2 12 3 13 4 14 5 15 6 16 7 17 8 18 9 19 10 20 11
REMARK SMILES IDX 9 12 8 13 7 14 6 15 5 16 4 17 3 18 2 19 1 20
REMARK H PARENT
REMARK Flexibility Score: inf
ROOT
ATOM      1  C   UNL     1       9.522 -30.789 -14.549  1.00  0.00     0.000 C 
ENDROOT
BRANCH   1   2
ATOM      2  C   UNL     1       9.276 -32.073 -15.358  1.00  0.00     0.000 C 
BRANCH   2   3
ATOM      3  C   UNL     1       9.392 -31.849 -16.877  1.00  0.00     0.000 C 
BRANCH   3   4
ATOM      4  C   UNL     1       9.751 -30.398 -17.233  1.00  0.00     0.000 C 
BRANCH   4   5
ATOM      5  C   UNL     1       8.976 -29.883 -18.458  1.00  0.00     0.000 C 
BRANCH   5   6
ATOM      6  C   UNL     1       7.870 -28.885 -18.079  1.00  0.00     0.000 C 
BRANCH   6   7
ATOM      7  C   UNL     1       6.579 -29.100 -18.889  1.00  0.00     0.006 C 
BRANCH   7   8
ATOM      8  C   UNL     1       6.419 -28.063 -20.010  1.00  0.00     0.053 C 
BRANCH   8   9
ATOM      9  C   UNL     1       6.660 -28.666 -21.360  1.00  0.00     0.041 C 
ATOM     10  O   UNL     1       6.104 -28.177 -22.380  1.00  0.00    -0.550 OA
ATOM     11  O   UNL     1       7.469 -29.788 -21.489  1.00  0.00    -0.550 OA
ENDBRANCH   8   9
ENDBRANCH   7   8
ENDBRANCH   6   7
ENDBRANCH   5   6
ENDBRANCH   4   5
ENDBRANCH   3   4
ENDBRANCH   2   3
ENDBRANCH   1   2
BRANCH   1  12
ATOM     12  C   UNL     1       8.481 -29.696 -14.845  1.00  0.00     0.000 C 
BRANCH  12  13
ATOM     13  C   UNL     1       7.750 -29.221 -13.579  1.00  0.00    -0.000 C 
BRANCH  13  14
ATOM     14  C   UNL     1       8.351 -29.813 -12.291  1.00  0.00    -0.000 C 
BRANCH  14  15
ATOM     15  C   UNL     1       7.774 -29.172 -11.019  1.00  0.00    -0.000 C 
BRANCH  15  16
ATOM     16  C   UNL     1       8.559 -29.559  -9.755  1.00  0.00    -0.000 C 
BRANCH  16  17
ATOM     17  C   UNL     1      10.069 -29.312  -9.899  1.00  0.00    -0.000 C 
BRANCH  17  18
ATOM     18  C   UNL     1      10.457 -27.843  -9.656  1.00  0.00    -0.000 C 
BRANCH  18  19
ATOM     19  C   UNL     1       9.417 -27.094  -8.808  1.00  0.00    -0.003 C 
ATOM     20  C   UNL     1       8.799 -25.906  -9.544  1.00  0.00     0.004 C 
ENDBRANCH  18  19
ENDBRANCH  17  18
ENDBRANCH  16  17
ENDBRANCH  15  16
ENDBRANCH  14  15
ENDBRANCH  13  14
ENDBRANCH  12  13
ENDBRANCH   1  12
TORSDOF 16
ENDMDL
MODEL 3
REMARK VINA RESULT:    10.364      4.333      9.205
REMARK INTER + INTRA:          18.966
REMARK INTER:                  18.813
REMARK INTRA:                   0.154
REMARK UNBOUND:                -1.092
REMARK SMILES CCCCCCCCCCCCCCCCCC(=O)[O-]
REMARK SMILES IDX 10 1 11 2 12 3 13 4 14 5 15 6 16 7 17 8 18 9 19 10 20 11
REMARK SMILES IDX 9 12 8 13 7 14 6 15 5 16 4 17 3 18 2 19 1 20
REMARK H PARENT
REMARK Flexibility Score: inf
ROOT
ATOM      1  C   UNL     1       9.250 -32.164 -15.314  1.00  0.00     0.000 C 
ENDROOT
BRANCH   1   2
ATOM      2  C   UNL     1       9.235 -31.929 -16.833  1.00  0.00     0.000 C 
BRANCH   2   3
ATOM      3  C   UNL     1       9.883 -30.591 -17.234  1.00  0.00     0.000 C 
BRANCH   3   4
ATOM      4  C   UNL     1       8.934 -29.697 -18.048  1.00  0.00     0.000 C 
BRANCH   4   5
ATOM      5  C   UNL     1       7.983 -28.881 -17.156  1.00  0.00     0.000 C 
BRANCH   5   6
ATOM      6  C   UNL     1       6.583 -28.726 -17.772  1.00  0.00     0.000 C 
BRANCH   6   7
ATOM      7  C   UNL     1       6.523 -29.213 -19.230  1.00  0.00     0.006 C 
BRANCH   7   8
ATOM      8  C   UNL     1       6.482 -28.048 -20.228  1.00  0.00     0.053 C 
BRANCH   8   9
ATOM      9  C   UNL     1       6.529 -28.529 -21.646  1.00  0.00     0.041 C 
ATOM     10  O   UNL     1       5.880 -27.927 -22.541  1.00  0.00    -0.550 OA
ATOM     11  O   UNL     1       7.262 -29.664 -21.972  1.00  0.00    -0.550 OA
ENDBRANCH   8   9
ENDBRANCH   7   8
ENDBRANCH   6   7
ENDBRANCH   5   6
ENDBRANCH   4   5
ENDBRANCH   3   4
ENDBRANCH   2   3
ENDBRANCH   1   2
BRANCH   1  12
ATOM     12  C   UNL     1       9.687 -30.916 -14.528  1.00  0.00     0.000 C 
BRANCH  12  13
ATOM     13  C   UNL     1       8.679 -29.762 -14.649  1.00  0.00    -0.000 C 
BRANCH  13  14
ATOM     14  C   UNL     1       7.763 -29.643 -13.416  1.00  0.00    -0.000 C 
BRANCH  14  15
ATOM     15  C   UNL     1       8.504 -29.926 -12.099  1.00  0.00    -0.000 C 
BRANCH  15  16
ATOM     16  C   UNL     1       7.681 -29.528 -10.862  1.00  0.00    -0.000 C 
BRANCH  16  17
ATOM     17  C   UNL     1       8.560 -29.254  -9.632  1.00  0.00    -0.000 C 
BRANCH  17  18
ATOM     18  C   UNL     1      10.051 -29.117  -9.986  1.00  0.00    -0.000 C 
BRANCH  18  19
ATOM     19  C   UNL     1      10.618 -27.737  -9.619  1.00  0.00    -0.003 C 
ATOM     20  C   UNL     1       9.546 -26.774  -9.111  1.00  0.00     0.004 C 
ENDBRANCH  18  19
ENDBRANCH  17  18
ENDBRANCH  16  17
ENDBRANCH  15  16
ENDBRANCH  14  15
ENDBRANCH  13  14
ENDBRANCH  12  13
ENDBRANCH   1  12
TORSDOF 16
ENDMDL
MODEL 4
REMARK VINA RESULT:    10.475      1.329      1.962
REMARK INTER + INTRA:          19.181
REMARK INTER:                  19.871
REMARK INTRA:                  -0.690
REMARK UNBOUND:                -1.092
REMARK SMILES CCCCCCCCCCCCCCCCCC(=O)[O-]
REMARK SMILES IDX 10 1 11 2 12 3 13 4 14 5 15 6 16 7 17 8 18 9 19 10 20 11
REMARK SMILES IDX 9 12 8 13 7 14 6 15 5 16 4 17 3 18 2 19 1 20
REMARK H PARENT
REMARK Flexibility Score: inf
ROOT
ATOM      1  C   UNL     1       9.292 -31.858 -15.525  1.00  0.00     0.000 C 
ENDROOT
BRANCH   1   2
ATOM      2  C   UNL     1       9.626 -30.534 -14.820  1.00  0.00     0.000 C 
BRANCH   2   3
ATOM      3  C   UNL     1       8.388 -29.860 -14.202  1.00  0.00     0.000 C 
BRANCH   3   4
ATOM      4  C   UNL     1       8.303 -30.065 -12.681  1.00  0.00     0.000 C 
BRANCH   4   5
ATOM      5  C   UNL     1       7.434 -29.000 -11.991  1.00  0.00     0.000 C 
BRANCH   5   6
ATOM      6  C   UNL     1       7.478 -29.104 -10.458  1.00  0.00     0.000 C 
BRANCH   6   7
ATOM      7  C   UNL     1       8.824 -28.641  -9.874  1.00  0.00     0.006 C 
BRANCH   7   8
ATOM      8  C   UNL     1       9.578 -29.784  -9.182  1.00  0.00     0.053 C 
BRANCH   8   9
ATOM      9  C   UNL     1      10.792 -30.197  -9.958  1.00  0.00     0.041 C 
ATOM     10  O   UNL     1      11.160 -31.402  -9.963  1.00  0.00    -0.550 OA
ATOM     11  O   UNL     1      11.536 -29.247 -10.646  1.00  0.00    -0.550 OA
ENDBRANCH   8   9
ENDBRANCH   7   8
ENDBRANCH   6   7
ENDBRANCH   5   6
ENDBRANCH   4   5
ENDBRANCH   3   4
ENDBRANCH   2   3
ENDBRANCH   1   2
BRANCH   1  12
ATOM     12  C   UNL     1       9.403 -31.757 -17.056  1.00  0.00     0.000 C 
BRANCH  12  13
ATOM     13  C   UNL     1       9.864 -30.366 -17.521  1.00  0.00    -0.000 C 
BRANCH  13  14
ATOM     14  C   UNL     1       8.782 -29.621 -18.324  1.00  0.00    -0.000 C 
BRANCH  14  15
ATOM     15  C   UNL     1       7.669 -29.051 -17.431  1.00  0.00    -0.000 C 
BRANCH  15  16
ATOM     16  C   UNL     1       6.361 -28.806 -18.202  1.00  0.00    -0.000 C 
BRANCH  16  17
ATOM     17  C   UNL     1       6.605 -28.259 -19.618  1.00  0.00    -0.000 C 
BRANCH  17  18
ATOM     18  C   UNL     1       6.703 -29.372 -20.676  1.00  0.00    -0.000 C 
BRANCH  18  19
ATOM     19  C   UNL     1       6.798 -28.818 -22.105  1.00  0.00    -0.003 C 
ATOM     20  C   UNL     1       5.891 -27.608 -22.331  1.00  0.00     0.004 C 
ENDBRANCH  18  19
ENDBRANCH  17  18
ENDBRANCH  16  17
ENDBRANCH  15  16
ENDBRANCH  14  15
ENDBRANCH  13  14
ENDBRANCH  12  13
ENDBRANCH   1  12
TORSDOF 16
ENDMDL
MODEL 5
REMARK VINA RESULT:    10.599      2.156      3.557
REMARK INTER + INTRA:          19.420
REMARK INTER:                  19.988
REMARK INTRA:                  -0.568
REMARK UNBOUND:                -1.092
REMARK SMILES CCCCCCCCCCCCCCCCCC(=O)[O-]
REMARK SMILES IDX 10 1 11 2 12 3 13 4 14 5 15 6 16 7 17 8 18 9 19 10 20 11
REMARK SMILES IDX 9 12 8 13 7 14 6 15 5 16 4 17 3 18 2 19 1 20
REMARK H PARENT
REMARK Flexibility Score: inf
ROOT
ATOM      1  C   UNL     1       9.807 -30.361 -13.371  1.00  0.00     0.000 C 
ENDROOT
BRANCH   1   2
ATOM      2  C   UNL     1       9.038 -29.982 -12.095  1.00  0.00     0.000 C 
BRANCH   2   3
ATOM      3  C   UNL     1       9.960 -29.805 -10.876  1.00  0.00     0.000 C 
BRANCH   3   4
ATOM      4  C   UNL     1       9.258 -29.103  -9.703  1.00  0.00     0.000 C 
BRANCH   4   5
ATOM      5  C   UNL     1      10.040 -27.878  -9.196  1.00  0.00     0.000 C 
BRANCH   5   6
ATOM      6  C   UNL     1       9.144 -26.644  -9.004  1.00  0.00     0.000 C 
BRANCH   6   7
ATOM      7  C   UNL     1       9.045 -26.210  -7.531  1.00  0.00     0.006 C 
BRANCH   7   8
ATOM      8  C   UNL     1       8.048 -25.060  -7.332  1.00  0.00     0.053 C 
BRANCH   8   9
ATOM      9  C   UNL     1       7.888 -24.709  -5.885  1.00  0.00     0.041 C 
ATOM     10  O   UNL     1       7.072 -23.815  -5.537  1.00  0.00    -0.550 OA
ATOM     11  O   UNL     1       8.665 -25.343  -4.923  1.00  0.00    -0.550 OA
ENDBRANCH   8   9
ENDBRANCH   7   8
ENDBRANCH   6   7
ENDBRANCH   5   6
ENDBRANCH   4   5
ENDBRANCH   3   4
ENDBRANCH   2   3
ENDBRANCH   1   2
BRANCH   1  12
ATOM     12  C   UNL     1       8.875 -30.618 -14.568  1.00  0.00     0.000 C 
BRANCH  12  13
ATOM     13  C   UNL     1       9.633 -30.672 -15.904  1.00  0.00    -0.000 C 
BRANCH  13  14
ATOM     14  C   UNL     1       8.912 -29.902 -17.026  1.00  0.00    -0.000 C 
BRANCH  14  15
ATOM     15  C   UNL     1       7.661 -29.162 -16.526  1.00  0.00    -0.000 C 
BRANCH  15  16
ATOM     16  C   UNL     1       6.898 -28.460 -17.663  1.00  0.00    -0.000 C 
BRANCH  16  17
ATOM     17  C   UNL     1       7.352 -28.928 -19.055  1.00  0.00    -0.000 C 
BRANCH  17  18
ATOM     18  C   UNL     1       6.378 -28.509 -20.170  1.00  0.00    -0.000 C 
BRANCH  18  19
ATOM     19  C   UNL     1       6.790 -29.055 -21.546  1.00  0.00    -0.003 C 
ATOM     20  C   UNL     1       6.470 -28.087 -22.685  1.00  0.00     0.004 C 
ENDBRANCH  18  19
ENDBRANCH  17  18
ENDBRANCH  16  17
ENDBRANCH  15  16
ENDBRANCH  14  15
ENDBRANCH  13  14
ENDBRANCH  12  13
ENDBRANCH   1  12
TORSDOF 16
ENDMDL
MODEL 6
REMARK VINA RESULT:    10.820      0.716      1.354
REMARK INTER + INTRA:          19.848
REMARK INTER:                  20.296
REMARK INTRA:                  -0.449
REMARK UNBOUND:                -1.092
REMARK SMILES CCCCCCCCCCCCCCCCCC(=O)[O-]
REMARK SMILES IDX 10 1 11 2 12 3 13 4 14 5 15 6 16 7 17 8 18 9 19 10 20 11
REMARK SMILES IDX 9 12 8 13 7 14 6 15 5 16 4 17 3 18 2 19 1 20
REMARK H PARENT
REMARK Flexibility Score: inf
ROOT
ATOM      1  C   UNL     1       9.611 -31.955 -15.496  1.00  0.00     0.000 C 
ENDROOT
BRANCH   1   2
ATOM      2  C   UNL     1       9.760 -30.729 -14.580  1.00  0.00     0.000 C 
BRANCH   2   3
ATOM      3  C   UNL     1       8.552 -29.779 -14.656  1.00  0.00     0.000 C 
BRANCH   3   4
ATOM      4  C   UNL     1       7.847 -29.613 -13.301  1.00  0.00     0.000 C 
BRANCH   4   5
ATOM      5  C   UNL     1       8.802 -29.815 -12.111  1.00  0.00     0.000 C 
BRANCH   5   6
ATOM      6  C   UNL     1       8.175 -29.394 -10.773  1.00  0.00     0.000 C 
BRANCH   6   7
ATOM      7  C   UNL     1       9.051 -29.773  -9.566  1.00  0.00     0.006 C 
BRANCH   7   8
ATOM      8  C   UNL     1       9.227 -28.602  -8.588  1.00  0.00     0.053 C 
BRANCH   8   9
ATOM      9  C   UNL     1       9.811 -27.399  -9.263  1.00  0.00     0.041 C 
ATOM     10  O   UNL     1       9.157 -26.323  -9.316  1.00  0.00    -0.550 OA
ATOM     11  O   UNL     1      11.061 -27.475  -9.864  1.00  0.00    -0.550 OA
ENDBRANCH   8   9
ENDBRANCH   7   8
ENDBRANCH   6   7
ENDBRANCH   5   6
ENDBRANCH   4   5
ENDBRANCH   3   4
ENDBRANCH   2   3
ENDBRANCH   1   2
BRANCH   1  12
ATOM     12  C   UNL     1       9.043 -31.592 -16.879  1.00  0.00     0.000 C 
BRANCH  12  13
ATOM     13  C   UNL     1       9.868 -30.506 -17.587  1.00  0.00    -0.000 C 
BRANCH  13  14
ATOM     14  C   UNL     1       9.000 -29.564 -18.442  1.00  0.00    -0.000 C 
BRANCH  14  15
ATOM     15  C   UNL     1       7.840 -28.945 -17.646  1.00  0.00    -0.000 C 
BRANCH  15  16
ATOM     16  C   UNL     1       6.515 -28.959 -18.427  1.00  0.00    -0.000 C 
BRANCH  16  17
ATOM     17  C   UNL     1       6.598 -28.167 -19.743  1.00  0.00    -0.000 C 
BRANCH  17  18
ATOM     18  C   UNL     1       6.980 -29.050 -20.944  1.00  0.00    -0.000 C 
BRANCH  18  19
ATOM     19  C   UNL     1       6.201 -28.680 -22.216  1.00  0.00    -0.003 C 
ATOM     20  C   UNL     1       6.603 -27.318 -22.780  1.00  0.00     0.004 C 
ENDBRANCH  18  19
ENDBRANCH  17  18
ENDBRANCH  16  17
ENDBRANCH  15  16
ENDBRANCH  14  15
ENDBRANCH  13  14
ENDBRANCH  12  13
ENDBRANCH   1  12
TORSDOF 16
ENDMDL
MODEL 7
REMARK VINA RESULT:    10.876      4.523     10.235
REMARK INTER + INTRA:          19.958
REMARK INTER:                  20.675
REMARK INTRA:                  -0.718
REMARK UNBOUND:                -1.092
REMARK SMILES CCCCCCCCCCCCCCCCCC(=O)[O-]
REMARK SMILES IDX 10 1 11 2 12 3 13 4 14 5 15 6 16 7 17 8 18 9 19 10 20 11
REMARK SMILES IDX 9 12 8 13 7 14 6 15 5 16 4 17 3 18 2 19 1 20
REMARK H PARENT
REMARK Flexibility Score: inf
ROOT
ATOM      1  C   UNL     1       9.971 -30.396 -13.172  1.00  0.00     0.000 C 
ENDROOT
BRANCH   1   2
ATOM      2  C   UNL     1       8.919 -30.699 -14.251  1.00  0.00     0.000 C 
BRANCH   2   3
ATOM      3  C   UNL     1       9.543 -30.972 -15.631  1.00  0.00     0.000 C 
BRANCH   3   4
ATOM      4  C   UNL     1       9.022 -30.013 -16.713  1.00  0.00     0.000 C 
BRANCH   4   5
ATOM      5  C   UNL     1       7.996 -29.007 -16.164  1.00  0.00     0.000 C 
BRANCH   5   6
ATOM      6  C   UNL     1       6.907 -28.656 -17.190  1.00  0.00     0.000 C 
BRANCH   6   7
ATOM      7  C   UNL     1       7.285 -29.079 -18.621  1.00  0.00     0.006 C 
BRANCH   7   8
ATOM      8  C   UNL     1       6.340 -28.479 -19.670  1.00  0.00     0.053 C 
BRANCH   8   9
ATOM      9  C   UNL     1       6.778 -28.810 -21.065  1.00  0.00     0.041 C 
ATOM     10  O   UNL     1       7.803 -29.516 -21.256  1.00  0.00    -0.550 OA
ATOM     11  O   UNL     1       6.074 -28.309 -22.153  1.00  0.00    -0.550 OA
ENDBRANCH   8   9
ENDBRANCH   7   8
ENDBRANCH   6   7
ENDBRANCH   5   6
ENDBRANCH   4   5
ENDBRANCH   3   4
ENDBRANCH   2   3
ENDBRANCH   1   2
BRANCH   1  12
ATOM     12  C   UNL     1       9.341 -29.956 -11.839  1.00  0.00     0.000 C 
BRANCH  12  13
ATOM     13  C   UNL     1      10.349 -29.973 -10.678  1.00  0.00    -0.000 C 
BRANCH  13  14
ATOM     14  C   UNL     1       9.701 -29.623  -9.326  1.00  0.00    -0.000 C 
BRANCH  14  15
ATOM     15  C   UNL     1       8.856 -28.341  -9.388  1.00  0.00    -0.000 C 
BRANCH  15  16
ATOM     16  C   UNL     1       9.676 -27.078  -9.074  1.00  0.00    -0.000 C 
BRANCH  16  17
ATOM     17  C   UNL     1       8.795 -25.894  -8.644  1.00  0.00    -0.000 C 
BRANCH  17  18
ATOM     18  C   UNL     1       8.879 -25.610  -7.134  1.00  0.00    -0.000 C 
BRANCH  18  19
ATOM     19  C   UNL     1       7.505 -25.300  -6.518  1.00  0.00    -0.003 C 
ATOM     20  C   UNL     1       7.465 -23.942  -5.818  1.00  0.00     0.004 C 
ENDBRANCH  18  19
ENDBRANCH  17  18
ENDBRANCH  16  17
ENDBRANCH  15  16
ENDBRANCH  14  15
ENDBRANCH  13  14
ENDBRANCH  12  13
ENDBRANCH   1  12
TORSDOF 16
ENDMDL
MODEL 8
REMARK VINA RESULT:    12.124      4.493     10.539
REMARK INTER + INTRA:          22.372
REMARK INTER:                  22.929
REMARK INTRA:                  -0.557
REMARK UNBOUND:                -1.092
REMARK SMILES CCCCCCCCCCCCCCCCCC(=O)[O-]
REMARK SMILES IDX 10 1 11 2 12 3 13 4 14 5 15 6 16 7 17 8 18 9 19 10 20 11
REMARK SMILES IDX 9 12 8 13 7 14 6 15 5 16 4 17 3 18 2 19 1 20
REMARK H PARENT
REMARK Flexibility Score: inf
ROOT
ATOM      1  C   UNL     1       8.933 -29.831 -11.345  1.00  0.00     0.000 C 
ENDROOT
BRANCH   1   2
ATOM      2  C   UNL     1       9.561 -30.028 -12.734  1.00  0.00     0.000 C 
BRANCH   2   3
ATOM      3  C   UNL     1       8.542 -30.506 -13.785  1.00  0.00     0.000 C 
BRANCH   3   4
ATOM      4  C   UNL     1       8.798 -29.897 -15.173  1.00  0.00     0.000 C 
BRANCH   4   5
ATOM      5  C   UNL     1       9.528 -30.870 -16.116  1.00  0.00     0.000 C 
BRANCH   5   6
ATOM      6  C   UNL     1       9.109 -30.693 -17.584  1.00  0.00     0.000 C 
BRANCH   6   7
ATOM      7  C   UNL     1       8.659 -29.256 -17.901  1.00  0.00     0.006 C 
BRANCH   7   8
ATOM      8  C   UNL     1       7.201 -29.198 -18.376  1.00  0.00     0.053 C 
BRANCH   8   9
ATOM      9  C   UNL     1       7.101 -28.762 -19.807  1.00  0.00     0.041 C 
ATOM     10  O   UNL     1       6.601 -27.643 -20.094  1.00  0.00    -0.550 OA
ATOM     11  O   UNL     1       7.526 -29.608 -20.824  1.00  0.00    -0.550 OA
ENDBRANCH   8   9
ENDBRANCH   7   8
ENDBRANCH   6   7
ENDBRANCH   5   6
ENDBRANCH   4   5
ENDBRANCH   3   4
ENDBRANCH   2   3
ENDBRANCH   1   2
BRANCH   1  12
ATOM     12  C   UNL     1       9.976 -29.863 -10.215  1.00  0.00     0.000 C 
BRANCH  12  13
ATOM     13  C   UNL     1       9.595 -28.955  -9.036  1.00  0.00    -0.000 C 
BRANCH  13  14
ATOM     14  C   UNL     1       9.038 -27.593  -9.492  1.00  0.00    -0.000 C 
BRANCH  14  15
ATOM     15  C   UNL     1       9.515 -26.432  -8.607  1.00  0.00    -0.000 C 
BRANCH  15  16
ATOM     16  C   UNL     1       8.349 -25.671  -7.953  1.00  0.00    -0.000 C 
BRANCH  16  17
ATOM     17  C   UNL     1       8.438 -25.661  -6.418  1.00  0.00    -0.000 C 
BRANCH  17  18
ATOM     18  C   UNL     1       8.292 -24.250  -5.824  1.00  0.00    -0.000 C 
BRANCH  18  19
ATOM     19  C   UNL     1       6.835 -23.906  -5.476  1.00  0.00    -0.003 C 
ATOM     20  C   UNL     1       5.918 -25.129  -5.501  1.00  0.00     0.004 C 
ENDBRANCH  18  19
ENDBRANCH  17  18
ENDBRANCH  16  17
ENDBRANCH  15  16
ENDBRANCH  14  15
ENDBRANCH  13  14
ENDBRANCH  12  13
ENDBRANCH   1  12
TORSDOF 16
ENDMDL
