MODEL 1
REMARK VINA RESULT:    -4.863      0.000      0.000
REMARK INTER + INTRA:          -5.723
REMARK INTER:                  -5.574
REMARK INTRA:                  -0.149
REMARK UNBOUND:                -0.149
REMARK SMILES O=C([O-])C=Cc1ccc(O)cc1
REMARK SMILES IDX 6 1 7 2 12 3 8 4 11 5 9 6 5 7 4 8 2 9 1 10 3 11 10 12
REMARK H PARENT 10 13
REMARK Flexibility Score: inf
ROOT
ATOM      1  C   UNL     1      27.978  10.240 -32.773  1.00  0.00    -0.025 A 
ATOM      2  C   UNL     1      28.559   9.220 -33.546  1.00  0.00     0.012 A 
ATOM      3  C   UNL     1      28.629  11.488 -32.695  1.00  0.00     0.012 A 
ATOM      4  C   UNL     1      29.775   9.431 -34.203  1.00  0.00     0.047 A 
ATOM      5  C   UNL     1      29.845  11.695 -33.354  1.00  0.00     0.047 A 
ATOM      6  C   UNL     1      30.423  10.669 -34.106  1.00  0.00     0.115 A 
ENDROOT
BRANCH   1   7
ATOM      7  C   UNL     1      26.681   9.971 -32.104  1.00  0.00     0.010 C 
ATOM      8  C   UNL     1      25.796   9.060 -32.536  1.00  0.00     0.025 C 
BRANCH   8   9
ATOM      9  C   UNL     1      24.513   8.828 -31.852  1.00  0.00     0.064 C 
ATOM     10  O   UNL     1      23.457   9.401 -32.232  1.00  0.00    -0.545 OA
ATOM     11  O   UNL     1      24.465   7.962 -30.767  1.00  0.00    -0.545 OA
ENDBRANCH   8   9
ENDBRANCH   1   7
BRANCH   6  12
ATOM     12  O   UNL     1      31.635  10.890 -34.756  1.00  0.00    -0.508 OA
ATOM     13  H   UNL     1      31.983  10.248 -35.460  1.00  0.00     0.293 HD
ENDBRANCH   6  12
TORSDOF 3
ENDMDL
MODEL 2
REMARK VINA RESULT:    -4.807      0.124      1.400
REMARK INTER + INTRA:          -5.659
REMARK INTER:                  -5.523
REMARK INTRA:                  -0.136
REMARK UNBOUND:                -0.149
REMARK SMILES O=C([O-])C=Cc1ccc(O)cc1
REMARK SMILES IDX 6 1 7 2 12 3 8 4 11 5 9 6 5 7 4 8 2 9 1 10 3 11 10 12
REMARK H PARENT 10 13
REMARK Flexibility Score: inf
ROOT
ATOM      1  C   UNL     1      27.924  10.166 -32.825  1.00  0.00    -0.025 A 
ATOM      2  C   UNL     1      28.487  11.452 -32.748  1.00  0.00     0.012 A 
ATOM      3  C   UNL     1      28.639   9.150 -33.491  1.00  0.00     0.012 A 
ATOM      4  C   UNL     1      29.723  11.724 -33.343  1.00  0.00     0.047 A 
ATOM      5  C   UNL     1      29.875   9.427 -34.085  1.00  0.00     0.047 A 
ATOM      6  C   UNL     1      30.419  10.712 -34.015  1.00  0.00     0.115 A 
ENDROOT
BRANCH   1   7
ATOM      7  C   UNL     1      26.616   9.925 -32.169  1.00  0.00     0.010 C 
ATOM      8  C   UNL     1      25.732   9.006 -32.585  1.00  0.00     0.025 C 
BRANCH   8   9
ATOM      9  C   UNL     1      24.437   8.802 -31.915  1.00  0.00     0.064 C 
ATOM     10  O   UNL     1      23.402   9.415 -32.291  1.00  0.00    -0.545 OA
ATOM     11  O   UNL     1      24.353   7.917 -30.847  1.00  0.00    -0.545 OA
ENDBRANCH   8   9
ENDBRANCH   1   7
BRANCH   6  12
ATOM     12  O   UNL     1      31.650  10.972 -34.612  1.00  0.00    -0.508 OA
ATOM     13  H   UNL     1      31.800  10.822 -35.604  1.00  0.00     0.293 HD
ENDBRANCH   6  12
TORSDOF 3
ENDMDL
MODEL 3
REMARK VINA RESULT:    -4.389     10.875     11.661
REMARK INTER + INTRA:          -5.179
REMARK INTER:                  -5.028
REMARK INTRA:                  -0.151
REMARK UNBOUND:                -0.149
REMARK SMILES O=C([O-])C=Cc1ccc(O)cc1
REMARK SMILES IDX 6 1 7 2 12 3 8 4 11 5 9 6 5 7 4 8 2 9 1 10 3 11 10 12
REMARK H PARENT 10 13
REMARK Flexibility Score: inf
ROOT
ATOM      1  C   UNL     1      31.130   6.368 -23.084  1.00  0.00    -0.025 A 
ATOM      2  C   UNL     1      30.172   6.345 -22.057  1.00  0.00     0.012 A 
ATOM      3  C   UNL     1      32.305   7.124 -22.900  1.00  0.00     0.012 A 
ATOM      4  C   UNL     1      30.369   7.080 -20.884  1.00  0.00     0.047 A 
ATOM      5  C   UNL     1      32.499   7.858 -21.725  1.00  0.00     0.047 A 
ATOM      6  C   UNL     1      31.532   7.840 -20.716  1.00  0.00     0.115 A 
ENDROOT
BRANCH   1   7
ATOM      7  C   UNL     1      30.880   5.563 -24.305  1.00  0.00     0.010 C 
ATOM      8  C   UNL     1      29.945   4.604 -24.387  1.00  0.00     0.025 C 
BRANCH   8   9
ATOM      9  C   UNL     1      29.732   3.817 -25.612  1.00  0.00     0.064 C 
ATOM     10  O   UNL     1      29.593   2.565 -25.569  1.00  0.00    -0.545 OA
ATOM     11  O   UNL     1      29.685   4.465 -26.840  1.00  0.00    -0.545 OA
ENDBRANCH   8   9
ENDBRANCH   1   7
BRANCH   6  12
ATOM     12  O   UNL     1      31.739   8.577 -19.553  1.00  0.00    -0.508 OA
ATOM     13  H   UNL     1      31.133   8.474 -18.746  1.00  0.00     0.293 HD
ENDBRANCH   6  12
TORSDOF 3
ENDMDL
MODEL 4
REMARK VINA RESULT:    -4.374     10.080     11.119
REMARK INTER + INTRA:          -5.162
REMARK INTER:                  -5.027
REMARK INTRA:                  -0.135
REMARK UNBOUND:                -0.149
REMARK SMILES O=C([O-])C=Cc1ccc(O)cc1
REMARK SMILES IDX 6 1 7 2 12 3 8 4 11 5 9 6 5 7 4 8 2 9 1 10 3 11 10 12
REMARK H PARENT 10 13
REMARK Flexibility Score: inf
ROOT
ATOM      1  C   UNL     1      31.378   6.470 -23.917  1.00  0.00    -0.025 A 
ATOM      2  C   UNL     1      30.227   6.074 -23.214  1.00  0.00     0.012 A 
ATOM      3  C   UNL     1      32.348   7.245 -23.251  1.00  0.00     0.012 A 
ATOM      4  C   UNL     1      30.036   6.464 -21.885  1.00  0.00     0.047 A 
ATOM      5  C   UNL     1      32.153   7.633 -21.921  1.00  0.00     0.047 A 
ATOM      6  C   UNL     1      30.998   7.247 -21.236  1.00  0.00     0.115 A 
ENDROOT
BRANCH   1   7
ATOM      7  C   UNL     1      31.539   6.021 -25.322  1.00  0.00     0.010 C 
ATOM      8  C   UNL     1      31.882   6.838 -26.330  1.00  0.00     0.025 C 
BRANCH   8   9
ATOM      9  C   UNL     1      32.022   6.359 -27.715  1.00  0.00     0.064 C 
ATOM     10  O   UNL     1      31.135   5.642 -28.252  1.00  0.00    -0.545 OA
ATOM     11  O   UNL     1      33.154   6.702 -28.445  1.00  0.00    -0.545 OA
ENDBRANCH   8   9
ENDBRANCH   1   7
BRANCH   6  12
ATOM     12  O   UNL     1      30.818   7.643 -19.913  1.00  0.00    -0.508 OA
ATOM     13  H   UNL     1      30.223   7.119 -19.280  1.00  0.00     0.293 HD
ENDBRANCH   6  12
TORSDOF 3
ENDMDL
MODEL 5
REMARK VINA RESULT:    -4.371      1.439      5.873
REMARK INTER + INTRA:          -5.158
REMARK INTER:                  -5.021
REMARK INTRA:                  -0.137
REMARK UNBOUND:                -0.149
REMARK SMILES O=C([O-])C=Cc1ccc(O)cc1
REMARK SMILES IDX 6 1 7 2 12 3 8 4 11 5 9 6 5 7 4 8 2 9 1 10 3 11 10 12
REMARK H PARENT 10 13
REMARK Flexibility Score: inf
ROOT
ATOM      1  C   UNL     1      26.547   9.651 -31.717  1.00  0.00    -0.025 A 
ATOM      2  C   UNL     1      25.268   9.871 -32.257  1.00  0.00     0.012 A 
ATOM      3  C   UNL     1      26.744   8.546 -30.864  1.00  0.00     0.012 A 
ATOM      4  C   UNL     1      24.204   9.024 -31.932  1.00  0.00     0.047 A 
ATOM      5  C   UNL     1      25.677   7.701 -30.542  1.00  0.00     0.047 A 
ATOM      6  C   UNL     1      24.405   7.938 -31.072  1.00  0.00     0.115 A 
ENDROOT
BRANCH   1   7
ATOM      7  C   UNL     1      27.646  10.571 -32.100  1.00  0.00     0.010 C 
ATOM      8  C   UNL     1      28.548  10.297 -33.055  1.00  0.00     0.025 C 
BRANCH   8   9
ATOM      9  C   UNL     1      29.633  11.230 -33.401  1.00  0.00     0.064 C 
ATOM     10  O   UNL     1      29.757  12.336 -32.809  1.00  0.00    -0.545 OA
ATOM     11  O   UNL     1      30.536  10.886 -34.399  1.00  0.00    -0.545 OA
ENDBRANCH   8   9
ENDBRANCH   1   7
BRANCH   6  12
ATOM     12  O   UNL     1      23.353   7.089 -30.741  1.00  0.00    -0.508 OA
ATOM     13  H   UNL     1      22.572   6.941 -31.372  1.00  0.00     0.293 HD
ENDBRANCH   6  12
TORSDOF 3
ENDMDL
MODEL 6
REMARK VINA RESULT:    -4.259     12.731     13.914
REMARK INTER + INTRA:          -5.030
REMARK INTER:                  -4.893
REMARK INTRA:                  -0.137
REMARK UNBOUND:                -0.149
REMARK SMILES O=C([O-])C=Cc1ccc(O)cc1
REMARK SMILES IDX 6 1 7 2 12 3 8 4 11 5 9 6 5 7 4 8 2 9 1 10 3 11 10 12
REMARK H PARENT 10 13
REMARK Flexibility Score: inf
ROOT
ATOM      1  C   UNL     1      34.318   7.170 -22.767  1.00  0.00    -0.025 A 
ATOM      2  C   UNL     1      33.157   6.907 -23.513  1.00  0.00     0.012 A 
ATOM      3  C   UNL     1      34.196   7.841 -21.534  1.00  0.00     0.012 A 
ATOM      4  C   UNL     1      31.905   7.328 -23.053  1.00  0.00     0.047 A 
ATOM      5  C   UNL     1      32.942   8.260 -21.076  1.00  0.00     0.047 A 
ATOM      6  C   UNL     1      31.795   8.007 -21.834  1.00  0.00     0.115 A 
ENDROOT
BRANCH   1   7
ATOM      7  C   UNL     1      35.621   6.694 -23.293  1.00  0.00     0.010 C 
ATOM      8  C   UNL     1      36.434   5.860 -22.626  1.00  0.00     0.025 C 
BRANCH   8   9
ATOM      9  C   UNL     1      37.726   5.418 -23.175  1.00  0.00     0.064 C 
ATOM     10  O   UNL     1      38.136   4.238 -23.010  1.00  0.00    -0.545 OA
ATOM     11  O   UNL     1      38.509   6.318 -23.888  1.00  0.00    -0.545 OA
ENDBRANCH   8   9
ENDBRANCH   1   7
BRANCH   6  12
ATOM     12  O   UNL     1      30.554   8.431 -21.366  1.00  0.00    -0.508 OA
ATOM     13  H   UNL     1      30.205   8.147 -20.457  1.00  0.00     0.293 HD
ENDBRANCH   6  12
TORSDOF 3
ENDMDL
MODEL 7
REMARK VINA RESULT:    -4.136     12.806     14.010
REMARK INTER + INTRA:          -4.889
REMARK INTER:                  -4.752
REMARK INTRA:                  -0.137
REMARK UNBOUND:                -0.149
REMARK SMILES O=C([O-])C=Cc1ccc(O)cc1
REMARK SMILES IDX 6 1 7 2 12 3 8 4 11 5 9 6 5 7 4 8 2 9 1 10 3 11 10 12
REMARK H PARENT 10 13
REMARK Flexibility Score: inf
ROOT
ATOM      1  C   UNL     1      26.220  -3.468 -33.683  1.00  0.00    -0.025 A 
ATOM      2  C   UNL     1      25.796  -2.164 -33.378  1.00  0.00     0.012 A 
ATOM      3  C   UNL     1      26.719  -3.736 -34.974  1.00  0.00     0.012 A 
ATOM      4  C   UNL     1      25.843  -1.156 -34.346  1.00  0.00     0.047 A 
ATOM      5  C   UNL     1      26.765  -2.725 -35.939  1.00  0.00     0.047 A 
ATOM      6  C   UNL     1      26.325  -1.435 -35.630  1.00  0.00     0.115 A 
ENDROOT
BRANCH   1   7
ATOM      7  C   UNL     1      26.160  -4.500 -32.618  1.00  0.00     0.010 C 
ATOM      8  C   UNL     1      27.213  -4.857 -31.867  1.00  0.00     0.025 C 
BRANCH   8   9
ATOM      9  C   UNL     1      27.119  -5.894 -30.826  1.00  0.00     0.064 C 
ATOM     10  O   UNL     1      26.002  -6.333 -30.440  1.00  0.00    -0.545 OA
ATOM     11  O   UNL     1      28.282  -6.398 -30.258  1.00  0.00    -0.545 OA
ENDBRANCH   8   9
ENDBRANCH   1   7
BRANCH   6  12
ATOM     12  O   UNL     1      26.376  -0.439 -36.602  1.00  0.00    -0.508 OA
ATOM     13  H   UNL     1      26.771   0.474 -36.405  1.00  0.00     0.293 HD
ENDBRANCH   6  12
TORSDOF 3
ENDMDL
MODEL 8
REMARK VINA RESULT:    -3.985     13.081     14.326
REMARK INTER + INTRA:          -4.716
REMARK INTER:                  -4.567
REMARK INTRA:                  -0.149
REMARK UNBOUND:                -0.149
REMARK SMILES O=C([O-])C=Cc1ccc(O)cc1
REMARK SMILES IDX 6 1 7 2 12 3 8 4 11 5 9 6 5 7 4 8 2 9 1 10 3 11 10 12
REMARK H PARENT 10 13
REMARK Flexibility Score: inf
ROOT
ATOM      1  C   UNL     1      33.085   6.994 -21.366  1.00  0.00    -0.025 A 
ATOM      2  C   UNL     1      32.574   5.702 -21.150  1.00  0.00     0.012 A 
ATOM      3  C   UNL     1      32.185   8.077 -21.436  1.00  0.00     0.012 A 
ATOM      4  C   UNL     1      31.197   5.492 -21.033  1.00  0.00     0.047 A 
ATOM      5  C   UNL     1      30.808   7.862 -21.318  1.00  0.00     0.047 A 
ATOM      6  C   UNL     1      30.310   6.572 -21.119  1.00  0.00     0.115 A 
ENDROOT
BRANCH   1   7
ATOM      7  C   UNL     1      34.555   7.166 -21.472  1.00  0.00     0.010 C 
ATOM      8  C   UNL     1      35.384   6.219 -21.935  1.00  0.00     0.025 C 
BRANCH   8   9
ATOM      9  C   UNL     1      36.840   6.422 -22.016  1.00  0.00     0.064 C 
ATOM     10  O   UNL     1      37.474   6.986 -21.084  1.00  0.00    -0.545 OA
ATOM     11  O   UNL     1      37.529   5.984 -23.141  1.00  0.00    -0.545 OA
ENDBRANCH   8   9
ENDBRANCH   1   7
BRANCH   6  12
ATOM     12  O   UNL     1      28.936   6.375 -21.005  1.00  0.00    -0.508 OA
ATOM     13  H   UNL     1      28.310   7.136 -20.767  1.00  0.00     0.293 HD
ENDBRANCH   6  12
TORSDOF 3
ENDMDL
MODEL 9
REMARK VINA RESULT:    -3.887     11.959     13.209
REMARK INTER + INTRA:          -4.603
REMARK INTER:                  -4.469
REMARK INTRA:                  -0.135
REMARK UNBOUND:                -0.149
REMARK SMILES O=C([O-])C=Cc1ccc(O)cc1
REMARK SMILES IDX 6 1 7 2 12 3 8 4 11 5 9 6 5 7 4 8 2 9 1 10 3 11 10 12
REMARK H PARENT 10 13
REMARK Flexibility Score: inf
ROOT
ATOM      1  C   UNL     1      33.295   6.628 -23.245  1.00  0.00    -0.025 A 
ATOM      2  C   UNL     1      32.662   6.251 -24.443  1.00  0.00     0.012 A 
ATOM      3  C   UNL     1      32.514   6.766 -22.079  1.00  0.00     0.012 A 
ATOM      4  C   UNL     1      31.280   6.043 -24.482  1.00  0.00     0.047 A 
ATOM      5  C   UNL     1      31.132   6.557 -22.123  1.00  0.00     0.047 A 
ATOM      6  C   UNL     1      30.511   6.197 -23.322  1.00  0.00     0.115 A 
ENDROOT
BRANCH   1   7
ATOM      7  C   UNL     1      34.765   6.827 -23.252  1.00  0.00     0.010 C 
ATOM      8  C   UNL     1      35.646   5.883 -22.888  1.00  0.00     0.025 C 
BRANCH   8   9
ATOM      9  C   UNL     1      37.099   6.121 -22.897  1.00  0.00     0.064 C 
ATOM     10  O   UNL     1      37.702   6.441 -23.957  1.00  0.00    -0.545 OA
ATOM     11  O   UNL     1      37.819   5.988 -21.717  1.00  0.00    -0.545 OA
ENDBRANCH   8   9
ENDBRANCH   1   7
BRANCH   6  12
ATOM     12  O   UNL     1      29.134   5.993 -23.349  1.00  0.00    -0.508 OA
ATOM     13  H   UNL     1      28.708   5.195 -22.892  1.00  0.00     0.293 HD
ENDBRANCH   6  12
TORSDOF 3
ENDMDL
