MODEL 1
REMARK VINA RESULT:    -5.105      0.000      0.000
REMARK INTER + INTRA:          -6.290
REMARK INTER:                  -6.001
REMARK INTRA:                  -0.289
REMARK UNBOUND:                -0.289
REMARK SMILES O=C([O-])C=Cc1ccc(O)c(O)c1
REMARK SMILES IDX 6 1 13 2 7 3 11 4 8 5 9 6 5 7 4 8 2 9 1 10 3 11 12 12 10 14
REMARK H PARENT 12 13 10 15
REMARK Flexibility Score: inf
ROOT
ATOM      1  C   UNL     1       8.747  34.102  -1.150  1.00  0.00    -0.022 A 
ATOM      2  C   UNL     1       8.559  33.510   0.105  1.00  0.00     0.058 A 
ATOM      3  C   UNL     1       9.570  35.232  -1.259  1.00  0.00     0.012 A 
ATOM      4  C   UNL     1       9.139  34.063   1.255  1.00  0.00     0.157 A 
ATOM      5  C   UNL     1      10.151  35.793  -0.120  1.00  0.00     0.051 A 
ATOM      6  C   UNL     1       9.941  35.224   1.141  1.00  0.00     0.157 A 
ENDROOT
BRANCH   1   7
ATOM      7  C   UNL     1       8.163  33.461  -2.347  1.00  0.00     0.010 C 
ATOM      8  C   UNL     1       6.995  33.795  -2.917  1.00  0.00     0.025 C 
BRANCH   8   9
ATOM      9  C   UNL     1       5.999  34.730  -2.359  1.00  0.00     0.064 C 
ATOM     10  O   UNL     1       5.041  34.325  -1.647  1.00  0.00    -0.545 OA
ATOM     11  O   UNL     1       6.082  36.078  -2.679  1.00  0.00    -0.545 OA
ENDBRANCH   8   9
ENDBRANCH   1   7
BRANCH   4  12
ATOM     12  O   UNL     1       8.897  33.431   2.476  1.00  0.00    -0.504 OA
ATOM     13  H   UNL     1       8.010  33.022   2.735  1.00  0.00     0.293 HD
ENDBRANCH   4  12
BRANCH   6  14
ATOM     14  O   UNL     1      10.546  35.836   2.241  1.00  0.00    -0.504 OA
ATOM     15  H   UNL     1      11.438  36.307   2.204  1.00  0.00     0.293 HD
ENDBRANCH   6  14
TORSDOF 4
ENDMDL
MODEL 2
REMARK VINA RESULT:    -5.098      1.493      1.665
REMARK INTER + INTRA:          -6.281
REMARK INTER:                  -6.018
REMARK INTRA:                  -0.264
REMARK UNBOUND:                -0.289
REMARK SMILES O=C([O-])C=Cc1ccc(O)c(O)c1
REMARK SMILES IDX 6 1 13 2 7 3 11 4 8 5 9 6 5 7 4 8 2 9 1 10 3 11 12 12 10 14
REMARK H PARENT 12 13 10 15
REMARK Flexibility Score: inf
ROOT
ATOM      1  C   UNL     1       8.302  35.514  -1.071  1.00  0.00    -0.022 A 
ATOM      2  C   UNL     1       8.179  34.550  -0.062  1.00  0.00     0.058 A 
ATOM      3  C   UNL     1       9.268  36.522  -0.942  1.00  0.00     0.012 A 
ATOM      4  C   UNL     1       8.971  34.612   1.092  1.00  0.00     0.157 A 
ATOM      5  C   UNL     1      10.062  36.594   0.204  1.00  0.00     0.051 A 
ATOM      6  C   UNL     1       9.921  35.651   1.229  1.00  0.00     0.157 A 
ENDROOT
BRANCH   1   7
ATOM      7  C   UNL     1       7.486  35.387  -2.297  1.00  0.00     0.010 C 
ATOM      8  C   UNL     1       6.422  36.145  -2.606  1.00  0.00     0.025 C 
BRANCH   8   9
ATOM      9  C   UNL     1       5.764  37.114  -1.709  1.00  0.00     0.064 C 
ATOM     10  O   UNL     1       4.949  36.744  -0.823  1.00  0.00    -0.545 OA
ATOM     11  O   UNL     1       5.999  38.470  -1.889  1.00  0.00    -0.545 OA
ENDBRANCH   8   9
ENDBRANCH   1   7
BRANCH   4  12
ATOM     12  O   UNL     1       8.785  33.627   2.064  1.00  0.00    -0.504 OA
ATOM     13  H   UNL     1       9.523  33.031   2.413  1.00  0.00     0.293 HD
ENDBRANCH   4  12
BRANCH   6  14
ATOM     14  O   UNL     1      10.741  35.783   2.352  1.00  0.00    -0.504 OA
ATOM     15  H   UNL     1      11.395  35.077   2.659  1.00  0.00     0.293 HD
ENDBRANCH   6  14
TORSDOF 4
ENDMDL
MODEL 3
REMARK VINA RESULT:    -5.080      1.989      2.560
REMARK INTER + INTRA:          -6.260
REMARK INTER:                  -6.063
REMARK INTRA:                  -0.197
REMARK UNBOUND:                -0.289
REMARK SMILES O=C([O-])C=Cc1ccc(O)c(O)c1
REMARK SMILES IDX 6 1 13 2 7 3 11 4 8 5 9 6 5 7 4 8 2 9 1 10 3 11 12 12 10 14
REMARK H PARENT 12 13 10 15
REMARK Flexibility Score: inf
ROOT
ATOM      1  C   UNL     1       8.066  36.123  -0.129  1.00  0.00    -0.022 A 
ATOM      2  C   UNL     1       8.756  35.680   1.007  1.00  0.00     0.058 A 
ATOM      3  C   UNL     1       8.716  36.968  -1.040  1.00  0.00     0.012 A 
ATOM      4  C   UNL     1      10.062  36.113   1.269  1.00  0.00     0.157 A 
ATOM      5  C   UNL     1      10.018  37.407  -0.788  1.00  0.00     0.051 A 
ATOM      6  C   UNL     1      10.700  36.992   0.362  1.00  0.00     0.157 A 
ENDROOT
BRANCH   1   7
ATOM      7  C   UNL     1       6.709  35.605  -0.399  1.00  0.00     0.010 C 
ATOM      8  C   UNL     1       6.423  34.514  -1.127  1.00  0.00     0.025 C 
BRANCH   8   9
ATOM      9  C   UNL     1       7.385  33.741  -1.936  1.00  0.00     0.064 C 
ATOM     10  O   UNL     1       7.298  33.687  -3.192  1.00  0.00    -0.545 OA
ATOM     11  O   UNL     1       8.369  33.002  -1.294  1.00  0.00    -0.545 OA
ENDBRANCH   8   9
ENDBRANCH   1   7
BRANCH   4  12
ATOM     12  O   UNL     1      10.684  35.644   2.428  1.00  0.00    -0.504 OA
ATOM     13  H   UNL     1      10.296  34.931   3.029  1.00  0.00     0.293 HD
ENDBRANCH   4  12
BRANCH   6  14
ATOM     14  O   UNL     1      11.997  37.472   0.559  1.00  0.00    -0.504 OA
ATOM     15  H   UNL     1      12.236  38.452   0.594  1.00  0.00     0.293 HD
ENDBRANCH   6  14
TORSDOF 4
ENDMDL
MODEL 4
REMARK VINA RESULT:    -5.014      1.638      2.185
REMARK INTER + INTRA:          -6.183
REMARK INTER:                  -5.891
REMARK INTRA:                  -0.292
REMARK UNBOUND:                -0.289
REMARK SMILES O=C([O-])C=Cc1ccc(O)c(O)c1
REMARK SMILES IDX 6 1 13 2 7 3 11 4 8 5 9 6 5 7 4 8 2 9 1 10 3 11 12 12 10 14
REMARK H PARENT 12 13 10 15
REMARK Flexibility Score: inf
ROOT
ATOM      1  C   UNL     1       8.676  35.234  -0.641  1.00  0.00    -0.022 A 
ATOM      2  C   UNL     1       9.176  35.001   0.647  1.00  0.00     0.058 A 
ATOM      3  C   UNL     1       9.234  36.259  -1.419  1.00  0.00     0.012 A 
ATOM      4  C   UNL     1      10.185  35.812   1.183  1.00  0.00     0.157 A 
ATOM      5  C   UNL     1      10.239  37.073  -0.894  1.00  0.00     0.051 A 
ATOM      6  C   UNL     1      10.720  36.865   0.404  1.00  0.00     0.157 A 
ENDROOT
BRANCH   1   7
ATOM      7  C   UNL     1       7.648  34.327  -1.193  1.00  0.00     0.010 C 
ATOM      8  C   UNL     1       6.322  34.525  -1.134  1.00  0.00     0.025 C 
BRANCH   8   9
ATOM      9  C   UNL     1       5.642  35.580  -0.357  1.00  0.00     0.064 C 
ATOM     10  O   UNL     1       5.300  36.671  -0.886  1.00  0.00    -0.545 OA
ATOM     11  O   UNL     1       5.435  35.392   1.002  1.00  0.00    -0.545 OA
ENDBRANCH   8   9
ENDBRANCH   1   7
BRANCH   4  12
ATOM     12  O   UNL     1      10.625  35.533   2.479  1.00  0.00    -0.504 OA
ATOM     13  H   UNL     1      10.137  34.928   3.123  1.00  0.00     0.293 HD
ENDBRANCH   4  12
BRANCH   6  14
ATOM     14  O   UNL     1      11.722  37.718   0.872  1.00  0.00    -0.504 OA
ATOM     15  H   UNL     1      11.759  38.081   1.814  1.00  0.00     0.293 HD
ENDBRANCH   6  14
TORSDOF 4
ENDMDL
MODEL 5
REMARK VINA RESULT:    -4.958      3.333      5.127
REMARK INTER + INTRA:          -6.117
REMARK INTER:                  -5.831
REMARK INTRA:                  -0.286
REMARK UNBOUND:                -0.289
REMARK SMILES O=C([O-])C=Cc1ccc(O)c(O)c1
REMARK SMILES IDX 6 1 13 2 7 3 11 4 8 5 9 6 5 7 4 8 2 9 1 10 3 11 12 12 10 14
REMARK H PARENT 12 13 10 15
REMARK Flexibility Score: inf
ROOT
ATOM      1  C   UNL     1      10.215  37.856  -0.464  1.00  0.00    -0.022 A 
ATOM      2  C   UNL     1      10.730  37.238   0.682  1.00  0.00     0.058 A 
ATOM      3  C   UNL     1       8.975  37.439  -0.970  1.00  0.00     0.012 A 
ATOM      4  C   UNL     1      10.050  36.177   1.295  1.00  0.00     0.157 A 
ATOM      5  C   UNL     1       8.289  36.382  -0.368  1.00  0.00     0.051 A 
ATOM      6  C   UNL     1       8.815  35.740   0.759  1.00  0.00     0.157 A 
ENDROOT
BRANCH   1   7
ATOM      7  C   UNL     1      10.934  39.005  -1.053  1.00  0.00     0.010 C 
ATOM      8  C   UNL     1      10.786  40.287  -0.684  1.00  0.00     0.025 C 
BRANCH   8   9
ATOM      9  C   UNL     1       9.759  40.806   0.239  1.00  0.00     0.064 C 
ATOM     10  O   UNL     1       9.961  40.876   1.480  1.00  0.00    -0.545 OA
ATOM     11  O   UNL     1       8.515  41.163  -0.266  1.00  0.00    -0.545 OA
ENDBRANCH   8   9
ENDBRANCH   1   7
BRANCH   4  12
ATOM     12  O   UNL     1      10.629  35.597   2.425  1.00  0.00    -0.504 OA
ATOM     13  H   UNL     1      10.461  35.910   3.370  1.00  0.00     0.293 HD
ENDBRANCH   4  12
BRANCH   6  14
ATOM     14  O   UNL     1       8.082  34.686   1.310  1.00  0.00    -0.504 OA
ATOM     15  H   UNL     1       7.171  34.793   1.732  1.00  0.00     0.293 HD
ENDBRANCH   6  14
TORSDOF 4
ENDMDL
MODEL 6
REMARK VINA RESULT:    -4.826      2.380      4.804
REMARK INTER + INTRA:          -5.962
REMARK INTER:                  -5.697
REMARK INTRA:                  -0.265
REMARK UNBOUND:                -0.289
REMARK SMILES O=C([O-])C=Cc1ccc(O)c(O)c1
REMARK SMILES IDX 6 1 13 2 7 3 11 4 8 5 9 6 5 7 4 8 2 9 1 10 3 11 12 12 10 14
REMARK H PARENT 12 13 10 15
REMARK Flexibility Score: inf
ROOT
ATOM      1  C   UNL     1       9.038  34.590   0.015  1.00  0.00    -0.022 A 
ATOM      2  C   UNL     1       9.728  33.545  -0.612  1.00  0.00     0.058 A 
ATOM      3  C   UNL     1       7.763  34.945  -0.447  1.00  0.00     0.012 A 
ATOM      4  C   UNL     1       9.182  32.890  -1.724  1.00  0.00     0.157 A 
ATOM      5  C   UNL     1       7.210  34.300  -1.554  1.00  0.00     0.051 A 
ATOM      6  C   UNL     1       7.909  33.276  -2.205  1.00  0.00     0.157 A 
ENDROOT
BRANCH   1   7
ATOM      7  C   UNL     1       9.621  35.223   1.217  1.00  0.00     0.010 C 
ATOM      8  C   UNL     1      10.428  36.296   1.218  1.00  0.00     0.025 C 
BRANCH   8   9
ATOM      9  C   UNL     1      11.023  36.928   0.025  1.00  0.00     0.064 C 
ATOM     10  O   UNL     1      12.232  36.750  -0.282  1.00  0.00    -0.545 OA
ATOM     11  O   UNL     1      10.251  37.791  -0.741  1.00  0.00    -0.545 OA
ENDBRANCH   8   9
ENDBRANCH   1   7
BRANCH   4  12
ATOM     12  O   UNL     1       9.931  31.867  -2.311  1.00  0.00    -0.504 OA
ATOM     13  H   UNL     1       9.530  31.031  -2.710  1.00  0.00     0.293 HD
ENDBRANCH   4  12
BRANCH   6  14
ATOM     14  O   UNL     1       7.304  32.675  -3.311  1.00  0.00    -0.504 OA
ATOM     15  H   UNL     1       7.294  33.078  -4.237  1.00  0.00     0.293 HD
ENDBRANCH   6  14
TORSDOF 4
ENDMDL
MODEL 7
REMARK VINA RESULT:    -4.710      2.029      2.361
REMARK INTER + INTRA:          -5.825
REMARK INTER:                  -5.549
REMARK INTRA:                  -0.276
REMARK UNBOUND:                -0.289
REMARK SMILES O=C([O-])C=Cc1ccc(O)c(O)c1
REMARK SMILES IDX 6 1 13 2 7 3 11 4 8 5 9 6 5 7 4 8 2 9 1 10 3 11 12 12 10 14
REMARK H PARENT 12 13 10 15
REMARK Flexibility Score: inf
ROOT
ATOM      1  C   UNL     1       8.092  35.179  -0.145  1.00  0.00    -0.022 A 
ATOM      2  C   UNL     1       8.696  33.918  -0.060  1.00  0.00     0.058 A 
ATOM      3  C   UNL     1       8.774  36.224  -0.784  1.00  0.00     0.012 A 
ATOM      4  C   UNL     1       9.989  33.705  -0.557  1.00  0.00     0.157 A 
ATOM      5  C   UNL     1      10.063  36.024  -1.281  1.00  0.00     0.051 A 
ATOM      6  C   UNL     1      10.683  34.774  -1.170  1.00  0.00     0.157 A 
ENDROOT
BRANCH   1   7
ATOM      7  C   UNL     1       6.708  35.352   0.343  1.00  0.00     0.010 C 
ATOM      8  C   UNL     1       5.597  35.182  -0.392  1.00  0.00     0.025 C 
BRANCH   8   9
ATOM      9  C   UNL     1       5.552  34.971  -1.851  1.00  0.00     0.064 C 
ATOM     10  O   UNL     1       5.639  33.820  -2.354  1.00  0.00    -0.545 OA
ATOM     11  O   UNL     1       5.479  36.074  -2.692  1.00  0.00    -0.545 OA
ENDBRANCH   8   9
ENDBRANCH   1   7
BRANCH   4  12
ATOM     12  O   UNL     1      10.536  32.427  -0.424  1.00  0.00    -0.504 OA
ATOM     13  H   UNL     1      10.742  31.818  -1.203  1.00  0.00     0.293 HD
ENDBRANCH   4  12
BRANCH   6  14
ATOM     14  O   UNL     1      11.976  34.641  -1.682  1.00  0.00    -0.504 OA
ATOM     15  H   UNL     1      12.503  33.780  -1.666  1.00  0.00     0.293 HD
ENDBRANCH   6  14
TORSDOF 4
ENDMDL
MODEL 8
REMARK VINA RESULT:    -4.664      1.907      4.788
REMARK INTER + INTRA:          -5.771
REMARK INTER:                  -5.503
REMARK INTRA:                  -0.269
REMARK UNBOUND:                -0.289
REMARK SMILES O=C([O-])C=Cc1ccc(O)c(O)c1
REMARK SMILES IDX 6 1 13 2 7 3 11 4 8 5 9 6 5 7 4 8 2 9 1 10 3 11 12 12 10 14
REMARK H PARENT 12 13 10 15
REMARK Flexibility Score: inf
ROOT
ATOM      1  C   UNL     1       8.703  34.314   0.010  1.00  0.00    -0.022 A 
ATOM      2  C   UNL     1       7.473  34.751  -0.498  1.00  0.00     0.058 A 
ATOM      3  C   UNL     1       9.439  33.358  -0.704  1.00  0.00     0.012 A 
ATOM      4  C   UNL     1       6.947  34.206  -1.677  1.00  0.00     0.157 A 
ATOM      5  C   UNL     1       8.925  32.807  -1.880  1.00  0.00     0.051 A 
ATOM      6  C   UNL     1       7.681  33.217  -2.374  1.00  0.00     0.157 A 
ENDROOT
BRANCH   1   7
ATOM      7  C   UNL     1       9.250  34.949   1.227  1.00  0.00     0.010 C 
ATOM      8  C   UNL     1      10.046  36.029   1.252  1.00  0.00     0.025 C 
BRANCH   8   9
ATOM      9  C   UNL     1      10.667  36.669   0.076  1.00  0.00     0.064 C 
ATOM     10  O   UNL     1      11.861  36.432  -0.250  1.00  0.00    -0.545 OA
ATOM     11  O   UNL     1       9.940  37.604  -0.648  1.00  0.00    -0.545 OA
ENDBRANCH   8   9
ENDBRANCH   1   7
BRANCH   4  12
ATOM     12  O   UNL     1       5.708  34.677  -2.117  1.00  0.00    -0.504 OA
ATOM     13  H   UNL     1       4.970  34.082  -2.467  1.00  0.00     0.293 HD
ENDBRANCH   4  12
BRANCH   6  14
ATOM     14  O   UNL     1       7.220  32.623  -3.551  1.00  0.00    -0.504 OA
ATOM     15  H   UNL     1       6.327  32.159  -3.636  1.00  0.00     0.293 HD
ENDBRANCH   6  14
TORSDOF 4
ENDMDL
MODEL 9
REMARK VINA RESULT:    -4.651      2.636      3.723
REMARK INTER + INTRA:          -5.756
REMARK INTER:                  -5.462
REMARK INTRA:                  -0.294
REMARK UNBOUND:                -0.289
REMARK SMILES O=C([O-])C=Cc1ccc(O)c(O)c1
REMARK SMILES IDX 6 1 13 2 7 3 11 4 8 5 9 6 5 7 4 8 2 9 1 10 3 11 12 12 10 14
REMARK H PARENT 12 13 10 15
REMARK Flexibility Score: inf
ROOT
ATOM      1  C   UNL     1       6.982  34.621  -0.644  1.00  0.00    -0.022 A 
ATOM      2  C   UNL     1       8.253  34.320  -0.139  1.00  0.00     0.058 A 
ATOM      3  C   UNL     1       6.599  34.104  -1.890  1.00  0.00     0.012 A 
ATOM      4  C   UNL     1       9.160  33.555  -0.884  1.00  0.00     0.157 A 
ATOM      5  C   UNL     1       7.495  33.342  -2.642  1.00  0.00     0.051 A 
ATOM      6  C   UNL     1       8.778  33.065  -2.155  1.00  0.00     0.157 A 
ENDROOT
BRANCH   1   7
ATOM      7  C   UNL     1       6.034  35.386   0.192  1.00  0.00     0.010 C 
ATOM      8  C   UNL     1       5.809  36.707   0.105  1.00  0.00     0.025 C 
BRANCH   8   9
ATOM      9  C   UNL     1       6.587  37.662  -0.706  1.00  0.00     0.064 C 
ATOM     10  O   UNL     1       6.167  38.079  -1.818  1.00  0.00    -0.545 OA
ATOM     11  O   UNL     1       7.842  38.059  -0.264  1.00  0.00    -0.545 OA
ENDBRANCH   8   9
ENDBRANCH   1   7
BRANCH   4  12
ATOM     12  O   UNL     1      10.416  33.307  -0.326  1.00  0.00    -0.504 OA
ATOM     13  H   UNL     1      10.782  33.791   0.481  1.00  0.00     0.293 HD
ENDBRANCH   4  12
BRANCH   6  14
ATOM     14  O   UNL     1       9.629  32.302  -2.959  1.00  0.00    -0.504 OA
ATOM     15  H   UNL     1       9.399  31.385  -3.313  1.00  0.00     0.293 HD
ENDBRANCH   6  14
TORSDOF 4
ENDMDL
