MODEL 1
REMARK VINA RESULT:    41.851      0.000      0.000
REMARK INTER + INTRA:          54.685
REMARK INTER:                  55.307
REMARK INTRA:                  -0.622
REMARK UNBOUND:                -0.622
REMARK SMILES CC[C@H](C=C[C@H](C)[C@H]1CC[C@@H]2[C@H]3CC=C4C[C@H](O)CC[C@]4(C)[C@H]3CC[C@@]21C)C(C)C
REMARK SMILES IDX 6 1 7 2 5 3 4 4 3 5 2 6 1 7 28 8 29 9 30 10 8 11 9 12 26 13
REMARK SMILES IDX 10 14 11 15 25 16 27 17 12 18 24 19 23 20 13 21 21 22 14 23
REMARK SMILES IDX 15 24 20 25 22 26 16 27 19 28 17 29 18 30
REMARK H PARENT 18 31
REMARK Flexibility Score: inf
ROOT
ATOM      1  C   UNL     1       5.859  40.524  50.170  1.00  0.00     0.012 C 
ATOM      2  C   UNL     1       7.137  41.348  49.913  1.00  0.00     0.012 C 
ENDROOT
BRANCH   1   3
ATOM      3  C   UNL     1       6.220  39.245  50.901  1.00  0.00    -0.028 C 
ATOM      4  C   UNL     1       6.969  38.292  50.321  1.00  0.00    -0.027 C 
BRANCH   4   5
ATOM      5  C   UNL     1       7.359  36.995  51.009  1.00  0.00     0.014 C 
BRANCH   5   6
ATOM      6  C   UNL     1       6.329  35.859  50.787  1.00  0.00     0.004 C 
ATOM      7  C   UNL     1       4.885  36.350  50.903  1.00  0.00     0.004 C 
ENDBRANCH   5   6
BRANCH   5   8
ATOM      8  C   UNL     1       8.820  36.548  50.693  1.00  0.00    -0.011 C 
ATOM      9  C   UNL     1       9.493  37.336  49.557  1.00  0.00     0.008 C 
ATOM     10  C   UNL     1       9.698  36.594  51.954  1.00  0.00     0.008 C 
ENDBRANCH   5   8
ENDBRANCH   4   5
ENDBRANCH   1   3
BRANCH   1  11
ATOM     11  C   UNL     1       4.719  41.285  50.946  1.00  0.00     0.002 C 
ATOM     12  C   UNL     1       5.209  42.611  51.555  1.00  0.00     0.005 C 
ATOM     13  C   UNL     1       3.412  41.664  50.166  1.00  0.00    -0.026 C 
ATOM     14  C   UNL     1       4.659  43.736  50.683  1.00  0.00     0.005 C 
ATOM     15  C   UNL     1       3.702  43.105  49.655  1.00  0.00    -0.001 C 
ATOM     16  C   UNL     1       2.219  41.659  51.174  1.00  0.00     0.007 C 
ATOM     17  C   UNL     1       3.095  40.657  49.029  1.00  0.00     0.012 C 
ATOM     18  C   UNL     1       2.471  44.020  49.368  1.00  0.00     0.000 C 
ATOM     19  C   UNL     1       0.997  42.467  50.714  1.00  0.00     0.005 C 
ATOM     20  C   UNL     1       1.381  43.947  50.466  1.00  0.00     0.003 C 
ATOM     21  C   UNL     1       1.864  43.743  47.983  1.00  0.00     0.031 C 
ATOM     22  C   UNL     1       0.178  44.946  50.168  1.00  0.00    -0.008 C 
ATOM     23  C   UNL     1       0.704  44.643  47.703  1.00  0.00    -0.027 C 
ATOM     24  C   UNL     1      -0.097  45.140  48.667  1.00  0.00    -0.065 C 
ATOM     25  C   UNL     1       0.554  46.351  50.740  1.00  0.00     0.014 C 
ATOM     26  C   UNL     1      -1.122  44.463  50.867  1.00  0.00     0.016 C 
ATOM     27  C   UNL     1      -1.125  46.183  48.274  1.00  0.00     0.063 C 
ATOM     28  C   UNL     1      -0.433  47.481  50.368  1.00  0.00     0.033 C 
ATOM     29  C   UNL     1      -0.736  47.554  48.856  1.00  0.00     0.118 C 
BRANCH  29  30
ATOM     30  O   UNL     1       0.339  48.125  48.149  1.00  0.00    -0.393 OA
ATOM     31  H   UNL     1       1.045  47.435  48.048  1.00  0.00     0.210 HD
ENDBRANCH  29  30
ENDBRANCH   1  11
TORSDOF 6
ENDMDL
