MODEL 1
REMARK VINA RESULT:    -3.971      0.000      0.000
REMARK INTER + INTRA:         -14.635
REMARK INTER:                 -10.471
REMARK INTRA:                  -4.164
REMARK UNBOUND:                -4.164
REMARK SMILES CCCCCCCCCCCCCCCCCCCCCCCCCCCCCC(=O)[O-]
REMARK SMILES IDX 16 1 17 2 18 3 19 4 20 5 21 6 22 7 23 8 24 9 25 10 26 11
REMARK SMILES IDX 27 12 28 13 29 14 30 15 31 16 32 17 15 18 14 19 13 20 12 21
REMARK SMILES IDX 11 22 10 23 9 24 8 25 7 26 6 27 5 28 4 29 3 30 2 31 1 32
REMARK H PARENT
REMARK Flexibility Score: inf
ROOT
ATOM      1  C   UNL     1      14.712  50.637  96.209  1.00  0.00     0.000 C 
ENDROOT
BRANCH   1   2
ATOM      2  C   UNL     1      15.619  50.452  94.981  1.00  0.00     0.000 C 
BRANCH   2   3
ATOM      3  C   UNL     1      15.146  49.308  94.072  1.00  0.00     0.000 C 
BRANCH   3   4
ATOM      4  C   UNL     1      16.286  48.322  93.796  1.00  0.00     0.000 C 
BRANCH   4   5
ATOM      5  C   UNL     1      16.828  47.716  95.099  1.00  0.00     0.000 C 
BRANCH   5   6
ATOM      6  C   UNL     1      17.860  46.599  94.837  1.00  0.00     0.000 C 
BRANCH   6   7
ATOM      7  C   UNL     1      18.223  46.431  93.351  1.00  0.00     0.000 C 
BRANCH   7   8
ATOM      8  C   UNL     1      17.686  45.124  92.749  1.00  0.00     0.000 C 
BRANCH   8   9
ATOM      9  C   UNL     1      17.660  45.190  91.217  1.00  0.00     0.000 C 
BRANCH   9  10
ATOM     10  C   UNL     1      16.618  46.208  90.734  1.00  0.00     0.000 C 
BRANCH  10  11
ATOM     11  C   UNL     1      17.233  47.340  89.891  1.00  0.00     0.000 C 
BRANCH  11  12
ATOM     12  C   UNL     1      18.774  47.357  89.845  1.00  0.00     0.000 C 
BRANCH  12  13
ATOM     13  C   UNL     1      19.424  48.703  90.208  1.00  0.00     0.006 C 
BRANCH  13  14
ATOM     14  C   UNL     1      20.888  48.561  90.645  1.00  0.00     0.053 C 
BRANCH  14  15
ATOM     15  C   UNL     1      21.775  49.405  89.785  1.00  0.00     0.041 C 
ATOM     16  O   UNL     1      21.288  50.344  89.102  1.00  0.00    -0.550 OA
ATOM     17  O   UNL     1      23.134  49.136  89.713  1.00  0.00    -0.550 OA
ENDBRANCH  14  15
ENDBRANCH  13  14
ENDBRANCH  12  13
ENDBRANCH  11  12
ENDBRANCH  10  11
ENDBRANCH   9  10
ENDBRANCH   8   9
ENDBRANCH   7   8
ENDBRANCH   6   7
ENDBRANCH   5   6
ENDBRANCH   4   5
ENDBRANCH   3   4
ENDBRANCH   2   3
ENDBRANCH   1   2
BRANCH   1  18
ATOM     18  C   UNL     1      13.794  49.423  96.440  1.00  0.00     0.000 C 
BRANCH  18  19
ATOM     19  C   UNL     1      12.820  49.624  97.614  1.00  0.00     0.000 C 
BRANCH  19  20
ATOM     20  C   UNL     1      11.422  49.007  97.417  1.00  0.00     0.000 C 
BRANCH  20  21
ATOM     21  C   UNL     1      10.343  49.511  98.391  1.00  0.00     0.000 C 
BRANCH  21  22
ATOM     22  C   UNL     1       9.000  49.798  97.699  1.00  0.00     0.000 C 
BRANCH  22  23
ATOM     23  C   UNL     1       8.436  48.576  96.959  1.00  0.00     0.000 C 
BRANCH  23  24
ATOM     24  C   UNL     1       7.794  48.941  95.609  1.00  0.00    -0.000 C 
BRANCH  24  25
ATOM     25  C   UNL     1       8.624  49.984  94.841  1.00  0.00    -0.000 C 
BRANCH  25  26
ATOM     26  C   UNL     1       9.279  49.386  93.585  1.00  0.00    -0.000 C 
BRANCH  26  27
ATOM     27  C   UNL     1      10.811  49.511  93.612  1.00  0.00    -0.000 C 
BRANCH  27  28
ATOM     28  C   UNL     1      11.497  48.156  93.857  1.00  0.00    -0.000 C 
BRANCH  28  29
ATOM     29  C   UNL     1      10.577  46.960  93.560  1.00  0.00    -0.000 C 
BRANCH  29  30
ATOM     30  C   UNL     1      10.418  46.020  94.767  1.00  0.00    -0.000 C 
BRANCH  30  31
ATOM     31  C   UNL     1       8.967  45.552  94.963  1.00  0.00    -0.003 C 
ATOM     32  C   UNL     1       8.067  45.898  93.778  1.00  0.00     0.004 C 
ENDBRANCH  30  31
ENDBRANCH  29  30
ENDBRANCH  28  29
ENDBRANCH  27  28
ENDBRANCH  26  27
ENDBRANCH  25  26
ENDBRANCH  24  25
ENDBRANCH  23  24
ENDBRANCH  22  23
ENDBRANCH  21  22
ENDBRANCH  20  21
ENDBRANCH  19  20
ENDBRANCH  18  19
ENDBRANCH   1  18
TORSDOF 28
ENDMDL
MODEL 2
REMARK VINA RESULT:    -3.969      1.975      4.688
REMARK INTER + INTRA:         -14.631
REMARK INTER:                 -11.358
REMARK INTRA:                  -3.273
REMARK UNBOUND:                -4.164
REMARK SMILES CCCCCCCCCCCCCCCCCCCCCCCCCCCCCC(=O)[O-]
REMARK SMILES IDX 16 1 17 2 18 3 19 4 20 5 21 6 22 7 23 8 24 9 25 10 26 11
REMARK SMILES IDX 27 12 28 13 29 14 30 15 31 16 32 17 15 18 14 19 13 20 12 21
REMARK SMILES IDX 11 22 10 23 9 24 8 25 7 26 6 27 5 28 4 29 3 30 2 31 1 32
REMARK H PARENT
REMARK Flexibility Score: inf
ROOT
ATOM      1  C   UNL     1       9.252  49.655  98.087  1.00  0.00     0.000 C 
ENDROOT
BRANCH   1   2
ATOM      2  C   UNL     1       9.781  48.383  97.404  1.00  0.00     0.000 C 
BRANCH   2   3
ATOM      3  C   UNL     1      11.160  48.594  96.762  1.00  0.00     0.000 C 
BRANCH   3   4
ATOM      4  C   UNL     1      12.019  49.537  97.610  1.00  0.00     0.000 C 
BRANCH   4   5
ATOM      5  C   UNL     1      13.502  49.443  97.221  1.00  0.00     0.000 C 
BRANCH   5   6
ATOM      6  C   UNL     1      14.109  50.826  96.904  1.00  0.00     0.000 C 
BRANCH   6   7
ATOM      7  C   UNL     1      14.476  51.013  95.421  1.00  0.00     0.000 C 
BRANCH   7   8
ATOM      8  C   UNL     1      14.256  49.743  94.586  1.00  0.00     0.000 C 
BRANCH   8   9
ATOM      9  C   UNL     1      15.584  49.191  94.056  1.00  0.00     0.000 C 
BRANCH   9  10
ATOM     10  C   UNL     1      16.322  48.407  95.150  1.00  0.00     0.000 C 
BRANCH  10  11
ATOM     11  C   UNL     1      17.304  47.367  94.583  1.00  0.00     0.000 C 
BRANCH  11  12
ATOM     12  C   UNL     1      17.103  47.023  93.093  1.00  0.00     0.000 C 
BRANCH  12  13
ATOM     13  C   UNL     1      17.890  45.800  92.593  1.00  0.00     0.006 C 
BRANCH  13  14
ATOM     14  C   UNL     1      18.093  45.802  91.071  1.00  0.00     0.053 C 
BRANCH  14  15
ATOM     15  C   UNL     1      19.460  46.302  90.727  1.00  0.00     0.041 C 
ATOM     16  O   UNL     1      19.847  46.312  89.529  1.00  0.00    -0.550 OA
ATOM     17  O   UNL     1      20.318  46.729  91.730  1.00  0.00    -0.550 OA
ENDBRANCH  14  15
ENDBRANCH  13  14
ENDBRANCH  12  13
ENDBRANCH  11  12
ENDBRANCH  10  11
ENDBRANCH   9  10
ENDBRANCH   8   9
ENDBRANCH   7   8
ENDBRANCH   6   7
ENDBRANCH   5   6
ENDBRANCH   4   5
ENDBRANCH   3   4
ENDBRANCH   2   3
ENDBRANCH   1   2
BRANCH   1  18
ATOM     18  C   UNL     1       7.728  49.803  97.936  1.00  0.00     0.000 C 
BRANCH  18  19
ATOM     19  C   UNL     1       7.255  51.264  98.040  1.00  0.00     0.000 C 
BRANCH  19  20
ATOM     20  C   UNL     1       6.466  51.783  96.822  1.00  0.00     0.000 C 
BRANCH  20  21
ATOM     21  C   UNL     1       7.329  52.275  95.647  1.00  0.00     0.000 C 
BRANCH  21  22
ATOM     22  C   UNL     1       7.235  51.364  94.412  1.00  0.00     0.000 C 
BRANCH  22  23
ATOM     23  C   UNL     1       8.419  50.393  94.295  1.00  0.00     0.000 C 
BRANCH  23  24
ATOM     24  C   UNL     1       8.024  49.043  93.671  1.00  0.00    -0.000 C 
BRANCH  24  25
ATOM     25  C   UNL     1       7.372  48.103  94.700  1.00  0.00    -0.000 C 
BRANCH  25  26
ATOM     26  C   UNL     1       7.437  46.632  94.257  1.00  0.00    -0.000 C 
BRANCH  26  27
ATOM     27  C   UNL     1       8.604  45.877  94.913  1.00  0.00    -0.000 C 
BRANCH  27  28
ATOM     28  C   UNL     1       9.869  45.896  94.038  1.00  0.00    -0.000 C 
BRANCH  28  29
ATOM     29  C   UNL     1      10.842  44.753  94.371  1.00  0.00    -0.000 C 
BRANCH  29  30
ATOM     30  C   UNL     1      10.431  43.974  95.632  1.00  0.00    -0.000 C 
BRANCH  30  31
ATOM     31  C   UNL     1      10.868  42.501  95.585  1.00  0.00    -0.003 C 
ATOM     32  C   UNL     1      12.368  42.320  95.818  1.00  0.00     0.004 C 
ENDBRANCH  30  31
ENDBRANCH  29  30
ENDBRANCH  28  29
ENDBRANCH  27  28
ENDBRANCH  26  27
ENDBRANCH  25  26
ENDBRANCH  24  25
ENDBRANCH  23  24
ENDBRANCH  22  23
ENDBRANCH  21  22
ENDBRANCH  20  21
ENDBRANCH  19  20
ENDBRANCH  18  19
ENDBRANCH   1  18
TORSDOF 28
ENDMDL
MODEL 3
REMARK VINA RESULT:    -3.845      2.273      5.067
REMARK INTER + INTRA:         -14.303
REMARK INTER:                 -10.743
REMARK INTRA:                  -3.560
REMARK UNBOUND:                -4.164
REMARK SMILES CCCCCCCCCCCCCCCCCCCCCCCCCCCCCC(=O)[O-]
REMARK SMILES IDX 16 1 17 2 18 3 19 4 20 5 21 6 22 7 23 8 24 9 25 10 26 11
REMARK SMILES IDX 27 12 28 13 29 14 30 15 31 16 32 17 15 18 14 19 13 20 12 21
REMARK SMILES IDX 11 22 10 23 9 24 8 25 7 26 6 27 5 28 4 29 3 30 2 31 1 32
REMARK H PARENT
REMARK Flexibility Score: inf
ROOT
ATOM      1  C   UNL     1       8.698  47.460  96.341  1.00  0.00     0.000 C 
ENDROOT
BRANCH   1   2
ATOM      2  C   UNL     1       9.912  47.690  97.257  1.00  0.00     0.000 C 
BRANCH   2   3
ATOM      3  C   UNL     1      10.061  49.161  97.671  1.00  0.00     0.000 C 
BRANCH   3   4
ATOM      4  C   UNL     1      11.513  49.480  98.043  1.00  0.00     0.000 C 
BRANCH   4   5
ATOM      5  C   UNL     1      12.473  49.132  96.896  1.00  0.00     0.000 C 
BRANCH   5   6
ATOM      6  C   UNL     1      13.904  49.645  97.158  1.00  0.00     0.000 C 
BRANCH   6   7
ATOM      7  C   UNL     1      14.201  51.007  96.504  1.00  0.00     0.000 C 
BRANCH   7   8
ATOM      8  C   UNL     1      15.092  50.890  95.259  1.00  0.00     0.000 C 
BRANCH   8   9
ATOM      9  C   UNL     1      15.665  49.475  95.119  1.00  0.00     0.000 C 
BRANCH   9  10
ATOM     10  C   UNL     1      15.410  48.923  93.709  1.00  0.00     0.000 C 
BRANCH  10  11
ATOM     11  C   UNL     1      16.377  47.788  93.326  1.00  0.00     0.000 C 
BRANCH  11  12
ATOM     12  C   UNL     1      16.480  47.500  91.815  1.00  0.00     0.000 C 
BRANCH  12  13
ATOM     13  C   UNL     1      17.506  46.422  91.423  1.00  0.00     0.006 C 
BRANCH  13  14
ATOM     14  C   UNL     1      18.882  46.647  92.064  1.00  0.00     0.053 C 
BRANCH  14  15
ATOM     15  C   UNL     1      19.833  47.236  91.071  1.00  0.00     0.041 C 
ATOM     16  O   UNL     1      20.922  46.659  90.818  1.00  0.00    -0.550 OA
ATOM     17  O   UNL     1      19.530  48.438  90.447  1.00  0.00    -0.550 OA
ENDBRANCH  14  15
ENDBRANCH  13  14
ENDBRANCH  12  13
ENDBRANCH  11  12
ENDBRANCH  10  11
ENDBRANCH   9  10
ENDBRANCH   8   9
ENDBRANCH   7   8
ENDBRANCH   6   7
ENDBRANCH   5   6
ENDBRANCH   4   5
ENDBRANCH   3   4
ENDBRANCH   2   3
ENDBRANCH   1   2
BRANCH   1  18
ATOM     18  C   UNL     1       9.116  47.083  94.908  1.00  0.00     0.000 C 
BRANCH  18  19
ATOM     19  C   UNL     1      10.638  47.139  94.694  1.00  0.00     0.000 C 
BRANCH  19  20
ATOM     20  C   UNL     1      11.124  48.251  93.743  1.00  0.00     0.000 C 
BRANCH  20  21
ATOM     21  C   UNL     1      10.055  49.284  93.348  1.00  0.00     0.000 C 
BRANCH  21  22
ATOM     22  C   UNL     1       9.732  49.267  91.845  1.00  0.00     0.000 C 
BRANCH  22  23
ATOM     23  C   UNL     1       8.497  48.418  91.508  1.00  0.00     0.000 C 
BRANCH  23  24
ATOM     24  C   UNL     1       8.853  46.967  91.142  1.00  0.00    -0.000 C 
BRANCH  24  25
ATOM     25  C   UNL     1       9.963  46.899  90.079  1.00  0.00    -0.000 C 
BRANCH  25  26
ATOM     26  C   UNL     1      10.921  45.720  90.323  1.00  0.00    -0.000 C 
BRANCH  26  27
ATOM     27  C   UNL     1      10.615  44.983  91.637  1.00  0.00    -0.000 C 
BRANCH  27  28
ATOM     28  C   UNL     1      11.897  44.611  92.402  1.00  0.00    -0.000 C 
BRANCH  28  29
ATOM     29  C   UNL     1      11.612  43.833  93.698  1.00  0.00    -0.000 C 
BRANCH  29  30
ATOM     30  C   UNL     1      12.611  42.687  93.932  1.00  0.00    -0.000 C 
BRANCH  30  31
ATOM     31  C   UNL     1      12.808  42.372  95.423  1.00  0.00    -0.003 C 
ATOM     32  C   UNL     1      11.494  42.082  96.147  1.00  0.00     0.004 C 
ENDBRANCH  30  31
ENDBRANCH  29  30
ENDBRANCH  28  29
ENDBRANCH  27  28
ENDBRANCH  26  27
ENDBRANCH  25  26
ENDBRANCH  24  25
ENDBRANCH  23  24
ENDBRANCH  22  23
ENDBRANCH  21  22
ENDBRANCH  20  21
ENDBRANCH  19  20
ENDBRANCH  18  19
ENDBRANCH   1  18
TORSDOF 28
ENDMDL
MODEL 4
REMARK VINA RESULT:    -3.838      3.401      4.804
REMARK INTER + INTRA:         -14.284
REMARK INTER:                 -10.220
REMARK INTRA:                  -4.064
REMARK UNBOUND:                -4.164
REMARK SMILES CCCCCCCCCCCCCCCCCCCCCCCCCCCCCC(=O)[O-]
REMARK SMILES IDX 16 1 17 2 18 3 19 4 20 5 21 6 22 7 23 8 24 9 25 10 26 11
REMARK SMILES IDX 27 12 28 13 29 14 30 15 31 16 32 17 15 18 14 19 13 20 12 21
REMARK SMILES IDX 11 22 10 23 9 24 8 25 7 26 6 27 5 28 4 29 3 30 2 31 1 32
REMARK H PARENT
REMARK Flexibility Score: inf
ROOT
ATOM      1  C   UNL     1      11.851  49.363  97.646  1.00  0.00     0.000 C 
ENDROOT
BRANCH   1   2
ATOM      2  C   UNL     1      13.299  49.626  97.199  1.00  0.00     0.000 C 
BRANCH   2   3
ATOM      3  C   UNL     1      13.448  49.626  95.670  1.00  0.00     0.000 C 
BRANCH   3   4
ATOM      4  C   UNL     1      14.258  50.838  95.200  1.00  0.00     0.000 C 
BRANCH   4   5
ATOM      5  C   UNL     1      15.666  50.427  94.744  1.00  0.00     0.000 C 
BRANCH   5   6
ATOM      6  C   UNL     1      15.865  48.897  94.778  1.00  0.00     0.000 C 
BRANCH   6   7
ATOM      7  C   UNL     1      16.021  48.264  93.384  1.00  0.00     0.000 C 
BRANCH   7   8
ATOM      8  C   UNL     1      17.128  47.201  93.330  1.00  0.00     0.000 C 
BRANCH   8   9
ATOM      9  C   UNL     1      17.389  46.745  91.890  1.00  0.00     0.000 C 
BRANCH   9  10
ATOM     10  C   UNL     1      16.094  46.776  91.067  1.00  0.00     0.000 C 
BRANCH  10  11
ATOM     11  C   UNL     1      15.792  45.434  90.376  1.00  0.00     0.000 C 
BRANCH  11  12
ATOM     12  C   UNL     1      14.294  45.121  90.185  1.00  0.00     0.000 C 
BRANCH  12  13
ATOM     13  C   UNL     1      13.582  44.553  91.425  1.00  0.00     0.006 C 
BRANCH  13  14
ATOM     14  C   UNL     1      14.507  43.707  92.310  1.00  0.00     0.053 C 
BRANCH  14  15
ATOM     15  C   UNL     1      14.356  42.255  91.987  1.00  0.00     0.041 C 
ATOM     16  O   UNL     1      13.231  41.790  91.670  1.00  0.00    -0.550 OA
ATOM     17  O   UNL     1      15.452  41.407  92.065  1.00  0.00    -0.550 OA
ENDBRANCH  14  15
ENDBRANCH  13  14
ENDBRANCH  12  13
ENDBRANCH  11  12
ENDBRANCH  10  11
ENDBRANCH   9  10
ENDBRANCH   8   9
ENDBRANCH   7   8
ENDBRANCH   6   7
ENDBRANCH   5   6
ENDBRANCH   4   5
ENDBRANCH   3   4
ENDBRANCH   2   3
ENDBRANCH   1   2
BRANCH   1  18
ATOM     18  C   UNL     1      11.051  48.579  96.591  1.00  0.00     0.000 C 
BRANCH  18  19
ATOM     19  C   UNL     1       9.940  47.710  97.205  1.00  0.00     0.000 C 
BRANCH  19  20
ATOM     20  C   UNL     1       8.504  48.115  96.817  1.00  0.00     0.000 C 
BRANCH  20  21
ATOM     21  C   UNL     1       8.340  49.574  96.358  1.00  0.00     0.000 C 
BRANCH  21  22
ATOM     22  C   UNL     1       7.304  49.734  95.232  1.00  0.00     0.000 C 
BRANCH  22  23
ATOM     23  C   UNL     1       7.880  49.422  93.842  1.00  0.00     0.000 C 
BRANCH  23  24
ATOM     24  C   UNL     1       9.122  50.267  93.509  1.00  0.00    -0.000 C 
BRANCH  24  25
ATOM     25  C   UNL     1      10.307  49.395  93.059  1.00  0.00    -0.000 C 
BRANCH  25  26
ATOM     26  C   UNL     1       9.859  48.244  92.142  1.00  0.00    -0.000 C 
BRANCH  26  27
ATOM     27  C   UNL     1      10.500  46.903  92.535  1.00  0.00    -0.000 C 
BRANCH  27  28
ATOM     28  C   UNL     1       9.757  46.227  93.700  1.00  0.00    -0.000 C 
BRANCH  28  29
ATOM     29  C   UNL     1      10.686  45.385  94.591  1.00  0.00    -0.000 C 
BRANCH  29  30
ATOM     30  C   UNL     1       9.918  44.376  95.461  1.00  0.00    -0.000 C 
BRANCH  30  31
ATOM     31  C   UNL     1      10.762  43.140  95.815  1.00  0.00    -0.003 C 
ATOM     32  C   UNL     1      11.743  42.755  94.708  1.00  0.00     0.004 C 
ENDBRANCH  30  31
ENDBRANCH  29  30
ENDBRANCH  28  29
ENDBRANCH  27  28
ENDBRANCH  26  27
ENDBRANCH  25  26
ENDBRANCH  24  25
ENDBRANCH  23  24
ENDBRANCH  22  23
ENDBRANCH  21  22
ENDBRANCH  20  21
ENDBRANCH  19  20
ENDBRANCH  18  19
ENDBRANCH   1  18
TORSDOF 28
ENDMDL
MODEL 5
REMARK VINA RESULT:    -3.781      4.357      8.737
REMARK INTER + INTRA:         -14.134
REMARK INTER:                 -11.003
REMARK INTRA:                  -3.131
REMARK UNBOUND:                -4.164
REMARK SMILES CCCCCCCCCCCCCCCCCCCCCCCCCCCCCC(=O)[O-]
REMARK SMILES IDX 16 1 17 2 18 3 19 4 20 5 21 6 22 7 23 8 24 9 25 10 26 11
REMARK SMILES IDX 27 12 28 13 29 14 30 15 31 16 32 17 15 18 14 19 13 20 12 21
REMARK SMILES IDX 11 22 10 23 9 24 8 25 7 26 6 27 5 28 4 29 3 30 2 31 1 32
REMARK H PARENT
REMARK Flexibility Score: inf
ROOT
ATOM      1  C   UNL     1      12.770  49.616  97.582  1.00  0.00     0.000 C 
ENDROOT
BRANCH   1   2
ATOM      2  C   UNL     1      11.344  49.040  97.586  1.00  0.00     0.000 C 
BRANCH   2   3
ATOM      3  C   UNL     1      10.414  49.786  98.553  1.00  0.00     0.000 C 
BRANCH   3   4
ATOM      4  C   UNL     1       8.988  49.853  97.997  1.00  0.00     0.000 C 
BRANCH   4   5
ATOM      5  C   UNL     1       8.840  48.995  96.732  1.00  0.00     0.000 C 
BRANCH   5   6
ATOM      6  C   UNL     1       7.712  47.951  96.865  1.00  0.00     0.000 C 
BRANCH   6   7
ATOM      7  C   UNL     1       7.942  46.683  96.023  1.00  0.00     0.000 C 
BRANCH   7   8
ATOM      8  C   UNL     1       9.326  46.058  96.251  1.00  0.00     0.000 C 
BRANCH   8   9
ATOM      9  C   UNL     1      10.212  46.205  95.009  1.00  0.00     0.000 C 
BRANCH   9  10
ATOM     10  C   UNL     1      10.435  44.844  94.335  1.00  0.00     0.000 C 
BRANCH  10  11
ATOM     11  C   UNL     1      11.188  44.954  92.998  1.00  0.00     0.000 C 
BRANCH  11  12
ATOM     12  C   UNL     1      12.311  43.917  92.793  1.00  0.00     0.000 C 
BRANCH  12  13
ATOM     13  C   UNL     1      12.245  42.691  93.722  1.00  0.00     0.006 C 
BRANCH  13  14
ATOM     14  C   UNL     1      13.510  42.519  94.574  1.00  0.00     0.053 C 
BRANCH  14  15
ATOM     15  C   UNL     1      13.148  42.274  96.004  1.00  0.00     0.041 C 
ATOM     16  O   UNL     1      14.037  42.295  96.895  1.00  0.00    -0.550 OA
ATOM     17  O   UNL     1      11.834  41.992  96.351  1.00  0.00    -0.550 OA
ENDBRANCH  14  15
ENDBRANCH  13  14
ENDBRANCH  12  13
ENDBRANCH  11  12
ENDBRANCH  10  11
ENDBRANCH   9  10
ENDBRANCH   8   9
ENDBRANCH   7   8
ENDBRANCH   6   7
ENDBRANCH   5   6
ENDBRANCH   4   5
ENDBRANCH   3   4
ENDBRANCH   2   3
ENDBRANCH   1   2
BRANCH   1  18
ATOM     18  C   UNL     1      13.327  49.779  96.157  1.00  0.00     0.000 C 
BRANCH  18  19
ATOM     19  C   UNL     1      14.816  50.165  96.136  1.00  0.00     0.000 C 
BRANCH  19  20
ATOM     20  C   UNL     1      15.473  50.159  94.741  1.00  0.00     0.000 C 
BRANCH  20  21
ATOM     21  C   UNL     1      15.123  48.948  93.860  1.00  0.00     0.000 C 
BRANCH  21  22
ATOM     22  C   UNL     1      16.365  48.236  93.300  1.00  0.00     0.000 C 
BRANCH  22  23
ATOM     23  C   UNL     1      17.130  47.441  94.370  1.00  0.00     0.000 C 
BRANCH  23  24
ATOM     24  C   UNL     1      17.540  46.038  93.891  1.00  0.00    -0.000 C 
BRANCH  24  25
ATOM     25  C   UNL     1      17.119  45.782  92.433  1.00  0.00    -0.000 C 
BRANCH  25  26
ATOM     26  C   UNL     1      18.041  44.766  91.738  1.00  0.00    -0.000 C 
BRANCH  26  27
ATOM     27  C   UNL     1      17.666  43.314  92.075  1.00  0.00    -0.000 C 
BRANCH  27  28
ATOM     28  C   UNL     1      16.142  43.108  92.126  1.00  0.00    -0.000 C 
BRANCH  28  29
ATOM     29  C   UNL     1      15.619  42.243  90.966  1.00  0.00    -0.000 C 
BRANCH  29  30
ATOM     30  C   UNL     1      14.785  41.045  91.451  1.00  0.00    -0.000 C 
BRANCH  30  31
ATOM     31  C   UNL     1      13.864  40.486  90.354  1.00  0.00    -0.003 C 
ATOM     32  C   UNL     1      12.554  41.263  90.226  1.00  0.00     0.004 C 
ENDBRANCH  30  31
ENDBRANCH  29  30
ENDBRANCH  28  29
ENDBRANCH  27  28
ENDBRANCH  26  27
ENDBRANCH  25  26
ENDBRANCH  24  25
ENDBRANCH  23  24
ENDBRANCH  22  23
ENDBRANCH  21  22
ENDBRANCH  20  21
ENDBRANCH  19  20
ENDBRANCH  18  19
ENDBRANCH   1  18
TORSDOF 28
ENDMDL
MODEL 6
REMARK VINA RESULT:    -3.779      4.808      6.323
REMARK INTER + INTRA:         -14.129
REMARK INTER:                 -10.622
REMARK INTRA:                  -3.507
REMARK UNBOUND:                -4.164
REMARK SMILES CCCCCCCCCCCCCCCCCCCCCCCCCCCCCC(=O)[O-]
REMARK SMILES IDX 16 1 17 2 18 3 19 4 20 5 21 6 22 7 23 8 24 9 25 10 26 11
REMARK SMILES IDX 27 12 28 13 29 14 30 15 31 16 32 17 15 18 14 19 13 20 12 21
REMARK SMILES IDX 11 22 10 23 9 24 8 25 7 26 6 27 5 28 4 29 3 30 2 31 1 32
REMARK H PARENT
REMARK Flexibility Score: inf
ROOT
ATOM      1  C   UNL     1      15.520  50.162  94.592  1.00  0.00     0.000 C 
ENDROOT
BRANCH   1   2
ATOM      2  C   UNL     1      15.963  48.875  95.309  1.00  0.00     0.000 C 
BRANCH   2   3
ATOM      3  C   UNL     1      16.718  47.916  94.377  1.00  0.00     0.000 C 
BRANCH   3   4
ATOM      4  C   UNL     1      16.033  47.831  93.009  1.00  0.00     0.000 C 
BRANCH   4   5
ATOM      5  C   UNL     1      16.369  46.512  92.297  1.00  0.00     0.000 C 
BRANCH   5   6
ATOM      6  C   UNL     1      15.986  46.543  90.803  1.00  0.00     0.000 C 
BRANCH   6   7
ATOM      7  C   UNL     1      15.413  45.212  90.285  1.00  0.00     0.000 C 
BRANCH   7   8
ATOM      8  C   UNL     1      13.884  45.132  90.407  1.00  0.00     0.000 C 
BRANCH   8   9
ATOM      9  C   UNL     1      13.468  44.304  91.628  1.00  0.00     0.000 C 
BRANCH   9  10
ATOM     10  C   UNL     1      14.536  43.253  91.962  1.00  0.00     0.000 C 
BRANCH  10  11
ATOM     11  C   UNL     1      14.011  41.810  91.854  1.00  0.00     0.000 C 
BRANCH  11  12
ATOM     12  C   UNL     1      14.691  40.948  90.772  1.00  0.00     0.000 C 
BRANCH  12  13
ATOM     13  C   UNL     1      13.754  40.427  89.668  1.00  0.00     0.006 C 
BRANCH  13  14
ATOM     14  C   UNL     1      12.400  39.949  90.210  1.00  0.00     0.053 C 
BRANCH  14  15
ATOM     15  C   UNL     1      11.280  40.660  89.519  1.00  0.00     0.041 C 
ATOM     16  O   UNL     1      10.386  41.237  90.191  1.00  0.00    -0.550 OA
ATOM     17  O   UNL     1      11.205  40.659  88.133  1.00  0.00    -0.550 OA
ENDBRANCH  14  15
ENDBRANCH  13  14
ENDBRANCH  12  13
ENDBRANCH  11  12
ENDBRANCH  10  11
ENDBRANCH   9  10
ENDBRANCH   8   9
ENDBRANCH   7   8
ENDBRANCH   6   7
ENDBRANCH   5   6
ENDBRANCH   4   5
ENDBRANCH   3   4
ENDBRANCH   2   3
ENDBRANCH   1   2
BRANCH   1  18
ATOM     18  C   UNL     1      14.117  50.617  95.031  1.00  0.00     0.000 C 
BRANCH  18  19
ATOM     19  C   UNL     1      12.995  49.725  94.472  1.00  0.00     0.000 C 
BRANCH  19  20
ATOM     20  C   UNL     1      12.306  48.816  95.509  1.00  0.00     0.000 C 
BRANCH  20  21
ATOM     21  C   UNL     1      12.534  49.212  96.978  1.00  0.00     0.000 C 
BRANCH  21  22
ATOM     22  C   UNL     1      11.227  49.310  97.781  1.00  0.00     0.000 C 
BRANCH  22  23
ATOM     23  C   UNL     1      10.395  48.020  97.730  1.00  0.00     0.000 C 
BRANCH  23  24
ATOM     24  C   UNL     1       9.068  48.196  96.973  1.00  0.00    -0.000 C 
BRANCH  24  25
ATOM     25  C   UNL     1       8.351  46.853  96.749  1.00  0.00    -0.000 C 
BRANCH  25  26
ATOM     26  C   UNL     1       9.317  45.760  96.261  1.00  0.00    -0.000 C 
BRANCH  26  27
ATOM     27  C   UNL     1       9.630  45.886  94.761  1.00  0.00    -0.000 C 
BRANCH  27  28
ATOM     28  C   UNL     1      10.765  44.943  94.326  1.00  0.00    -0.000 C 
BRANCH  28  29
ATOM     29  C   UNL     1      10.838  43.665  95.178  1.00  0.00    -0.000 C 
BRANCH  29  30
ATOM     30  C   UNL     1      11.969  42.722  94.737  1.00  0.00    -0.000 C 
BRANCH  30  31
ATOM     31  C   UNL     1      12.839  42.253  95.914  1.00  0.00    -0.003 C 
ATOM     32  C   UNL     1      14.320  42.145  95.551  1.00  0.00     0.004 C 
ENDBRANCH  30  31
ENDBRANCH  29  30
ENDBRANCH  28  29
ENDBRANCH  27  28
ENDBRANCH  26  27
ENDBRANCH  25  26
ENDBRANCH  24  25
ENDBRANCH  23  24
ENDBRANCH  22  23
ENDBRANCH  21  22
ENDBRANCH  20  21
ENDBRANCH  19  20
ENDBRANCH  18  19
ENDBRANCH   1  18
TORSDOF 28
ENDMDL
MODEL 7
REMARK VINA RESULT:    -3.746      1.986      2.977
REMARK INTER + INTRA:         -14.042
REMARK INTER:                 -11.020
REMARK INTRA:                  -3.022
REMARK UNBOUND:                -4.164
REMARK SMILES CCCCCCCCCCCCCCCCCCCCCCCCCCCCCC(=O)[O-]
REMARK SMILES IDX 16 1 17 2 18 3 19 4 20 5 21 6 22 7 23 8 24 9 25 10 26 11
REMARK SMILES IDX 27 12 28 13 29 14 30 15 31 16 32 17 15 18 14 19 13 20 12 21
REMARK SMILES IDX 11 22 10 23 9 24 8 25 7 26 6 27 5 28 4 29 3 30 2 31 1 32
REMARK H PARENT
REMARK Flexibility Score: inf
ROOT
ATOM      1  C   UNL     1      15.587  49.439  94.875  1.00  0.00     0.000 C 
ENDROOT
BRANCH   1   2
ATOM      2  C   UNL     1      15.639  49.166  93.362  1.00  0.00     0.000 C 
BRANCH   2   3
ATOM      3  C   UNL     1      16.151  47.754  93.040  1.00  0.00     0.000 C 
BRANCH   3   4
ATOM      4  C   UNL     1      17.161  47.285  94.092  1.00  0.00     0.000 C 
BRANCH   4   5
ATOM      5  C   UNL     1      17.912  46.029  93.625  1.00  0.00     0.000 C 
BRANCH   5   6
ATOM      6  C   UNL     1      16.951  44.923  93.141  1.00  0.00     0.000 C 
BRANCH   6   7
ATOM      7  C   UNL     1      17.364  44.291  91.800  1.00  0.00     0.000 C 
BRANCH   7   8
ATOM      8  C   UNL     1      16.373  44.594  90.667  1.00  0.00     0.000 C 
BRANCH   8   9
ATOM      9  C   UNL     1      16.748  45.887  89.934  1.00  0.00     0.000 C 
BRANCH   9  10
ATOM     10  C   UNL     1      18.268  45.981  89.742  1.00  0.00     0.000 C 
BRANCH  10  11
ATOM     11  C   UNL     1      18.785  47.431  89.756  1.00  0.00     0.000 C 
BRANCH  11  12
ATOM     12  C   UNL     1      19.752  47.768  90.908  1.00  0.00     0.000 C 
BRANCH  12  13
ATOM     13  C   UNL     1      20.854  48.785  90.560  1.00  0.00     0.006 C 
BRANCH  13  14
ATOM     14  C   UNL     1      20.877  49.155  89.071  1.00  0.00     0.053 C 
BRANCH  14  15
ATOM     15  C   UNL     1      20.603  50.614  88.891  1.00  0.00     0.041 C 
ATOM     16  O   UNL     1      19.432  51.059  89.009  1.00  0.00    -0.550 OA
ATOM     17  O   UNL     1      21.636  51.480  88.561  1.00  0.00    -0.550 OA
ENDBRANCH  14  15
ENDBRANCH  13  14
ENDBRANCH  12  13
ENDBRANCH  11  12
ENDBRANCH  10  11
ENDBRANCH   9  10
ENDBRANCH   8   9
ENDBRANCH   7   8
ENDBRANCH   6   7
ENDBRANCH   5   6
ENDBRANCH   4   5
ENDBRANCH   3   4
ENDBRANCH   2   3
ENDBRANCH   1   2
BRANCH   1  18
ATOM     18  C   UNL     1      14.445  50.399  95.253  1.00  0.00     0.000 C 
BRANCH  18  19
ATOM     19  C   UNL     1      14.446  50.773  96.745  1.00  0.00     0.000 C 
BRANCH  19  20
ATOM     20  C   UNL     1      13.375  50.064  97.597  1.00  0.00     0.000 C 
BRANCH  20  21
ATOM     21  C   UNL     1      12.388  49.188  96.807  1.00  0.00     0.000 C 
BRANCH  21  22
ATOM     22  C   UNL     1      11.102  48.878  97.591  1.00  0.00     0.000 C 
BRANCH  22  23
ATOM     23  C   UNL     1      10.150  47.942  96.831  1.00  0.00     0.000 C 
BRANCH  23  24
ATOM     24  C   UNL     1      10.412  47.927  95.315  1.00  0.00    -0.000 C 
BRANCH  24  25
ATOM     25  C   UNL     1       9.210  47.375  94.529  1.00  0.00    -0.000 C 
BRANCH  25  26
ATOM     26  C   UNL     1       9.371  45.879  94.209  1.00  0.00    -0.000 C 
BRANCH  26  27
ATOM     27  C   UNL     1      10.760  45.551  93.639  1.00  0.00    -0.000 C 
BRANCH  27  28
ATOM     28  C   UNL     1      11.287  44.197  94.142  1.00  0.00    -0.000 C 
BRANCH  28  29
ATOM     29  C   UNL     1      12.117  43.449  93.085  1.00  0.00    -0.000 C 
BRANCH  29  30
ATOM     30  C   UNL     1      13.241  42.602  93.705  1.00  0.00    -0.000 C 
BRANCH  30  31
ATOM     31  C   UNL     1      13.103  42.465  95.230  1.00  0.00    -0.003 C 
ATOM     32  C   UNL     1      14.417  42.086  95.912  1.00  0.00     0.004 C 
ENDBRANCH  30  31
ENDBRANCH  29  30
ENDBRANCH  28  29
ENDBRANCH  27  28
ENDBRANCH  26  27
ENDBRANCH  25  26
ENDBRANCH  24  25
ENDBRANCH  23  24
ENDBRANCH  22  23
ENDBRANCH  21  22
ENDBRANCH  20  21
ENDBRANCH  19  20
ENDBRANCH  18  19
ENDBRANCH   1  18
TORSDOF 28
ENDMDL
MODEL 8
REMARK VINA RESULT:    -3.675      3.424      5.343
REMARK INTER + INTRA:         -13.856
REMARK INTER:                  -9.782
REMARK INTRA:                  -4.074
REMARK UNBOUND:                -4.164
REMARK SMILES CCCCCCCCCCCCCCCCCCCCCCCCCCCCCC(=O)[O-]
REMARK SMILES IDX 16 1 17 2 18 3 19 4 20 5 21 6 22 7 23 8 24 9 25 10 26 11
REMARK SMILES IDX 27 12 28 13 29 14 30 15 31 16 32 17 15 18 14 19 13 20 12 21
REMARK SMILES IDX 11 22 10 23 9 24 8 25 7 26 6 27 5 28 4 29 3 30 2 31 1 32
REMARK H PARENT
REMARK Flexibility Score: inf
ROOT
ATOM      1  C   UNL     1      11.599  49.100  97.093  1.00  0.00     0.000 C 
ENDROOT
BRANCH   1   2
ATOM      2  C   UNL     1      12.817  49.877  97.621  1.00  0.00     0.000 C 
BRANCH   2   3
ATOM      3  C   UNL     1      14.092  49.583  96.818  1.00  0.00     0.000 C 
BRANCH   3   4
ATOM      4  C   UNL     1      14.656  50.866  96.199  1.00  0.00     0.000 C 
BRANCH   4   5
ATOM      5  C   UNL     1      15.568  50.555  95.003  1.00  0.00     0.000 C 
BRANCH   5   6
ATOM      6  C   UNL     1      15.117  49.292  94.239  1.00  0.00     0.000 C 
BRANCH   6   7
ATOM      7  C   UNL     1      16.279  48.367  93.836  1.00  0.00     0.000 C 
BRANCH   7   8
ATOM      8  C   UNL     1      16.883  47.612  95.028  1.00  0.00     0.000 C 
BRANCH   8   9
ATOM      9  C   UNL     1      18.001  46.665  94.576  1.00  0.00     0.000 C 
BRANCH   9  10
ATOM     10  C   UNL     1      18.052  46.578  93.044  1.00  0.00     0.000 C 
BRANCH  10  11
ATOM     11  C   UNL     1      18.973  45.453  92.539  1.00  0.00     0.000 C 
BRANCH  11  12
ATOM     12  C   UNL     1      18.247  44.251  91.902  1.00  0.00     0.000 C 
BRANCH  12  13
ATOM     13  C   UNL     1      16.897  43.888  92.544  1.00  0.00     0.006 C 
BRANCH  13  14
ATOM     14  C   UNL     1      16.341  42.546  92.047  1.00  0.00     0.053 C 
BRANCH  14  15
ATOM     15  C   UNL     1      15.491  41.910  93.101  1.00  0.00     0.041 C 
ATOM     16  O   UNL     1      15.657  40.699  93.402  1.00  0.00    -0.550 OA
ATOM     17  O   UNL     1      14.495  42.644  93.728  1.00  0.00    -0.550 OA
ENDBRANCH  14  15
ENDBRANCH  13  14
ENDBRANCH  12  13
ENDBRANCH  11  12
ENDBRANCH  10  11
ENDBRANCH   9  10
ENDBRANCH   8   9
ENDBRANCH   7   8
ENDBRANCH   6   7
ENDBRANCH   5   6
ENDBRANCH   4   5
ENDBRANCH   3   4
ENDBRANCH   2   3
ENDBRANCH   1   2
BRANCH   1  18
ATOM     18  C   UNL     1      11.880  48.438  95.731  1.00  0.00     0.000 C 
BRANCH  18  19
ATOM     19  C   UNL     1      10.868  48.846  94.647  1.00  0.00     0.000 C 
BRANCH  19  20
ATOM     20  C   UNL     1      10.367  47.695  93.753  1.00  0.00     0.000 C 
BRANCH  20  21
ATOM     21  C   UNL     1      10.390  46.303  94.409  1.00  0.00     0.000 C 
BRANCH  21  22
ATOM     22  C   UNL     1       9.086  45.970  95.152  1.00  0.00     0.000 C 
BRANCH  22  23
ATOM     23  C   UNL     1       9.248  45.986  96.679  1.00  0.00     0.000 C 
BRANCH  23  24
ATOM     24  C   UNL     1       8.050  46.629  97.399  1.00  0.00    -0.000 C 
BRANCH  24  25
ATOM     25  C   UNL     1       7.509  47.850  96.636  1.00  0.00    -0.000 C 
BRANCH  25  26
ATOM     26  C   UNL     1       7.997  49.174  97.249  1.00  0.00    -0.000 C 
BRANCH  26  27
ATOM     27  C   UNL     1       7.815  50.361  96.289  1.00  0.00    -0.000 C 
BRANCH  27  28
ATOM     28  C   UNL     1       7.510  49.902  94.853  1.00  0.00    -0.000 C 
BRANCH  28  29
ATOM     29  C   UNL     1       7.983  50.909  93.792  1.00  0.00    -0.000 C 
BRANCH  29  30
ATOM     30  C   UNL     1       8.098  50.284  92.391  1.00  0.00    -0.000 C 
BRANCH  30  31
ATOM     31  C   UNL     1       9.195  50.942  91.540  1.00  0.00    -0.003 C 
ATOM     32  C   UNL     1      10.202  51.730  92.376  1.00  0.00     0.004 C 
ENDBRANCH  30  31
ENDBRANCH  29  30
ENDBRANCH  28  29
ENDBRANCH  27  28
ENDBRANCH  26  27
ENDBRANCH  25  26
ENDBRANCH  24  25
ENDBRANCH  23  24
ENDBRANCH  22  23
ENDBRANCH  21  22
ENDBRANCH  20  21
ENDBRANCH  19  20
ENDBRANCH  18  19
ENDBRANCH   1  18
TORSDOF 28
ENDMDL
MODEL 9
REMARK VINA RESULT:    -3.675      3.842      5.343
REMARK INTER + INTRA:         -13.854
REMARK INTER:                 -10.283
REMARK INTRA:                  -3.571
REMARK UNBOUND:                -4.164
REMARK SMILES CCCCCCCCCCCCCCCCCCCCCCCCCCCCCC(=O)[O-]
REMARK SMILES IDX 16 1 17 2 18 3 19 4 20 5 21 6 22 7 23 8 24 9 25 10 26 11
REMARK SMILES IDX 27 12 28 13 29 14 30 15 31 16 32 17 15 18 14 19 13 20 12 21
REMARK SMILES IDX 11 22 10 23 9 24 8 25 7 26 6 27 5 28 4 29 3 30 2 31 1 32
REMARK H PARENT
REMARK Flexibility Score: inf
ROOT
ATOM      1  C   UNL     1      12.874  49.682  97.545  1.00  0.00     0.000 C 
ENDROOT
BRANCH   1   2
ATOM      2  C   UNL     1      13.834  49.384  96.381  1.00  0.00     0.000 C 
BRANCH   2   3
ATOM      3  C   UNL     1      13.947  50.560  95.400  1.00  0.00     0.000 C 
BRANCH   3   4
ATOM      4  C   UNL     1      15.311  50.561  94.702  1.00  0.00     0.000 C 
BRANCH   4   5
ATOM      5  C   UNL     1      15.947  49.163  94.719  1.00  0.00     0.000 C 
BRANCH   5   6
ATOM      6  C   UNL     1      15.859  48.467  93.344  1.00  0.00     0.000 C 
BRANCH   6   7
ATOM      7  C   UNL     1      16.946  47.400  93.123  1.00  0.00     0.000 C 
BRANCH   7   8
ATOM      8  C   UNL     1      17.039  46.937  91.662  1.00  0.00     0.000 C 
BRANCH   8   9
ATOM      9  C   UNL     1      16.416  45.548  91.480  1.00  0.00     0.000 C 
BRANCH   9  10
ATOM     10  C   UNL     1      14.982  45.661  90.943  1.00  0.00     0.000 C 
BRANCH  10  11
ATOM     11  C   UNL     1      13.948  44.961  91.843  1.00  0.00     0.000 C 
BRANCH  11  12
ATOM     12  C   UNL     1      12.475  45.249  91.490  1.00  0.00     0.000 C 
BRANCH  12  13
ATOM     13  C   UNL     1      11.481  44.140  91.880  1.00  0.00     0.006 C 
BRANCH  13  14
ATOM     14  C   UNL     1      12.175  42.865  92.378  1.00  0.00     0.053 C 
BRANCH  14  15
ATOM     15  C   UNL     1      12.099  41.789  91.342  1.00  0.00     0.041 C 
ATOM     16  O   UNL     1      13.122  41.117  91.050  1.00  0.00    -0.550 OA
ATOM     17  O   UNL     1      10.905  41.548  90.676  1.00  0.00    -0.550 OA
ENDBRANCH  14  15
ENDBRANCH  13  14
ENDBRANCH  12  13
ENDBRANCH  11  12
ENDBRANCH  10  11
ENDBRANCH   9  10
ENDBRANCH   8   9
ENDBRANCH   7   8
ENDBRANCH   6   7
ENDBRANCH   5   6
ENDBRANCH   4   5
ENDBRANCH   3   4
ENDBRANCH   2   3
ENDBRANCH   1   2
BRANCH   1  18
ATOM     18  C   UNL     1      11.537  48.931  97.401  1.00  0.00     0.000 C 
BRANCH  18  19
ATOM     19  C   UNL     1      10.415  49.537  98.262  1.00  0.00     0.000 C 
BRANCH  19  20
ATOM     20  C   UNL     1       9.049  49.665  97.559  1.00  0.00     0.000 C 
BRANCH  20  21
ATOM     21  C   UNL     1       8.102  50.716  98.161  1.00  0.00     0.000 C 
BRANCH  21  22
ATOM     22  C   UNL     1       6.865  50.979  97.287  1.00  0.00     0.000 C 
BRANCH  22  23
ATOM     23  C   UNL     1       7.173  50.921  95.783  1.00  0.00     0.000 C 
BRANCH  23  24
ATOM     24  C   UNL     1       7.362  52.314  95.159  1.00  0.00    -0.000 C 
BRANCH  24  25
ATOM     25  C   UNL     1       8.163  52.252  93.847  1.00  0.00    -0.000 C 
BRANCH  25  26
ATOM     26  C   UNL     1       8.467  50.804  93.426  1.00  0.00    -0.000 C 
BRANCH  26  27
ATOM     27  C   UNL     1       9.763  50.697  92.605  1.00  0.00    -0.000 C 
BRANCH  27  28
ATOM     28  C   UNL     1      10.789  49.760  93.265  1.00  0.00    -0.000 C 
BRANCH  28  29
ATOM     29  C   UNL     1      10.130  48.605  94.039  1.00  0.00    -0.000 C 
BRANCH  29  30
ATOM     30  C   UNL     1      11.080  47.413  94.245  1.00  0.00    -0.000 C 
BRANCH  30  31
ATOM     31  C   UNL     1      10.335  46.127  94.637  1.00  0.00    -0.003 C 
ATOM     32  C   UNL     1       9.426  46.315  95.852  1.00  0.00     0.004 C 
ENDBRANCH  30  31
ENDBRANCH  29  30
ENDBRANCH  28  29
ENDBRANCH  27  28
ENDBRANCH  26  27
ENDBRANCH  25  26
ENDBRANCH  24  25
ENDBRANCH  23  24
ENDBRANCH  22  23
ENDBRANCH  21  22
ENDBRANCH  20  21
ENDBRANCH  19  20
ENDBRANCH  18  19
ENDBRANCH   1  18
TORSDOF 28
ENDMDL
