MODEL 1
REMARK VINA RESULT:    -6.913      0.000      0.000
REMARK INTER + INTRA:          -8.443
REMARK INTER:                  -8.328
REMARK INTRA:                  -0.115
REMARK UNBOUND:                -0.115
REMARK SMILES O=c1c(O)c(-c2ccc(O)c(O)c2)oc2cc(O)cc(O)c12
REMARK SMILES IDX 5 1 3 2 2 3 1 4 22 5 20 6 19 7 17 8 16 9 15 10 14 11 6 12
REMARK SMILES IDX 7 13 8 14 9 15 13 16 11 17 10 18 12 20 4 22 21 24 18 26
REMARK H PARENT 10 19 12 21 4 23 21 25 18 27
REMARK Flexibility Score: inf
ROOT
ATOM      1  C   UNL     1      -6.369  25.329  33.823  1.00  0.00     0.180 A 
ATOM      2  C   UNL     1      -7.140  24.401  34.545  1.00  0.00     0.208 A 
ATOM      3  C   UNL     1      -7.547  23.216  33.911  1.00  0.00     0.238 A 
ATOM      4  O   UNL     1      -8.190  22.364  34.577  1.00  0.00    -0.285 OA
ATOM      5  C   UNL     1      -7.193  22.982  32.560  1.00  0.00     0.111 A 
ATOM      6  C   UNL     1      -7.586  21.835  31.807  1.00  0.00     0.134 A 
ATOM      7  C   UNL     1      -7.069  21.645  30.518  1.00  0.00     0.093 A 
ATOM      8  C   UNL     1      -6.227  22.590  29.934  1.00  0.00     0.123 A 
ATOM      9  C   UNL     1      -5.885  23.745  30.639  1.00  0.00     0.094 A 
ATOM     10  C   UNL     1      -6.355  23.945  31.939  1.00  0.00     0.146 A 
ATOM     11  O   UNL     1      -5.998  25.052  32.579  1.00  0.00    -0.452 OA
ENDROOT
BRANCH   1  12
ATOM     12  C   UNL     1      -5.923  26.612  34.416  1.00  0.00     0.025 A 
ATOM     13  C   UNL     1      -5.095  26.645  35.551  1.00  0.00     0.016 A 
ATOM     14  C   UNL     1      -4.707  27.866  36.107  1.00  0.00     0.051 A 
ATOM     15  C   UNL     1      -5.148  29.070  35.549  1.00  0.00     0.157 A 
ATOM     16  C   UNL     1      -6.381  27.822  33.870  1.00  0.00     0.062 A 
ATOM     17  C   UNL     1      -5.992  29.049  34.426  1.00  0.00     0.158 A 
BRANCH  15  18
ATOM     18  O   UNL     1      -4.743  30.273  36.125  1.00  0.00    -0.504 OA
ATOM     19  H   UNL     1      -4.381  30.322  37.070  1.00  0.00     0.293 HD
ENDBRANCH  15  18
BRANCH  17  20
ATOM     20  O   UNL     1      -6.442  30.245  33.869  1.00  0.00    -0.504 OA
ATOM     21  H   UNL     1      -7.379  30.336  33.493  1.00  0.00     0.293 HD
ENDBRANCH  17  20
ENDBRANCH   1  12
BRANCH   2  22
ATOM     22  O   UNL     1      -7.459  24.641  35.884  1.00  0.00    -0.502 OA
ATOM     23  H   UNL     1      -7.173  25.483  36.368  1.00  0.00     0.293 HD
ENDBRANCH   2  22
BRANCH   6  24
ATOM     24  O   UNL     1      -8.494  20.875  32.262  1.00  0.00    -0.507 OA
ATOM     25  H   UNL     1      -8.441  19.889  32.055  1.00  0.00     0.293 HD
ENDBRANCH   6  24
BRANCH   8  26
ATOM     26  O   UNL     1      -5.746  22.376  28.644  1.00  0.00    -0.508 OA
ATOM     27  H   UNL     1      -5.604  21.441  28.280  1.00  0.00     0.293 HD
ENDBRANCH   8  26
TORSDOF 6
ENDMDL
MODEL 2
REMARK VINA RESULT:    -6.425     18.468     20.105
REMARK INTER + INTRA:          -7.855
REMARK INTER:                  -7.669
REMARK INTRA:                  -0.186
REMARK UNBOUND:                -0.115
REMARK SMILES O=c1c(O)c(-c2ccc(O)c(O)c2)oc2cc(O)cc(O)c12
REMARK SMILES IDX 5 1 3 2 2 3 1 4 22 5 20 6 19 7 17 8 16 9 15 10 14 11 6 12
REMARK SMILES IDX 7 13 8 14 9 15 13 16 11 17 10 18 12 20 4 22 21 24 18 26
REMARK H PARENT 10 19 12 21 4 23 21 25 18 27
REMARK Flexibility Score: inf
ROOT
ATOM      1  C   UNL     1      -3.466  38.374  19.123  1.00  0.00     0.180 A 
ATOM      2  C   UNL     1      -2.526  39.380  18.839  1.00  0.00     0.208 A 
ATOM      3  C   UNL     1      -1.330  39.029  18.192  1.00  0.00     0.238 A 
ATOM      4  O   UNL     1      -0.516  39.941  17.892  1.00  0.00    -0.285 OA
ATOM      5  C   UNL     1      -1.082  37.677  17.853  1.00  0.00     0.111 A 
ATOM      6  C   UNL     1       0.113  37.204  17.233  1.00  0.00     0.134 A 
ATOM      7  C   UNL     1       0.196  35.866  16.825  1.00  0.00     0.093 A 
ATOM      8  C   UNL     1      -0.845  34.972  17.072  1.00  0.00     0.123 A 
ATOM      9  C   UNL     1      -1.993  35.411  17.732  1.00  0.00     0.094 A 
ATOM     10  C   UNL     1      -2.121  36.747  18.119  1.00  0.00     0.146 A 
ATOM     11  O   UNL     1      -3.234  37.126  18.734  1.00  0.00    -0.452 OA
ENDROOT
BRANCH   1  12
ATOM     12  C   UNL     1      -4.739  38.661  19.825  1.00  0.00     0.025 A 
ATOM     13  C   UNL     1      -5.976  38.569  19.163  1.00  0.00     0.016 A 
ATOM     14  C   UNL     1      -7.162  38.869  19.838  1.00  0.00     0.051 A 
ATOM     15  C   UNL     1      -7.132  39.277  21.175  1.00  0.00     0.157 A 
ATOM     16  C   UNL     1      -4.711  39.091  21.161  1.00  0.00     0.062 A 
ATOM     17  C   UNL     1      -5.901  39.392  21.840  1.00  0.00     0.158 A 
BRANCH  15  18
ATOM     18  O   UNL     1      -8.332  39.567  21.822  1.00  0.00    -0.504 OA
ATOM     19  H   UNL     1      -9.232  39.391  21.392  1.00  0.00     0.293 HD
ENDBRANCH  15  18
BRANCH  17  20
ATOM     20  O   UNL     1      -5.862  39.805  23.171  1.00  0.00    -0.504 OA
ATOM     21  H   UNL     1      -5.252  39.361  23.848  1.00  0.00     0.293 HD
ENDBRANCH  17  20
ENDBRANCH   1  12
BRANCH   2  22
ATOM     22  O   UNL     1      -2.801  40.712  19.163  1.00  0.00    -0.502 OA
ATOM     23  H   UNL     1      -3.744  41.078  19.201  1.00  0.00     0.293 HD
ENDBRANCH   2  22
BRANCH   6  24
ATOM     24  O   UNL     1       1.248  37.992  17.021  1.00  0.00    -0.507 OA
ATOM     25  H   UNL     1       1.605  38.673  17.675  1.00  0.00     0.293 HD
ENDBRANCH   6  24
BRANCH   8  26
ATOM     26  O   UNL     1      -0.721  33.645  16.667  1.00  0.00    -0.508 OA
ATOM     27  H   UNL     1       0.186  33.205  16.563  1.00  0.00     0.293 HD
ENDBRANCH   8  26
TORSDOF 6
ENDMDL
MODEL 3
REMARK VINA RESULT:    -6.206     17.562     19.991
REMARK INTER + INTRA:          -7.591
REMARK INTER:                  -7.332
REMARK INTRA:                  -0.259
REMARK UNBOUND:                -0.115
REMARK SMILES O=c1c(O)c(-c2ccc(O)c(O)c2)oc2cc(O)cc(O)c12
REMARK SMILES IDX 5 1 3 2 2 3 1 4 22 5 20 6 19 7 17 8 16 9 15 10 14 11 6 12
REMARK SMILES IDX 7 13 8 14 9 15 13 16 11 17 10 18 12 20 4 22 21 24 18 26
REMARK H PARENT 10 19 12 21 4 23 21 25 18 27
REMARK Flexibility Score: inf
ROOT
ATOM      1  C   UNL     1      -3.362  37.451  18.900  1.00  0.00     0.180 A 
ATOM      2  C   UNL     1      -4.601  37.664  18.271  1.00  0.00     0.208 A 
ATOM      3  C   UNL     1      -5.678  38.144  19.034  1.00  0.00     0.238 A 
ATOM      4  O   UNL     1      -6.769  38.383  18.455  1.00  0.00    -0.285 OA
ATOM      5  C   UNL     1      -5.507  38.388  20.418  1.00  0.00     0.111 A 
ATOM      6  C   UNL     1      -6.540  38.836  21.295  1.00  0.00     0.134 A 
ATOM      7  C   UNL     1      -6.226  39.170  22.619  1.00  0.00     0.093 A 
ATOM      8  C   UNL     1      -4.932  39.010  23.113  1.00  0.00     0.123 A 
ATOM      9  C   UNL     1      -3.928  38.516  22.281  1.00  0.00     0.094 A 
ATOM     10  C   UNL     1      -4.202  38.209  20.946  1.00  0.00     0.146 A 
ATOM     11  O   UNL     1      -3.215  37.751  20.185  1.00  0.00    -0.452 OA
ENDROOT
BRANCH   1  12
ATOM     12  C   UNL     1      -2.187  36.924  18.167  1.00  0.00     0.025 A 
ATOM     13  C   UNL     1      -2.124  35.581  17.755  1.00  0.00     0.016 A 
ATOM     14  C   UNL     1      -0.995  35.100  17.087  1.00  0.00     0.051 A 
ATOM     15  C   UNL     1       0.090  35.944  16.832  1.00  0.00     0.157 A 
ATOM     16  C   UNL     1      -1.087  37.763  17.928  1.00  0.00     0.062 A 
ATOM     17  C   UNL     1       0.046  37.282  17.257  1.00  0.00     0.158 A 
BRANCH  15  18
ATOM     18  O   UNL     1       1.202  35.436  16.162  1.00  0.00    -0.504 OA
ATOM     19  H   UNL     1       1.989  35.033  16.655  1.00  0.00     0.293 HD
ENDBRANCH  15  18
BRANCH  17  20
ATOM     20  O   UNL     1       1.127  38.128  17.013  1.00  0.00    -0.504 OA
ATOM     21  H   UNL     1       1.878  37.863  16.386  1.00  0.00     0.293 HD
ENDBRANCH  17  20
ENDBRANCH   1  12
BRANCH   2  22
ATOM     22  O   UNL     1      -4.742  37.437  16.899  1.00  0.00    -0.502 OA
ATOM     23  H   UNL     1      -3.949  37.270  16.291  1.00  0.00     0.293 HD
ENDBRANCH   2  22
BRANCH   6  24
ATOM     24  O   UNL     1      -7.885  38.943  20.927  1.00  0.00    -0.507 OA
ATOM     25  H   UNL     1      -8.271  38.610  20.057  1.00  0.00     0.293 HD
ENDBRANCH   6  24
BRANCH   8  26
ATOM     26  O   UNL     1      -4.659  39.337  24.440  1.00  0.00    -0.508 OA
ATOM     27  H   UNL     1      -5.299  39.898  24.990  1.00  0.00     0.293 HD
ENDBRANCH   8  26
TORSDOF 6
ENDMDL
MODEL 4
REMARK VINA RESULT:    -6.174     17.729     20.296
REMARK INTER + INTRA:          -7.552
REMARK INTER:                  -7.583
REMARK INTRA:                   0.031
REMARK UNBOUND:                -0.115
REMARK SMILES O=c1c(O)c(-c2ccc(O)c(O)c2)oc2cc(O)cc(O)c12
REMARK SMILES IDX 5 1 3 2 2 3 1 4 22 5 20 6 19 7 17 8 16 9 15 10 14 11 6 12
REMARK SMILES IDX 7 13 8 14 9 15 13 16 11 17 10 18 12 20 4 22 21 24 18 26
REMARK H PARENT 10 19 12 21 4 23 21 25 18 27
REMARK Flexibility Score: inf
ROOT
ATOM      1  C   UNL     1      -2.625  37.804  18.878  1.00  0.00     0.180 A 
ATOM      2  C   UNL     1      -2.709  39.206  18.811  1.00  0.00     0.208 A 
ATOM      3  C   UNL     1      -3.678  39.867  19.582  1.00  0.00     0.238 A 
ATOM      4  O   UNL     1      -3.714  41.125  19.560  1.00  0.00    -0.285 OA
ATOM      5  C   UNL     1      -4.562  39.118  20.397  1.00  0.00     0.111 A 
ATOM      6  C   UNL     1      -5.608  39.681  21.188  1.00  0.00     0.134 A 
ATOM      7  C   UNL     1      -6.337  38.857  22.056  1.00  0.00     0.093 A 
ATOM      8  C   UNL     1      -6.101  37.485  22.113  1.00  0.00     0.123 A 
ATOM      9  C   UNL     1      -5.121  36.915  21.300  1.00  0.00     0.094 A 
ATOM     10  C   UNL     1      -4.353  37.715  20.451  1.00  0.00     0.146 A 
ATOM     11  O   UNL     1      -3.424  37.135  19.701  1.00  0.00    -0.452 OA
ENDROOT
BRANCH   1  12
ATOM     12  C   UNL     1      -1.645  37.035  18.076  1.00  0.00     0.025 A 
ATOM     13  C   UNL     1      -2.038  35.922  17.312  1.00  0.00     0.016 A 
ATOM     14  C   UNL     1      -1.093  35.197  16.583  1.00  0.00     0.051 A 
ATOM     15  C   UNL     1       0.257  35.561  16.615  1.00  0.00     0.157 A 
ATOM     16  C   UNL     1      -0.286  37.385  18.123  1.00  0.00     0.062 A 
ATOM     17  C   UNL     1       0.664  36.658  17.391  1.00  0.00     0.158 A 
BRANCH  15  18
ATOM     18  O   UNL     1       1.177  34.819  15.876  1.00  0.00    -0.504 OA
ATOM     19  H   UNL     1       1.593  33.968  16.234  1.00  0.00     0.293 HD
ENDBRANCH  15  18
BRANCH  17  20
ATOM     20  O   UNL     1       2.009  37.023  17.434  1.00  0.00    -0.504 OA
ATOM     21  H   UNL     1       2.673  36.684  16.747  1.00  0.00     0.293 HD
ENDBRANCH  17  20
ENDBRANCH   1  12
BRANCH   2  22
ATOM     22  O   UNL     1      -1.813  39.928  18.018  1.00  0.00    -0.502 OA
ATOM     23  H   UNL     1      -1.114  40.546  18.411  1.00  0.00     0.293 HD
ENDBRANCH   2  22
BRANCH   6  24
ATOM     24  O   UNL     1      -5.987  41.026  21.139  1.00  0.00    -0.507 OA
ATOM     25  H   UNL     1      -6.887  41.358  20.829  1.00  0.00     0.293 HD
ENDBRANCH   6  24
BRANCH   8  26
ATOM     26  O   UNL     1      -6.856  36.693  22.976  1.00  0.00    -0.508 OA
ATOM     27  H   UNL     1      -6.621  35.723  23.148  1.00  0.00     0.293 HD
ENDBRANCH   8  26
TORSDOF 6
ENDMDL
MODEL 5
REMARK VINA RESULT:    -6.172     17.542     19.971
REMARK INTER + INTRA:          -7.550
REMARK INTER:                  -7.300
REMARK INTRA:                  -0.250
REMARK UNBOUND:                -0.115
REMARK SMILES O=c1c(O)c(-c2ccc(O)c(O)c2)oc2cc(O)cc(O)c12
REMARK SMILES IDX 5 1 3 2 2 3 1 4 22 5 20 6 19 7 17 8 16 9 15 10 14 11 6 12
REMARK SMILES IDX 7 13 8 14 9 15 13 16 11 17 10 18 12 20 4 22 21 24 18 26
REMARK H PARENT 10 19 12 21 4 23 21 25 18 27
REMARK Flexibility Score: inf
ROOT
ATOM      1  C   UNL     1      -3.277  37.453  18.850  1.00  0.00     0.180 A 
ATOM      2  C   UNL     1      -4.489  37.668  18.171  1.00  0.00     0.208 A 
ATOM      3  C   UNL     1      -5.600  38.133  18.892  1.00  0.00     0.238 A 
ATOM      4  O   UNL     1      -6.667  38.375  18.270  1.00  0.00    -0.285 OA
ATOM      5  C   UNL     1      -5.491  38.360  20.286  1.00  0.00     0.111 A 
ATOM      6  C   UNL     1      -6.563  38.791  21.123  1.00  0.00     0.134 A 
ATOM      7  C   UNL     1      -6.308  39.109  22.463  1.00  0.00     0.093 A 
ATOM      8  C   UNL     1      -5.036  38.949  23.011  1.00  0.00     0.123 A 
ATOM      9  C   UNL     1      -3.994  38.471  22.217  1.00  0.00     0.094 A 
ATOM     10  C   UNL     1      -4.209  38.180  20.868  1.00  0.00     0.146 A 
ATOM     11  O   UNL     1      -3.188  37.737  20.144  1.00  0.00    -0.452 OA
ENDROOT
BRANCH   1  12
ATOM     12  C   UNL     1      -2.069  36.941  18.162  1.00  0.00     0.025 A 
ATOM     13  C   UNL     1      -0.993  37.788  17.847  1.00  0.00     0.016 A 
ATOM     14  C   UNL     1       0.126  37.289  17.176  1.00  0.00     0.051 A 
ATOM     15  C   UNL     1       0.183  35.943  16.799  1.00  0.00     0.157 A 
ATOM     16  C   UNL     1      -2.018  35.596  17.763  1.00  0.00     0.062 A 
ATOM     17  C   UNL     1      -0.895  35.092  17.090  1.00  0.00     0.158 A 
BRANCH  15  18
ATOM     18  O   UNL     1       1.314  35.474  16.132  1.00  0.00    -0.504 OA
ATOM     19  H   UNL     1       2.251  35.634  16.482  1.00  0.00     0.293 HD
ENDBRANCH  15  18
BRANCH  17  20
ATOM     20  O   UNL     1      -0.849  33.752  16.711  1.00  0.00    -0.504 OA
ATOM     21  H   UNL     1      -1.329  33.033  17.240  1.00  0.00     0.293 HD
ENDBRANCH  17  20
ENDBRANCH   1  12
BRANCH   2  22
ATOM     22  O   UNL     1      -4.569  37.459  16.791  1.00  0.00    -0.502 OA
ATOM     23  H   UNL     1      -4.245  36.607  16.351  1.00  0.00     0.293 HD
ENDBRANCH   2  22
BRANCH   6  24
ATOM     24  O   UNL     1      -7.891  38.897  20.699  1.00  0.00    -0.507 OA
ATOM     25  H   UNL     1      -8.246  38.535  19.827  1.00  0.00     0.293 HD
ENDBRANCH   6  24
BRANCH   8  26
ATOM     26  O   UNL     1      -4.823  39.260  24.353  1.00  0.00    -0.508 OA
ATOM     27  H   UNL     1      -4.171  39.984  24.632  1.00  0.00     0.293 HD
ENDBRANCH   8  26
TORSDOF 6
ENDMDL
MODEL 6
REMARK VINA RESULT:    -5.955      8.526     13.683
REMARK INTER + INTRA:          -7.289
REMARK INTER:                  -7.243
REMARK INTRA:                  -0.046
REMARK UNBOUND:                -0.115
REMARK SMILES O=c1c(O)c(-c2ccc(O)c(O)c2)oc2cc(O)cc(O)c12
REMARK SMILES IDX 5 1 3 2 2 3 1 4 22 5 20 6 19 7 17 8 16 9 15 10 14 11 6 12
REMARK SMILES IDX 7 13 8 14 9 15 13 16 11 17 10 18 12 20 4 22 21 24 18 26
REMARK H PARENT 10 19 12 21 4 23 21 25 18 27
REMARK Flexibility Score: inf
ROOT
ATOM      1  C   UNL     1      -4.308  36.443  33.991  1.00  0.00     0.180 A 
ATOM      2  C   UNL     1      -3.945  36.508  32.634  1.00  0.00     0.208 A 
ATOM      3  C   UNL     1      -3.115  37.554  32.201  1.00  0.00     0.238 A 
ATOM      4  O   UNL     1      -2.749  37.577  30.997  1.00  0.00    -0.285 OA
ATOM      5  C   UNL     1      -2.671  38.531  33.125  1.00  0.00     0.111 A 
ATOM      6  C   UNL     1      -1.861  39.657  32.789  1.00  0.00     0.134 A 
ATOM      7  C   UNL     1      -1.374  40.486  33.807  1.00  0.00     0.093 A 
ATOM      8  C   UNL     1      -1.721  40.269  35.140  1.00  0.00     0.123 A 
ATOM      9  C   UNL     1      -2.562  39.207  35.473  1.00  0.00     0.094 A 
ATOM     10  C   UNL     1      -3.034  38.341  34.485  1.00  0.00     0.146 A 
ATOM     11  O   UNL     1      -3.823  37.336  34.845  1.00  0.00    -0.452 OA
ENDROOT
BRANCH   1  12
ATOM     12  C   UNL     1      -5.199  35.384  34.518  1.00  0.00     0.025 A 
ATOM     13  C   UNL     1      -6.370  35.700  35.228  1.00  0.00     0.016 A 
ATOM     14  C   UNL     1      -7.183  34.684  35.737  1.00  0.00     0.051 A 
ATOM     15  C   UNL     1      -6.836  33.342  35.557  1.00  0.00     0.157 A 
ATOM     16  C   UNL     1      -4.842  34.035  34.357  1.00  0.00     0.062 A 
ATOM     17  C   UNL     1      -5.657  33.015  34.866  1.00  0.00     0.158 A 
BRANCH  15  18
ATOM     18  O   UNL     1      -7.668  32.350  36.075  1.00  0.00    -0.504 OA
ATOM     19  H   UNL     1      -7.765  32.197  37.072  1.00  0.00     0.293 HD
ENDBRANCH  15  18
BRANCH  17  20
ATOM     20  O   UNL     1      -5.300  31.679  34.689  1.00  0.00    -0.504 OA
ATOM     21  H   UNL     1      -4.983  31.328  33.793  1.00  0.00     0.293 HD
ENDBRANCH  17  20
ENDBRANCH   1  12
BRANCH   2  22
ATOM     22  O   UNL     1      -4.375  35.521  31.742  1.00  0.00    -0.502 OA
ATOM     23  H   UNL     1      -4.334  34.534  31.963  1.00  0.00     0.293 HD
ENDBRANCH   2  22
BRANCH   6  24
ATOM     24  O   UNL     1      -1.531  40.017  31.479  1.00  0.00    -0.507 OA
ATOM     25  H   UNL     1      -1.681  39.437  30.668  1.00  0.00     0.293 HD
ENDBRANCH   6  24
BRANCH   8  26
ATOM     26  O   UNL     1      -1.232  41.125  36.125  1.00  0.00    -0.508 OA
ATOM     27  H   UNL     1      -0.255  41.120  36.393  1.00  0.00     0.293 HD
ENDBRANCH   8  26
TORSDOF 6
ENDMDL
MODEL 7
REMARK VINA RESULT:    -5.907     18.065     20.139
REMARK INTER + INTRA:          -7.230
REMARK INTER:                  -6.901
REMARK INTRA:                  -0.329
REMARK UNBOUND:                -0.115
REMARK SMILES O=c1c(O)c(-c2ccc(O)c(O)c2)oc2cc(O)cc(O)c12
REMARK SMILES IDX 5 1 3 2 2 3 1 4 22 5 20 6 19 7 17 8 16 9 15 10 14 11 6 12
REMARK SMILES IDX 7 13 8 14 9 15 13 16 11 17 10 18 12 20 4 22 21 24 18 26
REMARK H PARENT 10 19 12 21 4 23 21 25 18 27
REMARK Flexibility Score: inf
ROOT
ATOM      1  C   UNL     1      -2.586  39.251  20.477  1.00  0.00     0.180 A 
ATOM      2  C   UNL     1      -2.087  39.404  21.783  1.00  0.00     0.208 A 
ATOM      3  C   UNL     1      -2.990  39.622  22.835  1.00  0.00     0.238 A 
ATOM      4  O   UNL     1      -2.543  39.706  24.009  1.00  0.00    -0.285 OA
ATOM      5  C   UNL     1      -4.378  39.701  22.568  1.00  0.00     0.111 A 
ATOM      6  C   UNL     1      -5.380  39.959  23.552  1.00  0.00     0.134 A 
ATOM      7  C   UNL     1      -6.733  39.884  23.196  1.00  0.00     0.093 A 
ATOM      8  C   UNL     1      -7.118  39.626  21.881  1.00  0.00     0.123 A 
ATOM      9  C   UNL     1      -6.146  39.432  20.899  1.00  0.00     0.094 A 
ATOM     10  C   UNL     1      -4.790  39.464  21.230  1.00  0.00     0.146 A 
ATOM     11  O   UNL     1      -3.897  39.264  20.268  1.00  0.00    -0.452 OA
ENDROOT
BRANCH   1  12
ATOM     12  C   UNL     1      -1.694  39.042  19.313  1.00  0.00     0.025 A 
ATOM     13  C   UNL     1      -1.215  40.125  18.555  1.00  0.00     0.016 A 
ATOM     14  C   UNL     1      -0.395  39.903  17.446  1.00  0.00     0.051 A 
ATOM     15  C   UNL     1      -0.052  38.601  17.069  1.00  0.00     0.157 A 
ATOM     16  C   UNL     1      -1.365  37.735  18.919  1.00  0.00     0.062 A 
ATOM     17  C   UNL     1      -0.542  37.510  17.806  1.00  0.00     0.158 A 
BRANCH  15  18
ATOM     18  O   UNL     1       0.769  38.411  15.958  1.00  0.00    -0.504 OA
ATOM     19  H   UNL     1       0.968  39.157  15.303  1.00  0.00     0.293 HD
ENDBRANCH  15  18
BRANCH  17  20
ATOM     20  O   UNL     1      -0.211  36.209  17.432  1.00  0.00    -0.504 OA
ATOM     21  H   UNL     1       0.373  35.621  18.015  1.00  0.00     0.293 HD
ENDBRANCH  17  20
ENDBRANCH   1  12
BRANCH   2  22
ATOM     22  O   UNL     1      -0.714  39.301  22.028  1.00  0.00    -0.502 OA
ATOM     23  H   UNL     1      -0.266  38.420  22.245  1.00  0.00     0.293 HD
ENDBRANCH   2  22
BRANCH   6  24
ATOM     24  O   UNL     1      -5.101  40.316  24.874  1.00  0.00    -0.507 OA
ATOM     25  H   UNL     1      -5.592  39.962  25.681  1.00  0.00     0.293 HD
ENDBRANCH   6  24
BRANCH   8  26
ATOM     26  O   UNL     1      -8.473  39.576  21.560  1.00  0.00    -0.508 OA
ATOM     27  H   UNL     1      -8.972  38.696  21.504  1.00  0.00     0.293 HD
ENDBRANCH   8  26
TORSDOF 6
ENDMDL
MODEL 8
REMARK VINA RESULT:    -5.737      9.306     13.452
REMARK INTER + INTRA:          -7.026
REMARK INTER:                  -6.727
REMARK INTRA:                  -0.299
REMARK UNBOUND:                -0.115
REMARK SMILES O=c1c(O)c(-c2ccc(O)c(O)c2)oc2cc(O)cc(O)c12
REMARK SMILES IDX 5 1 3 2 2 3 1 4 22 5 20 6 19 7 17 8 16 9 15 10 14 11 6 12
REMARK SMILES IDX 7 13 8 14 9 15 13 16 11 17 10 18 12 20 4 22 21 24 18 26
REMARK H PARENT 10 19 12 21 4 23 21 25 18 27
REMARK Flexibility Score: inf
ROOT
ATOM      1  C   UNL     1      -3.629  37.994  32.797  1.00  0.00     0.180 A 
ATOM      2  C   UNL     1      -4.439  38.749  33.663  1.00  0.00     0.208 A 
ATOM      3  C   UNL     1      -5.314  38.079  34.533  1.00  0.00     0.238 A 
ATOM      4  O   UNL     1      -5.998  38.758  35.344  1.00  0.00    -0.285 OA
ATOM      5  C   UNL     1      -5.381  36.665  34.516  1.00  0.00     0.111 A 
ATOM      6  C   UNL     1      -6.260  35.885  35.325  1.00  0.00     0.134 A 
ATOM      7  C   UNL     1      -6.148  34.489  35.319  1.00  0.00     0.093 A 
ATOM      8  C   UNL     1      -5.235  33.844  34.486  1.00  0.00     0.123 A 
ATOM      9  C   UNL     1      -4.412  34.595  33.646  1.00  0.00     0.094 A 
ATOM     10  C   UNL     1      -4.475  35.990  33.656  1.00  0.00     0.146 A 
ATOM     11  O   UNL     1      -3.667  36.668  32.850  1.00  0.00    -0.452 OA
ENDROOT
BRANCH   1  12
ATOM     12  C   UNL     1      -2.700  38.629  31.834  1.00  0.00     0.025 A 
ATOM     13  C   UNL     1      -1.435  39.093  32.235  1.00  0.00     0.016 A 
ATOM     14  C   UNL     1      -0.585  39.711  31.315  1.00  0.00     0.051 A 
ATOM     15  C   UNL     1      -0.987  39.886  29.987  1.00  0.00     0.157 A 
ATOM     16  C   UNL     1      -3.109  38.826  30.505  1.00  0.00     0.062 A 
ATOM     17  C   UNL     1      -2.256  39.445  29.580  1.00  0.00     0.158 A 
BRANCH  15  18
ATOM     18  O   UNL     1      -0.116  40.505  29.091  1.00  0.00    -0.504 OA
ATOM     19  H   UNL     1       0.573  41.184  29.393  1.00  0.00     0.293 HD
ENDBRANCH  15  18
BRANCH  17  20
ATOM     20  O   UNL     1      -2.667  39.624  28.260  1.00  0.00    -0.504 OA
ATOM     21  H   UNL     1      -3.330  40.346  28.003  1.00  0.00     0.293 HD
ENDBRANCH  17  20
ENDBRANCH   1  12
BRANCH   2  22
ATOM     22  O   UNL     1      -4.342  40.144  33.680  1.00  0.00    -0.502 OA
ATOM     23  H   UNL     1      -5.087  40.736  34.027  1.00  0.00     0.293 HD
ENDBRANCH   2  22
BRANCH   6  24
ATOM     24  O   UNL     1      -7.271  36.426  36.125  1.00  0.00    -0.507 OA
ATOM     25  H   UNL     1      -7.487  36.123  37.062  1.00  0.00     0.293 HD
ENDBRANCH   6  24
BRANCH   8  26
ATOM     26  O   UNL     1      -5.162  32.452  34.494  1.00  0.00    -0.508 OA
ATOM     27  H   UNL     1      -4.397  31.964  34.944  1.00  0.00     0.293 HD
ENDBRANCH   8  26
TORSDOF 6
ENDMDL
