MODEL 1
REMARK VINA RESULT:    -4.713      0.000      0.000
REMARK INTER + INTRA:         -10.151
REMARK INTER:                  -8.570
REMARK INTRA:                  -1.582
REMARK UNBOUND:                -1.582
REMARK SMILES CCCCCCCCCCCCCCCC(=O)[O-]
REMARK SMILES IDX 9 1 10 2 11 3 12 4 13 5 14 6 15 7 16 8 17 9 18 10 8 11 7 12
REMARK SMILES IDX 6 13 5 14 4 15 3 16 2 17 1 18
REMARK H PARENT
REMARK Flexibility Score: inf
ROOT
ATOM      1  C   UNL     1      62.339 -25.632  -2.964  1.00  0.00     0.000 C 
ENDROOT
BRANCH   1   2
ATOM      2  C   UNL     1      63.454 -26.692  -3.008  1.00  0.00     0.000 C 
BRANCH   2   3
ATOM      3  C   UNL     1      63.686 -27.374  -1.648  1.00  0.00     0.000 C 
BRANCH   3   4
ATOM      4  C   UNL     1      63.103 -28.794  -1.524  1.00  0.00     0.000 C 
BRANCH   4   5
ATOM      5  C   UNL     1      62.008 -28.900  -0.449  1.00  0.00     0.000 C 
BRANCH   5   6
ATOM      6  C   UNL     1      60.602 -29.053  -1.054  1.00  0.00     0.006 C 
BRANCH   6   7
ATOM      7  C   UNL     1      59.526 -29.315   0.009  1.00  0.00     0.053 C 
BRANCH   7   8
ATOM      8  C   UNL     1      58.275 -28.567  -0.323  1.00  0.00     0.041 C 
ATOM      9  O   UNL     1      57.880 -28.488  -1.516  1.00  0.00    -0.550 OA
ATOM     10  O   UNL     1      57.515 -27.997   0.692  1.00  0.00    -0.550 OA
ENDBRANCH   7   8
ENDBRANCH   6   7
ENDBRANCH   5   6
ENDBRANCH   4   5
ENDBRANCH   3   4
ENDBRANCH   2   3
ENDBRANCH   1   2
BRANCH   1  11
ATOM     11  C   UNL     1      60.936 -26.240  -3.108  1.00  0.00     0.000 C 
BRANCH  11  12
ATOM     12  C   UNL     1      59.835 -25.320  -2.554  1.00  0.00    -0.000 C 
BRANCH  12  13
ATOM     13  C   UNL     1      58.500 -25.484  -3.299  1.00  0.00    -0.000 C 
BRANCH  13  14
ATOM     14  C   UNL     1      58.587 -26.507  -4.445  1.00  0.00    -0.000 C 
BRANCH  14  15
ATOM     15  C   UNL     1      58.230 -25.897  -5.812  1.00  0.00    -0.000 C 
BRANCH  15  16
ATOM     16  C   UNL     1      59.202 -24.811  -6.308  1.00  0.00    -0.000 C 
BRANCH  16  17
ATOM     17  C   UNL     1      60.629 -25.330  -6.586  1.00  0.00    -0.003 C 
ATOM     18  C   UNL     1      60.901 -25.525  -8.078  1.00  0.00     0.004 C 
ENDBRANCH  16  17
ENDBRANCH  15  16
ENDBRANCH  14  15
ENDBRANCH  13  14
ENDBRANCH  12  13
ENDBRANCH  11  12
ENDBRANCH   1  11
TORSDOF 14
ENDMDL
MODEL 2
REMARK VINA RESULT:    -4.686      2.840      5.954
REMARK INTER + INTRA:         -10.103
REMARK INTER:                  -8.417
REMARK INTRA:                  -1.686
REMARK UNBOUND:                -1.582
REMARK SMILES CCCCCCCCCCCCCCCC(=O)[O-]
REMARK SMILES IDX 9 1 10 2 11 3 12 4 13 5 14 6 15 7 16 8 17 9 18 10 8 11 7 12
REMARK SMILES IDX 6 13 5 14 4 15 3 16 2 17 1 18
REMARK H PARENT
REMARK Flexibility Score: inf
ROOT
ATOM      1  C   UNL     1      62.772 -28.907  -0.311  1.00  0.00     0.000 C 
ENDROOT
BRANCH   1   2
ATOM      2  C   UNL     1      63.278 -28.602  -1.732  1.00  0.00     0.000 C 
BRANCH   2   3
ATOM      3  C   UNL     1      63.864 -27.185  -1.869  1.00  0.00     0.000 C 
BRANCH   3   4
ATOM      4  C   UNL     1      63.390 -26.401  -3.107  1.00  0.00     0.000 C 
BRANCH   4   5
ATOM      5  C   UNL     1      62.104 -25.597  -2.850  1.00  0.00     0.000 C 
BRANCH   5   6
ATOM      6  C   UNL     1      61.201 -25.517  -4.092  1.00  0.00     0.006 C 
BRANCH   6   7
ATOM      7  C   UNL     1      59.959 -24.645  -3.864  1.00  0.00     0.053 C 
BRANCH   7   8
ATOM      8  C   UNL     1      59.588 -23.928  -5.123  1.00  0.00     0.041 C 
ATOM      9  O   UNL     1      58.572 -23.184  -5.153  1.00  0.00    -0.550 OA
ATOM     10  O   UNL     1      60.392 -24.041  -6.251  1.00  0.00    -0.550 OA
ENDBRANCH   7   8
ENDBRANCH   6   7
ENDBRANCH   5   6
ENDBRANCH   4   5
ENDBRANCH   3   4
ENDBRANCH   2   3
ENDBRANCH   1   2
BRANCH   1  11
ATOM     11  C   UNL     1      61.241 -28.997  -0.233  1.00  0.00     0.000 C 
BRANCH  11  12
ATOM     12  C   UNL     1      60.566 -28.757  -1.595  1.00  0.00    -0.000 C 
BRANCH  12  13
ATOM     13  C   UNL     1      59.452 -27.700  -1.522  1.00  0.00    -0.000 C 
BRANCH  13  14
ATOM     14  C   UNL     1      58.070 -28.274  -1.879  1.00  0.00    -0.000 C 
BRANCH  14  15
ATOM     15  C   UNL     1      57.321 -28.823  -0.653  1.00  0.00    -0.000 C 
BRANCH  15  16
ATOM     16  C   UNL     1      57.601 -28.073   0.664  1.00  0.00    -0.000 C 
BRANCH  16  17
ATOM     17  C   UNL     1      57.667 -28.991   1.902  1.00  0.00    -0.003 C 
ATOM     18  C   UNL     1      58.988 -28.858   2.661  1.00  0.00     0.004 C 
ENDBRANCH  16  17
ENDBRANCH  15  16
ENDBRANCH  14  15
ENDBRANCH  13  14
ENDBRANCH  12  13
ENDBRANCH  11  12
ENDBRANCH   1  11
TORSDOF 14
ENDMDL
MODEL 3
REMARK VINA RESULT:    -4.652      2.110      3.580
REMARK INTER + INTRA:         -10.042
REMARK INTER:                  -8.464
REMARK INTRA:                  -1.578
REMARK UNBOUND:                -1.582
REMARK SMILES CCCCCCCCCCCCCCCC(=O)[O-]
REMARK SMILES IDX 9 1 10 2 11 3 12 4 13 5 14 6 15 7 16 8 17 9 18 10 8 11 7 12
REMARK SMILES IDX 6 13 5 14 4 15 3 16 2 17 1 18
REMARK H PARENT
REMARK Flexibility Score: inf
ROOT
ATOM      1  C   UNL     1      63.641 -27.638  -1.418  1.00  0.00     0.000 C 
ENDROOT
BRANCH   1   2
ATOM      2  C   UNL     1      63.125 -29.058  -1.127  1.00  0.00     0.000 C 
BRANCH   2   3
ATOM      3  C   UNL     1      61.787 -29.065  -0.366  1.00  0.00     0.000 C 
BRANCH   3   4
ATOM      4  C   UNL     1      60.538 -28.858  -1.243  1.00  0.00     0.000 C 
BRANCH   4   5
ATOM      5  C   UNL     1      59.228 -28.891  -0.437  1.00  0.00     0.000 C 
BRANCH   5   6
ATOM      6  C   UNL     1      59.405 -29.532   0.949  1.00  0.00     0.006 C 
BRANCH   6   7
ATOM      7  C   UNL     1      58.691 -28.748   2.059  1.00  0.00     0.053 C 
BRANCH   7   8
ATOM      8  C   UNL     1      59.521 -28.733   3.303  1.00  0.00     0.041 C 
ATOM      9  O   UNL     1      60.731 -29.077   3.261  1.00  0.00    -0.550 OA
ATOM     10  O   UNL     1      58.971 -28.291   4.500  1.00  0.00    -0.550 OA
ENDBRANCH   7   8
ENDBRANCH   6   7
ENDBRANCH   5   6
ENDBRANCH   4   5
ENDBRANCH   3   4
ENDBRANCH   2   3
ENDBRANCH   1   2
BRANCH   1  11
ATOM     11  C   UNL     1      63.364 -27.191  -2.861  1.00  0.00     0.000 C 
BRANCH  11  12
ATOM     12  C   UNL     1      62.807 -25.759  -2.939  1.00  0.00    -0.000 C 
BRANCH  12  13
ATOM     13  C   UNL     1      61.274 -25.730  -3.042  1.00  0.00    -0.000 C 
BRANCH  13  14
ATOM     14  C   UNL     1      60.784 -25.417  -4.467  1.00  0.00    -0.000 C 
BRANCH  14  15
ATOM     15  C   UNL     1      59.341 -25.889  -4.714  1.00  0.00    -0.000 C 
BRANCH  15  16
ATOM     16  C   UNL     1      58.844 -26.981  -3.749  1.00  0.00    -0.000 C 
BRANCH  16  17
ATOM     17  C   UNL     1      57.556 -26.603  -2.988  1.00  0.00    -0.003 C 
ATOM     18  C   UNL     1      57.834 -25.747  -1.752  1.00  0.00     0.004 C 
ENDBRANCH  16  17
ENDBRANCH  15  16
ENDBRANCH  14  15
ENDBRANCH  13  14
ENDBRANCH  12  13
ENDBRANCH  11  12
ENDBRANCH   1  11
TORSDOF 14
ENDMDL
MODEL 4
REMARK VINA RESULT:    -4.641      1.614      3.018
REMARK INTER + INTRA:         -10.020
REMARK INTER:                  -8.348
REMARK INTRA:                  -1.673
REMARK UNBOUND:                -1.582
REMARK SMILES CCCCCCCCCCCCCCCC(=O)[O-]
REMARK SMILES IDX 9 1 10 2 11 3 12 4 13 5 14 6 15 7 16 8 17 9 18 10 8 11 7 12
REMARK SMILES IDX 6 13 5 14 4 15 3 16 2 17 1 18
REMARK H PARENT
REMARK Flexibility Score: inf
ROOT
ATOM      1  C   UNL     1      62.897 -28.320  -1.996  1.00  0.00     0.000 C 
ENDROOT
BRANCH   1   2
ATOM      2  C   UNL     1      62.862 -28.900  -0.571  1.00  0.00     0.000 C 
BRANCH   2   3
ATOM      3  C   UNL     1      61.434 -29.032  -0.012  1.00  0.00     0.000 C 
BRANCH   3   4
ATOM      4  C   UNL     1      60.321 -29.091  -1.076  1.00  0.00     0.000 C 
BRANCH   4   5
ATOM      5  C   UNL     1      58.956 -28.626  -0.541  1.00  0.00     0.000 C 
BRANCH   5   6
ATOM      6  C   UNL     1      58.136 -27.867  -1.598  1.00  0.00     0.006 C 
BRANCH   6   7
ATOM      7  C   UNL     1      57.458 -26.612  -1.032  1.00  0.00     0.053 C 
BRANCH   7   8
ATOM      8  C   UNL     1      56.896 -25.780  -2.140  1.00  0.00     0.041 C 
ATOM      9  O   UNL     1      56.515 -24.601  -1.916  1.00  0.00    -0.550 OA
ATOM     10  O   UNL     1      56.838 -26.289  -3.431  1.00  0.00    -0.550 OA
ENDBRANCH   7   8
ENDBRANCH   6   7
ENDBRANCH   5   6
ENDBRANCH   4   5
ENDBRANCH   3   4
ENDBRANCH   2   3
ENDBRANCH   1   2
BRANCH   1  11
ATOM     11  C   UNL     1      63.636 -26.976  -2.070  1.00  0.00     0.000 C 
BRANCH  11  12
ATOM     12  C   UNL     1      62.842 -25.909  -2.845  1.00  0.00    -0.000 C 
BRANCH  12  13
ATOM     13  C   UNL     1      61.385 -26.329  -3.098  1.00  0.00    -0.000 C 
BRANCH  13  14
ATOM     14  C   UNL     1      60.385 -25.199  -2.799  1.00  0.00    -0.000 C 
BRANCH  14  15
ATOM     15  C   UNL     1      59.925 -24.462  -4.068  1.00  0.00    -0.000 C 
BRANCH  15  16
ATOM     16  C   UNL     1      59.853 -25.338  -5.333  1.00  0.00    -0.000 C 
BRANCH  16  17
ATOM     17  C   UNL     1      60.431 -24.662  -6.594  1.00  0.00    -0.003 C 
ATOM     18  C   UNL     1      60.939 -25.674  -7.621  1.00  0.00     0.004 C 
ENDBRANCH  16  17
ENDBRANCH  15  16
ENDBRANCH  14  15
ENDBRANCH  13  14
ENDBRANCH  12  13
ENDBRANCH  11  12
ENDBRANCH   1  11
TORSDOF 14
ENDMDL
MODEL 5
REMARK VINA RESULT:    -4.627      2.799      5.854
REMARK INTER + INTRA:          -9.996
REMARK INTER:                  -8.234
REMARK INTRA:                  -1.762
REMARK UNBOUND:                -1.582
REMARK SMILES CCCCCCCCCCCCCCCC(=O)[O-]
REMARK SMILES IDX 9 1 10 2 11 3 12 4 13 5 14 6 15 7 16 8 17 9 18 10 8 11 7 12
REMARK SMILES IDX 6 13 5 14 4 15 3 16 2 17 1 18
REMARK H PARENT
REMARK Flexibility Score: inf
ROOT
ATOM      1  C   UNL     1      63.438 -26.601  -2.934  1.00  0.00     0.000 C 
ENDROOT
BRANCH   1   2
ATOM      2  C   UNL     1      62.254 -25.622  -2.857  1.00  0.00     0.000 C 
BRANCH   2   3
ATOM      3  C   UNL     1      61.035 -26.090  -3.672  1.00  0.00     0.000 C 
BRANCH   3   4
ATOM      4  C   UNL     1      59.696 -26.070  -2.910  1.00  0.00     0.000 C 
BRANCH   4   5
ATOM      5  C   UNL     1      58.573 -26.813  -3.654  1.00  0.00     0.000 C 
BRANCH   5   6
ATOM      6  C   UNL     1      57.669 -25.862  -4.457  1.00  0.00     0.006 C 
BRANCH   6   7
ATOM      7  C   UNL     1      57.650 -24.439  -3.883  1.00  0.00     0.053 C 
BRANCH   7   8
ATOM      8  C   UNL     1      58.148 -23.461  -4.899  1.00  0.00     0.041 C 
ATOM      9  O   UNL     1      59.371 -23.168  -4.952  1.00  0.00    -0.550 OA
ATOM     10  O   UNL     1      57.267 -22.909  -5.822  1.00  0.00    -0.550 OA
ENDBRANCH   7   8
ENDBRANCH   6   7
ENDBRANCH   5   6
ENDBRANCH   4   5
ENDBRANCH   3   4
ENDBRANCH   2   3
ENDBRANCH   1   2
BRANCH   1  11
ATOM     11  C   UNL     1      63.643 -27.388  -1.631  1.00  0.00     0.000 C 
BRANCH  11  12
ATOM     12  C   UNL     1      62.957 -28.765  -1.660  1.00  0.00    -0.000 C 
BRANCH  12  13
ATOM     13  C   UNL     1      61.891 -28.915  -0.562  1.00  0.00    -0.000 C 
BRANCH  13  14
ATOM     14  C   UNL     1      60.461 -28.942  -1.128  1.00  0.00    -0.000 C 
BRANCH  14  15
ATOM     15  C   UNL     1      59.393 -29.097  -0.032  1.00  0.00    -0.000 C 
BRANCH  15  16
ATOM     16  C   UNL     1      57.965 -28.712  -0.463  1.00  0.00    -0.000 C 
BRANCH  16  17
ATOM     17  C   UNL     1      57.320 -27.622   0.418  1.00  0.00    -0.003 C 
ATOM     18  C   UNL     1      56.912 -26.385  -0.384  1.00  0.00     0.004 C 
ENDBRANCH  16  17
ENDBRANCH  15  16
ENDBRANCH  14  15
ENDBRANCH  13  14
ENDBRANCH  12  13
ENDBRANCH  11  12
ENDBRANCH   1  11
TORSDOF 14
ENDMDL
MODEL 6
REMARK VINA RESULT:    -4.614      2.689      5.392
REMARK INTER + INTRA:          -9.973
REMARK INTER:                  -8.490
REMARK INTRA:                  -1.483
REMARK UNBOUND:                -1.582
REMARK SMILES CCCCCCCCCCCCCCCC(=O)[O-]
REMARK SMILES IDX 9 1 10 2 11 3 12 4 13 5 14 6 15 7 16 8 17 9 18 10 8 11 7 12
REMARK SMILES IDX 6 13 5 14 4 15 3 16 2 17 1 18
REMARK H PARENT
REMARK Flexibility Score: inf
ROOT
ATOM      1  C   UNL     1      62.685 -28.883  -0.533  1.00  0.00     0.000 C 
ENDROOT
BRANCH   1   2
ATOM      2  C   UNL     1      63.256 -28.482  -1.905  1.00  0.00     0.000 C 
BRANCH   2   3
ATOM      3  C   UNL     1      63.707 -27.011  -1.959  1.00  0.00     0.000 C 
BRANCH   3   4
ATOM      4  C   UNL     1      62.931 -26.129  -2.956  1.00  0.00     0.000 C 
BRANCH   4   5
ATOM      5  C   UNL     1      61.411 -26.162  -2.726  1.00  0.00     0.000 C 
BRANCH   5   6
ATOM      6  C   UNL     1      60.674 -25.056  -3.501  1.00  0.00     0.006 C 
BRANCH   6   7
ATOM      7  C   UNL     1      60.305 -25.480  -4.929  1.00  0.00     0.053 C 
BRANCH   7   8
ATOM      8  C   UNL     1      59.698 -24.333  -5.672  1.00  0.00     0.041 C 
ATOM      9  O   UNL     1      59.536 -24.400  -6.919  1.00  0.00    -0.550 OA
ATOM     10  O   UNL     1      59.264 -23.208  -4.980  1.00  0.00    -0.550 OA
ENDBRANCH   7   8
ENDBRANCH   6   7
ENDBRANCH   5   6
ENDBRANCH   4   5
ENDBRANCH   3   4
ENDBRANCH   2   3
ENDBRANCH   1   2
BRANCH   1  11
ATOM     11  C   UNL     1      61.180 -29.186  -0.583  1.00  0.00     0.000 C 
BRANCH  11  12
ATOM     12  C   UNL     1      60.535 -29.198   0.813  1.00  0.00    -0.000 C 
BRANCH  12  13
ATOM     13  C   UNL     1      59.118 -29.795   0.802  1.00  0.00    -0.000 C 
BRANCH  13  14
ATOM     14  C   UNL     1      58.038 -28.759   1.158  1.00  0.00    -0.000 C 
BRANCH  14  15
ATOM     15  C   UNL     1      57.658 -27.865  -0.035  1.00  0.00    -0.000 C 
BRANCH  15  16
ATOM     16  C   UNL     1      57.513 -28.607  -1.377  1.00  0.00    -0.000 C 
BRANCH  16  17
ATOM     17  C   UNL     1      58.112 -27.846  -2.579  1.00  0.00    -0.003 C 
ATOM     18  C   UNL     1      57.336 -26.573  -2.914  1.00  0.00     0.004 C 
ENDBRANCH  16  17
ENDBRANCH  15  16
ENDBRANCH  14  15
ENDBRANCH  13  14
ENDBRANCH  12  13
ENDBRANCH  11  12
ENDBRANCH   1  11
TORSDOF 14
ENDMDL
MODEL 7
REMARK VINA RESULT:    -4.552      2.035      5.505
REMARK INTER + INTRA:          -9.859
REMARK INTER:                  -8.062
REMARK INTRA:                  -1.797
REMARK UNBOUND:                -1.582
REMARK SMILES CCCCCCCCCCCCCCCC(=O)[O-]
REMARK SMILES IDX 9 1 10 2 11 3 12 4 13 5 14 6 15 7 16 8 17 9 18 10 8 11 7 12
REMARK SMILES IDX 6 13 5 14 4 15 3 16 2 17 1 18
REMARK H PARENT
REMARK Flexibility Score: inf
ROOT
ATOM      1  C   UNL     1      62.798 -25.529  -3.301  1.00  0.00     0.000 C 
ENDROOT
BRANCH   1   2
ATOM      2  C   UNL     1      61.284 -25.755  -3.152  1.00  0.00     0.000 C 
BRANCH   2   3
ATOM      3  C   UNL     1      60.523 -25.616  -4.483  1.00  0.00     0.000 C 
BRANCH   3   4
ATOM      4  C   UNL     1      59.059 -26.093  -4.450  1.00  0.00     0.000 C 
BRANCH   4   5
ATOM      5  C   UNL     1      58.842 -27.294  -3.513  1.00  0.00     0.000 C 
BRANCH   5   6
ATOM      6  C   UNL     1      57.712 -27.053  -2.499  1.00  0.00     0.006 C 
BRANCH   6   7
ATOM      7  C   UNL     1      57.839 -25.702  -1.782  1.00  0.00     0.053 C 
BRANCH   7   8
ATOM      8  C   UNL     1      56.598 -24.891  -1.977  1.00  0.00     0.041 C 
ATOM      9  O   UNL     1      55.900 -25.039  -3.015  1.00  0.00    -0.550 OA
ATOM     10  O   UNL     1      56.183 -24.005  -0.990  1.00  0.00    -0.550 OA
ENDBRANCH   7   8
ENDBRANCH   6   7
ENDBRANCH   5   6
ENDBRANCH   4   5
ENDBRANCH   3   4
ENDBRANCH   2   3
ENDBRANCH   1   2
BRANCH   1  11
ATOM     11  C   UNL     1      63.631 -26.642  -2.646  1.00  0.00     0.000 C 
BRANCH  11  12
ATOM     12  C   UNL     1      62.778 -27.860  -2.250  1.00  0.00    -0.000 C 
BRANCH  12  13
ATOM     13  C   UNL     1      63.157 -28.420  -0.870  1.00  0.00    -0.000 C 
BRANCH  13  14
ATOM     14  C   UNL     1      62.019 -29.235  -0.231  1.00  0.00    -0.000 C 
BRANCH  14  15
ATOM     15  C   UNL     1      60.652 -28.950  -0.876  1.00  0.00    -0.000 C 
BRANCH  15  16
ATOM     16  C   UNL     1      59.450 -29.586  -0.150  1.00  0.00    -0.000 C 
BRANCH  16  17
ATOM     17  C   UNL     1      59.066 -28.873   1.163  1.00  0.00    -0.003 C 
ATOM     18  C   UNL     1      57.689 -28.214   1.092  1.00  0.00     0.004 C 
ENDBRANCH  16  17
ENDBRANCH  15  16
ENDBRANCH  14  15
ENDBRANCH  13  14
ENDBRANCH  12  13
ENDBRANCH  11  12
ENDBRANCH   1  11
TORSDOF 14
ENDMDL
MODEL 8
REMARK VINA RESULT:    -4.529      1.565      2.994
REMARK INTER + INTRA:          -9.818
REMARK INTER:                  -8.136
REMARK INTRA:                  -1.682
REMARK UNBOUND:                -1.582
REMARK SMILES CCCCCCCCCCCCCCCC(=O)[O-]
REMARK SMILES IDX 9 1 10 2 11 3 12 4 13 5 14 6 15 7 16 8 17 9 18 10 8 11 7 12
REMARK SMILES IDX 6 13 5 14 4 15 3 16 2 17 1 18
REMARK H PARENT
REMARK Flexibility Score: inf
ROOT
ATOM      1  C   UNL     1      61.478 -25.877  -3.249  1.00  0.00     0.000 C 
ENDROOT
BRANCH   1   2
ATOM      2  C   UNL     1      63.006 -25.867  -3.071  1.00  0.00     0.000 C 
BRANCH   2   3
ATOM      3  C   UNL     1      63.489 -26.835  -1.976  1.00  0.00     0.000 C 
BRANCH   3   4
ATOM      4  C   UNL     1      62.941 -28.271  -2.088  1.00  0.00     0.000 C 
BRANCH   4   5
ATOM      5  C   UNL     1      62.522 -28.860  -0.731  1.00  0.00     0.000 C 
BRANCH   5   6
ATOM      6  C   UNL     1      60.995 -28.896  -0.551  1.00  0.00     0.006 C 
BRANCH   6   7
ATOM      7  C   UNL     1      60.577 -29.265   0.879  1.00  0.00     0.053 C 
BRANCH   7   8
ATOM      8  C   UNL     1      59.111 -29.556   0.934  1.00  0.00     0.041 C 
ATOM      9  O   UNL     1      58.345 -28.824   1.614  1.00  0.00    -0.550 OA
ATOM     10  O   UNL     1      58.582 -30.607   0.194  1.00  0.00    -0.550 OA
ENDBRANCH   7   8
ENDBRANCH   6   7
ENDBRANCH   5   6
ENDBRANCH   4   5
ENDBRANCH   3   4
ENDBRANCH   2   3
ENDBRANCH   1   2
BRANCH   1  11
ATOM     11  C   UNL     1      61.044 -25.476  -4.666  1.00  0.00     0.000 C 
BRANCH  11  12
ATOM     12  C   UNL     1      59.566 -25.802  -4.944  1.00  0.00    -0.000 C 
BRANCH  12  13
ATOM     13  C   UNL     1      58.740 -24.549  -5.280  1.00  0.00    -0.000 C 
BRANCH  13  14
ATOM     14  C   UNL     1      57.695 -24.224  -4.199  1.00  0.00    -0.000 C 
BRANCH  14  15
ATOM     15  C   UNL     1      57.273 -25.463  -3.390  1.00  0.00    -0.000 C 
BRANCH  15  16
ATOM     16  C   UNL     1      57.715 -25.452  -1.915  1.00  0.00    -0.000 C 
BRANCH  16  17
ATOM     17  C   UNL     1      57.848 -26.858  -1.293  1.00  0.00    -0.003 C 
ATOM     18  C   UNL     1      57.964 -27.958  -2.349  1.00  0.00     0.004 C 
ENDBRANCH  16  17
ENDBRANCH  15  16
ENDBRANCH  14  15
ENDBRANCH  13  14
ENDBRANCH  12  13
ENDBRANCH  11  12
ENDBRANCH   1  11
TORSDOF 14
ENDMDL
MODEL 9
REMARK VINA RESULT:    -4.521      1.960      5.825
REMARK INTER + INTRA:          -9.803
REMARK INTER:                  -8.315
REMARK INTRA:                  -1.488
REMARK UNBOUND:                -1.582
REMARK SMILES CCCCCCCCCCCCCCCC(=O)[O-]
REMARK SMILES IDX 9 1 10 2 11 3 12 4 13 5 14 6 15 7 16 8 17 9 18 10 8 11 7 12
REMARK SMILES IDX 6 13 5 14 4 15 3 16 2 17 1 18
REMARK H PARENT
REMARK Flexibility Score: inf
ROOT
ATOM      1  C   UNL     1      63.638 -27.502  -1.611  1.00  0.00     0.000 C 
ENDROOT
BRANCH   1   2
ATOM      2  C   UNL     1      63.330 -26.630  -2.841  1.00  0.00     0.000 C 
BRANCH   2   3
ATOM      3  C   UNL     1      61.949 -25.954  -2.766  1.00  0.00     0.000 C 
BRANCH   3   4
ATOM      4  C   UNL     1      61.281 -25.685  -4.128  1.00  0.00     0.000 C 
BRANCH   4   5
ATOM      5  C   UNL     1      59.765 -25.941  -4.112  1.00  0.00     0.000 C 
BRANCH   5   6
ATOM      6  C   UNL     1      59.188 -25.976  -2.687  1.00  0.00     0.006 C 
BRANCH   6   7
ATOM      7  C   UNL     1      57.671 -26.205  -2.669  1.00  0.00     0.053 C 
BRANCH   7   8
ATOM      8  C   UNL     1      56.993 -25.140  -1.867  1.00  0.00     0.041 C 
ATOM      9  O   UNL     1      56.157 -24.372  -2.411  1.00  0.00    -0.550 OA
ATOM     10  O   UNL     1      57.248 -25.027  -0.505  1.00  0.00    -0.550 OA
ENDBRANCH   7   8
ENDBRANCH   6   7
ENDBRANCH   5   6
ENDBRANCH   4   5
ENDBRANCH   3   4
ENDBRANCH   2   3
ENDBRANCH   1   2
BRANCH   1  11
ATOM     11  C   UNL     1      62.880 -28.838  -1.628  1.00  0.00     0.000 C 
BRANCH  11  12
ATOM     12  C   UNL     1      61.798 -28.916  -0.537  1.00  0.00    -0.000 C 
BRANCH  12  13
ATOM     13  C   UNL     1      60.377 -28.979  -1.121  1.00  0.00    -0.000 C 
BRANCH  13  14
ATOM     14  C   UNL     1      59.391 -29.715  -0.197  1.00  0.00    -0.000 C 
BRANCH  14  15
ATOM     15  C   UNL     1      58.448 -28.755   0.547  1.00  0.00    -0.000 C 
BRANCH  15  16
ATOM     16  C   UNL     1      58.548 -28.812   2.083  1.00  0.00    -0.000 C 
BRANCH  16  17
ATOM     17  C   UNL     1      59.722 -29.670   2.601  1.00  0.00    -0.003 C 
ATOM     18  C   UNL     1      60.639 -28.898   3.549  1.00  0.00     0.004 C 
ENDBRANCH  16  17
ENDBRANCH  15  16
ENDBRANCH  14  15
ENDBRANCH  13  14
ENDBRANCH  12  13
ENDBRANCH  11  12
ENDBRANCH   1  11
TORSDOF 14
ENDMDL
