MODEL 1
REMARK VINA RESULT:    -3.790      0.000      0.000
REMARK INTER + INTRA:         -12.979
REMARK INTER:                  -9.993
REMARK INTRA:                  -2.986
REMARK UNBOUND:                -2.986
REMARK SMILES CCCCCCCCCCCCCCCCCCCCCCCCCCCCCC(=O)[O-]
REMARK SMILES IDX 16 1 17 2 18 3 19 4 20 5 21 6 22 7 23 8 24 9 25 10 26 11
REMARK SMILES IDX 27 12 28 13 29 14 30 15 31 16 32 17 15 18 14 19 13 20 12 21
REMARK SMILES IDX 11 22 10 23 9 24 8 25 7 26 6 27 5 28 4 29 3 30 2 31 1 32
REMARK H PARENT
REMARK Flexibility Score: inf
ROOT
ATOM      1  C   UNL     1       3.103  21.293  14.878  1.00  0.00     0.000 C 
ENDROOT
BRANCH   1   2
ATOM      2  C   UNL     1       3.091  19.799  15.263  1.00  0.00     0.000 C 
BRANCH   2   3
ATOM      3  C   UNL     1       4.510  19.216  15.381  1.00  0.00     0.000 C 
BRANCH   3   4
ATOM      4  C   UNL     1       4.694  17.922  14.570  1.00  0.00     0.000 C 
BRANCH   4   5
ATOM      5  C   UNL     1       4.925  16.648  15.411  1.00  0.00     0.000 C 
BRANCH   5   6
ATOM      6  C   UNL     1       4.839  15.317  14.639  1.00  0.00     0.000 C 
BRANCH   6   7
ATOM      7  C   UNL     1       3.950  15.399  13.385  1.00  0.00     0.000 C 
BRANCH   7   8
ATOM      8  C   UNL     1       4.527  14.608  12.196  1.00  0.00     0.000 C 
BRANCH   8   9
ATOM      9  C   UNL     1       3.831  14.864  10.847  1.00  0.00     0.000 C 
BRANCH   9  10
ATOM     10  C   UNL     1       3.815  16.351  10.457  1.00  0.00     0.000 C 
BRANCH  10  11
ATOM     11  C   UNL     1       4.769  16.624   9.286  1.00  0.00     0.000 C 
BRANCH  11  12
ATOM     12  C   UNL     1       4.184  17.643   8.282  1.00  0.00     0.000 C 
BRANCH  12  13
ATOM     13  C   UNL     1       3.472  16.986   7.085  1.00  0.00     0.006 C 
BRANCH  13  14
ATOM     14  C   UNL     1       4.031  15.608   6.705  1.00  0.00     0.053 C 
BRANCH  14  15
ATOM     15  C   UNL     1       4.918  15.679   5.500  1.00  0.00     0.041 C 
ATOM     16  O   UNL     1       4.588  16.379   4.507  1.00  0.00    -0.550 OA
ATOM     17  O   UNL     1       6.105  14.959   5.471  1.00  0.00    -0.550 OA
ENDBRANCH  14  15
ENDBRANCH  13  14
ENDBRANCH  12  13
ENDBRANCH  11  12
ENDBRANCH  10  11
ENDBRANCH   9  10
ENDBRANCH   8   9
ENDBRANCH   7   8
ENDBRANCH   6   7
ENDBRANCH   5   6
ENDBRANCH   4   5
ENDBRANCH   3   4
ENDBRANCH   2   3
ENDBRANCH   1   2
BRANCH   1  18
ATOM     18  C   UNL     1       1.876  22.079  15.372  1.00  0.00     0.000 C 
BRANCH  18  19
ATOM     19  C   UNL     1       2.124  23.595  15.447  1.00  0.00     0.000 C 
BRANCH  19  20
ATOM     20  C   UNL     1       1.980  24.299  14.080  1.00  0.00     0.000 C 
BRANCH  20  21
ATOM     21  C   UNL     1       3.323  24.593  13.386  1.00  0.00     0.000 C 
BRANCH  21  22
ATOM     22  C   UNL     1       4.546  24.623  14.322  1.00  0.00     0.000 C 
BRANCH  22  23
ATOM     23  C   UNL     1       5.714  25.510  13.843  1.00  0.00     0.000 C 
BRANCH  23  24
ATOM     24  C   UNL     1       6.377  26.374  14.938  1.00  0.00    -0.000 C 
BRANCH  24  25
ATOM     25  C   UNL     1       6.084  25.928  16.382  1.00  0.00    -0.000 C 
BRANCH  25  26
ATOM     26  C   UNL     1       4.882  26.631  17.039  1.00  0.00    -0.000 C 
BRANCH  26  27
ATOM     27  C   UNL     1       4.404  27.881  16.266  1.00  0.00    -0.000 C 
BRANCH  27  28
ATOM     28  C   UNL     1       2.966  27.723  15.741  1.00  0.00    -0.000 C 
BRANCH  28  29
ATOM     29  C   UNL     1       2.689  28.597  14.498  1.00  0.00    -0.000 C 
BRANCH  29  30
ATOM     30  C   UNL     1       2.653  27.811  13.174  1.00  0.00    -0.000 C 
BRANCH  30  31
ATOM     31  C   UNL     1       3.822  28.100  12.218  1.00  0.00    -0.003 C 
ATOM     32  C   UNL     1       4.856  29.055  12.815  1.00  0.00     0.004 C 
ENDBRANCH  30  31
ENDBRANCH  29  30
ENDBRANCH  28  29
ENDBRANCH  27  28
ENDBRANCH  26  27
ENDBRANCH  25  26
ENDBRANCH  24  25
ENDBRANCH  23  24
ENDBRANCH  22  23
ENDBRANCH  21  22
ENDBRANCH  20  21
ENDBRANCH  19  20
ENDBRANCH  18  19
ENDBRANCH   1  18
TORSDOF 28
ENDMDL
MODEL 2
REMARK VINA RESULT:    -3.170      1.479      3.647
REMARK INTER + INTRA:         -11.344
REMARK INTER:                  -9.381
REMARK INTRA:                  -1.964
REMARK UNBOUND:                -2.986
REMARK SMILES CCCCCCCCCCCCCCCCCCCCCCCCCCCCCC(=O)[O-]
REMARK SMILES IDX 16 1 17 2 18 3 19 4 20 5 21 6 22 7 23 8 24 9 25 10 26 11
REMARK SMILES IDX 27 12 28 13 29 14 30 15 31 16 32 17 15 18 14 19 13 20 12 21
REMARK SMILES IDX 11 22 10 23 9 24 8 25 7 26 6 27 5 28 4 29 3 30 2 31 1 32
REMARK H PARENT
REMARK Flexibility Score: inf
ROOT
ATOM      1  C   UNL     1       4.992  17.799  13.787  1.00  0.00     0.000 C 
ENDROOT
BRANCH   1   2
ATOM      2  C   UNL     1       6.166  16.868  13.418  1.00  0.00     0.000 C 
BRANCH   2   3
ATOM      3  C   UNL     1       6.081  15.511  14.137  1.00  0.00     0.000 C 
BRANCH   3   4
ATOM      4  C   UNL     1       4.937  14.626  13.613  1.00  0.00     0.000 C 
BRANCH   4   5
ATOM      5  C   UNL     1       3.695  14.551  14.527  1.00  0.00     0.000 C 
BRANCH   5   6
ATOM      6  C   UNL     1       2.336  14.699  13.816  1.00  0.00     0.000 C 
BRANCH   6   7
ATOM      7  C   UNL     1       2.310  14.058  12.417  1.00  0.00     0.000 C 
BRANCH   7   8
ATOM      8  C   UNL     1       1.909  15.055  11.314  1.00  0.00     0.000 C 
BRANCH   8   9
ATOM      9  C   UNL     1       2.646  16.406  11.362  1.00  0.00     0.000 C 
BRANCH   9  10
ATOM     10  C   UNL     1       3.580  16.619  10.159  1.00  0.00     0.000 C 
BRANCH  10  11
ATOM     11  C   UNL     1       2.902  17.478   9.081  1.00  0.00     0.000 C 
BRANCH  11  12
ATOM     12  C   UNL     1       3.833  17.745   7.877  1.00  0.00     0.000 C 
BRANCH  12  13
ATOM     13  C   UNL     1       3.311  17.153   6.554  1.00  0.00     0.006 C 
BRANCH  13  14
ATOM     14  C   UNL     1       3.966  17.749   5.301  1.00  0.00     0.053 C 
BRANCH  14  15
ATOM     15  C   UNL     1       4.202  16.710   4.248  1.00  0.00     0.041 C 
ATOM     16  O   UNL     1       3.572  16.752   3.159  1.00  0.00    -0.550 OA
ATOM     17  O   UNL     1       5.111  15.685   4.478  1.00  0.00    -0.550 OA
ENDBRANCH  14  15
ENDBRANCH  13  14
ENDBRANCH  12  13
ENDBRANCH  11  12
ENDBRANCH  10  11
ENDBRANCH   9  10
ENDBRANCH   8   9
ENDBRANCH   7   8
ENDBRANCH   6   7
ENDBRANCH   5   6
ENDBRANCH   4   5
ENDBRANCH   3   4
ENDBRANCH   2   3
ENDBRANCH   1   2
BRANCH   1  18
ATOM     18  C   UNL     1       5.345  18.870  14.835  1.00  0.00     0.000 C 
BRANCH  18  19
ATOM     19  C   UNL     1       4.486  18.771  16.106  1.00  0.00     0.000 C 
BRANCH  19  20
ATOM     20  C   UNL     1       3.217  17.914  15.913  1.00  0.00     0.000 C 
BRANCH  20  21
ATOM     21  C   UNL     1       1.934  18.740  15.700  1.00  0.00     0.000 C 
BRANCH  21  22
ATOM     22  C   UNL     1       2.114  20.012  14.849  1.00  0.00     0.000 C 
BRANCH  22  23
ATOM     23  C   UNL     1       1.875  21.339  15.598  1.00  0.00     0.000 C 
BRANCH  23  24
ATOM     24  C   UNL     1       1.919  22.608  14.719  1.00  0.00    -0.000 C 
BRANCH  24  25
ATOM     25  C   UNL     1       3.176  23.479  14.900  1.00  0.00    -0.000 C 
BRANCH  25  26
ATOM     26  C   UNL     1       2.917  24.850  15.552  1.00  0.00    -0.000 C 
BRANCH  26  27
ATOM     27  C   UNL     1       4.211  25.597  15.947  1.00  0.00    -0.000 C 
BRANCH  27  28
ATOM     28  C   UNL     1       5.265  25.562  14.826  1.00  0.00    -0.000 C 
BRANCH  28  29
ATOM     29  C   UNL     1       4.638  25.365  13.428  1.00  0.00    -0.000 C 
BRANCH  29  30
ATOM     30  C   UNL     1       4.498  26.665  12.615  1.00  0.00    -0.000 C 
BRANCH  30  31
ATOM     31  C   UNL     1       3.214  27.464  12.890  1.00  0.00    -0.003 C 
ATOM     32  C   UNL     1       2.736  28.259  11.675  1.00  0.00     0.004 C 
ENDBRANCH  30  31
ENDBRANCH  29  30
ENDBRANCH  28  29
ENDBRANCH  27  28
ENDBRANCH  26  27
ENDBRANCH  25  26
ENDBRANCH  24  25
ENDBRANCH  23  24
ENDBRANCH  22  23
ENDBRANCH  21  22
ENDBRANCH  20  21
ENDBRANCH  19  20
ENDBRANCH  18  19
ENDBRANCH   1  18
TORSDOF 28
ENDMDL
MODEL 3
REMARK VINA RESULT:    -3.019      3.458     10.737
REMARK INTER + INTRA:         -10.946
REMARK INTER:                  -8.255
REMARK INTRA:                  -2.691
REMARK UNBOUND:                -2.986
REMARK SMILES CCCCCCCCCCCCCCCCCCCCCCCCCCCCCC(=O)[O-]
REMARK SMILES IDX 16 1 17 2 18 3 19 4 20 5 21 6 22 7 23 8 24 9 25 10 26 11
REMARK SMILES IDX 27 12 28 13 29 14 30 15 31 16 32 17 15 18 14 19 13 20 12 21
REMARK SMILES IDX 11 22 10 23 9 24 8 25 7 26 6 27 5 28 4 29 3 30 2 31 1 32
REMARK H PARENT
REMARK Flexibility Score: inf
ROOT
ATOM      1  C   UNL     1       5.256  18.185  14.189  1.00  0.00     0.000 C 
ENDROOT
BRANCH   1   2
ATOM      2  C   UNL     1       3.731  18.410  14.265  1.00  0.00     0.000 C 
BRANCH   2   3
ATOM      3  C   UNL     1       3.355  19.519  15.263  1.00  0.00     0.000 C 
BRANCH   3   4
ATOM      4  C   UNL     1       2.122  20.327  14.822  1.00  0.00     0.000 C 
BRANCH   4   5
ATOM      5  C   UNL     1       2.004  21.735  15.444  1.00  0.00     0.000 C 
BRANCH   5   6
ATOM      6  C   UNL     1       1.875  22.897  14.438  1.00  0.00     0.000 C 
BRANCH   6   7
ATOM      7  C   UNL     1       3.203  23.634  14.189  1.00  0.00     0.000 C 
BRANCH   7   8
ATOM      8  C   UNL     1       3.667  24.449  15.411  1.00  0.00     0.000 C 
BRANCH   8   9
ATOM      9  C   UNL     1       4.990  25.212  15.218  1.00  0.00     0.000 C 
BRANCH   9  10
ATOM     10  C   UNL     1       4.966  26.615  15.847  1.00  0.00     0.000 C 
BRANCH  10  11
ATOM     11  C   UNL     1       3.534  27.027  16.220  1.00  0.00     0.000 C 
BRANCH  11  12
ATOM     12  C   UNL     1       2.914  27.986  15.180  1.00  0.00     0.000 C 
BRANCH  12  13
ATOM     13  C   UNL     1       3.870  28.341  14.026  1.00  0.00     0.006 C 
BRANCH  13  14
ATOM     14  C   UNL     1       3.181  28.477  12.661  1.00  0.00     0.053 C 
BRANCH  14  15
ATOM     15  C   UNL     1       3.246  27.203  11.876  1.00  0.00     0.041 C 
ATOM     16  O   UNL     1       2.391  26.961  10.983  1.00  0.00    -0.550 OA
ATOM     17  O   UNL     1       4.246  26.276  12.140  1.00  0.00    -0.550 OA
ENDBRANCH  14  15
ENDBRANCH  13  14
ENDBRANCH  12  13
ENDBRANCH  11  12
ENDBRANCH  10  11
ENDBRANCH   9  10
ENDBRANCH   8   9
ENDBRANCH   7   8
ENDBRANCH   6   7
ENDBRANCH   5   6
ENDBRANCH   4   5
ENDBRANCH   3   4
ENDBRANCH   2   3
ENDBRANCH   1   2
BRANCH   1  18
ATOM     18  C   UNL     1       5.663  16.846  13.549  1.00  0.00     0.000 C 
BRANCH  18  19
ATOM     19  C   UNL     1       6.040  15.775  14.585  1.00  0.00     0.000 C 
BRANCH  19  20
ATOM     20  C   UNL     1       5.959  16.288  16.040  1.00  0.00     0.000 C 
BRANCH  20  21
ATOM     21  C   UNL     1       5.063  15.430  16.953  1.00  0.00     0.000 C 
BRANCH  21  22
ATOM     22  C   UNL     1       3.907  14.706  16.236  1.00  0.00     0.000 C 
BRANCH  22  23
ATOM     23  C   UNL     1       2.675  15.584  15.931  1.00  0.00     0.000 C 
BRANCH  23  24
ATOM     24  C   UNL     1       1.875  15.183  14.673  1.00  0.00    -0.000 C 
BRANCH  24  25
ATOM     25  C   UNL     1       2.731  14.716  13.481  1.00  0.00    -0.000 C 
BRANCH  25  26
ATOM     26  C   UNL     1       2.384  15.390  12.140  1.00  0.00    -0.000 C 
BRANCH  26  27
ATOM     27  C   UNL     1       3.624  15.856  11.347  1.00  0.00    -0.000 C 
BRANCH  27  28
ATOM     28  C   UNL     1       3.495  15.562   9.842  1.00  0.00    -0.000 C 
BRANCH  28  29
ATOM     29  C   UNL     1       3.078  16.806   9.028  1.00  0.00    -0.000 C 
BRANCH  29  30
ATOM     30  C   UNL     1       4.227  17.441   8.222  1.00  0.00    -0.000 C 
BRANCH  30  31
ATOM     31  C   UNL     1       3.946  17.609   6.719  1.00  0.00    -0.003 C 
ATOM     32  C   UNL     1       3.124  18.859   6.403  1.00  0.00     0.004 C 
ENDBRANCH  30  31
ENDBRANCH  29  30
ENDBRANCH  28  29
ENDBRANCH  27  28
ENDBRANCH  26  27
ENDBRANCH  25  26
ENDBRANCH  24  25
ENDBRANCH  23  24
ENDBRANCH  22  23
ENDBRANCH  21  22
ENDBRANCH  20  21
ENDBRANCH  19  20
ENDBRANCH  18  19
ENDBRANCH   1  18
TORSDOF 28
ENDMDL
MODEL 4
REMARK VINA RESULT:    -2.905      1.581      3.118
REMARK INTER + INTRA:         -10.646
REMARK INTER:                  -8.067
REMARK INTRA:                  -2.579
REMARK UNBOUND:                -2.986
REMARK SMILES CCCCCCCCCCCCCCCCCCCCCCCCCCCCCC(=O)[O-]
REMARK SMILES IDX 16 1 17 2 18 3 19 4 20 5 21 6 22 7 23 8 24 9 25 10 26 11
REMARK SMILES IDX 27 12 28 13 29 14 30 15 31 16 32 17 15 18 14 19 13 20 12 21
REMARK SMILES IDX 11 22 10 23 9 24 8 25 7 26 6 27 5 28 4 29 3 30 2 31 1 32
REMARK H PARENT
REMARK Flexibility Score: inf
ROOT
ATOM      1  C   UNL     1       2.729  22.080  14.654  1.00  0.00     0.000 C 
ENDROOT
BRANCH   1   2
ATOM      2  C   UNL     1       1.878  21.243  15.632  1.00  0.00     0.000 C 
BRANCH   2   3
ATOM      3  C   UNL     1       2.420  19.813  15.798  1.00  0.00     0.000 C 
BRANCH   3   4
ATOM      4  C   UNL     1       2.045  18.891  14.625  1.00  0.00     0.000 C 
BRANCH   4   5
ATOM      5  C   UNL     1       3.242  18.290  13.856  1.00  0.00     0.000 C 
BRANCH   5   6
ATOM      6  C   UNL     1       4.195  17.412  14.691  1.00  0.00     0.000 C 
BRANCH   6   7
ATOM      7  C   UNL     1       5.360  16.830  13.870  1.00  0.00     0.000 C 
BRANCH   7   8
ATOM      8  C   UNL     1       5.304  15.294  13.767  1.00  0.00     0.000 C 
BRANCH   8   9
ATOM      9  C   UNL     1       3.889  14.690  13.834  1.00  0.00     0.000 C 
BRANCH   9  10
ATOM     10  C   UNL     1       3.064  14.962  12.566  1.00  0.00     0.000 C 
BRANCH  10  11
ATOM     11  C   UNL     1       3.968  15.039  11.327  1.00  0.00     0.000 C 
BRANCH  11  12
ATOM     12  C   UNL     1       3.544  16.171  10.365  1.00  0.00     0.000 C 
BRANCH  12  13
ATOM     13  C   UNL     1       3.393  15.710   8.903  1.00  0.00     0.006 C 
BRANCH  13  14
ATOM     14  C   UNL     1       4.022  16.665   7.878  1.00  0.00     0.053 C 
BRANCH  14  15
ATOM     15  C   UNL     1       3.130  17.831   7.584  1.00  0.00     0.041 C 
ATOM     16  O   UNL     1       1.896  17.767   7.827  1.00  0.00    -0.550 OA
ATOM     17  O   UNL     1       3.662  18.988   7.028  1.00  0.00    -0.550 OA
ENDBRANCH  14  15
ENDBRANCH  13  14
ENDBRANCH  12  13
ENDBRANCH  11  12
ENDBRANCH  10  11
ENDBRANCH   9  10
ENDBRANCH   8   9
ENDBRANCH   7   8
ENDBRANCH   6   7
ENDBRANCH   5   6
ENDBRANCH   4   5
ENDBRANCH   3   4
ENDBRANCH   2   3
ENDBRANCH   1   2
BRANCH   1  18
ATOM     18  C   UNL     1       2.965  23.531  15.110  1.00  0.00     0.000 C 
BRANCH  18  19
ATOM     19  C   UNL     1       1.900  24.506  14.583  1.00  0.00     0.000 C 
BRANCH  19  20
ATOM     20  C   UNL     1       1.896  24.623  13.043  1.00  0.00     0.000 C 
BRANCH  20  21
ATOM     21  C   UNL     1       3.024  25.511  12.483  1.00  0.00     0.000 C 
BRANCH  21  22
ATOM     22  C   UNL     1       2.550  26.774  11.741  1.00  0.00     0.000 C 
BRANCH  22  23
ATOM     23  C   UNL     1       3.039  28.108  12.342  1.00  0.00     0.000 C 
BRANCH  23  24
ATOM     24  C   UNL     1       3.773  27.991  13.695  1.00  0.00    -0.000 C 
BRANCH  24  25
ATOM     25  C   UNL     1       3.193  28.860  14.826  1.00  0.00    -0.000 C 
BRANCH  25  26
ATOM     26  C   UNL     1       2.422  28.078  15.906  1.00  0.00    -0.000 C 
BRANCH  26  27
ATOM     27  C   UNL     1       3.169  26.819  16.402  1.00  0.00    -0.000 C 
BRANCH  27  28
ATOM     28  C   UNL     1       4.588  27.145  16.900  1.00  0.00    -0.000 C 
BRANCH  28  29
ATOM     29  C   UNL     1       5.511  25.907  16.911  1.00  0.00    -0.000 C 
BRANCH  29  30
ATOM     30  C   UNL     1       6.969  26.209  16.515  1.00  0.00    -0.000 C 
BRANCH  30  31
ATOM     31  C   UNL     1       7.220  26.310  15.002  1.00  0.00    -0.003 C 
ATOM     32  C   UNL     1       6.240  25.474  14.179  1.00  0.00     0.004 C 
ENDBRANCH  30  31
ENDBRANCH  29  30
ENDBRANCH  28  29
ENDBRANCH  27  28
ENDBRANCH  26  27
ENDBRANCH  25  26
ENDBRANCH  24  25
ENDBRANCH  23  24
ENDBRANCH  22  23
ENDBRANCH  21  22
ENDBRANCH  20  21
ENDBRANCH  19  20
ENDBRANCH  18  19
ENDBRANCH   1  18
TORSDOF 28
ENDMDL
MODEL 5
REMARK VINA RESULT:    -2.777      1.200      2.279
REMARK INTER + INTRA:         -10.307
REMARK INTER:                  -7.856
REMARK INTRA:                  -2.451
REMARK UNBOUND:                -2.986
REMARK SMILES CCCCCCCCCCCCCCCCCCCCCCCCCCCCCC(=O)[O-]
REMARK SMILES IDX 16 1 17 2 18 3 19 4 20 5 21 6 22 7 23 8 24 9 25 10 26 11
REMARK SMILES IDX 27 12 28 13 29 14 30 15 31 16 32 17 15 18 14 19 13 20 12 21
REMARK SMILES IDX 11 22 10 23 9 24 8 25 7 26 6 27 5 28 4 29 3 30 2 31 1 32
REMARK H PARENT
REMARK Flexibility Score: inf
ROOT
ATOM      1  C   UNL     1       2.164  21.757  14.063  1.00  0.00     0.000 C 
ENDROOT
BRANCH   1   2
ATOM      2  C   UNL     1       2.038  20.994  15.399  1.00  0.00     0.000 C 
BRANCH   2   3
ATOM      3  C   UNL     1       3.237  20.065  15.654  1.00  0.00     0.000 C 
BRANCH   3   4
ATOM      4  C   UNL     1       3.184  18.776  14.815  1.00  0.00     0.000 C 
BRANCH   4   5
ATOM      5  C   UNL     1       4.096  17.633  15.310  1.00  0.00     0.000 C 
BRANCH   5   6
ATOM      6  C   UNL     1       5.244  17.239  14.359  1.00  0.00     0.000 C 
BRANCH   6   7
ATOM      7  C   UNL     1       5.577  15.737  14.400  1.00  0.00     0.000 C 
BRANCH   7   8
ATOM      8  C   UNL     1       5.014  14.972  13.188  1.00  0.00     0.000 C 
BRANCH   8   9
ATOM      9  C   UNL     1       3.482  15.010  13.051  1.00  0.00     0.000 C 
BRANCH   9  10
ATOM     10  C   UNL     1       3.019  15.458  11.655  1.00  0.00     0.000 C 
BRANCH  10  11
ATOM     11  C   UNL     1       3.929  14.881  10.561  1.00  0.00     0.000 C 
BRANCH  11  12
ATOM     12  C   UNL     1       3.658  15.520   9.181  1.00  0.00     0.000 C 
BRANCH  12  13
ATOM     13  C   UNL     1       4.052  17.008   9.105  1.00  0.00     0.006 C 
BRANCH  13  14
ATOM     14  C   UNL     1       4.342  17.507   7.683  1.00  0.00     0.053 C 
BRANCH  14  15
ATOM     15  C   UNL     1       5.075  16.482   6.873  1.00  0.00     0.041 C 
ATOM     16  O   UNL     1       4.589  16.058   5.792  1.00  0.00    -0.550 OA
ATOM     17  O   UNL     1       6.293  15.987   7.321  1.00  0.00    -0.550 OA
ENDBRANCH  14  15
ENDBRANCH  13  14
ENDBRANCH  12  13
ENDBRANCH  11  12
ENDBRANCH  10  11
ENDBRANCH   9  10
ENDBRANCH   8   9
ENDBRANCH   7   8
ENDBRANCH   6   7
ENDBRANCH   5   6
ENDBRANCH   4   5
ENDBRANCH   3   4
ENDBRANCH   2   3
ENDBRANCH   1   2
BRANCH   1  18
ATOM     18  C   UNL     1       2.132  23.289  14.209  1.00  0.00     0.000 C 
BRANCH  18  19
ATOM     19  C   UNL     1       2.649  23.773  15.573  1.00  0.00     0.000 C 
BRANCH  19  20
ATOM     20  C   UNL     1       1.875  24.996  16.113  1.00  0.00     0.000 C 
BRANCH  20  21
ATOM     21  C   UNL     1       2.757  26.001  16.879  1.00  0.00     0.000 C 
BRANCH  21  22
ATOM     22  C   UNL     1       4.273  25.813  16.688  1.00  0.00     0.000 C 
BRANCH  22  23
ATOM     23  C   UNL     1       5.136  27.035  17.068  1.00  0.00     0.000 C 
BRANCH  23  24
ATOM     24  C   UNL     1       6.597  26.990  16.569  1.00  0.00    -0.000 C 
BRANCH  24  25
ATOM     25  C   UNL     1       6.926  25.815  15.630  1.00  0.00    -0.000 C 
BRANCH  25  26
ATOM     26  C   UNL     1       6.578  26.061  14.150  1.00  0.00    -0.000 C 
BRANCH  26  27
ATOM     27  C   UNL     1       5.621  25.002  13.560  1.00  0.00    -0.000 C 
BRANCH  27  28
ATOM     28  C   UNL     1       4.288  25.617  13.098  1.00  0.00    -0.000 C 
BRANCH  28  29
ATOM     29  C   UNL     1       4.225  27.142  13.336  1.00  0.00    -0.000 C 
BRANCH  29  30
ATOM     30  C   UNL     1       4.250  27.979  12.043  1.00  0.00    -0.000 C 
BRANCH  30  31
ATOM     31  C   UNL     1       2.937  28.711  11.721  1.00  0.00    -0.003 C 
ATOM     32  C   UNL     1       1.876  28.535  12.808  1.00  0.00     0.004 C 
ENDBRANCH  30  31
ENDBRANCH  29  30
ENDBRANCH  28  29
ENDBRANCH  27  28
ENDBRANCH  26  27
ENDBRANCH  25  26
ENDBRANCH  24  25
ENDBRANCH  23  24
ENDBRANCH  22  23
ENDBRANCH  21  22
ENDBRANCH  20  21
ENDBRANCH  19  20
ENDBRANCH  18  19
ENDBRANCH   1  18
TORSDOF 28
ENDMDL
MODEL 6
REMARK VINA RESULT:    -2.727      1.288      3.128
REMARK INTER + INTRA:         -10.176
REMARK INTER:                  -8.572
REMARK INTRA:                  -1.604
REMARK UNBOUND:                -2.986
REMARK SMILES CCCCCCCCCCCCCCCCCCCCCCCCCCCCCC(=O)[O-]
REMARK SMILES IDX 16 1 17 2 18 3 19 4 20 5 21 6 22 7 23 8 24 9 25 10 26 11
REMARK SMILES IDX 27 12 28 13 29 14 30 15 31 16 32 17 15 18 14 19 13 20 12 21
REMARK SMILES IDX 11 22 10 23 9 24 8 25 7 26 6 27 5 28 4 29 3 30 2 31 1 32
REMARK H PARENT
REMARK Flexibility Score: inf
ROOT
ATOM      1  C   UNL     1       2.617  22.804  15.163  1.00  0.00     0.000 C 
ENDROOT
BRANCH   1   2
ATOM      2  C   UNL     1       1.959  21.418  15.005  1.00  0.00     0.000 C 
BRANCH   2   3
ATOM      3  C   UNL     1       2.995  20.280  14.986  1.00  0.00     0.000 C 
BRANCH   3   4
ATOM      4  C   UNL     1       2.513  19.020  15.727  1.00  0.00     0.000 C 
BRANCH   4   5
ATOM      5  C   UNL     1       2.334  17.768  14.842  1.00  0.00     0.000 C 
BRANCH   5   6
ATOM      6  C   UNL     1       3.638  17.083  14.388  1.00  0.00     0.000 C 
BRANCH   6   7
ATOM      7  C   UNL     1       3.406  15.708  13.736  1.00  0.00     0.000 C 
BRANCH   7   8
ATOM      8  C   UNL     1       4.147  15.555  12.395  1.00  0.00     0.000 C 
BRANCH   8   9
ATOM      9  C   UNL     1       3.254  15.661  11.145  1.00  0.00     0.000 C 
BRANCH   9  10
ATOM     10  C   UNL     1       3.351  17.033  10.457  1.00  0.00     0.000 C 
BRANCH  10  11
ATOM     11  C   UNL     1       2.527  17.060   9.162  1.00  0.00     0.000 C 
BRANCH  11  12
ATOM     12  C   UNL     1       3.089  16.098   8.093  1.00  0.00     0.000 C 
BRANCH  12  13
ATOM     13  C   UNL     1       4.555  16.385   7.718  1.00  0.00     0.006 C 
BRANCH  13  14
ATOM     14  C   UNL     1       5.071  15.561   6.530  1.00  0.00     0.053 C 
BRANCH  14  15
ATOM     15  C   UNL     1       4.343  15.893   5.264  1.00  0.00     0.041 C 
ATOM     16  O   UNL     1       3.577  15.049   4.730  1.00  0.00    -0.550 OA
ATOM     17  O   UNL     1       4.522  17.135   4.668  1.00  0.00    -0.550 OA
ENDBRANCH  14  15
ENDBRANCH  13  14
ENDBRANCH  12  13
ENDBRANCH  11  12
ENDBRANCH  10  11
ENDBRANCH   9  10
ENDBRANCH   8   9
ENDBRANCH   7   8
ENDBRANCH   6   7
ENDBRANCH   5   6
ENDBRANCH   4   5
ENDBRANCH   3   4
ENDBRANCH   2   3
ENDBRANCH   1   2
BRANCH   1  18
ATOM     18  C   UNL     1       1.875  23.747  16.127  1.00  0.00     0.000 C 
BRANCH  18  19
ATOM     19  C   UNL     1       1.984  25.226  15.723  1.00  0.00     0.000 C 
BRANCH  19  20
ATOM     20  C   UNL     1       2.830  26.061  16.709  1.00  0.00     0.000 C 
BRANCH  20  21
ATOM     21  C   UNL     1       2.440  27.551  16.757  1.00  0.00     0.000 C 
BRANCH  21  22
ATOM     22  C   UNL     1       3.366  28.491  15.962  1.00  0.00     0.000 C 
BRANCH  22  23
ATOM     23  C   UNL     1       3.248  28.382  14.428  1.00  0.00     0.000 C 
BRANCH  23  24
ATOM     24  C   UNL     1       4.490  28.847  13.637  1.00  0.00    -0.000 C 
BRANCH  24  25
ATOM     25  C   UNL     1       4.746  28.085  12.324  1.00  0.00    -0.000 C 
BRANCH  25  26
ATOM     26  C   UNL     1       3.678  27.034  11.973  1.00  0.00    -0.000 C 
BRANCH  26  27
ATOM     27  C   UNL     1       3.549  25.913  13.029  1.00  0.00    -0.000 C 
BRANCH  27  28
ATOM     28  C   UNL     1       4.782  24.992  13.050  1.00  0.00    -0.000 C 
BRANCH  28  29
ATOM     29  C   UNL     1       5.922  25.547  13.931  1.00  0.00    -0.000 C 
BRANCH  29  30
ATOM     30  C   UNL     1       5.609  25.540  15.439  1.00  0.00    -0.000 C 
BRANCH  30  31
ATOM     31  C   UNL     1       6.761  26.012  16.341  1.00  0.00    -0.003 C 
ATOM     32  C   UNL     1       7.798  26.850  15.593  1.00  0.00     0.004 C 
ENDBRANCH  30  31
ENDBRANCH  29  30
ENDBRANCH  28  29
ENDBRANCH  27  28
ENDBRANCH  26  27
ENDBRANCH  25  26
ENDBRANCH  24  25
ENDBRANCH  23  24
ENDBRANCH  22  23
ENDBRANCH  21  22
ENDBRANCH  20  21
ENDBRANCH  19  20
ENDBRANCH  18  19
ENDBRANCH   1  18
TORSDOF 28
ENDMDL
MODEL 7
REMARK VINA RESULT:    -2.292      1.445      3.085
REMARK INTER + INTRA:          -9.030
REMARK INTER:                  -8.216
REMARK INTRA:                  -0.814
REMARK UNBOUND:                -2.986
REMARK SMILES CCCCCCCCCCCCCCCCCCCCCCCCCCCCCC(=O)[O-]
REMARK SMILES IDX 16 1 17 2 18 3 19 4 20 5 21 6 22 7 23 8 24 9 25 10 26 11
REMARK SMILES IDX 27 12 28 13 29 14 30 15 31 16 32 17 15 18 14 19 13 20 12 21
REMARK SMILES IDX 11 22 10 23 9 24 8 25 7 26 6 27 5 28 4 29 3 30 2 31 1 32
REMARK H PARENT
REMARK Flexibility Score: inf
ROOT
ATOM      1  C   UNL     1       2.059  20.251  15.911  1.00  0.00     0.000 C 
ENDROOT
BRANCH   1   2
ATOM      2  C   UNL     1       2.114  18.818  15.343  1.00  0.00     0.000 C 
BRANCH   2   3
ATOM      3  C   UNL     1       3.400  18.559  14.539  1.00  0.00     0.000 C 
BRANCH   3   4
ATOM      4  C   UNL     1       3.673  17.061  14.315  1.00  0.00     0.000 C 
BRANCH   4   5
ATOM      5  C   UNL     1       4.906  16.744  13.442  1.00  0.00     0.000 C 
BRANCH   5   6
ATOM      6  C   UNL     1       4.826  15.437  12.628  1.00  0.00     0.000 C 
BRANCH   6   7
ATOM      7  C   UNL     1       4.469  14.209  13.485  1.00  0.00     0.000 C 
BRANCH   7   8
ATOM      8  C   UNL     1       2.950  14.042  13.678  1.00  0.00     0.000 C 
BRANCH   8   9
ATOM      9  C   UNL     1       2.128  14.029  12.377  1.00  0.00     0.000 C 
BRANCH   9  10
ATOM     10  C   UNL     1       3.006  13.958  11.117  1.00  0.00     0.000 C 
BRANCH  10  11
ATOM     11  C   UNL     1       2.290  14.582   9.910  1.00  0.00     0.000 C 
BRANCH  11  12
ATOM     12  C   UNL     1       3.044  15.812   9.357  1.00  0.00     0.000 C 
BRANCH  12  13
ATOM     13  C   UNL     1       4.114  15.454   8.308  1.00  0.00     0.006 C 
BRANCH  13  14
ATOM     14  C   UNL     1       4.795  16.673   7.669  1.00  0.00     0.053 C 
BRANCH  14  15
ATOM     15  C   UNL     1       3.824  17.513   6.899  1.00  0.00     0.041 C 
ATOM     16  O   UNL     1       3.634  18.717   7.214  1.00  0.00    -0.550 OA
ATOM     17  O   UNL     1       3.116  16.960   5.839  1.00  0.00    -0.550 OA
ENDBRANCH  14  15
ENDBRANCH  13  14
ENDBRANCH  12  13
ENDBRANCH  11  12
ENDBRANCH  10  11
ENDBRANCH   9  10
ENDBRANCH   8   9
ENDBRANCH   7   8
ENDBRANCH   6   7
ENDBRANCH   5   6
ENDBRANCH   4   5
ENDBRANCH   3   4
ENDBRANCH   2   3
ENDBRANCH   1   2
BRANCH   1  18
ATOM     18  C   UNL     1       2.907  21.271  15.130  1.00  0.00     0.000 C 
BRANCH  18  19
ATOM     19  C   UNL     1       2.340  22.698  15.194  1.00  0.00     0.000 C 
BRANCH  19  20
ATOM     20  C   UNL     1       1.876  23.226  13.819  1.00  0.00     0.000 C 
BRANCH  20  21
ATOM     21  C   UNL     1       1.952  24.759  13.683  1.00  0.00     0.000 C 
BRANCH  21  22
ATOM     22  C   UNL     1       2.861  25.267  12.548  1.00  0.00     0.000 C 
BRANCH  22  23
ATOM     23  C   UNL     1       2.485  26.650  11.978  1.00  0.00     0.000 C 
BRANCH  23  24
ATOM     24  C   UNL     1       2.934  27.857  12.830  1.00  0.00    -0.000 C 
BRANCH  24  25
ATOM     25  C   UNL     1       3.727  28.933  12.065  1.00  0.00    -0.000 C 
BRANCH  25  26
ATOM     26  C   UNL     1       5.126  29.227  12.638  1.00  0.00    -0.000 C 
BRANCH  26  27
ATOM     27  C   UNL     1       5.460  28.399  13.899  1.00  0.00    -0.000 C 
BRANCH  27  28
ATOM     28  C   UNL     1       5.635  26.903  13.580  1.00  0.00    -0.000 C 
BRANCH  28  29
ATOM     29  C   UNL     1       6.439  26.155  14.667  1.00  0.00    -0.000 C 
BRANCH  29  30
ATOM     30  C   UNL     1       5.564  25.482  15.741  1.00  0.00    -0.000 C 
BRANCH  30  31
ATOM     31  C   UNL     1       4.840  26.453  16.688  1.00  0.00    -0.003 C 
ATOM     32  C   UNL     1       3.333  26.515  16.438  1.00  0.00     0.004 C 
ENDBRANCH  30  31
ENDBRANCH  29  30
ENDBRANCH  28  29
ENDBRANCH  27  28
ENDBRANCH  26  27
ENDBRANCH  25  26
ENDBRANCH  24  25
ENDBRANCH  23  24
ENDBRANCH  22  23
ENDBRANCH  21  22
ENDBRANCH  20  21
ENDBRANCH  19  20
ENDBRANCH  18  19
ENDBRANCH   1  18
TORSDOF 28
ENDMDL
MODEL 8
REMARK VINA RESULT:    -1.549      1.337      3.937
REMARK INTER + INTRA:          -7.071
REMARK INTER:                  -5.371
REMARK INTRA:                  -1.700
REMARK UNBOUND:                -2.986
REMARK SMILES CCCCCCCCCCCCCCCCCCCCCCCCCCCCCC(=O)[O-]
REMARK SMILES IDX 16 1 17 2 18 3 19 4 20 5 21 6 22 7 23 8 24 9 25 10 26 11
REMARK SMILES IDX 27 12 28 13 29 14 30 15 31 16 32 17 15 18 14 19 13 20 12 21
REMARK SMILES IDX 11 22 10 23 9 24 8 25 7 26 6 27 5 28 4 29 3 30 2 31 1 32
REMARK H PARENT
REMARK Flexibility Score: inf
ROOT
ATOM      1  C   UNL     1       5.246  17.353  13.692  1.00  0.00     0.000 C 
ENDROOT
BRANCH   1   2
ATOM      2  C   UNL     1       5.857  15.953  13.907  1.00  0.00     0.000 C 
BRANCH   2   3
ATOM      3  C   UNL     1       4.805  14.919  14.342  1.00  0.00     0.000 C 
BRANCH   3   4
ATOM      4  C   UNL     1       3.466  15.079  13.601  1.00  0.00     0.000 C 
BRANCH   4   5
ATOM      5  C   UNL     1       3.340  14.270  12.292  1.00  0.00     0.000 C 
BRANCH   5   6
ATOM      6  C   UNL     1       3.898  14.958  11.030  1.00  0.00     0.000 C 
BRANCH   6   7
ATOM      7  C   UNL     1       2.902  15.935  10.380  1.00  0.00     0.000 C 
BRANCH   7   8
ATOM      8  C   UNL     1       2.867  17.303  11.086  1.00  0.00     0.000 C 
BRANCH   8   9
ATOM      9  C   UNL     1       2.111  18.407  10.325  1.00  0.00     0.000 C 
BRANCH   9  10
ATOM     10  C   UNL     1       2.120  18.195   8.803  1.00  0.00     0.000 C 
BRANCH  10  11
ATOM     11  C   UNL     1       3.513  18.466   8.216  1.00  0.00     0.000 C 
BRANCH  11  12
ATOM     12  C   UNL     1       3.440  19.079   6.800  1.00  0.00     0.000 C 
BRANCH  12  13
ATOM     13  C   UNL     1       2.799  18.143   5.758  1.00  0.00     0.006 C 
BRANCH  13  14
ATOM     14  C   UNL     1       3.149  16.661   5.949  1.00  0.00     0.053 C 
BRANCH  14  15
ATOM     15  C   UNL     1       4.194  16.207   4.977  1.00  0.00     0.041 C 
ATOM     16  O   UNL     1       5.333  15.856   5.384  1.00  0.00    -0.550 OA
ATOM     17  O   UNL     1       3.913  16.185   3.616  1.00  0.00    -0.550 OA
ENDBRANCH  14  15
ENDBRANCH  13  14
ENDBRANCH  12  13
ENDBRANCH  11  12
ENDBRANCH  10  11
ENDBRANCH   9  10
ENDBRANCH   8   9
ENDBRANCH   7   8
ENDBRANCH   6   7
ENDBRANCH   5   6
ENDBRANCH   4   5
ENDBRANCH   3   4
ENDBRANCH   2   3
ENDBRANCH   1   2
BRANCH   1  18
ATOM     18  C   UNL     1       5.202  18.222  14.962  1.00  0.00     0.000 C 
BRANCH  18  19
ATOM     19  C   UNL     1       3.937  17.989  15.804  1.00  0.00     0.000 C 
BRANCH  19  20
ATOM     20  C   UNL     1       3.219  19.301  16.190  1.00  0.00     0.000 C 
BRANCH  20  21
ATOM     21  C   UNL     1       2.242  19.815  15.115  1.00  0.00     0.000 C 
BRANCH  21  22
ATOM     22  C   UNL     1       1.875  21.307  15.231  1.00  0.00     0.000 C 
BRANCH  22  23
ATOM     23  C   UNL     1       3.055  22.286  15.062  1.00  0.00     0.000 C 
BRANCH  23  24
ATOM     24  C   UNL     1       2.690  23.782  15.167  1.00  0.00    -0.000 C 
BRANCH  24  25
ATOM     25  C   UNL     1       2.462  24.491  13.819  1.00  0.00    -0.000 C 
BRANCH  25  26
ATOM     26  C   UNL     1       3.725  25.127  13.208  1.00  0.00    -0.000 C 
BRANCH  26  27
ATOM     27  C   UNL     1       3.421  26.318  12.272  1.00  0.00    -0.000 C 
BRANCH  27  28
ATOM     28  C   UNL     1       3.833  27.664  12.894  1.00  0.00    -0.000 C 
BRANCH  28  29
ATOM     29  C   UNL     1       5.324  27.701  13.295  1.00  0.00    -0.000 C 
BRANCH  29  30
ATOM     30  C   UNL     1       5.586  27.334  14.767  1.00  0.00    -0.000 C 
BRANCH  30  31
ATOM     31  C   UNL     1       6.670  26.265  14.984  1.00  0.00    -0.003 C 
ATOM     32  C   UNL     1       6.821  25.859  16.450  1.00  0.00     0.004 C 
ENDBRANCH  30  31
ENDBRANCH  29  30
ENDBRANCH  28  29
ENDBRANCH  27  28
ENDBRANCH  26  27
ENDBRANCH  25  26
ENDBRANCH  24  25
ENDBRANCH  23  24
ENDBRANCH  22  23
ENDBRANCH  21  22
ENDBRANCH  20  21
ENDBRANCH  19  20
ENDBRANCH  18  19
ENDBRANCH   1  18
TORSDOF 28
ENDMDL
