MODEL 1
REMARK VINA RESULT:    -4.724      0.000      0.000
REMARK INTER + INTRA:          -9.120
REMARK INTER:                  -8.590
REMARK INTRA:                  -0.530
REMARK UNBOUND:                -0.530
REMARK SMILES CCCCCCCCCCCCCCCC(=O)[O-]
REMARK SMILES IDX 9 1 10 2 11 3 12 4 13 5 14 6 15 7 16 8 17 9 18 10 8 11 7 12
REMARK SMILES IDX 6 13 5 14 4 15 3 16 2 17 1 18
REMARK H PARENT
REMARK Flexibility Score: inf
ROOT
ATOM      1  C   UNL     1      -0.862  -6.874  -2.429  1.00  0.00     0.000 C 
ENDROOT
BRANCH   1   2
ATOM      2  C   UNL     1      -1.098  -8.381  -2.237  1.00  0.00     0.000 C 
BRANCH   2   3
ATOM      3  C   UNL     1      -0.811  -8.843  -0.800  1.00  0.00     0.000 C 
BRANCH   3   4
ATOM      4  C   UNL     1      -1.636 -10.078  -0.406  1.00  0.00     0.000 C 
BRANCH   4   5
ATOM      5  C   UNL     1      -1.016 -10.798   0.800  1.00  0.00     0.000 C 
BRANCH   5   6
ATOM      6  C   UNL     1      -1.904 -10.738   2.057  1.00  0.00     0.006 C 
BRANCH   6   7
ATOM      7  C   UNL     1      -2.267  -9.308   2.498  1.00  0.00     0.053 C 
BRANCH   7   8
ATOM      8  C   UNL     1      -2.549  -9.211   3.968  1.00  0.00     0.041 C 
ATOM      9  O   UNL     1      -2.249  -8.164   4.602  1.00  0.00    -0.550 OA
ATOM     10  O   UNL     1      -3.176 -10.257   4.631  1.00  0.00    -0.550 OA
ENDBRANCH   7   8
ENDBRANCH   6   7
ENDBRANCH   5   6
ENDBRANCH   4   5
ENDBRANCH   3   4
ENDBRANCH   2   3
ENDBRANCH   1   2
BRANCH   1  11
ATOM     11  C   UNL     1       0.294  -6.339  -1.571  1.00  0.00     0.000 C 
BRANCH  11  12
ATOM     12  C   UNL     1       0.742  -4.931  -2.006  1.00  0.00    -0.000 C 
BRANCH  12  13
ATOM     13  C   UNL     1       0.434  -3.850  -0.955  1.00  0.00    -0.000 C 
BRANCH  13  14
ATOM     14  C   UNL     1       0.307  -2.417  -1.513  1.00  0.00    -0.000 C 
BRANCH  14  15
ATOM     15  C   UNL     1       1.455  -2.016  -2.463  1.00  0.00    -0.000 C 
BRANCH  15  16
ATOM     16  C   UNL     1       2.427  -1.018  -1.805  1.00  0.00    -0.000 C 
BRANCH  16  17
ATOM     17  C   UNL     1       3.646  -0.711  -2.689  1.00  0.00    -0.003 C 
ATOM     18  C   UNL     1       4.934  -0.572  -1.876  1.00  0.00     0.004 C 
ENDBRANCH  16  17
ENDBRANCH  15  16
ENDBRANCH  14  15
ENDBRANCH  13  14
ENDBRANCH  12  13
ENDBRANCH  11  12
ENDBRANCH   1  11
TORSDOF 14
ENDMDL
MODEL 2
REMARK VINA RESULT:    -4.334      8.763     11.694
REMARK INTER + INTRA:          -8.412
REMARK INTER:                  -6.651
REMARK INTRA:                  -1.761
REMARK UNBOUND:                -0.530
REMARK SMILES CCCCCCCCCCCCCCCC(=O)[O-]
REMARK SMILES IDX 9 1 10 2 11 3 12 4 13 5 14 6 15 7 16 8 17 9 18 10 8 11 7 12
REMARK SMILES IDX 6 13 5 14 4 15 3 16 2 17 1 18
REMARK H PARENT
REMARK Flexibility Score: inf
ROOT
ATOM      1  C   UNL     1      -4.644  -6.027   6.247  1.00  0.00     0.000 C 
ENDROOT
BRANCH   1   2
ATOM      2  C   UNL     1      -3.957  -4.870   5.503  1.00  0.00     0.000 C 
BRANCH   2   3
ATOM      3  C   UNL     1      -2.690  -4.379   6.222  1.00  0.00     0.000 C 
BRANCH   3   4
ATOM      4  C   UNL     1      -2.840  -2.947   6.759  1.00  0.00     0.000 C 
BRANCH   4   5
ATOM      5  C   UNL     1      -4.009  -2.219   6.081  1.00  0.00     0.000 C 
BRANCH   5   6
ATOM      6  C   UNL     1      -5.044  -1.678   7.085  1.00  0.00     0.006 C 
BRANCH   6   7
ATOM      7  C   UNL     1      -6.015  -0.644   6.487  1.00  0.00     0.053 C 
BRANCH   7   8
ATOM      8  C   UNL     1      -5.908   0.699   7.147  1.00  0.00     0.041 C 
ATOM      9  O   UNL     1      -4.783   1.249   7.282  1.00  0.00    -0.550 OA
ATOM     10  O   UNL     1      -7.050   1.359   7.579  1.00  0.00    -0.550 OA
ENDBRANCH   7   8
ENDBRANCH   6   7
ENDBRANCH   5   6
ENDBRANCH   4   5
ENDBRANCH   3   4
ENDBRANCH   2   3
ENDBRANCH   1   2
BRANCH   1  11
ATOM     11  C   UNL     1      -6.069  -5.677   6.703  1.00  0.00     0.000 C 
BRANCH  11  12
ATOM     12  C   UNL     1      -6.751  -4.664   5.765  1.00  0.00    -0.000 C 
BRANCH  12  13
ATOM     13  C   UNL     1      -8.221  -5.011   5.471  1.00  0.00    -0.000 C 
BRANCH  13  14
ATOM     14  C   UNL     1      -8.431  -6.260   4.590  1.00  0.00    -0.000 C 
BRANCH  14  15
ATOM     15  C   UNL     1      -9.229  -7.384   5.287  1.00  0.00    -0.000 C 
BRANCH  15  16
ATOM     16  C   UNL     1      -8.309  -8.497   5.821  1.00  0.00    -0.000 C 
BRANCH  16  17
ATOM     17  C   UNL     1      -7.400  -9.086   4.732  1.00  0.00    -0.003 C 
ATOM     18  C   UNL     1      -6.013  -9.450   5.265  1.00  0.00     0.004 C 
ENDBRANCH  16  17
ENDBRANCH  15  16
ENDBRANCH  14  15
ENDBRANCH  13  14
ENDBRANCH  12  13
ENDBRANCH  11  12
ENDBRANCH   1  11
TORSDOF 14
ENDMDL
MODEL 3
REMARK VINA RESULT:    -4.307      9.002     11.827
REMARK INTER + INTRA:          -8.362
REMARK INTER:                  -6.201
REMARK INTRA:                  -2.161
REMARK UNBOUND:                -0.530
REMARK SMILES CCCCCCCCCCCCCCCC(=O)[O-]
REMARK SMILES IDX 9 1 10 2 11 3 12 4 13 5 14 6 15 7 16 8 17 9 18 10 8 11 7 12
REMARK SMILES IDX 6 13 5 14 4 15 3 16 2 17 1 18
REMARK H PARENT
REMARK Flexibility Score: inf
ROOT
ATOM      1  C   UNL     1      -9.482  -5.254   5.517  1.00  0.00     0.000 C 
ENDROOT
BRANCH   1   2
ATOM      2  C   UNL     1      -9.340  -5.028   7.031  1.00  0.00     0.000 C 
BRANCH   2   3
ATOM      3  C   UNL     1      -8.823  -3.621   7.370  1.00  0.00     0.000 C 
BRANCH   3   4
ATOM      4  C   UNL     1      -9.060  -2.619   6.230  1.00  0.00     0.000 C 
BRANCH   4   5
ATOM      5  C   UNL     1      -7.763  -1.891   5.852  1.00  0.00     0.000 C 
BRANCH   5   6
ATOM      6  C   UNL     1      -6.924  -1.483   7.077  1.00  0.00     0.006 C 
BRANCH   6   7
ATOM      7  C   UNL     1      -5.688  -0.631   6.733  1.00  0.00     0.053 C 
BRANCH   7   8
ATOM      8  C   UNL     1      -5.780   0.766   7.269  1.00  0.00     0.041 C 
ATOM      9  O   UNL     1      -4.737   1.455   7.424  1.00  0.00    -0.550 OA
ATOM     10  O   UNL     1      -7.018   1.322   7.563  1.00  0.00    -0.550 OA
ENDBRANCH   7   8
ENDBRANCH   6   7
ENDBRANCH   5   6
ENDBRANCH   4   5
ENDBRANCH   3   4
ENDBRANCH   2   3
ENDBRANCH   1   2
BRANCH   1  11
ATOM     11  C   UNL     1      -8.298  -6.027   4.918  1.00  0.00     0.000 C 
BRANCH  11  12
ATOM     12  C   UNL     1      -8.121  -7.415   5.561  1.00  0.00    -0.000 C 
BRANCH  12  13
ATOM     13  C   UNL     1      -6.670  -7.701   5.986  1.00  0.00    -0.000 C 
BRANCH  13  14
ATOM     14  C   UNL     1      -6.300  -7.222   7.405  1.00  0.00    -0.000 C 
BRANCH  14  15
ATOM     15  C   UNL     1      -5.147  -6.196   7.434  1.00  0.00    -0.000 C 
BRANCH  15  16
ATOM     16  C   UNL     1      -5.521  -4.889   6.709  1.00  0.00    -0.000 C 
BRANCH  16  17
ATOM     17  C   UNL     1      -4.319  -4.241   6.004  1.00  0.00    -0.003 C 
ATOM     18  C   UNL     1      -4.681  -3.692   4.623  1.00  0.00     0.004 C 
ENDBRANCH  16  17
ENDBRANCH  15  16
ENDBRANCH  14  15
ENDBRANCH  13  14
ENDBRANCH  12  13
ENDBRANCH  11  12
ENDBRANCH   1  11
TORSDOF 14
ENDMDL
MODEL 4
REMARK VINA RESULT:    -4.218      7.625     11.301
REMARK INTER + INTRA:          -8.200
REMARK INTER:                  -7.118
REMARK INTRA:                  -1.082
REMARK UNBOUND:                -0.530
REMARK SMILES CCCCCCCCCCCCCCCC(=O)[O-]
REMARK SMILES IDX 9 1 10 2 11 3 12 4 13 5 14 6 15 7 16 8 17 9 18 10 8 11 7 12
REMARK SMILES IDX 6 13 5 14 4 15 3 16 2 17 1 18
REMARK H PARENT
REMARK Flexibility Score: inf
ROOT
ATOM      1  C   UNL     1      -3.880  -5.023   6.010  1.00  0.00     0.000 C 
ENDROOT
BRANCH   1   2
ATOM      2  C   UNL     1      -3.029  -3.749   6.135  1.00  0.00     0.000 C 
BRANCH   2   3
ATOM      3  C   UNL     1      -3.794  -2.486   5.709  1.00  0.00     0.000 C 
BRANCH   3   4
ATOM      4  C   UNL     1      -5.225  -2.797   5.244  1.00  0.00     0.000 C 
BRANCH   4   5
ATOM      5  C   UNL     1      -6.207  -1.711   5.706  1.00  0.00     0.000 C 
BRANCH   5   6
ATOM      6  C   UNL     1      -6.525  -1.789   7.210  1.00  0.00     0.006 C 
BRANCH   6   7
ATOM      7  C   UNL     1      -5.841  -0.696   8.052  1.00  0.00     0.053 C 
BRANCH   7   8
ATOM      8  C   UNL     1      -5.992   0.672   7.456  1.00  0.00     0.041 C 
ATOM      9  O   UNL     1      -7.118   1.238   7.449  1.00  0.00    -0.550 OA
ATOM     10  O   UNL     1      -4.887   1.338   6.943  1.00  0.00    -0.550 OA
ENDBRANCH   7   8
ENDBRANCH   6   7
ENDBRANCH   5   6
ENDBRANCH   4   5
ENDBRANCH   3   4
ENDBRANCH   2   3
ENDBRANCH   1   2
BRANCH   1  11
ATOM     11  C   UNL     1      -4.528  -5.439   7.339  1.00  0.00     0.000 C 
BRANCH  11  12
ATOM     12  C   UNL     1      -5.820  -6.251   7.131  1.00  0.00    -0.000 C 
BRANCH  12  13
ATOM     13  C   UNL     1      -5.607  -7.512   6.274  1.00  0.00    -0.000 C 
BRANCH  13  14
ATOM     14  C   UNL     1      -5.392  -8.814   7.073  1.00  0.00    -0.000 C 
BRANCH  14  15
ATOM     15  C   UNL     1      -4.655  -9.915   6.280  1.00  0.00    -0.000 C 
BRANCH  15  16
ATOM     16  C   UNL     1      -4.361  -9.483   4.831  1.00  0.00    -0.000 C 
BRANCH  16  17
ATOM     17  C   UNL     1      -3.259 -10.329   4.175  1.00  0.00    -0.003 C 
ATOM     18  C   UNL     1      -2.458  -9.539   3.139  1.00  0.00     0.004 C 
ENDBRANCH  16  17
ENDBRANCH  15  16
ENDBRANCH  14  15
ENDBRANCH  13  14
ENDBRANCH  12  13
ENDBRANCH  11  12
ENDBRANCH   1  11
TORSDOF 14
ENDMDL
MODEL 5
REMARK VINA RESULT:    -4.177      8.154     11.621
REMARK INTER + INTRA:          -8.126
REMARK INTER:                  -6.727
REMARK INTRA:                  -1.398
REMARK UNBOUND:                -0.530
REMARK SMILES CCCCCCCCCCCCCCCC(=O)[O-]
REMARK SMILES IDX 9 1 10 2 11 3 12 4 13 5 14 6 15 7 16 8 17 9 18 10 8 11 7 12
REMARK SMILES IDX 6 13 5 14 4 15 3 16 2 17 1 18
REMARK H PARENT
REMARK Flexibility Score: inf
ROOT
ATOM      1  C   UNL     1      -7.661  -1.841   5.831  1.00  0.00     0.000 C 
ENDROOT
BRANCH   1   2
ATOM      2  C   UNL     1      -6.993  -0.654   6.545  1.00  0.00     0.000 C 
BRANCH   2   3
ATOM      3  C   UNL     1      -5.475  -0.608   6.315  1.00  0.00     0.000 C 
BRANCH   3   4
ATOM      4  C   UNL     1      -4.687  -1.249   7.468  1.00  0.00     0.000 C 
BRANCH   4   5
ATOM      5  C   UNL     1      -4.098  -2.604   7.053  1.00  0.00     0.000 C 
BRANCH   5   6
ATOM      6  C   UNL     1      -3.960  -2.757   5.527  1.00  0.00     0.006 C 
BRANCH   6   7
ATOM      7  C   UNL     1      -4.327  -4.157   5.002  1.00  0.00     0.053 C 
BRANCH   7   8
ATOM      8  C   UNL     1      -3.576  -5.251   5.700  1.00  0.00     0.041 C 
ATOM      9  O   UNL     1      -2.369  -5.472   5.414  1.00  0.00    -0.550 OA
ATOM     10  O   UNL     1      -4.194  -6.003   6.691  1.00  0.00    -0.550 OA
ENDBRANCH   7   8
ENDBRANCH   6   7
ENDBRANCH   5   6
ENDBRANCH   4   5
ENDBRANCH   3   4
ENDBRANCH   2   3
ENDBRANCH   1   2
BRANCH   1  11
ATOM     11  C   UNL     1      -8.237  -2.876   6.809  1.00  0.00     0.000 C 
BRANCH  11  12
ATOM     12  C   UNL     1      -9.738  -3.130   6.574  1.00  0.00    -0.000 C 
BRANCH  12  13
ATOM     13  C   UNL     1     -10.034  -4.547   6.053  1.00  0.00    -0.000 C 
BRANCH  13  14
ATOM     14  C   UNL     1      -8.834  -5.517   6.084  1.00  0.00    -0.000 C 
BRANCH  14  15
ATOM     15  C   UNL     1      -8.339  -5.939   4.684  1.00  0.00    -0.000 C 
BRANCH  15  16
ATOM     16  C   UNL     1      -9.505  -6.301   3.745  1.00  0.00    -0.000 C 
BRANCH  16  17
ATOM     17  C   UNL     1      -9.490  -7.779   3.327  1.00  0.00    -0.003 C 
ATOM     18  C   UNL     1      -8.305  -8.541   3.921  1.00  0.00     0.004 C 
ENDBRANCH  16  17
ENDBRANCH  15  16
ENDBRANCH  14  15
ENDBRANCH  13  14
ENDBRANCH  12  13
ENDBRANCH  11  12
ENDBRANCH   1  11
TORSDOF 14
ENDMDL
MODEL 6
REMARK VINA RESULT:    -4.151      8.045     11.411
REMARK INTER + INTRA:          -8.079
REMARK INTER:                  -5.863
REMARK INTRA:                  -2.216
REMARK UNBOUND:                -0.530
REMARK SMILES CCCCCCCCCCCCCCCC(=O)[O-]
REMARK SMILES IDX 9 1 10 2 11 3 12 4 13 5 14 6 15 7 16 8 17 9 18 10 8 11 7 12
REMARK SMILES IDX 6 13 5 14 4 15 3 16 2 17 1 18
REMARK H PARENT
REMARK Flexibility Score: inf
ROOT
ATOM      1  C   UNL     1      -7.742  -1.743   6.720  1.00  0.00     0.000 C 
ENDROOT
BRANCH   1   2
ATOM      2  C   UNL     1      -6.786  -1.659   5.519  1.00  0.00     0.000 C 
BRANCH   2   3
ATOM      3  C   UNL     1      -5.380  -1.185   5.918  1.00  0.00     0.000 C 
BRANCH   3   4
ATOM      4  C   UNL     1      -5.175  -1.176   7.441  1.00  0.00     0.000 C 
BRANCH   4   5
ATOM      5  C   UNL     1      -4.184  -2.265   7.874  1.00  0.00     0.000 C 
BRANCH   5   6
ATOM      6  C   UNL     1      -3.122  -2.572   6.802  1.00  0.00     0.006 C 
BRANCH   6   7
ATOM      7  C   UNL     1      -2.655  -4.039   6.786  1.00  0.00     0.053 C 
BRANCH   7   8
ATOM      8  C   UNL     1      -3.045  -4.757   5.529  1.00  0.00     0.041 C 
ATOM      9  O   UNL     1      -2.681  -5.948   5.341  1.00  0.00    -0.550 OA
ATOM     10  O   UNL     1      -3.841  -4.127   4.581  1.00  0.00    -0.550 OA
ENDBRANCH   7   8
ENDBRANCH   6   7
ENDBRANCH   5   6
ENDBRANCH   4   5
ENDBRANCH   3   4
ENDBRANCH   2   3
ENDBRANCH   1   2
BRANCH   1  11
ATOM     11  C   UNL     1      -9.177  -2.109   6.314  1.00  0.00     0.000 C 
BRANCH  11  12
ATOM     12  C   UNL     1      -9.779  -3.202   7.217  1.00  0.00    -0.000 C 
BRANCH  12  13
ATOM     13  C   UNL     1      -8.958  -4.504   7.215  1.00  0.00    -0.000 C 
BRANCH  13  14
ATOM     14  C   UNL     1      -8.665  -5.088   5.817  1.00  0.00    -0.000 C 
BRANCH  14  15
ATOM     15  C   UNL     1      -7.169  -5.372   5.564  1.00  0.00    -0.000 C 
BRANCH  15  16
ATOM     16  C   UNL     1      -6.315  -5.129   6.822  1.00  0.00    -0.000 C 
BRANCH  16  17
ATOM     17  C   UNL     1      -5.787  -6.433   7.438  1.00  0.00    -0.003 C 
ATOM     18  C   UNL     1      -5.581  -7.531   6.393  1.00  0.00     0.004 C 
ENDBRANCH  16  17
ENDBRANCH  15  16
ENDBRANCH  14  15
ENDBRANCH  13  14
ENDBRANCH  12  13
ENDBRANCH  11  12
ENDBRANCH   1  11
TORSDOF 14
ENDMDL
MODEL 7
REMARK VINA RESULT:    -4.103      8.813     11.822
REMARK INTER + INTRA:          -7.992
REMARK INTER:                  -6.222
REMARK INTRA:                  -1.770
REMARK UNBOUND:                -0.530
REMARK SMILES CCCCCCCCCCCCCCCC(=O)[O-]
REMARK SMILES IDX 9 1 10 2 11 3 12 4 13 5 14 6 15 7 16 8 17 9 18 10 8 11 7 12
REMARK SMILES IDX 6 13 5 14 4 15 3 16 2 17 1 18
REMARK H PARENT
REMARK Flexibility Score: inf
ROOT
ATOM      1  C   UNL     1      -7.256  -4.430   6.248  1.00  0.00     0.000 C 
ENDROOT
BRANCH   1   2
ATOM      2  C   UNL     1      -5.931  -5.120   6.611  1.00  0.00     0.000 C 
BRANCH   2   3
ATOM      3  C   UNL     1      -4.805  -4.790   5.619  1.00  0.00     0.000 C 
BRANCH   3   4
ATOM      4  C   UNL     1      -4.970  -3.399   4.987  1.00  0.00     0.000 C 
BRANCH   4   5
ATOM      5  C   UNL     1      -4.151  -2.344   5.743  1.00  0.00     0.000 C 
BRANCH   5   6
ATOM      6  C   UNL     1      -4.978  -1.579   6.792  1.00  0.00     0.006 C 
BRANCH   6   7
ATOM      7  C   UNL     1      -5.570  -0.254   6.277  1.00  0.00     0.053 C 
BRANCH   7   8
ATOM      8  C   UNL     1      -6.830   0.133   6.992  1.00  0.00     0.041 C 
ATOM      9  O   UNL     1      -6.982   1.309   7.417  1.00  0.00    -0.550 OA
ATOM     10  O   UNL     1      -7.853  -0.792   7.156  1.00  0.00    -0.550 OA
ENDBRANCH   7   8
ENDBRANCH   6   7
ENDBRANCH   5   6
ENDBRANCH   4   5
ENDBRANCH   3   4
ENDBRANCH   2   3
ENDBRANCH   1   2
BRANCH   1  11
ATOM     11  C   UNL     1      -8.409  -5.425   6.049  1.00  0.00     0.000 C 
BRANCH  11  12
ATOM     12  C   UNL     1      -8.478  -5.960   4.606  1.00  0.00    -0.000 C 
BRANCH  12  13
ATOM     13  C   UNL     1      -8.460  -7.497   4.533  1.00  0.00    -0.000 C 
BRANCH  13  14
ATOM     14  C   UNL     1      -8.743  -8.217   5.868  1.00  0.00    -0.000 C 
BRANCH  14  15
ATOM     15  C   UNL     1      -7.612  -9.169   6.312  1.00  0.00    -0.000 C 
BRANCH  15  16
ATOM     16  C   UNL     1      -6.375  -9.060   5.401  1.00  0.00    -0.000 C 
BRANCH  16  17
ATOM     17  C   UNL     1      -5.104  -8.678   6.174  1.00  0.00    -0.003 C 
ATOM     18  C   UNL     1      -5.335  -8.620   7.684  1.00  0.00     0.004 C 
ENDBRANCH  16  17
ENDBRANCH  15  16
ENDBRANCH  14  15
ENDBRANCH  13  14
ENDBRANCH  12  13
ENDBRANCH  11  12
ENDBRANCH   1  11
TORSDOF 14
ENDMDL
MODEL 8
REMARK VINA RESULT:    -4.020      7.161     11.056
REMARK INTER + INTRA:          -7.840
REMARK INTER:                  -6.484
REMARK INTRA:                  -1.357
REMARK UNBOUND:                -0.530
REMARK SMILES CCCCCCCCCCCCCCCC(=O)[O-]
REMARK SMILES IDX 9 1 10 2 11 3 12 4 13 5 14 6 15 7 16 8 17 9 18 10 8 11 7 12
REMARK SMILES IDX 6 13 5 14 4 15 3 16 2 17 1 18
REMARK H PARENT
REMARK Flexibility Score: inf
ROOT
ATOM      1  C   UNL     1      -8.199  -2.965   6.909  1.00  0.00     0.000 C 
ENDROOT
BRANCH   1   2
ATOM      2  C   UNL     1      -7.904  -1.785   5.969  1.00  0.00     0.000 C 
BRANCH   2   3
ATOM      3  C   UNL     1      -6.977  -0.740   6.611  1.00  0.00     0.000 C 
BRANCH   3   4
ATOM      4  C   UNL     1      -5.621  -0.641   5.894  1.00  0.00     0.000 C 
BRANCH   4   5
ATOM      5  C   UNL     1      -4.569  -1.531   6.570  1.00  0.00     0.000 C 
BRANCH   5   6
ATOM      6  C   UNL     1      -4.111  -2.702   5.681  1.00  0.00     0.006 C 
BRANCH   6   7
ATOM      7  C   UNL     1      -2.724  -3.261   6.047  1.00  0.00     0.053 C 
BRANCH   7   8
ATOM      8  C   UNL     1      -2.741  -4.740   6.288  1.00  0.00     0.041 C 
ATOM      9  O   UNL     1      -2.488  -5.538   5.346  1.00  0.00    -0.550 OA
ATOM     10  O   UNL     1      -2.999  -5.240   7.558  1.00  0.00    -0.550 OA
ENDBRANCH   7   8
ENDBRANCH   6   7
ENDBRANCH   5   6
ENDBRANCH   4   5
ENDBRANCH   3   4
ENDBRANCH   2   3
ENDBRANCH   1   2
BRANCH   1  11
ATOM     11  C   UNL     1      -8.009  -4.329   6.229  1.00  0.00     0.000 C 
BRANCH  11  12
ATOM     12  C   UNL     1      -6.929  -5.182   6.920  1.00  0.00    -0.000 C 
BRANCH  12  13
ATOM     13  C   UNL     1      -6.134  -6.060   5.938  1.00  0.00    -0.000 C 
BRANCH  13  14
ATOM     14  C   UNL     1      -5.550  -7.353   6.545  1.00  0.00    -0.000 C 
BRANCH  14  15
ATOM     15  C   UNL     1      -6.376  -8.617   6.227  1.00  0.00    -0.000 C 
BRANCH  15  16
ATOM     16  C   UNL     1      -5.666  -9.529   5.209  1.00  0.00    -0.000 C 
BRANCH  16  17
ATOM     17  C   UNL     1      -4.136  -9.408   5.274  1.00  0.00    -0.003 C 
ATOM     18  C   UNL     1      -3.452 -10.002   4.042  1.00  0.00     0.004 C 
ENDBRANCH  16  17
ENDBRANCH  15  16
ENDBRANCH  14  15
ENDBRANCH  13  14
ENDBRANCH  12  13
ENDBRANCH  11  12
ENDBRANCH   1  11
TORSDOF 14
ENDMDL
MODEL 9
REMARK VINA RESULT:    -3.961      7.133      9.907
REMARK INTER + INTRA:          -7.733
REMARK INTER:                  -5.771
REMARK INTRA:                  -1.962
REMARK UNBOUND:                -0.530
REMARK SMILES CCCCCCCCCCCCCCCC(=O)[O-]
REMARK SMILES IDX 9 1 10 2 11 3 12 4 13 5 14 6 15 7 16 8 17 9 18 10 8 11 7 12
REMARK SMILES IDX 6 13 5 14 4 15 3 16 2 17 1 18
REMARK H PARENT
REMARK Flexibility Score: inf
ROOT
ATOM      1  C   UNL     1      -3.465  -4.207   6.094  1.00  0.00     0.000 C 
ENDROOT
BRANCH   1   2
ATOM      2  C   UNL     1      -4.219  -4.341   7.427  1.00  0.00     0.000 C 
BRANCH   2   3
ATOM      3  C   UNL     1      -4.906  -5.708   7.579  1.00  0.00     0.000 C 
BRANCH   3   4
ATOM      4  C   UNL     1      -4.916  -6.508   6.267  1.00  0.00     0.000 C 
BRANCH   4   5
ATOM      5  C   UNL     1      -5.740  -7.795   6.408  1.00  0.00     0.000 C 
BRANCH   5   6
ATOM      6  C   UNL     1      -4.882  -9.071   6.314  1.00  0.00     0.006 C 
BRANCH   6   7
ATOM      7  C   UNL     1      -4.792  -9.661   4.895  1.00  0.00     0.053 C 
BRANCH   7   8
ATOM      8  C   UNL     1      -3.398  -9.632   4.344  1.00  0.00     0.041 C 
ATOM      9  O   UNL     1      -2.984 -10.574   3.617  1.00  0.00    -0.550 OA
ATOM     10  O   UNL     1      -2.566  -8.549   4.600  1.00  0.00    -0.550 OA
ENDBRANCH   7   8
ENDBRANCH   6   7
ENDBRANCH   5   6
ENDBRANCH   4   5
ENDBRANCH   3   4
ENDBRANCH   2   3
ENDBRANCH   1   2
BRANCH   1  11
ATOM     11  C   UNL     1      -4.085  -3.154   5.163  1.00  0.00     0.000 C 
BRANCH  11  12
ATOM     12  C   UNL     1      -4.689  -1.969   5.940  1.00  0.00    -0.000 C 
BRANCH  12  13
ATOM     13  C   UNL     1      -6.126  -1.633   5.505  1.00  0.00    -0.000 C 
BRANCH  13  14
ATOM     14  C   UNL     1      -7.163  -1.603   6.647  1.00  0.00    -0.000 C 
BRANCH  14  15
ATOM     15  C   UNL     1      -7.707  -2.996   7.029  1.00  0.00    -0.000 C 
BRANCH  15  16
ATOM     16  C   UNL     1      -7.692  -3.969   5.835  1.00  0.00    -0.000 C 
BRANCH  16  17
ATOM     17  C   UNL     1      -8.766  -5.061   5.949  1.00  0.00    -0.003 C 
ATOM     18  C   UNL     1      -8.755  -5.748   7.315  1.00  0.00     0.004 C 
ENDBRANCH  16  17
ENDBRANCH  15  16
ENDBRANCH  14  15
ENDBRANCH  13  14
ENDBRANCH  12  13
ENDBRANCH  11  12
ENDBRANCH   1  11
TORSDOF 14
ENDMDL
