MODEL 1
REMARK VINA RESULT:    -6.166      0.000      0.000
REMARK INTER + INTRA:         -15.295
REMARK INTER:                 -13.375
REMARK INTRA:                  -1.920
REMARK UNBOUND:                -1.920
REMARK SMILES CCCCCCCCCCCCCCCCCCCCCC(=O)[O-]
REMARK SMILES IDX 12 1 11 2 10 3 9 4 8 5 7 6 6 7 5 8 4 9 3 10 2 11 1 12 13 13
REMARK SMILES IDX 14 14 15 15 16 16 17 17 18 18 19 19 20 20 21 21 22 22 23 23
REMARK SMILES IDX 24 24
REMARK H PARENT
REMARK Flexibility Score: inf
ROOT
ATOM      1  C   UNL     1      87.535 320.101 200.345  1.00  0.00     0.000 C 
ENDROOT
BRANCH   1   2
ATOM      2  C   UNL     1      88.363 320.415 201.604  1.00  0.00     0.000 C 
BRANCH   2   3
ATOM      3  C   UNL     1      87.494 320.709 202.841  1.00  0.00     0.000 C 
BRANCH   3   4
ATOM      4  C   UNL     1      88.176 320.460 204.199  1.00  0.00    -0.000 C 
BRANCH   4   5
ATOM      5  C   UNL     1      87.675 321.403 205.305  1.00  0.00    -0.000 C 
BRANCH   5   6
ATOM      6  C   UNL     1      87.368 320.672 206.626  1.00  0.00    -0.000 C 
BRANCH   6   7
ATOM      7  C   UNL     1      85.904 320.234 206.817  1.00  0.00    -0.000 C 
BRANCH   7   8
ATOM      8  C   UNL     1      85.689 318.733 206.562  1.00  0.00    -0.000 C 
BRANCH   8   9
ATOM      9  C   UNL     1      84.809 318.453 205.330  1.00  0.00    -0.000 C 
BRANCH   9  10
ATOM     10  C   UNL     1      85.531 317.788 204.140  1.00  0.00    -0.000 C 
BRANCH  10  11
ATOM     11  C   UNL     1      84.818 317.934 202.783  1.00  0.00    -0.003 C 
ATOM     12  C   UNL     1      85.602 317.310 201.628  1.00  0.00     0.004 C 
ENDBRANCH  10  11
ENDBRANCH   9  10
ENDBRANCH   8   9
ENDBRANCH   7   8
ENDBRANCH   6   7
ENDBRANCH   5   6
ENDBRANCH   4   5
ENDBRANCH   3   4
ENDBRANCH   2   3
ENDBRANCH   1   2
BRANCH   1  13
ATOM     13  C   UNL     1      87.586 321.239 199.312  1.00  0.00     0.000 C 
BRANCH  13  14
ATOM     14  C   UNL     1      86.799 320.897 198.034  1.00  0.00     0.000 C 
BRANCH  14  15
ATOM     15  C   UNL     1      86.958 319.427 197.618  1.00  0.00     0.000 C 
BRANCH  15  16
ATOM     16  C   UNL     1      87.133 319.256 196.098  1.00  0.00     0.000 C 
BRANCH  16  17
ATOM     17  C   UNL     1      87.248 320.612 195.369  1.00  0.00     0.000 C 
BRANCH  17  18
ATOM     18  C   UNL     1      86.093 320.887 194.386  1.00  0.00     0.000 C 
BRANCH  18  19
ATOM     19  C   UNL     1      84.901 319.921 194.497  1.00  0.00     0.000 C 
BRANCH  19  20
ATOM     20  C   UNL     1      84.783 318.979 193.286  1.00  0.00     0.006 C 
BRANCH  20  21
ATOM     21  C   UNL     1      86.083 318.919 192.472  1.00  0.00     0.053 C 
BRANCH  21  22
ATOM     22  C   UNL     1      86.136 317.709 191.591  1.00  0.00     0.041 C 
ATOM     23  O   UNL     1      85.762 316.589 192.029  1.00  0.00    -0.550 OA
ATOM     24  O   UNL     1      86.567 317.825 190.275  1.00  0.00    -0.550 OA
ENDBRANCH  21  22
ENDBRANCH  20  21
ENDBRANCH  19  20
ENDBRANCH  18  19
ENDBRANCH  17  18
ENDBRANCH  16  17
ENDBRANCH  15  16
ENDBRANCH  14  15
ENDBRANCH  13  14
ENDBRANCH   1  13
TORSDOF 20
ENDMDL
MODEL 2
REMARK VINA RESULT:    -6.122      3.775     10.633
REMARK INTER + INTRA:         -15.201
REMARK INTER:                 -13.736
REMARK INTRA:                  -1.465
REMARK UNBOUND:                -1.920
REMARK SMILES CCCCCCCCCCCCCCCCCCCCCC(=O)[O-]
REMARK SMILES IDX 12 1 11 2 10 3 9 4 8 5 7 6 6 7 5 8 4 9 3 10 2 11 1 12 13 13
REMARK SMILES IDX 14 14 15 15 16 16 17 17 18 18 19 19 20 20 21 21 22 22 23 23
REMARK SMILES IDX 24 24
REMARK H PARENT
REMARK Flexibility Score: inf
ROOT
ATOM      1  C   UNL     1      87.750 320.846 199.870  1.00  0.00     0.000 C 
ENDROOT
BRANCH   1   2
ATOM      2  C   UNL     1      86.976 320.663 198.552  1.00  0.00     0.000 C 
BRANCH   2   3
ATOM      3  C   UNL     1      87.280 319.324 197.855  1.00  0.00     0.000 C 
BRANCH   3   4
ATOM      4  C   UNL     1      87.030 319.302 196.336  1.00  0.00    -0.000 C 
BRANCH   4   5
ATOM      5  C   UNL     1      87.386 320.631 195.648  1.00  0.00    -0.000 C 
BRANCH   5   6
ATOM      6  C   UNL     1      86.566 320.887 194.370  1.00  0.00    -0.000 C 
BRANCH   6   7
ATOM      7  C   UNL     1      85.105 320.402 194.411  1.00  0.00    -0.000 C 
BRANCH   7   8
ATOM      8  C   UNL     1      84.801 319.324 193.358  1.00  0.00    -0.000 C 
BRANCH   8   9
ATOM      9  C   UNL     1      86.050 318.881 192.575  1.00  0.00    -0.000 C 
BRANCH   9  10
ATOM     10  C   UNL     1      85.799 317.838 191.466  1.00  0.00    -0.000 C 
BRANCH  10  11
ATOM     11  C   UNL     1      86.794 317.885 190.292  1.00  0.00    -0.003 C 
ATOM     12  C   UNL     1      86.394 316.969 189.136  1.00  0.00     0.004 C 
ENDBRANCH  10  11
ENDBRANCH   9  10
ENDBRANCH   8   9
ENDBRANCH   7   8
ENDBRANCH   6   7
ENDBRANCH   5   6
ENDBRANCH   4   5
ENDBRANCH   3   4
ENDBRANCH   2   3
ENDBRANCH   1   2
BRANCH   1  13
ATOM     13  C   UNL     1      87.291 319.864 200.960  1.00  0.00     0.000 C 
BRANCH  13  14
ATOM     14  C   UNL     1      87.073 320.560 202.315  1.00  0.00     0.000 C 
BRANCH  14  15
ATOM     15  C   UNL     1      88.117 320.150 203.365  1.00  0.00     0.000 C 
BRANCH  15  16
ATOM     16  C   UNL     1      88.530 321.317 204.279  1.00  0.00     0.000 C 
BRANCH  16  17
ATOM     17  C   UNL     1      87.564 321.493 205.472  1.00  0.00     0.000 C 
BRANCH  17  18
ATOM     18  C   UNL     1      87.567 320.304 206.453  1.00  0.00     0.000 C 
BRANCH  18  19
ATOM     19  C   UNL     1      86.213 320.009 207.119  1.00  0.00     0.000 C 
BRANCH  19  20
ATOM     20  C   UNL     1      85.274 319.186 206.219  1.00  0.00     0.006 C 
BRANCH  20  21
ATOM     21  C   UNL     1      85.836 317.789 205.922  1.00  0.00     0.053 C 
BRANCH  21  22
ATOM     22  C   UNL     1      85.451 317.310 204.557  1.00  0.00     0.041 C 
ATOM     23  O   UNL     1      85.656 316.112 204.224  1.00  0.00    -0.550 OA
ATOM     24  O   UNL     1      84.837 318.177 203.662  1.00  0.00    -0.550 OA
ENDBRANCH  21  22
ENDBRANCH  20  21
ENDBRANCH  19  20
ENDBRANCH  18  19
ENDBRANCH  17  18
ENDBRANCH  16  17
ENDBRANCH  15  16
ENDBRANCH  14  15
ENDBRANCH  13  14
ENDBRANCH   1  13
TORSDOF 20
ENDMDL
MODEL 3
REMARK VINA RESULT:    -6.021      1.171      2.261
REMARK INTER + INTRA:         -14.981
REMARK INTER:                 -13.455
REMARK INTRA:                  -1.526
REMARK UNBOUND:                -1.920
REMARK SMILES CCCCCCCCCCCCCCCCCCCCCC(=O)[O-]
REMARK SMILES IDX 12 1 11 2 10 3 9 4 8 5 7 6 6 7 5 8 4 9 3 10 2 11 1 12 13 13
REMARK SMILES IDX 14 14 15 15 16 16 17 17 18 18 19 19 20 20 21 21 22 22 23 23
REMARK SMILES IDX 24 24
REMARK H PARENT
REMARK Flexibility Score: inf
ROOT
ATOM      1  C   UNL     1      87.258 319.040 199.242  1.00  0.00     0.000 C 
ENDROOT
BRANCH   1   2
ATOM      2  C   UNL     1      87.608 320.472 199.683  1.00  0.00     0.000 C 
BRANCH   2   3
ATOM      3  C   UNL     1      87.286 320.744 201.164  1.00  0.00     0.000 C 
BRANCH   3   4
ATOM      4  C   UNL     1      88.509 320.848 202.094  1.00  0.00    -0.000 C 
BRANCH   4   5
ATOM      5  C   UNL     1      88.218 320.365 203.525  1.00  0.00    -0.000 C 
BRANCH   5   6
ATOM      6  C   UNL     1      87.788 321.503 204.469  1.00  0.00    -0.000 C 
BRANCH   6   7
ATOM      7  C   UNL     1      87.980 321.226 205.972  1.00  0.00    -0.000 C 
BRANCH   7   8
ATOM      8  C   UNL     1      87.390 319.877 206.415  1.00  0.00    -0.000 C 
BRANCH   8   9
ATOM      9  C   UNL     1      85.902 319.970 206.797  1.00  0.00    -0.000 C 
BRANCH   9  10
ATOM     10  C   UNL     1      84.986 318.911 206.149  1.00  0.00    -0.000 C 
BRANCH  10  11
ATOM     11  C   UNL     1      85.718 317.834 205.328  1.00  0.00    -0.003 C 
ATOM     12  C   UNL     1      85.526 318.002 203.821  1.00  0.00     0.004 C 
ENDBRANCH  10  11
ENDBRANCH   9  10
ENDBRANCH   8   9
ENDBRANCH   7   8
ENDBRANCH   6   7
ENDBRANCH   5   6
ENDBRANCH   4   5
ENDBRANCH   3   4
ENDBRANCH   2   3
ENDBRANCH   1   2
BRANCH   1  13
ATOM     13  C   UNL     1      87.169 318.902 197.713  1.00  0.00     0.000 C 
BRANCH  13  14
ATOM     14  C   UNL     1      86.669 320.194 197.042  1.00  0.00     0.000 C 
BRANCH  14  15
ATOM     15  C   UNL     1      87.450 320.535 195.764  1.00  0.00     0.000 C 
BRANCH  15  16
ATOM     16  C   UNL     1      86.536 321.001 194.616  1.00  0.00     0.000 C 
BRANCH  16  17
ATOM     17  C   UNL     1      85.093 320.471 194.770  1.00  0.00     0.000 C 
BRANCH  17  18
ATOM     18  C   UNL     1      84.689 319.449 193.689  1.00  0.00     0.000 C 
BRANCH  18  19
ATOM     19  C   UNL     1      85.814 318.503 193.237  1.00  0.00     0.000 C 
BRANCH  19  20
ATOM     20  C   UNL     1      86.148 318.646 191.742  1.00  0.00     0.006 C 
BRANCH  20  21
ATOM     21  C   UNL     1      85.711 317.419 190.931  1.00  0.00     0.053 C 
BRANCH  21  22
ATOM     22  C   UNL     1      86.374 317.369 189.589  1.00  0.00     0.041 C 
ATOM     23  O   UNL     1      87.409 318.052 189.368  1.00  0.00    -0.550 OA
ATOM     24  O   UNL     1      85.868 316.542 188.594  1.00  0.00    -0.550 OA
ENDBRANCH  21  22
ENDBRANCH  20  21
ENDBRANCH  19  20
ENDBRANCH  18  19
ENDBRANCH  17  18
ENDBRANCH  16  17
ENDBRANCH  15  16
ENDBRANCH  14  15
ENDBRANCH  13  14
ENDBRANCH   1  13
TORSDOF 20
ENDMDL
MODEL 4
REMARK VINA RESULT:    -5.900      1.294      2.347
REMARK INTER + INTRA:         -14.718
REMARK INTER:                 -12.698
REMARK INTRA:                  -2.020
REMARK UNBOUND:                -1.920
REMARK SMILES CCCCCCCCCCCCCCCCCCCCCC(=O)[O-]
REMARK SMILES IDX 12 1 11 2 10 3 9 4 8 5 7 6 6 7 5 8 4 9 3 10 2 11 1 12 13 13
REMARK SMILES IDX 14 14 15 15 16 16 17 17 18 18 19 19 20 20 21 21 22 22 23 23
REMARK SMILES IDX 24 24
REMARK H PARENT
REMARK Flexibility Score: inf
ROOT
ATOM      1  C   UNL     1      88.094 320.883 202.976  1.00  0.00     0.000 C 
ENDROOT
BRANCH   1   2
ATOM      2  C   UNL     1      89.145 321.486 203.924  1.00  0.00     0.000 C 
BRANCH   2   3
ATOM      3  C   UNL     1      88.821 321.251 205.412  1.00  0.00     0.000 C 
BRANCH   3   4
ATOM      4  C   UNL     1      87.322 321.249 205.766  1.00  0.00    -0.000 C 
BRANCH   4   5
ATOM      5  C   UNL     1      86.906 320.034 206.612  1.00  0.00    -0.000 C 
BRANCH   5   6
ATOM      6  C   UNL     1      85.418 319.671 206.452  1.00  0.00    -0.000 C 
BRANCH   6   7
ATOM      7  C   UNL     1      85.133 318.357 205.701  1.00  0.00    -0.000 C 
BRANCH   7   8
ATOM      8  C   UNL     1      86.396 317.730 205.089  1.00  0.00    -0.000 C 
BRANCH   8   9
ATOM      9  C   UNL     1      86.372 317.715 203.549  1.00  0.00    -0.000 C 
BRANCH   9  10
ATOM     10  C   UNL     1      85.008 318.041 202.906  1.00  0.00    -0.000 C 
BRANCH  10  11
ATOM     11  C   UNL     1      84.511 317.008 201.877  1.00  0.00    -0.003 C 
ATOM     12  C   UNL     1      85.484 316.811 200.715  1.00  0.00     0.004 C 
ENDBRANCH  10  11
ENDBRANCH   9  10
ENDBRANCH   8   9
ENDBRANCH   7   8
ENDBRANCH   6   7
ENDBRANCH   5   6
ENDBRANCH   4   5
ENDBRANCH   3   4
ENDBRANCH   2   3
ENDBRANCH   1   2
BRANCH   1  13
ATOM     13  C   UNL     1      88.675 320.559 201.589  1.00  0.00     0.000 C 
BRANCH  13  14
ATOM     14  C   UNL     1      87.629 319.922 200.656  1.00  0.00     0.000 C 
BRANCH  14  15
ATOM     15  C   UNL     1      87.482 320.680 199.328  1.00  0.00     0.000 C 
BRANCH  15  16
ATOM     16  C   UNL     1      87.148 319.750 198.148  1.00  0.00     0.000 C 
BRANCH  16  17
ATOM     17  C   UNL     1      86.447 320.503 196.995  1.00  0.00     0.000 C 
BRANCH  17  18
ATOM     18  C   UNL     1      87.257 320.522 195.684  1.00  0.00     0.000 C 
BRANCH  18  19
ATOM     19  C   UNL     1      86.462 320.942 194.436  1.00  0.00     0.000 C 
BRANCH  19  20
ATOM     20  C   UNL     1      86.140 319.756 193.509  1.00  0.00     0.006 C 
BRANCH  20  21
ATOM     21  C   UNL     1      84.939 318.942 194.007  1.00  0.00     0.053 C 
BRANCH  21  22
ATOM     22  C   UNL     1      85.321 317.538 194.359  1.00  0.00     0.041 C 
ATOM     23  O   UNL     1      85.889 317.292 195.457  1.00  0.00    -0.550 OA
ATOM     24  O   UNL     1      85.020 316.496 193.491  1.00  0.00    -0.550 OA
ENDBRANCH  21  22
ENDBRANCH  20  21
ENDBRANCH  19  20
ENDBRANCH  18  19
ENDBRANCH  17  18
ENDBRANCH  16  17
ENDBRANCH  15  16
ENDBRANCH  14  15
ENDBRANCH  13  14
ENDBRANCH   1  13
TORSDOF 20
ENDMDL
MODEL 5
REMARK VINA RESULT:    -5.860      3.573      9.965
REMARK INTER + INTRA:         -14.630
REMARK INTER:                 -12.720
REMARK INTRA:                  -1.911
REMARK UNBOUND:                -1.920
REMARK SMILES CCCCCCCCCCCCCCCCCCCCCC(=O)[O-]
REMARK SMILES IDX 12 1 11 2 10 3 9 4 8 5 7 6 6 7 5 8 4 9 3 10 2 11 1 12 13 13
REMARK SMILES IDX 14 14 15 15 16 16 17 17 18 18 19 19 20 20 21 21 22 22 23 23
REMARK SMILES IDX 24 24
REMARK H PARENT
REMARK Flexibility Score: inf
ROOT
ATOM      1  C   UNL     1      87.629 320.550 199.863  1.00  0.00     0.000 C 
ENDROOT
BRANCH   1   2
ATOM      2  C   UNL     1      87.291 319.252 199.109  1.00  0.00     0.000 C 
BRANCH   2   3
ATOM      3  C   UNL     1      87.509 319.362 197.589  1.00  0.00     0.000 C 
BRANCH   3   4
ATOM      4  C   UNL     1      86.530 320.293 196.849  1.00  0.00    -0.000 C 
BRANCH   4   5
ATOM      5  C   UNL     1      86.907 320.512 195.375  1.00  0.00    -0.000 C 
BRANCH   5   6
ATOM      6  C   UNL     1      85.697 320.870 194.491  1.00  0.00    -0.000 C 
BRANCH   6   7
ATOM      7  C   UNL     1      85.128 319.716 193.646  1.00  0.00    -0.000 C 
BRANCH   7   8
ATOM      8  C   UNL     1      86.185 319.049 192.751  1.00  0.00    -0.000 C 
BRANCH   8   9
ATOM      9  C   UNL     1      86.306 317.534 192.992  1.00  0.00    -0.000 C 
BRANCH   9  10
ATOM     10  C   UNL     1      86.878 317.127 194.366  1.00  0.00    -0.000 C 
BRANCH  10  11
ATOM     11  C   UNL     1      85.827 316.684 195.401  1.00  0.00    -0.003 C 
ATOM     12  C   UNL     1      86.441 315.954 196.597  1.00  0.00     0.004 C 
ENDBRANCH  10  11
ENDBRANCH   9  10
ENDBRANCH   8   9
ENDBRANCH   7   8
ENDBRANCH   6   7
ENDBRANCH   5   6
ENDBRANCH   4   5
ENDBRANCH   3   4
ENDBRANCH   2   3
ENDBRANCH   1   2
BRANCH   1  13
ATOM     13  C   UNL     1      87.810 320.320 201.373  1.00  0.00     0.000 C 
BRANCH  13  14
ATOM     14  C   UNL     1      89.154 320.866 201.886  1.00  0.00     0.000 C 
BRANCH  14  15
ATOM     15  C   UNL     1      89.171 321.056 203.411  1.00  0.00     0.000 C 
BRANCH  15  16
ATOM     16  C   UNL     1      87.759 321.205 204.006  1.00  0.00     0.000 C 
BRANCH  16  17
ATOM     17  C   UNL     1      87.797 321.575 205.506  1.00  0.00     0.000 C 
BRANCH  17  18
ATOM     18  C   UNL     1      87.540 320.381 206.446  1.00  0.00     0.000 C 
BRANCH  18  19
ATOM     19  C   UNL     1      86.058 320.015 206.641  1.00  0.00     0.000 C 
BRANCH  19  20
ATOM     20  C   UNL     1      85.782 318.517 206.425  1.00  0.00     0.006 C 
BRANCH  20  21
ATOM     21  C   UNL     1      84.843 318.268 205.238  1.00  0.00     0.053 C 
BRANCH  21  22
ATOM     22  C   UNL     1      85.595 318.110 203.952  1.00  0.00     0.041 C 
ATOM     23  O   UNL     1      85.011 318.289 202.850  1.00  0.00    -0.550 OA
ATOM     24  O   UNL     1      86.949 317.798 203.972  1.00  0.00    -0.550 OA
ENDBRANCH  21  22
ENDBRANCH  20  21
ENDBRANCH  19  20
ENDBRANCH  18  19
ENDBRANCH  17  18
ENDBRANCH  16  17
ENDBRANCH  15  16
ENDBRANCH  14  15
ENDBRANCH  13  14
ENDBRANCH   1  13
TORSDOF 20
ENDMDL
MODEL 6
REMARK VINA RESULT:    -5.817      1.037      2.658
REMARK INTER + INTRA:         -14.539
REMARK INTER:                 -12.705
REMARK INTRA:                  -1.834
REMARK UNBOUND:                -1.920
REMARK SMILES CCCCCCCCCCCCCCCCCCCCCC(=O)[O-]
REMARK SMILES IDX 12 1 11 2 10 3 9 4 8 5 7 6 6 7 5 8 4 9 3 10 2 11 1 12 13 13
REMARK SMILES IDX 14 14 15 15 16 16 17 17 18 18 19 19 20 20 21 21 22 22 23 23
REMARK SMILES IDX 24 24
REMARK H PARENT
REMARK Flexibility Score: inf
ROOT
ATOM      1  C   UNL     1      88.297 320.037 200.363  1.00  0.00     0.000 C 
ENDROOT
BRANCH   1   2
ATOM      2  C   UNL     1      87.281 320.444 201.445  1.00  0.00     0.000 C 
BRANCH   2   3
ATOM      3  C   UNL     1      86.404 319.271 201.920  1.00  0.00     0.000 C 
BRANCH   3   4
ATOM      4  C   UNL     1      87.170 318.075 202.513  1.00  0.00    -0.000 C 
BRANCH   4   5
ATOM      5  C   UNL     1      86.457 317.442 203.720  1.00  0.00    -0.000 C 
BRANCH   5   6
ATOM      6  C   UNL     1      85.063 318.045 203.979  1.00  0.00    -0.000 C 
BRANCH   6   7
ATOM      7  C   UNL     1      84.689 318.239 205.460  1.00  0.00    -0.000 C 
BRANCH   7   8
ATOM      8  C   UNL     1      85.907 318.527 206.354  1.00  0.00    -0.000 C 
BRANCH   8   9
ATOM      9  C   UNL     1      85.785 319.854 207.125  1.00  0.00    -0.000 C 
BRANCH   9  10
ATOM     10  C   UNL     1      86.937 320.856 206.901  1.00  0.00    -0.000 C 
BRANCH  10  11
ATOM     11  C   UNL     1      87.907 320.488 205.763  1.00  0.00    -0.003 C 
ATOM     12  C   UNL     1      88.061 321.602 204.728  1.00  0.00     0.004 C 
ENDBRANCH  10  11
ENDBRANCH   9  10
ENDBRANCH   8   9
ENDBRANCH   7   8
ENDBRANCH   6   7
ENDBRANCH   5   6
ENDBRANCH   4   5
ENDBRANCH   3   4
ENDBRANCH   2   3
ENDBRANCH   1   2
BRANCH   1  13
ATOM     13  C   UNL     1      87.617 319.537 199.078  1.00  0.00     0.000 C 
BRANCH  13  14
ATOM     14  C   UNL     1      87.172 320.696 198.168  1.00  0.00     0.000 C 
BRANCH  14  15
ATOM     15  C   UNL     1      86.607 320.210 196.825  1.00  0.00     0.000 C 
BRANCH  15  16
ATOM     16  C   UNL     1      87.389 320.759 195.618  1.00  0.00     0.000 C 
BRANCH  16  17
ATOM     17  C   UNL     1      86.485 320.957 194.381  1.00  0.00     0.000 C 
BRANCH  17  18
ATOM     18  C   UNL     1      85.093 320.310 194.520  1.00  0.00     0.000 C 
BRANCH  18  19
ATOM     19  C   UNL     1      84.767 319.237 193.467  1.00  0.00     0.000 C 
BRANCH  19  20
ATOM     20  C   UNL     1      86.004 318.425 193.043  1.00  0.00     0.006 C 
BRANCH  20  21
ATOM     21  C   UNL     1      86.109 318.286 191.519  1.00  0.00     0.053 C 
BRANCH  21  22
ATOM     22  C   UNL     1      85.515 317.000 191.032  1.00  0.00     0.041 C 
ATOM     23  O   UNL     1      84.272 316.903 190.856  1.00  0.00    -0.550 OA
ATOM     24  O   UNL     1      86.339 315.919 190.741  1.00  0.00    -0.550 OA
ENDBRANCH  21  22
ENDBRANCH  20  21
ENDBRANCH  19  20
ENDBRANCH  18  19
ENDBRANCH  17  18
ENDBRANCH  16  17
ENDBRANCH  15  16
ENDBRANCH  14  15
ENDBRANCH  13  14
ENDBRANCH   1  13
TORSDOF 20
ENDMDL
MODEL 7
REMARK VINA RESULT:    -5.811      3.860     11.207
REMARK INTER + INTRA:         -14.526
REMARK INTER:                 -13.308
REMARK INTRA:                  -1.218
REMARK UNBOUND:                -1.920
REMARK SMILES CCCCCCCCCCCCCCCCCCCCCC(=O)[O-]
REMARK SMILES IDX 12 1 11 2 10 3 9 4 8 5 7 6 6 7 5 8 4 9 3 10 2 11 1 12 13 13
REMARK SMILES IDX 14 14 15 15 16 16 17 17 18 18 19 19 20 20 21 21 22 22 23 23
REMARK SMILES IDX 24 24
REMARK H PARENT
REMARK Flexibility Score: inf
ROOT
ATOM      1  C   UNL     1      87.246 319.837 198.213  1.00  0.00     0.000 C 
ENDROOT
BRANCH   1   2
ATOM      2  C   UNL     1      86.461 320.482 197.057  1.00  0.00     0.000 C 
BRANCH   2   3
ATOM      3  C   UNL     1      87.253 320.518 195.736  1.00  0.00     0.000 C 
BRANCH   3   4
ATOM      4  C   UNL     1      86.454 320.977 194.502  1.00  0.00    -0.000 C 
BRANCH   4   5
ATOM      5  C   UNL     1      85.049 320.357 194.432  1.00  0.00    -0.000 C 
BRANCH   5   6
ATOM      6  C   UNL     1      84.903 319.321 193.301  1.00  0.00    -0.000 C 
BRANCH   6   7
ATOM      7  C   UNL     1      86.222 318.844 192.665  1.00  0.00    -0.000 C 
BRANCH   7   8
ATOM      8  C   UNL     1      86.184 317.366 192.244  1.00  0.00    -0.000 C 
BRANCH   8   9
ATOM      9  C   UNL     1      85.155 317.084 191.134  1.00  0.00    -0.000 C 
BRANCH   9  10
ATOM     10  C   UNL     1      85.717 317.084 189.697  1.00  0.00    -0.000 C 
BRANCH  10  11
ATOM     11  C   UNL     1      87.220 316.766 189.586  1.00  0.00    -0.003 C 
ATOM     12  C   UNL     1      88.029 317.919 188.992  1.00  0.00     0.004 C 
ENDBRANCH  10  11
ENDBRANCH   9  10
ENDBRANCH   8   9
ENDBRANCH   7   8
ENDBRANCH   6   7
ENDBRANCH   5   6
ENDBRANCH   4   5
ENDBRANCH   3   4
ENDBRANCH   2   3
ENDBRANCH   1   2
BRANCH   1  13
ATOM     13  C   UNL     1      87.563 320.838 199.336  1.00  0.00     0.000 C 
BRANCH  13  14
ATOM     14  C   UNL     1      87.252 320.265 200.730  1.00  0.00     0.000 C 
BRANCH  14  15
ATOM     15  C   UNL     1      88.238 320.752 201.802  1.00  0.00     0.000 C 
BRANCH  15  16
ATOM     16  C   UNL     1      87.781 320.405 203.231  1.00  0.00     0.000 C 
BRANCH  16  17
ATOM     17  C   UNL     1      87.939 321.599 204.198  1.00  0.00     0.000 C 
BRANCH  17  18
ATOM     18  C   UNL     1      87.517 321.283 205.647  1.00  0.00     0.000 C 
BRANCH  18  19
ATOM     19  C   UNL     1      87.438 319.785 205.988  1.00  0.00     0.000 C 
BRANCH  19  20
ATOM     20  C   UNL     1      86.231 319.440 206.878  1.00  0.00     0.006 C 
BRANCH  20  21
ATOM     21  C   UNL     1      84.982 319.104 206.053  1.00  0.00     0.053 C 
BRANCH  21  22
ATOM     22  C   UNL     1      85.202 317.922 205.160  1.00  0.00     0.041 C 
ATOM     23  O   UNL     1      85.446 316.789 205.656  1.00  0.00    -0.550 OA
ATOM     24  O   UNL     1      85.105 318.064 203.781  1.00  0.00    -0.550 OA
ENDBRANCH  21  22
ENDBRANCH  20  21
ENDBRANCH  19  20
ENDBRANCH  18  19
ENDBRANCH  17  18
ENDBRANCH  16  17
ENDBRANCH  15  16
ENDBRANCH  14  15
ENDBRANCH  13  14
ENDBRANCH   1  13
TORSDOF 20
ENDMDL
MODEL 8
REMARK VINA RESULT:    -5.730      2.835      8.970
REMARK INTER + INTRA:         -14.350
REMARK INTER:                 -12.267
REMARK INTRA:                  -2.084
REMARK UNBOUND:                -1.920
REMARK SMILES CCCCCCCCCCCCCCCCCCCCCC(=O)[O-]
REMARK SMILES IDX 12 1 11 2 10 3 9 4 8 5 7 6 6 7 5 8 4 9 3 10 2 11 1 12 13 13
REMARK SMILES IDX 14 14 15 15 16 16 17 17 18 18 19 19 20 20 21 21 22 22 23 23
REMARK SMILES IDX 24 24
REMARK H PARENT
REMARK Flexibility Score: inf
ROOT
ATOM      1  C   UNL     1      87.956 320.018 203.069  1.00  0.00     0.000 C 
ENDROOT
BRANCH   1   2
ATOM      2  C   UNL     1      87.242 320.395 201.759  1.00  0.00     0.000 C 
BRANCH   2   3
ATOM      3  C   UNL     1      88.215 320.804 200.638  1.00  0.00     0.000 C 
BRANCH   3   4
ATOM      4  C   UNL     1      87.551 321.248 199.321  1.00  0.00    -0.000 C 
BRANCH   4   5
ATOM      5  C   UNL     1      87.249 320.075 198.374  1.00  0.00    -0.000 C 
BRANCH   5   6
ATOM      6  C   UNL     1      86.459 320.499 197.122  1.00  0.00    -0.000 C 
BRANCH   6   7
ATOM      7  C   UNL     1      87.255 320.498 195.803  1.00  0.00    -0.000 C 
BRANCH   7   8
ATOM      8  C   UNL     1      86.394 320.867 194.584  1.00  0.00    -0.000 C 
BRANCH   8   9
ATOM      9  C   UNL     1      86.123 319.669 193.656  1.00  0.00    -0.000 C 
BRANCH   9  10
ATOM     10  C   UNL     1      86.844 318.360 194.040  1.00  0.00    -0.000 C 
BRANCH  10  11
ATOM     11  C   UNL     1      85.958 317.312 194.740  1.00  0.00    -0.003 C 
ATOM     12  C   UNL     1      86.516 316.869 196.093  1.00  0.00     0.004 C 
ENDBRANCH  10  11
ENDBRANCH   9  10
ENDBRANCH   8   9
ENDBRANCH   7   8
ENDBRANCH   6   7
ENDBRANCH   5   6
ENDBRANCH   4   5
ENDBRANCH   3   4
ENDBRANCH   2   3
ENDBRANCH   1   2
BRANCH   1  13
ATOM     13  C   UNL     1      88.419 321.253 203.860  1.00  0.00     0.000 C 
BRANCH  13  14
ATOM     14  C   UNL     1      87.589 321.468 205.139  1.00  0.00     0.000 C 
BRANCH  14  15
ATOM     15  C   UNL     1      87.537 320.215 206.026  1.00  0.00     0.000 C 
BRANCH  15  16
ATOM     16  C   UNL     1      86.192 320.063 206.759  1.00  0.00     0.000 C 
BRANCH  16  17
ATOM     17  C   UNL     1      85.217 319.136 206.000  1.00  0.00     0.000 C 
BRANCH  17  18
ATOM     18  C   UNL     1      85.640 317.654 206.004  1.00  0.00     0.000 C 
BRANCH  18  19
ATOM     19  C   UNL     1      85.436 316.917 204.669  1.00  0.00     0.000 C 
BRANCH  19  20
ATOM     20  C   UNL     1      85.150 317.874 203.499  1.00  0.00     0.006 C 
BRANCH  20  21
ATOM     21  C   UNL     1      84.799 317.121 202.209  1.00  0.00     0.053 C 
BRANCH  21  22
ATOM     22  C   UNL     1      85.982 316.983 201.301  1.00  0.00     0.041 C 
ATOM     23  O   UNL     1      85.847 317.128 200.057  1.00  0.00    -0.550 OA
ATOM     24  O   UNL     1      87.240 316.726 201.833  1.00  0.00    -0.550 OA
ENDBRANCH  21  22
ENDBRANCH  20  21
ENDBRANCH  19  20
ENDBRANCH  18  19
ENDBRANCH  17  18
ENDBRANCH  16  17
ENDBRANCH  15  16
ENDBRANCH  14  15
ENDBRANCH  13  14
ENDBRANCH   1  13
TORSDOF 20
ENDMDL
MODEL 9
REMARK VINA RESULT:    -5.703     19.281     20.253
REMARK INTER + INTRA:         -14.291
REMARK INTER:                 -13.079
REMARK INTRA:                  -1.213
REMARK UNBOUND:                -1.920
REMARK SMILES CCCCCCCCCCCCCCCCCCCCCC(=O)[O-]
REMARK SMILES IDX 12 1 11 2 10 3 9 4 8 5 7 6 6 7 5 8 4 9 3 10 2 11 1 12 13 13
REMARK SMILES IDX 14 14 15 15 16 16 17 17 18 18 19 19 20 20 21 21 22 22 23 23
REMARK SMILES IDX 24 24
REMARK H PARENT
REMARK Flexibility Score: inf
ROOT
ATOM      1  C   UNL     1     101.871 306.862 197.484  1.00  0.00     0.000 C 
ENDROOT
BRANCH   1   2
ATOM      2  C   UNL     1     101.714 305.927 198.696  1.00  0.00     0.000 C 
BRANCH   2   3
ATOM      3  C   UNL     1     102.552 306.368 199.911  1.00  0.00     0.000 C 
BRANCH   3   4
ATOM      4  C   UNL     1     102.054 305.855 201.275  1.00  0.00    -0.000 C 
BRANCH   4   5
ATOM      5  C   UNL     1     100.521 305.849 201.391  1.00  0.00    -0.000 C 
BRANCH   5   6
ATOM      6  C   UNL     1     100.017 305.166 202.677  1.00  0.00    -0.000 C 
BRANCH   6   7
ATOM      7  C   UNL     1     100.323 305.913 203.988  1.00  0.00    -0.000 C 
BRANCH   7   8
ATOM      8  C   UNL     1     101.087 305.050 205.006  1.00  0.00    -0.000 C 
BRANCH   8   9
ATOM      9  C   UNL     1     102.615 305.136 204.838  1.00  0.00    -0.000 C 
BRANCH   9  10
ATOM     10  C   UNL     1     103.373 305.785 206.015  1.00  0.00    -0.000 C 
BRANCH  10  11
ATOM     11  C   UNL     1     102.483 306.519 207.035  1.00  0.00    -0.003 C 
ATOM     12  C   UNL     1     102.778 308.017 207.114  1.00  0.00     0.004 C 
ENDBRANCH  10  11
ENDBRANCH   9  10
ENDBRANCH   8   9
ENDBRANCH   7   8
ENDBRANCH   6   7
ENDBRANCH   5   6
ENDBRANCH   4   5
ENDBRANCH   3   4
ENDBRANCH   2   3
ENDBRANCH   1   2
BRANCH   1  13
ATOM     13  C   UNL     1     102.332 306.113 196.223  1.00  0.00     0.000 C 
BRANCH  13  14
ATOM     14  C   UNL     1     101.503 306.496 194.984  1.00  0.00     0.000 C 
BRANCH  14  15
ATOM     15  C   UNL     1     102.051 305.874 193.691  1.00  0.00     0.000 C 
BRANCH  15  16
ATOM     16  C   UNL     1     103.559 306.120 193.505  1.00  0.00     0.000 C 
BRANCH  16  17
ATOM     17  C   UNL     1     103.844 307.259 192.502  1.00  0.00     0.000 C 
BRANCH  17  18
ATOM     18  C   UNL     1     102.596 307.736 191.734  1.00  0.00     0.000 C 
BRANCH  18  19
ATOM     19  C   UNL     1     102.152 309.176 192.047  1.00  0.00     0.000 C 
BRANCH  19  20
ATOM     20  C   UNL     1     102.019 310.045 190.784  1.00  0.00     0.006 C 
BRANCH  20  21
ATOM     21  C   UNL     1     101.883 309.198 189.511  1.00  0.00     0.053 C 
BRANCH  21  22
ATOM     22  C   UNL     1     101.196 309.947 188.412  1.00  0.00     0.041 C 
ATOM     23  O   UNL     1      99.943 309.893 188.295  1.00  0.00    -0.550 OA
ATOM     24  O   UNL     1     101.936 310.732 187.535  1.00  0.00    -0.550 OA
ENDBRANCH  21  22
ENDBRANCH  20  21
ENDBRANCH  19  20
ENDBRANCH  18  19
ENDBRANCH  17  18
ENDBRANCH  16  17
ENDBRANCH  15  16
ENDBRANCH  14  15
ENDBRANCH  13  14
ENDBRANCH   1  13
TORSDOF 20
ENDMDL
