MODEL 1
REMARK VINA RESULT:     1.012      0.000      0.000
REMARK INTER + INTRA:           1.253
REMARK INTER:                   1.219
REMARK INTRA:                   0.035
REMARK UNBOUND:                 0.035
REMARK SMILES O=c1c(O)c(-c2ccc(O)c(O)c2)oc2cc(O)cc(O)c12
REMARK SMILES IDX 5 1 3 2 2 3 1 4 22 5 20 6 19 7 17 8 16 9 15 10 14 11 6 12
REMARK SMILES IDX 7 13 8 14 9 15 13 16 11 17 10 18 12 20 4 22 21 24 18 26
REMARK H PARENT 10 19 12 21 4 23 21 25 18 27
REMARK Flexibility Score: inf
ROOT
ATOM      1  C   UNL     1      13.550  39.129 -11.285  1.00  0.00     0.180 A 
ATOM      2  C   UNL     1      13.906  37.853 -11.762  1.00  0.00     0.208 A 
ATOM      3  C   UNL     1      15.068  37.718 -12.537  1.00  0.00     0.238 A 
ATOM      4  O   UNL     1      15.390  36.581 -12.979  1.00  0.00    -0.285 OA
ATOM      5  C   UNL     1      15.862  38.851 -12.805  1.00  0.00     0.111 A 
ATOM      6  C   UNL     1      17.050  38.800 -13.574  1.00  0.00     0.134 A 
ATOM      7  C   UNL     1      17.791  39.972 -13.787  1.00  0.00     0.093 A 
ATOM      8  C   UNL     1      17.370  41.190 -13.248  1.00  0.00     0.123 A 
ATOM      9  C   UNL     1      16.198  41.246 -12.488  1.00  0.00     0.094 A 
ATOM     10  C   UNL     1      15.444  40.091 -12.265  1.00  0.00     0.146 A 
ATOM     11  O   UNL     1      14.332  40.173 -11.544  1.00  0.00    -0.452 OA
ENDROOT
BRANCH   1  12
ATOM     12  C   UNL     1      12.329  39.354 -10.477  1.00  0.00     0.025 A 
ATOM     13  C   UNL     1      11.104  38.824 -10.914  1.00  0.00     0.016 A 
ATOM     14  C   UNL     1       9.944  39.006 -10.157  1.00  0.00     0.051 A 
ATOM     15  C   UNL     1       9.995  39.705  -8.944  1.00  0.00     0.157 A 
ATOM     16  C   UNL     1      12.379  40.037  -9.249  1.00  0.00     0.062 A 
ATOM     17  C   UNL     1      11.215  40.217  -8.487  1.00  0.00     0.158 A 
BRANCH  15  18
ATOM     18  O   UNL     1       8.840  39.889  -8.187  1.00  0.00    -0.504 OA
ATOM     19  H   UNL     1       7.948  39.504  -8.478  1.00  0.00     0.293 HD
ENDBRANCH  15  18
BRANCH  17  20
ATOM     20  O   UNL     1      11.265  40.900  -7.273  1.00  0.00    -0.504 OA
ATOM     21  H   UNL     1      11.792  41.760  -7.169  1.00  0.00     0.293 HD
ENDBRANCH  17  20
ENDBRANCH   1  12
BRANCH   2  22
ATOM     22  O   UNL     1      13.127  36.737 -11.441  1.00  0.00    -0.502 OA
ATOM     23  H   UNL     1      12.229  36.818 -10.978  1.00  0.00     0.293 HD
ENDBRANCH   2  22
BRANCH   6  24
ATOM     24  O   UNL     1      17.498  37.599 -14.125  1.00  0.00    -0.507 OA
ATOM     25  H   UNL     1      16.859  36.845 -14.350  1.00  0.00     0.293 HD
ENDBRANCH   6  24
BRANCH   8  26
ATOM     26  O   UNL     1      18.125  42.339 -13.474  1.00  0.00    -0.508 OA
ATOM     27  H   UNL     1      18.454  42.583 -14.401  1.00  0.00     0.293 HD
ENDBRANCH   8  26
TORSDOF 6
ENDMDL
MODEL 2
REMARK VINA RESULT:     1.411      1.402      6.833
REMARK INTER + INTRA:           1.735
REMARK INTER:                   1.773
REMARK INTRA:                  -0.038
REMARK UNBOUND:                 0.035
REMARK SMILES O=c1c(O)c(-c2ccc(O)c(O)c2)oc2cc(O)cc(O)c12
REMARK SMILES IDX 5 1 3 2 2 3 1 4 22 5 20 6 19 7 17 8 16 9 15 10 14 11 6 12
REMARK SMILES IDX 7 13 8 14 9 15 13 16 11 17 10 18 12 20 4 22 21 24 18 26
REMARK H PARENT 10 19 12 21 4 23 21 25 18 27
REMARK Flexibility Score: inf
ROOT
ATOM      1  C   UNL     1      14.585  39.831 -12.015  1.00  0.00     0.180 A 
ATOM      2  C   UNL     1      13.667  39.021 -12.711  1.00  0.00     0.208 A 
ATOM      3  C   UNL     1      12.446  38.700 -12.100  1.00  0.00     0.238 A 
ATOM      4  O   UNL     1      11.620  37.966 -12.710  1.00  0.00    -0.285 OA
ATOM      5  C   UNL     1      12.154  39.207 -10.817  1.00  0.00     0.111 A 
ATOM      6  C   UNL     1      10.945  38.934 -10.132  1.00  0.00     0.134 A 
ATOM      7  C   UNL     1      10.725  39.485  -8.861  1.00  0.00     0.093 A 
ATOM      8  C   UNL     1      11.688  40.301  -8.263  1.00  0.00     0.123 A 
ATOM      9  C   UNL     1      12.884  40.574  -8.934  1.00  0.00     0.094 A 
ATOM     10  C   UNL     1      13.123  40.034 -10.200  1.00  0.00     0.146 A 
ATOM     11  O   UNL     1      14.269  40.304 -10.813  1.00  0.00    -0.452 OA
ENDROOT
BRANCH   1  12
ATOM     12  C   UNL     1      15.901  40.198 -12.587  1.00  0.00     0.025 A 
ATOM     13  C   UNL     1      16.313  41.540 -12.565  1.00  0.00     0.016 A 
ATOM     14  C   UNL     1      17.559  41.906 -13.079  1.00  0.00     0.051 A 
ATOM     15  C   UNL     1      18.418  40.934 -13.607  1.00  0.00     0.157 A 
ATOM     16  C   UNL     1      16.775  39.223 -13.098  1.00  0.00     0.062 A 
ATOM     17  C   UNL     1      18.027  39.589 -13.612  1.00  0.00     0.158 A 
BRANCH  15  18
ATOM     18  O   UNL     1      19.661  41.295 -14.122  1.00  0.00    -0.504 OA
ATOM     19  H   UNL     1      19.881  41.183 -15.106  1.00  0.00     0.293 HD
ENDBRANCH  15  18
BRANCH  17  20
ATOM     20  O   UNL     1      18.890  38.622 -14.125  1.00  0.00    -0.504 OA
ATOM     21  H   UNL     1      19.855  38.836 -14.349  1.00  0.00     0.293 HD
ENDBRANCH  17  20
ENDBRANCH   1  12
BRANCH   2  22
ATOM     22  O   UNL     1      13.960  38.572 -14.002  1.00  0.00    -0.502 OA
ATOM     23  H   UNL     1      13.436  38.877 -14.815  1.00  0.00     0.293 HD
ENDBRANCH   2  22
BRANCH   6  24
ATOM     24  O   UNL     1       9.963  38.123 -10.704  1.00  0.00    -0.507 OA
ATOM     25  H   UNL     1       9.919  37.127 -10.518  1.00  0.00     0.293 HD
ENDBRANCH   6  24
BRANCH   8  26
ATOM     26  O   UNL     1      11.444  40.836  -6.999  1.00  0.00    -0.508 OA
ATOM     27  H   UNL     1      11.263  41.824  -6.869  1.00  0.00     0.293 HD
ENDBRANCH   8  26
TORSDOF 6
ENDMDL
MODEL 3
REMARK VINA RESULT:     1.975      1.368      6.738
REMARK INTER + INTRA:           2.414
REMARK INTER:                   2.550
REMARK INTRA:                  -0.136
REMARK UNBOUND:                 0.035
REMARK SMILES O=c1c(O)c(-c2ccc(O)c(O)c2)oc2cc(O)cc(O)c12
REMARK SMILES IDX 5 1 3 2 2 3 1 4 22 5 20 6 19 7 17 8 16 9 15 10 14 11 6 12
REMARK SMILES IDX 7 13 8 14 9 15 13 16 11 17 10 18 12 20 4 22 21 24 18 26
REMARK H PARENT 10 19 12 21 4 23 21 25 18 27
REMARK Flexibility Score: inf
ROOT
ATOM      1  C   UNL     1      14.194  39.311 -11.930  1.00  0.00     0.180 A 
ATOM      2  C   UNL     1      13.183  38.645 -12.651  1.00  0.00     0.208 A 
ATOM      3  C   UNL     1      11.922  38.483 -12.058  1.00  0.00     0.238 A 
ATOM      4  O   UNL     1      11.012  37.878 -12.689  1.00  0.00    -0.285 OA
ATOM      5  C   UNL     1      11.686  39.002 -10.769  1.00  0.00     0.111 A 
ATOM      6  C   UNL     1      10.442  38.885 -10.102  1.00  0.00     0.134 A 
ATOM      7  C   UNL     1      10.283  39.439  -8.823  1.00  0.00     0.093 A 
ATOM      8  C   UNL     1      11.340  40.106  -8.199  1.00  0.00     0.123 A 
ATOM      9  C   UNL     1      12.570  40.225  -8.853  1.00  0.00     0.094 A 
ATOM     10  C   UNL     1      12.750  39.679 -10.126  1.00  0.00     0.146 A 
ATOM     11  O   UNL     1      13.930  39.802 -10.723  1.00  0.00    -0.452 OA
ENDROOT
BRANCH   1  12
ATOM     12  C   UNL     1      15.555  39.505 -12.481  1.00  0.00     0.025 A 
ATOM     13  C   UNL     1      16.341  38.383 -12.790  1.00  0.00     0.016 A 
ATOM     14  C   UNL     1      17.619  38.542 -13.330  1.00  0.00     0.051 A 
ATOM     15  C   UNL     1      18.123  39.824 -13.586  1.00  0.00     0.157 A 
ATOM     16  C   UNL     1      16.056  40.789 -12.760  1.00  0.00     0.062 A 
ATOM     17  C   UNL     1      17.338  40.949 -13.305  1.00  0.00     0.158 A 
BRANCH  15  18
ATOM     18  O   UNL     1      19.398  39.987 -14.124  1.00  0.00    -0.504 OA
ATOM     19  H   UNL     1      20.107  40.536 -13.651  1.00  0.00     0.293 HD
ENDBRANCH  15  18
BRANCH  17  20
ATOM     20  O   UNL     1      17.836  42.223 -13.574  1.00  0.00    -0.504 OA
ATOM     21  H   UNL     1      18.827  42.428 -13.515  1.00  0.00     0.293 HD
ENDBRANCH  17  20
ENDBRANCH   1  12
BRANCH   2  22
ATOM     22  O   UNL     1      13.429  38.182 -13.946  1.00  0.00    -0.502 OA
ATOM     23  H   UNL     1      13.887  38.752 -14.648  1.00  0.00     0.293 HD
ENDBRANCH   2  22
BRANCH   6  24
ATOM     24  O   UNL     1       9.367  38.225 -10.699  1.00  0.00    -0.507 OA
ATOM     25  H   UNL     1       9.461  37.748 -11.588  1.00  0.00     0.293 HD
ENDBRANCH   6  24
BRANCH   8  26
ATOM     26  O   UNL     1      11.155  40.648  -6.929  1.00  0.00    -0.508 OA
ATOM     27  H   UNL     1      10.483  40.259  -6.280  1.00  0.00     0.293 HD
ENDBRANCH   8  26
TORSDOF 6
ENDMDL
MODEL 4
REMARK VINA RESULT:     2.577      1.348      3.210
REMARK INTER + INTRA:           3.139
REMARK INTER:                   2.853
REMARK INTRA:                   0.286
REMARK UNBOUND:                 0.035
REMARK SMILES O=c1c(O)c(-c2ccc(O)c(O)c2)oc2cc(O)cc(O)c12
REMARK SMILES IDX 5 1 3 2 2 3 1 4 22 5 20 6 19 7 17 8 16 9 15 10 14 11 6 12
REMARK SMILES IDX 7 13 8 14 9 15 13 16 11 17 10 18 12 20 4 22 21 24 18 26
REMARK H PARENT 10 19 12 21 4 23 21 25 18 27
REMARK Flexibility Score: inf
ROOT
ATOM      1  C   UNL     1      13.855  39.744 -10.899  1.00  0.00     0.180 A 
ATOM      2  C   UNL     1      14.677  40.855 -11.170  1.00  0.00     0.208 A 
ATOM      3  C   UNL     1      15.801  40.681 -11.993  1.00  0.00     0.238 A 
ATOM      4  O   UNL     1      16.552  41.667 -12.234  1.00  0.00    -0.285 OA
ATOM      5  C   UNL     1      16.072  39.413 -12.544  1.00  0.00     0.111 A 
ATOM      6  C   UNL     1      17.182  39.155 -13.385  1.00  0.00     0.134 A 
ATOM      7  C   UNL     1      17.377  37.866 -13.903  1.00  0.00     0.093 A 
ATOM      8  C   UNL     1      16.489  36.833 -13.597  1.00  0.00     0.123 A 
ATOM      9  C   UNL     1      15.391  37.081 -12.766  1.00  0.00     0.094 A 
ATOM     10  C   UNL     1      15.179  38.358 -12.239  1.00  0.00     0.146 A 
ATOM     11  O   UNL     1      14.133  38.567 -11.449  1.00  0.00    -0.452 OA
ENDROOT
BRANCH   1  12
ATOM     12  C   UNL     1      12.663  39.844 -10.026  1.00  0.00     0.025 A 
ATOM     13  C   UNL     1      12.657  40.768  -8.968  1.00  0.00     0.016 A 
ATOM     14  C   UNL     1      11.535  40.894  -8.145  1.00  0.00     0.051 A 
ATOM     15  C   UNL     1      10.397  40.111  -8.378  1.00  0.00     0.157 A 
ATOM     16  C   UNL     1      11.510  39.076 -10.269  1.00  0.00     0.062 A 
ATOM     17  C   UNL     1      10.383  39.205  -9.445  1.00  0.00     0.158 A 
BRANCH  15  18
ATOM     18  O   UNL     1       9.277  40.233  -7.559  1.00  0.00    -0.504 OA
ATOM     19  H   UNL     1       9.301  39.959  -6.583  1.00  0.00     0.293 HD
ENDBRANCH  15  18
BRANCH  17  20
ATOM     20  O   UNL     1       9.244  38.437  -9.683  1.00  0.00    -0.504 OA
ATOM     21  H   UNL     1       9.101  37.960 -10.565  1.00  0.00     0.293 HD
ENDBRANCH  17  20
ENDBRANCH   1  12
BRANCH   2  22
ATOM     22  O   UNL     1      14.359  42.113 -10.651  1.00  0.00    -0.502 OA
ATOM     23  H   UNL     1      13.424  42.501 -10.705  1.00  0.00     0.293 HD
ENDBRANCH   2  22
BRANCH   6  24
ATOM     24  O   UNL     1      18.087  40.166 -13.710  1.00  0.00    -0.507 OA
ATOM     25  H   UNL     1      18.495  40.239 -14.635  1.00  0.00     0.293 HD
ENDBRANCH   6  24
BRANCH   8  26
ATOM     26  O   UNL     1      16.705  35.561 -14.125  1.00  0.00    -0.508 OA
ATOM     27  H   UNL     1      17.179  34.841 -13.594  1.00  0.00     0.293 HD
ENDBRANCH   8  26
TORSDOF 6
ENDMDL
