MODEL 1
REMARK VINA RESULT:    -2.468      0.000      0.000
REMARK INTER + INTRA:          -7.553
REMARK INTER:                  -4.776
REMARK INTRA:                  -2.777
REMARK UNBOUND:                -2.777
REMARK SMILES CCCCCCCCCCCCCCCCCC(=O)[O-]
REMARK SMILES IDX 10 1 11 2 12 3 13 4 14 5 15 6 16 7 17 8 18 9 19 10 20 11
REMARK SMILES IDX 9 12 8 13 7 14 6 15 5 16 4 17 3 18 2 19 1 20
REMARK H PARENT
REMARK Flexibility Score: inf
ROOT
ATOM      1  C   UNL     1       1.155  23.029   6.699  1.00  0.00     0.000 C 
ENDROOT
BRANCH   1   2
ATOM      2  C   UNL     1       0.631  21.693   7.265  1.00  0.00     0.000 C 
BRANCH   2   3
ATOM      3  C   UNL     1      -0.772  21.350   6.740  1.00  0.00     0.000 C 
BRANCH   3   4
ATOM      4  C   UNL     1      -1.078  21.993   5.377  1.00  0.00     0.000 C 
BRANCH   4   5
ATOM      5  C   UNL     1      -0.954  21.016   4.189  1.00  0.00     0.000 C 
BRANCH   5   6
ATOM      6  C   UNL     1       0.480  20.953   3.636  1.00  0.00     0.000 C 
BRANCH   6   7
ATOM      7  C   UNL     1       0.710  21.944   2.484  1.00  0.00     0.006 C 
BRANCH   7   8
ATOM      8  C   UNL     1       1.513  23.176   2.922  1.00  0.00     0.053 C 
BRANCH   8   9
ATOM      9  C   UNL     1       0.761  24.430   2.598  1.00  0.00     0.041 C 
ATOM     10  O   UNL     1       1.346  25.391   2.033  1.00  0.00    -0.550 OA
ATOM     11  O   UNL     1      -0.573  24.555   2.965  1.00  0.00    -0.550 OA
ENDBRANCH   8   9
ENDBRANCH   7   8
ENDBRANCH   6   7
ENDBRANCH   5   6
ENDBRANCH   4   5
ENDBRANCH   3   4
ENDBRANCH   2   3
ENDBRANCH   1   2
BRANCH   1  12
ATOM     12  C   UNL     1       2.681  23.059   6.510  1.00  0.00     0.000 C 
BRANCH  12  13
ATOM     13  C   UNL     1       3.325  21.668   6.634  1.00  0.00    -0.000 C 
BRANCH  13  14
ATOM     14  C   UNL     1       3.724  21.075   5.274  1.00  0.00    -0.000 C 
BRANCH  14  15
ATOM     15  C   UNL     1       5.143  21.487   4.845  1.00  0.00    -0.000 C 
BRANCH  15  16
ATOM     16  C   UNL     1       5.143  22.420   3.623  1.00  0.00    -0.000 C 
BRANCH  16  17
ATOM     17  C   UNL     1       6.104  23.612   3.782  1.00  0.00    -0.000 C 
BRANCH  17  18
ATOM     18  C   UNL     1       5.587  24.642   4.809  1.00  0.00    -0.000 C 
BRANCH  18  19
ATOM     19  C   UNL     1       6.546  24.866   5.991  1.00  0.00    -0.003 C 
ATOM     20  C   UNL     1       6.057  24.225   7.288  1.00  0.00     0.004 C 
ENDBRANCH  18  19
ENDBRANCH  17  18
ENDBRANCH  16  17
ENDBRANCH  15  16
ENDBRANCH  14  15
ENDBRANCH  13  14
ENDBRANCH  12  13
ENDBRANCH   1  12
TORSDOF 16
ENDMDL
MODEL 2
REMARK VINA RESULT:    -2.456      1.163      2.239
REMARK INTER + INTRA:          -7.531
REMARK INTER:                  -4.994
REMARK INTRA:                  -2.537
REMARK UNBOUND:                -2.777
REMARK SMILES CCCCCCCCCCCCCCCCCC(=O)[O-]
REMARK SMILES IDX 10 1 11 2 12 3 13 4 14 5 15 6 16 7 17 8 18 9 19 10 20 11
REMARK SMILES IDX 9 12 8 13 7 14 6 15 5 16 4 17 3 18 2 19 1 20
REMARK H PARENT
REMARK Flexibility Score: inf
ROOT
ATOM      1  C   UNL     1       2.001  22.686   5.399  1.00  0.00     0.000 C 
ENDROOT
BRANCH   1   2
ATOM      2  C   UNL     1       1.699  21.880   6.680  1.00  0.00     0.000 C 
BRANCH   2   3
ATOM      3  C   UNL     1       0.258  22.090   7.173  1.00  0.00     0.000 C 
BRANCH   3   4
ATOM      4  C   UNL     1      -0.735  22.354   6.029  1.00  0.00     0.000 C 
BRANCH   4   5
ATOM      5  C   UNL     1      -1.352  21.070   5.435  1.00  0.00     0.000 C 
BRANCH   5   6
ATOM      6  C   UNL     1      -1.027  20.909   3.940  1.00  0.00     0.000 C 
BRANCH   6   7
ATOM      7  C   UNL     1      -1.537  22.088   3.096  1.00  0.00     0.006 C 
BRANCH   7   8
ATOM      8  C   UNL     1      -0.428  22.723   2.247  1.00  0.00     0.053 C 
BRANCH   8   9
ATOM      9  C   UNL     1      -0.170  24.128   2.694  1.00  0.00     0.041 C 
ATOM     10  O   UNL     1      -1.019  24.735   3.397  1.00  0.00    -0.550 OA
ATOM     11  O   UNL     1       0.988  24.783   2.292  1.00  0.00    -0.550 OA
ENDBRANCH   8   9
ENDBRANCH   7   8
ENDBRANCH   6   7
ENDBRANCH   5   6
ENDBRANCH   4   5
ENDBRANCH   3   4
ENDBRANCH   2   3
ENDBRANCH   1   2
BRANCH   1  12
ATOM     12  C   UNL     1       2.632  21.843   4.278  1.00  0.00     0.000 C 
BRANCH  12  13
ATOM     13  C   UNL     1       4.109  22.191   4.030  1.00  0.00    -0.000 C 
BRANCH  13  14
ATOM     14  C   UNL     1       4.287  23.371   3.062  1.00  0.00    -0.000 C 
BRANCH  14  15
ATOM     15  C   UNL     1       5.271  24.426   3.594  1.00  0.00    -0.000 C 
BRANCH  15  16
ATOM     16  C   UNL     1       5.112  24.675   5.103  1.00  0.00    -0.000 C 
BRANCH  16  17
ATOM     17  C   UNL     1       6.461  24.753   5.840  1.00  0.00    -0.000 C 
BRANCH  17  18
ATOM     18  C   UNL     1       6.446  23.960   7.165  1.00  0.00    -0.000 C 
BRANCH  18  19
ATOM     19  C   UNL     1       5.080  23.333   7.492  1.00  0.00    -0.003 C 
ATOM     20  C   UNL     1       5.173  21.855   7.864  1.00  0.00     0.004 C 
ENDBRANCH  18  19
ENDBRANCH  17  18
ENDBRANCH  16  17
ENDBRANCH  15  16
ENDBRANCH  14  15
ENDBRANCH  13  14
ENDBRANCH  12  13
ENDBRANCH   1  12
TORSDOF 16
ENDMDL
MODEL 3
REMARK VINA RESULT:    -2.205      2.078      3.635
REMARK INTER + INTRA:          -7.045
REMARK INTER:                  -4.805
REMARK INTRA:                  -2.241
REMARK UNBOUND:                -2.777
REMARK SMILES CCCCCCCCCCCCCCCCCC(=O)[O-]
REMARK SMILES IDX 10 1 11 2 12 3 13 4 14 5 15 6 16 7 17 8 18 9 19 10 20 11
REMARK SMILES IDX 9 12 8 13 7 14 6 15 5 16 4 17 3 18 2 19 1 20
REMARK H PARENT
REMARK Flexibility Score: inf
ROOT
ATOM      1  C   UNL     1       2.058  23.331   3.395  1.00  0.00     0.000 C 
ENDROOT
BRANCH   1   2
ATOM      2  C   UNL     1       1.077  23.492   2.215  1.00  0.00     0.000 C 
BRANCH   2   3
ATOM      3  C   UNL     1      -0.083  24.444   2.548  1.00  0.00     0.000 C 
BRANCH   3   4
ATOM      4  C   UNL     1      -1.436  23.724   2.669  1.00  0.00     0.000 C 
BRANCH   4   5
ATOM      5  C   UNL     1      -1.330  22.187   2.570  1.00  0.00     0.000 C 
BRANCH   5   6
ATOM      6  C   UNL     1      -1.767  21.490   3.870  1.00  0.00     0.000 C 
BRANCH   6   7
ATOM      7  C   UNL     1      -0.610  21.328   4.868  1.00  0.00     0.006 C 
BRANCH   7   8
ATOM      8  C   UNL     1      -0.691  22.329   6.027  1.00  0.00     0.053 C 
BRANCH   8   9
ATOM      9  C   UNL     1       0.461  22.138   6.963  1.00  0.00     0.041 C 
ATOM     10  O   UNL     1       1.501  22.838   6.839  1.00  0.00    -0.550 OA
ATOM     11  O   UNL     1       0.407  21.153   7.941  1.00  0.00    -0.550 OA
ENDBRANCH   8   9
ENDBRANCH   7   8
ENDBRANCH   6   7
ENDBRANCH   5   6
ENDBRANCH   4   5
ENDBRANCH   3   4
ENDBRANCH   2   3
ENDBRANCH   1   2
BRANCH   1  12
ATOM     12  C   UNL     1       2.816  21.994   3.385  1.00  0.00     0.000 C 
BRANCH  12  13
ATOM     13  C   UNL     1       3.990  21.966   4.378  1.00  0.00    -0.000 C 
BRANCH  13  14
ATOM     14  C   UNL     1       5.350  22.187   3.698  1.00  0.00    -0.000 C 
BRANCH  14  15
ATOM     15  C   UNL     1       5.809  23.654   3.761  1.00  0.00    -0.000 C 
BRANCH  15  16
ATOM     16  C   UNL     1       5.246  24.398   4.983  1.00  0.00    -0.000 C 
BRANCH  16  17
ATOM     17  C   UNL     1       6.341  24.842   5.968  1.00  0.00    -0.000 C 
BRANCH  17  18
ATOM     18  C   UNL     1       6.153  24.218   7.368  1.00  0.00    -0.000 C 
BRANCH  18  19
ATOM     19  C   UNL     1       6.273  22.685   7.378  1.00  0.00    -0.003 C 
ATOM     20  C   UNL     1       5.038  21.991   7.949  1.00  0.00     0.004 C 
ENDBRANCH  18  19
ENDBRANCH  17  18
ENDBRANCH  16  17
ENDBRANCH  15  16
ENDBRANCH  14  15
ENDBRANCH  13  14
ENDBRANCH  12  13
ENDBRANCH   1  12
TORSDOF 16
ENDMDL
MODEL 4
REMARK VINA RESULT:    -2.202      1.543      5.769
REMARK INTER + INTRA:          -7.039
REMARK INTER:                  -4.543
REMARK INTRA:                  -2.495
REMARK UNBOUND:                -2.777
REMARK SMILES CCCCCCCCCCCCCCCCCC(=O)[O-]
REMARK SMILES IDX 10 1 11 2 12 3 13 4 14 5 15 6 16 7 17 8 18 9 19 10 20 11
REMARK SMILES IDX 9 12 8 13 7 14 6 15 5 16 4 17 3 18 2 19 1 20
REMARK H PARENT
REMARK Flexibility Score: inf
ROOT
ATOM      1  C   UNL     1       3.275  20.875   6.000  1.00  0.00     0.000 C 
ENDROOT
BRANCH   1   2
ATOM      2  C   UNL     1       4.703  21.371   6.309  1.00  0.00     0.000 C 
BRANCH   2   3
ATOM      3  C   UNL     1       4.736  22.335   7.507  1.00  0.00     0.000 C 
BRANCH   3   4
ATOM      4  C   UNL     1       4.977  23.797   7.095  1.00  0.00     0.000 C 
BRANCH   4   5
ATOM      5  C   UNL     1       6.372  24.047   6.484  1.00  0.00     0.000 C 
BRANCH   5   6
ATOM      6  C   UNL     1       6.297  24.393   4.987  1.00  0.00     0.000 C 
BRANCH   6   7
ATOM      7  C   UNL     1       4.856  24.631   4.509  1.00  0.00     0.006 C 
BRANCH   7   8
ATOM      8  C   UNL     1       4.745  24.668   2.979  1.00  0.00     0.053 C 
BRANCH   8   9
ATOM      9  C   UNL     1       3.363  25.072   2.567  1.00  0.00     0.041 C 
ATOM     10  O   UNL     1       2.471  24.199   2.404  1.00  0.00    -0.550 OA
ATOM     11  O   UNL     1       3.076  26.407   2.316  1.00  0.00    -0.550 OA
ENDBRANCH   8   9
ENDBRANCH   7   8
ENDBRANCH   6   7
ENDBRANCH   5   6
ENDBRANCH   4   5
ENDBRANCH   3   4
ENDBRANCH   2   3
ENDBRANCH   1   2
BRANCH   1  12
ATOM     12  C   UNL     1       2.544  21.726   4.948  1.00  0.00     0.000 C 
BRANCH  12  13
ATOM     13  C   UNL     1       1.638  22.799   5.574  1.00  0.00    -0.000 C 
BRANCH  13  14
ATOM     14  C   UNL     1       0.823  22.269   6.764  1.00  0.00    -0.000 C 
BRANCH  14  15
ATOM     15  C   UNL     1      -0.680  22.167   6.451  1.00  0.00    -0.000 C 
BRANCH  15  16
ATOM     16  C   UNL     1      -1.038  20.881   5.689  1.00  0.00    -0.000 C 
BRANCH  16  17
ATOM     17  C   UNL     1      -2.025  21.127   4.534  1.00  0.00    -0.000 C 
BRANCH  17  18
ATOM     18  C   UNL     1      -1.369  20.910   3.153  1.00  0.00    -0.000 C 
BRANCH  18  19
ATOM     19  C   UNL     1      -0.468  22.075   2.711  1.00  0.00    -0.003 C 
ATOM     20  C   UNL     1      -1.104  23.445   2.940  1.00  0.00     0.004 C 
ENDBRANCH  18  19
ENDBRANCH  17  18
ENDBRANCH  16  17
ENDBRANCH  15  16
ENDBRANCH  14  15
ENDBRANCH  13  14
ENDBRANCH  12  13
ENDBRANCH   1  12
TORSDOF 16
ENDMDL
MODEL 5
REMARK VINA RESULT:    -2.188      2.397      4.179
REMARK INTER + INTRA:          -7.011
REMARK INTER:                  -5.032
REMARK INTRA:                  -1.979
REMARK UNBOUND:                -2.777
REMARK SMILES CCCCCCCCCCCCCCCCCC(=O)[O-]
REMARK SMILES IDX 10 1 11 2 12 3 13 4 14 5 15 6 16 7 17 8 18 9 19 10 20 11
REMARK SMILES IDX 9 12 8 13 7 14 6 15 5 16 4 17 3 18 2 19 1 20
REMARK H PARENT
REMARK Flexibility Score: inf
ROOT
ATOM      1  C   UNL     1       2.296  24.345   2.058  1.00  0.00     0.000 C 
ENDROOT
BRANCH   1   2
ATOM      2  C   UNL     1       0.863  24.888   2.234  1.00  0.00     0.000 C 
BRANCH   2   3
ATOM      3  C   UNL     1      -0.201  23.792   2.055  1.00  0.00     0.000 C 
BRANCH   3   4
ATOM      4  C   UNL     1       0.335  22.381   2.352  1.00  0.00     0.000 C 
BRANCH   4   5
ATOM      5  C   UNL     1      -0.763  21.373   2.751  1.00  0.00     0.000 C 
BRANCH   5   6
ATOM      6  C   UNL     1      -1.680  21.922   3.858  1.00  0.00     0.000 C 
BRANCH   6   7
ATOM      7  C   UNL     1      -1.349  21.338   5.240  1.00  0.00     0.006 C 
BRANCH   7   8
ATOM      8  C   UNL     1      -0.484  22.282   6.084  1.00  0.00     0.053 C 
BRANCH   8   9
ATOM      9  C   UNL     1      -0.095  21.623   7.371  1.00  0.00     0.041 C 
ATOM     10  O   UNL     1      -0.872  21.658   8.361  1.00  0.00    -0.550 OA
ATOM     11  O   UNL     1       1.147  21.012   7.490  1.00  0.00    -0.550 OA
ENDBRANCH   8   9
ENDBRANCH   7   8
ENDBRANCH   6   7
ENDBRANCH   5   6
ENDBRANCH   4   5
ENDBRANCH   3   4
ENDBRANCH   2   3
ENDBRANCH   1   2
BRANCH   1  12
ATOM     12  C   UNL     1       3.383  25.307   2.565  1.00  0.00     0.000 C 
BRANCH  12  13
ATOM     13  C   UNL     1       4.424  24.612   3.459  1.00  0.00    -0.000 C 
BRANCH  13  14
ATOM     14  C   UNL     1       4.353  23.079   3.373  1.00  0.00    -0.000 C 
BRANCH  14  15
ATOM     15  C   UNL     1       3.957  22.432   4.711  1.00  0.00    -0.000 C 
BRANCH  15  16
ATOM     16  C   UNL     1       3.601  23.470   5.787  1.00  0.00    -0.000 C 
BRANCH  16  17
ATOM     17  C   UNL     1       4.107  23.077   7.186  1.00  0.00    -0.000 C 
BRANCH  17  18
ATOM     18  C   UNL     1       5.636  23.242   7.319  1.00  0.00    -0.000 C 
BRANCH  18  19
ATOM     19  C   UNL     1       6.127  24.674   7.047  1.00  0.00    -0.003 C 
ATOM     20  C   UNL     1       7.103  24.760   5.875  1.00  0.00     0.004 C 
ENDBRANCH  18  19
ENDBRANCH  17  18
ENDBRANCH  16  17
ENDBRANCH  15  16
ENDBRANCH  14  15
ENDBRANCH  13  14
ENDBRANCH  12  13
ENDBRANCH   1  12
TORSDOF 16
ENDMDL
MODEL 6
REMARK VINA RESULT:    -2.165      1.923      5.676
REMARK INTER + INTRA:          -6.966
REMARK INTER:                  -4.607
REMARK INTRA:                  -2.359
REMARK UNBOUND:                -2.777
REMARK SMILES CCCCCCCCCCCCCCCCCC(=O)[O-]
REMARK SMILES IDX 10 1 11 2 12 3 13 4 14 5 15 6 16 7 17 8 18 9 19 10 20 11
REMARK SMILES IDX 9 12 8 13 7 14 6 15 5 16 4 17 3 18 2 19 1 20
REMARK H PARENT
REMARK Flexibility Score: inf
ROOT
ATOM      1  C   UNL     1       1.945  22.643   6.280  1.00  0.00     0.000 C 
ENDROOT
BRANCH   1   2
ATOM      2  C   UNL     1       3.196  22.016   5.630  1.00  0.00     0.000 C 
BRANCH   2   3
ATOM      3  C   UNL     1       4.266  21.642   6.669  1.00  0.00     0.000 C 
BRANCH   3   4
ATOM      4  C   UNL     1       4.738  22.844   7.504  1.00  0.00     0.000 C 
BRANCH   4   5
ATOM      5  C   UNL     1       6.198  23.258   7.221  1.00  0.00     0.000 C 
BRANCH   5   6
ATOM      6  C   UNL     1       6.298  24.691   6.671  1.00  0.00     0.000 C 
BRANCH   6   7
ATOM      7  C   UNL     1       6.602  24.724   5.165  1.00  0.00     0.006 C 
BRANCH   7   8
ATOM      8  C   UNL     1       5.330  24.685   4.309  1.00  0.00     0.053 C 
BRANCH   8   9
ATOM      9  C   UNL     1       5.493  23.720   3.177  1.00  0.00     0.041 C 
ATOM     10  O   UNL     1       5.917  22.554   3.394  1.00  0.00    -0.550 OA
ATOM     11  O   UNL     1       5.222  24.123   1.875  1.00  0.00    -0.550 OA
ENDBRANCH   8   9
ENDBRANCH   7   8
ENDBRANCH   6   7
ENDBRANCH   5   6
ENDBRANCH   4   5
ENDBRANCH   3   4
ENDBRANCH   2   3
ENDBRANCH   1   2
BRANCH   1  12
ATOM     12  C   UNL     1       1.121  21.646   7.111  1.00  0.00     0.000 C 
BRANCH  12  13
ATOM     13  C   UNL     1      -0.262  21.361   6.501  1.00  0.00    -0.000 C 
BRANCH  13  14
ATOM     14  C   UNL     1      -0.690  22.423   5.476  1.00  0.00    -0.000 C 
BRANCH  14  15
ATOM     15  C   UNL     1      -1.496  21.825   4.310  1.00  0.00    -0.000 C 
BRANCH  15  16
ATOM     16  C   UNL     1      -1.428  22.690   3.041  1.00  0.00    -0.000 C 
BRANCH  16  17
ATOM     17  C   UNL     1      -0.767  24.058   3.286  1.00  0.00    -0.000 C 
BRANCH  17  18
ATOM     18  C   UNL     1       0.357  24.351   2.269  1.00  0.00    -0.000 C 
BRANCH  18  19
ATOM     19  C   UNL     1       1.734  23.823   2.706  1.00  0.00    -0.003 C 
ATOM     20  C   UNL     1       2.071  22.460   2.106  1.00  0.00     0.004 C 
ENDBRANCH  18  19
ENDBRANCH  17  18
ENDBRANCH  16  17
ENDBRANCH  15  16
ENDBRANCH  14  15
ENDBRANCH  13  14
ENDBRANCH  12  13
ENDBRANCH   1  12
TORSDOF 16
ENDMDL
MODEL 7
REMARK VINA RESULT:    -2.051      2.809      6.433
REMARK INTER + INTRA:          -6.747
REMARK INTER:                  -4.332
REMARK INTRA:                  -2.415
REMARK UNBOUND:                -2.777
REMARK SMILES CCCCCCCCCCCCCCCCCC(=O)[O-]
REMARK SMILES IDX 10 1 11 2 12 3 13 4 14 5 15 6 16 7 17 8 18 9 19 10 20 11
REMARK SMILES IDX 9 12 8 13 7 14 6 15 5 16 4 17 3 18 2 19 1 20
REMARK H PARENT
REMARK Flexibility Score: inf
ROOT
ATOM      1  C   UNL     1       2.432  24.209   2.594  1.00  0.00     0.000 C 
ENDROOT
BRANCH   1   2
ATOM      2  C   UNL     1       2.681  25.642   2.080  1.00  0.00     0.000 C 
BRANCH   2   3
ATOM      3  C   UNL     1       4.179  25.969   1.970  1.00  0.00     0.000 C 
BRANCH   3   4
ATOM      4  C   UNL     1       5.079  24.741   2.187  1.00  0.00     0.000 C 
BRANCH   4   5
ATOM      5  C   UNL     1       6.470  25.087   2.761  1.00  0.00     0.000 C 
BRANCH   5   6
ATOM      6  C   UNL     1       6.816  24.237   3.996  1.00  0.00     0.000 C 
BRANCH   6   7
ATOM      7  C   UNL     1       5.580  23.563   4.612  1.00  0.00     0.006 C 
BRANCH   7   8
ATOM      8  C   UNL     1       5.124  24.247   5.908  1.00  0.00     0.053 C 
BRANCH   8   9
ATOM      9  C   UNL     1       5.729  23.568   7.096  1.00  0.00     0.041 C 
ATOM     10  O   UNL     1       6.884  23.884   7.486  1.00  0.00    -0.550 OA
ATOM     11  O   UNL     1       5.038  22.551   7.743  1.00  0.00    -0.550 OA
ENDBRANCH   8   9
ENDBRANCH   7   8
ENDBRANCH   6   7
ENDBRANCH   5   6
ENDBRANCH   4   5
ENDBRANCH   3   4
ENDBRANCH   2   3
ENDBRANCH   1   2
BRANCH   1  12
ATOM     12  C   UNL     1       1.049  23.653   2.217  1.00  0.00     0.000 C 
BRANCH  12  13
ATOM     13  C   UNL     1       1.045  22.124   2.055  1.00  0.00    -0.000 C 
BRANCH  13  14
ATOM     14  C   UNL     1      -0.208  21.466   2.654  1.00  0.00    -0.000 C 
BRANCH  14  15
ATOM     15  C   UNL     1      -0.920  22.373   3.673  1.00  0.00    -0.000 C 
BRANCH  15  16
ATOM     16  C   UNL     1      -1.367  21.611   4.931  1.00  0.00    -0.000 C 
BRANCH  16  17
ATOM     17  C   UNL     1      -0.723  22.156   6.218  1.00  0.00    -0.000 C 
BRANCH  17  18
ATOM     18  C   UNL     1       0.614  22.876   5.941  1.00  0.00    -0.000 C 
BRANCH  18  19
ATOM     19  C   UNL     1       1.846  22.093   6.424  1.00  0.00    -0.003 C 
ATOM     20  C   UNL     1       2.607  21.413   5.287  1.00  0.00     0.004 C 
ENDBRANCH  18  19
ENDBRANCH  17  18
ENDBRANCH  16  17
ENDBRANCH  15  16
ENDBRANCH  14  15
ENDBRANCH  13  14
ENDBRANCH  12  13
ENDBRANCH   1  12
TORSDOF 16
ENDMDL
MODEL 8
REMARK VINA RESULT:    -2.041      2.637      6.587
REMARK INTER + INTRA:          -6.728
REMARK INTER:                  -5.411
REMARK INTRA:                  -1.317
REMARK UNBOUND:                -2.777
REMARK SMILES CCCCCCCCCCCCCCCCCC(=O)[O-]
REMARK SMILES IDX 10 1 11 2 12 3 13 4 14 5 15 6 16 7 17 8 18 9 19 10 20 11
REMARK SMILES IDX 9 12 8 13 7 14 6 15 5 16 4 17 3 18 2 19 1 20
REMARK H PARENT
REMARK Flexibility Score: inf
ROOT
ATOM      1  C   UNL     1       1.497  25.049   1.884  1.00  0.00     0.000 C 
ENDROOT
BRANCH   1   2
ATOM      2  C   UNL     1       2.805  25.807   2.191  1.00  0.00     0.000 C 
BRANCH   2   3
ATOM      3  C   UNL     1       4.010  24.860   2.316  1.00  0.00     0.000 C 
BRANCH   3   4
ATOM      4  C   UNL     1       4.858  25.129   3.571  1.00  0.00     0.000 C 
BRANCH   4   5
ATOM      5  C   UNL     1       6.206  24.376   3.580  1.00  0.00     0.000 C 
BRANCH   5   6
ATOM      6  C   UNL     1       6.504  23.737   4.947  1.00  0.00     0.000 C 
BRANCH   6   7
ATOM      7  C   UNL     1       6.144  24.662   6.121  1.00  0.00     0.006 C 
BRANCH   7   8
ATOM      8  C   UNL     1       5.766  23.883   7.387  1.00  0.00     0.053 C 
BRANCH   8   9
ATOM      9  C   UNL     1       4.548  23.048   7.141  1.00  0.00     0.041 C 
ATOM     10  O   UNL     1       3.424  23.595   6.997  1.00  0.00    -0.550 OA
ATOM     11  O   UNL     1       4.648  21.662   7.120  1.00  0.00    -0.550 OA
ENDBRANCH   8   9
ENDBRANCH   7   8
ENDBRANCH   6   7
ENDBRANCH   5   6
ENDBRANCH   4   5
ENDBRANCH   3   4
ENDBRANCH   2   3
ENDBRANCH   1   2
BRANCH   1  12
ATOM     12  C   UNL     1       1.612  23.527   2.069  1.00  0.00     0.000 C 
BRANCH  12  13
ATOM     13  C   UNL     1       1.023  23.043   3.405  1.00  0.00    -0.000 C 
BRANCH  13  14
ATOM     14  C   UNL     1       2.059  22.330   4.287  1.00  0.00    -0.000 C 
BRANCH  14  15
ATOM     15  C   UNL     1       1.454  21.156   5.076  1.00  0.00    -0.000 C 
BRANCH  15  16
ATOM     16  C   UNL     1       0.091  21.502   5.697  1.00  0.00    -0.000 C 
BRANCH  16  17
ATOM     17  C   UNL     1       0.177  21.782   7.208  1.00  0.00    -0.000 C 
BRANCH  17  18
ATOM     18  C   UNL     1      -1.051  21.240   7.971  1.00  0.00    -0.000 C 
BRANCH  18  19
ATOM     19  C   UNL     1      -1.122  21.711   9.433  1.00  0.00    -0.003 C 
ATOM     20  C   UNL     1      -2.545  22.021   9.894  1.00  0.00     0.004 C 
ENDBRANCH  18  19
ENDBRANCH  17  18
ENDBRANCH  16  17
ENDBRANCH  15  16
ENDBRANCH  14  15
ENDBRANCH  13  14
ENDBRANCH  12  13
ENDBRANCH   1  12
TORSDOF 16
ENDMDL
