MODEL 1
REMARK VINA RESULT:   122.460      0.000      0.000
REMARK INTER + INTRA:         134.022
REMARK INTER:                 133.199
REMARK INTRA:                   0.824
REMARK UNBOUND:                 0.824
REMARK SMILES CC1(C)CC[C@]2(C(=O)[O-])CC[C@@]3(C)C(=CC[C@@H]4[C@]5(C)CC[C@H](O)C(C)(C)[C@@H]5CC[C@]43C)[C@@H]2C1
REMARK SMILES IDX 6 1 5 2 10 3 32 4 4 5 11 6 14 7 33 8 2 9 12 10 15 11 1 12
REMARK SMILES IDX 3 13 13 14 30 15 16 16 17 17 29 18 31 19 18 20 28 21 27 22
REMARK SMILES IDX 20 23 19 24 24 25 21 26 22 27 25 28 26 29 7 30 8 31 9 32
REMARK SMILES IDX 23 33
REMARK H PARENT 23 34
REMARK Flexibility Score: inf
ROOT
ATOM      1  C   UNL     1      -6.651   2.670   3.375  1.00  0.00     0.017 C 
ATOM      2  C   UNL     1      -7.126   4.162   3.377  1.00  0.00     0.014 C 
ATOM      3  C   UNL     1      -5.655   2.481   4.545  1.00  0.00     0.014 C 
ATOM      4  C   UNL     1      -5.918   2.304   2.032  1.00  0.00     0.028 C 
ATOM      5  C   UNL     1      -7.453   4.667   1.965  1.00  0.00     0.007 C 
ATOM      6  C   UNL     1      -5.248   1.020   4.713  1.00  0.00     0.013 C 
ATOM      7  C   UNL     1      -4.968   1.101   2.123  1.00  0.00    -0.064 C 
ATOM      8  C   UNL     1      -5.185   3.551   1.467  1.00  0.00     0.015 C 
ATOM      9  C   UNL     1      -6.186   4.680   1.056  1.00  0.00    -0.035 C 
ATOM     10  C   UNL     1      -4.618   0.346   3.431  1.00  0.00    -0.006 C 
ATOM     11  C   UNL     1      -4.440   0.628   0.966  1.00  0.00    -0.027 C 
ATOM     12  C   UNL     1      -6.620   4.482  -0.417  1.00  0.00     0.011 C 
ATOM     13  C   UNL     1      -5.482   6.051   1.169  1.00  0.00     0.011 C 
ATOM     14  C   UNL     1      -5.402  -1.010   3.296  1.00  0.00     0.017 C 
ATOM     15  C   UNL     1      -2.992   0.118   3.541  1.00  0.00    -0.020 C 
ATOM     16  C   UNL     1      -3.211  -0.247   0.992  1.00  0.00     0.032 C 
ATOM     17  C   UNL     1      -2.294   0.268   2.125  1.00  0.00     0.006 C 
ATOM     18  C   UNL     1      -2.282   1.193   4.413  1.00  0.00     0.008 C 
ATOM     19  C   UNL     1      -2.726  -1.246   4.225  1.00  0.00     0.012 C 
ATOM     20  C   UNL     1      -0.760  -0.092   1.992  1.00  0.00    -0.025 C 
ATOM     21  C   UNL     1      -0.727   1.182   4.390  1.00  0.00     0.005 C 
ATOM     22  C   UNL     1       0.070   0.459   3.235  1.00  0.00     0.003 C 
ATOM     23  C   UNL     1      -0.539  -1.618   1.778  1.00  0.00     0.010 C 
ATOM     24  C   UNL     1      -0.234   0.611   0.685  1.00  0.00     0.012 C 
ATOM     25  C   UNL     1       1.273  -0.466   3.738  1.00  0.00    -0.006 C 
ATOM     26  C   UNL     1       0.942  -2.051   1.707  1.00  0.00     0.033 C 
ATOM     27  C   UNL     1       1.929  -1.173   2.514  1.00  0.00     0.120 C 
ATOM     28  C   UNL     1       0.886  -1.552   4.788  1.00  0.00     0.014 C 
ATOM     29  C   UNL     1       2.353   0.437   4.398  1.00  0.00     0.014 C 
ENDROOT
BRANCH   1  30
ATOM     30  C   UNL     1      -7.891   1.803   3.587  1.00  0.00     0.048 C 
ATOM     31  O   UNL     1      -7.852   0.552   3.426  1.00  0.00    -0.550 OA
ATOM     32  O   UNL     1      -9.115   2.400   3.871  1.00  0.00    -0.550 OA
ENDBRANCH   1  30
BRANCH  27  33
ATOM     33  O   UNL     1       3.009  -1.983   2.931  1.00  0.00    -0.393 OA
ATOM     34  H   UNL     1       3.173  -2.662   2.227  1.00  0.00     0.210 HD
ENDBRANCH  27  33
TORSDOF 2
ENDMDL
