MODEL 1
REMARK VINA RESULT:    -7.803      0.000      0.000
REMARK INTER + INTRA:          -9.704
REMARK INTER:                  -9.399
REMARK INTRA:                  -0.305
REMARK UNBOUND:                -0.305
REMARK SMILES O=c1c(O)c(-c2ccc(O)c(O)c2)oc2cc(O)cc(O)c12
REMARK SMILES IDX 5 1 3 2 2 3 1 4 22 5 20 6 19 7 17 8 16 9 15 10 14 11 6 12
REMARK SMILES IDX 7 13 8 14 9 15 13 16 11 17 10 18 12 20 4 22 21 24 18 26
REMARK H PARENT 10 19 12 21 4 23 21 25 18 27
REMARK Flexibility Score: inf
ROOT
ATOM      1  C   UNL     1      64.756 -16.234 -17.293  1.00  0.00     0.180 A 
ATOM      2  C   UNL     1      64.458 -15.541 -18.479  1.00  0.00     0.208 A 
ATOM      3  C   UNL     1      65.501 -15.234 -19.368  1.00  0.00     0.238 A 
ATOM      4  O   UNL     1      65.238 -14.566 -20.402  1.00  0.00    -0.285 OA
ATOM      5  C   UNL     1      66.825 -15.638 -19.068  1.00  0.00     0.111 A 
ATOM      6  C   UNL     1      67.952 -15.416 -19.916  1.00  0.00     0.134 A 
ATOM      7  C   UNL     1      69.234 -15.742 -19.458  1.00  0.00     0.093 A 
ATOM      8  C   UNL     1      69.423 -16.342 -18.210  1.00  0.00     0.123 A 
ATOM      9  C   UNL     1      68.323 -16.618 -17.401  1.00  0.00     0.094 A 
ATOM     10  C   UNL     1      67.035 -16.271 -17.815  1.00  0.00     0.146 A 
ATOM     11  O   UNL     1      66.015 -16.542 -17.008  1.00  0.00    -0.452 OA
ENDROOT
BRANCH   1  12
ATOM     12  C   UNL     1      63.707 -16.616 -16.320  1.00  0.00     0.025 A 
ATOM     13  C   UNL     1      63.571 -15.884 -15.128  1.00  0.00     0.016 A 
ATOM     14  C   UNL     1      62.602 -16.239 -14.187  1.00  0.00     0.051 A 
ATOM     15  C   UNL     1      61.764 -17.339 -14.414  1.00  0.00     0.157 A 
ATOM     16  C   UNL     1      62.877 -17.730 -16.535  1.00  0.00     0.062 A 
ATOM     17  C   UNL     1      61.907 -18.090 -15.594  1.00  0.00     0.158 A 
BRANCH  15  18
ATOM     18  O   UNL     1      60.797 -17.690 -13.474  1.00  0.00    -0.504 OA
ATOM     19  H   UNL     1      61.033 -17.831 -12.498  1.00  0.00     0.293 HD
ENDBRANCH  15  18
BRANCH  17  20
ATOM     20  O   UNL     1      61.097 -19.198 -15.843  1.00  0.00    -0.504 OA
ATOM     21  H   UNL     1      60.173 -19.292 -15.440  1.00  0.00     0.293 HD
ENDBRANCH  17  20
ENDBRANCH   1  12
BRANCH   2  22
ATOM     22  O   UNL     1      63.149 -15.133 -18.746  1.00  0.00    -0.502 OA
ATOM     23  H   UNL     1      62.921 -14.490 -19.494  1.00  0.00     0.293 HD
ENDBRANCH   2  22
BRANCH   6  24
ATOM     24  O   UNL     1      67.863 -14.908 -21.215  1.00  0.00    -0.507 OA
ATOM     25  H   UNL     1      67.953 -15.459 -22.055  1.00  0.00     0.293 HD
ENDBRANCH   6  24
BRANCH   8  26
ATOM     26  O   UNL     1      70.702 -16.679 -17.769  1.00  0.00    -0.508 OA
ATOM     27  H   UNL     1      71.357 -15.971 -17.456  1.00  0.00     0.293 HD
ENDBRANCH   8  26
TORSDOF 6
ENDMDL
MODEL 2
REMARK VINA RESULT:    -7.519      2.657      7.480
REMARK INTER + INTRA:          -9.363
REMARK INTER:                  -9.290
REMARK INTRA:                  -0.073
REMARK UNBOUND:                -0.305
REMARK SMILES O=c1c(O)c(-c2ccc(O)c(O)c2)oc2cc(O)cc(O)c12
REMARK SMILES IDX 5 1 3 2 2 3 1 4 22 5 20 6 19 7 17 8 16 9 15 10 14 11 6 12
REMARK SMILES IDX 7 13 8 14 9 15 13 16 11 17 10 18 12 20 4 22 21 24 18 26
REMARK H PARENT 10 19 12 21 4 23 21 25 18 27
REMARK Flexibility Score: inf
ROOT
ATOM      1  C   UNL     1      67.770 -14.572 -19.981  1.00  0.00     0.180 A 
ATOM      2  C   UNL     1      66.430 -14.197 -20.175  1.00  0.00     0.208 A 
ATOM      3  C   UNL     1      65.422 -14.898 -19.494  1.00  0.00     0.238 A 
ATOM      4  O   UNL     1      64.220 -14.593 -19.713  1.00  0.00    -0.285 OA
ATOM      5  C   UNL     1      65.767 -15.953 -18.616  1.00  0.00     0.111 A 
ATOM      6  C   UNL     1      64.830 -16.705 -17.844  1.00  0.00     0.134 A 
ATOM      7  C   UNL     1      65.272 -17.811 -17.109  1.00  0.00     0.093 A 
ATOM      8  C   UNL     1      66.626 -18.154 -17.067  1.00  0.00     0.123 A 
ATOM      9  C   UNL     1      67.556 -17.390 -17.769  1.00  0.00     0.094 A 
ATOM     10  C   UNL     1      67.141 -16.302 -18.540  1.00  0.00     0.146 A 
ATOM     11  O   UNL     1      68.058 -15.608 -19.202  1.00  0.00    -0.452 OA
ENDROOT
BRANCH   1  12
ATOM     12  C   UNL     1      68.890 -13.864 -20.644  1.00  0.00     0.025 A 
ATOM     13  C   UNL     1      69.037 -12.479 -20.461  1.00  0.00     0.016 A 
ATOM     14  C   UNL     1      70.073 -11.788 -21.093  1.00  0.00     0.051 A 
ATOM     15  C   UNL     1      70.968 -12.466 -21.929  1.00  0.00     0.157 A 
ATOM     16  C   UNL     1      69.778 -14.538 -21.500  1.00  0.00     0.062 A 
ATOM     17  C   UNL     1      70.816 -13.848 -22.136  1.00  0.00     0.158 A 
BRANCH  15  18
ATOM     18  O   UNL     1      72.003 -11.775 -22.558  1.00  0.00    -0.504 OA
ATOM     19  H   UNL     1      71.899 -11.404 -23.496  1.00  0.00     0.293 HD
ENDBRANCH  15  18
BRANCH  17  20
ATOM     20  O   UNL     1      71.683 -14.549 -22.974  1.00  0.00    -0.504 OA
ATOM     21  H   UNL     1      72.619 -14.810 -22.686  1.00  0.00     0.293 HD
ENDBRANCH  17  20
ENDBRANCH   1  12
BRANCH   2  22
ATOM     22  O   UNL     1      66.109 -13.166 -21.062  1.00  0.00    -0.502 OA
ATOM     23  H   UNL     1      65.378 -12.492 -20.872  1.00  0.00     0.293 HD
ENDBRANCH   2  22
BRANCH   6  24
ATOM     24  O   UNL     1      63.472 -16.391 -17.744  1.00  0.00    -0.507 OA
ATOM     25  H   UNL     1      62.742 -16.810 -18.302  1.00  0.00     0.293 HD
ENDBRANCH   6  24
BRANCH   8  26
ATOM     26  O   UNL     1      67.060 -19.248 -16.320  1.00  0.00    -0.508 OA
ATOM     27  H   UNL     1      66.497 -20.086 -16.233  1.00  0.00     0.293 HD
ENDBRANCH   8  26
TORSDOF 6
ENDMDL
MODEL 3
REMARK VINA RESULT:    -7.502      1.896      3.700
REMARK INTER + INTRA:          -9.342
REMARK INTER:                  -9.043
REMARK INTRA:                  -0.299
REMARK UNBOUND:                -0.305
REMARK SMILES O=c1c(O)c(-c2ccc(O)c(O)c2)oc2cc(O)cc(O)c12
REMARK SMILES IDX 5 1 3 2 2 3 1 4 22 5 20 6 19 7 17 8 16 9 15 10 14 11 6 12
REMARK SMILES IDX 7 13 8 14 9 15 13 16 11 17 10 18 12 20 4 22 21 24 18 26
REMARK H PARENT 10 19 12 21 4 23 21 25 18 27
REMARK Flexibility Score: inf
ROOT
ATOM      1  C   UNL     1      66.119 -16.310 -18.352  1.00  0.00     0.180 A 
ATOM      2  C   UNL     1      67.502 -16.429 -18.127  1.00  0.00     0.208 A 
ATOM      3  C   UNL     1      68.393 -15.955 -19.103  1.00  0.00     0.238 A 
ATOM      4  O   UNL     1      69.629 -16.113 -18.922  1.00  0.00    -0.285 OA
ATOM      5  C   UNL     1      67.891 -15.353 -20.283  1.00  0.00     0.111 A 
ATOM      6  C   UNL     1      68.703 -14.802 -21.320  1.00  0.00     0.134 A 
ATOM      7  C   UNL     1      68.101 -14.351 -22.501  1.00  0.00     0.093 A 
ATOM      8  C   UNL     1      66.713 -14.371 -22.656  1.00  0.00     0.123 A 
ATOM      9  C   UNL     1      65.908 -14.851 -21.625  1.00  0.00     0.094 A 
ATOM     10  C   UNL     1      66.481 -15.342 -20.449  1.00  0.00     0.146 A 
ATOM     11  O   UNL     1      65.679 -15.801 -19.496  1.00  0.00    -0.452 OA
ENDROOT
BRANCH   1  12
ATOM     12  C   UNL     1      65.119 -16.763 -17.358  1.00  0.00     0.025 A 
ATOM     13  C   UNL     1      64.756 -18.119 -17.312  1.00  0.00     0.016 A 
ATOM     14  C   UNL     1      63.799 -18.565 -16.397  1.00  0.00     0.051 A 
ATOM     15  C   UNL     1      63.179 -17.660 -15.525  1.00  0.00     0.157 A 
ATOM     16  C   UNL     1      64.480 -15.855 -16.495  1.00  0.00     0.062 A 
ATOM     17  C   UNL     1      63.520 -16.297 -15.578  1.00  0.00     0.158 A 
BRANCH  15  18
ATOM     18  O   UNL     1      62.226 -18.108 -14.611  1.00  0.00    -0.504 OA
ATOM     19  H   UNL     1      61.659 -18.927 -14.796  1.00  0.00     0.293 HD
ENDBRANCH  15  18
BRANCH  17  20
ATOM     20  O   UNL     1      62.911 -15.371 -14.733  1.00  0.00    -0.504 OA
ATOM     21  H   UNL     1      63.296 -15.131 -13.828  1.00  0.00     0.293 HD
ENDBRANCH  17  20
ENDBRANCH   1  12
BRANCH   2  22
ATOM     22  O   UNL     1      67.976 -17.044 -16.966  1.00  0.00    -0.502 OA
ATOM     23  H   UNL     1      67.805 -18.021 -16.759  1.00  0.00     0.293 HD
ENDBRANCH   2  22
BRANCH   6  24
ATOM     24  O   UNL     1      70.090 -14.651 -21.229  1.00  0.00    -0.507 OA
ATOM     25  H   UNL     1      70.725 -14.687 -22.012  1.00  0.00     0.293 HD
ENDBRANCH   6  24
BRANCH   8  26
ATOM     26  O   UNL     1      66.121 -13.905 -23.828  1.00  0.00    -0.508 OA
ATOM     27  H   UNL     1      65.382 -13.211 -23.808  1.00  0.00     0.293 HD
ENDBRANCH   8  26
TORSDOF 6
ENDMDL
MODEL 4
REMARK VINA RESULT:    -7.349      2.387      7.904
REMARK INTER + INTRA:          -9.158
REMARK INTER:                  -9.067
REMARK INTRA:                  -0.090
REMARK UNBOUND:                -0.305
REMARK SMILES O=c1c(O)c(-c2ccc(O)c(O)c2)oc2cc(O)cc(O)c12
REMARK SMILES IDX 5 1 3 2 2 3 1 4 22 5 20 6 19 7 17 8 16 9 15 10 14 11 6 12
REMARK SMILES IDX 7 13 8 14 9 15 13 16 11 17 10 18 12 20 4 22 21 24 18 26
REMARK H PARENT 10 19 12 21 4 23 21 25 18 27
REMARK Flexibility Score: inf
ROOT
ATOM      1  C   UNL     1      67.967 -14.924 -19.570  1.00  0.00     0.180 A 
ATOM      2  C   UNL     1      68.438 -15.945 -18.726  1.00  0.00     0.208 A 
ATOM      3  C   UNL     1      67.513 -16.679 -17.965  1.00  0.00     0.238 A 
ATOM      4  O   UNL     1      67.945 -17.555 -17.170  1.00  0.00    -0.285 OA
ATOM      5  C   UNL     1      66.130 -16.395 -18.070  1.00  0.00     0.111 A 
ATOM      6  C   UNL     1      65.103 -17.102 -17.376  1.00  0.00     0.134 A 
ATOM      7  C   UNL     1      63.780 -16.650 -17.455  1.00  0.00     0.093 A 
ATOM      8  C   UNL     1      63.439 -15.556 -18.254  1.00  0.00     0.123 A 
ATOM      9  C   UNL     1      64.426 -14.896 -18.983  1.00  0.00     0.094 A 
ATOM     10  C   UNL     1      65.760 -15.301 -18.896  1.00  0.00     0.146 A 
ATOM     11  O   UNL     1      66.671 -14.637 -19.598  1.00  0.00    -0.452 OA
ENDROOT
BRANCH   1  12
ATOM     12  C   UNL     1      68.877 -14.125 -20.422  1.00  0.00     0.025 A 
ATOM     13  C   UNL     1      68.830 -12.722 -20.358  1.00  0.00     0.016 A 
ATOM     14  C   UNL     1      69.664 -11.948 -21.167  1.00  0.00     0.051 A 
ATOM     15  C   UNL     1      70.549 -12.563 -22.063  1.00  0.00     0.157 A 
ATOM     16  C   UNL     1      69.751 -14.737 -21.337  1.00  0.00     0.062 A 
ATOM     17  C   UNL     1      70.588 -13.965 -22.151  1.00  0.00     0.158 A 
BRANCH  15  18
ATOM     18  O   UNL     1      71.382 -11.788 -22.868  1.00  0.00    -0.504 OA
ATOM     19  H   UNL     1      71.072 -10.905 -23.257  1.00  0.00     0.293 HD
ENDBRANCH  15  18
BRANCH  17  20
ATOM     20  O   UNL     1      71.447 -14.606 -23.043  1.00  0.00    -0.504 OA
ATOM     21  H   UNL     1      72.209 -14.121 -23.500  1.00  0.00     0.293 HD
ENDBRANCH  17  20
ENDBRANCH   1  12
BRANCH   2  22
ATOM     22  O   UNL     1      69.808 -16.195 -18.621  1.00  0.00    -0.502 OA
ATOM     23  H   UNL     1      70.504 -15.617 -19.076  1.00  0.00     0.293 HD
ENDBRANCH   2  22
BRANCH   6  24
ATOM     24  O   UNL     1      65.323 -18.261 -16.626  1.00  0.00    -0.507 OA
ATOM     25  H   UNL     1      65.630 -18.274 -15.665  1.00  0.00     0.293 HD
ENDBRANCH   6  24
BRANCH   8  26
ATOM     26  O   UNL     1      62.117 -15.122 -18.340  1.00  0.00    -0.508 OA
ATOM     27  H   UNL     1      61.885 -14.136 -18.389  1.00  0.00     0.293 HD
ENDBRANCH   8  26
TORSDOF 6
ENDMDL
MODEL 5
REMARK VINA RESULT:    -7.326      1.637      2.743
REMARK INTER + INTRA:          -9.130
REMARK INTER:                  -8.819
REMARK INTRA:                  -0.311
REMARK UNBOUND:                -0.305
REMARK SMILES O=c1c(O)c(-c2ccc(O)c(O)c2)oc2cc(O)cc(O)c12
REMARK SMILES IDX 5 1 3 2 2 3 1 4 22 5 20 6 19 7 17 8 16 9 15 10 14 11 6 12
REMARK SMILES IDX 7 13 8 14 9 15 13 16 11 17 10 18 12 20 4 22 21 24 18 26
REMARK H PARENT 10 19 12 21 4 23 21 25 18 27
REMARK Flexibility Score: inf
ROOT
ATOM      1  C   UNL     1      64.865 -16.010 -17.129  1.00  0.00     0.180 A 
ATOM      2  C   UNL     1      65.781 -17.072 -17.228  1.00  0.00     0.208 A 
ATOM      3  C   UNL     1      66.953 -16.892 -17.981  1.00  0.00     0.238 A 
ATOM      4  O   UNL     1      67.743 -17.863 -18.111  1.00  0.00    -0.285 OA
ATOM      5  C   UNL     1      67.202 -15.648 -18.611  1.00  0.00     0.111 A 
ATOM      6  C   UNL     1      68.375 -15.342 -19.364  1.00  0.00     0.134 A 
ATOM      7  C   UNL     1      68.455 -14.125 -20.052  1.00  0.00     0.093 A 
ATOM      8  C   UNL     1      67.432 -13.177 -19.961  1.00  0.00     0.123 A 
ATOM      9  C   UNL     1      66.310 -13.442 -19.179  1.00  0.00     0.094 A 
ATOM     10  C   UNL     1      66.185 -14.662 -18.510  1.00  0.00     0.146 A 
ATOM     11  O   UNL     1      65.094 -14.879 -17.785  1.00  0.00    -0.452 OA
ENDROOT
BRANCH   1  12
ATOM     12  C   UNL     1      63.621 -16.116 -16.333  1.00  0.00     0.025 A 
ATOM     13  C   UNL     1      63.669 -15.908 -14.945  1.00  0.00     0.016 A 
ATOM     14  C   UNL     1      62.512 -16.023 -14.171  1.00  0.00     0.051 A 
ATOM     15  C   UNL     1      61.292 -16.363 -14.770  1.00  0.00     0.157 A 
ATOM     16  C   UNL     1      62.399 -16.476 -16.927  1.00  0.00     0.062 A 
ATOM     17  C   UNL     1      61.238 -16.595 -16.156  1.00  0.00     0.158 A 
BRANCH  15  18
ATOM     18  O   UNL     1      60.137 -16.475 -13.997  1.00  0.00    -0.504 OA
ATOM     19  H   UNL     1      59.436 -15.743 -13.983  1.00  0.00     0.293 HD
ENDBRANCH  15  18
BRANCH  17  20
ATOM     20  O   UNL     1      60.041 -16.947 -16.779  1.00  0.00    -0.504 OA
ATOM     21  H   UNL     1      59.992 -17.171 -17.766  1.00  0.00     0.293 HD
ENDBRANCH  17  20
ENDBRANCH   1  12
BRANCH   2  22
ATOM     22  O   UNL     1      65.507 -18.297 -16.617  1.00  0.00    -0.502 OA
ATOM     23  H   UNL     1      66.174 -18.769 -16.019  1.00  0.00     0.293 HD
ENDBRANCH   2  22
BRANCH   6  24
ATOM     24  O   UNL     1      69.491 -16.179 -19.445  1.00  0.00    -0.507 OA
ATOM     25  H   UNL     1      70.448 -15.870 -19.369  1.00  0.00     0.293 HD
ENDBRANCH   6  24
BRANCH   8  26
ATOM     26  O   UNL     1      67.527 -11.961 -20.635  1.00  0.00    -0.508 OA
ATOM     27  H   UNL     1      68.404 -11.644 -21.034  1.00  0.00     0.293 HD
ENDBRANCH   8  26
TORSDOF 6
ENDMDL
MODEL 6
REMARK VINA RESULT:    -7.185      2.643      4.209
REMARK INTER + INTRA:          -8.960
REMARK INTER:                  -8.976
REMARK INTRA:                   0.016
REMARK UNBOUND:                -0.305
REMARK SMILES O=c1c(O)c(-c2ccc(O)c(O)c2)oc2cc(O)cc(O)c12
REMARK SMILES IDX 5 1 3 2 2 3 1 4 22 5 20 6 19 7 17 8 16 9 15 10 14 11 6 12
REMARK SMILES IDX 7 13 8 14 9 15 13 16 11 17 10 18 12 20 4 22 21 24 18 26
REMARK H PARENT 10 19 12 21 4 23 21 25 18 27
REMARK Flexibility Score: inf
ROOT
ATOM      1  C   UNL     1      66.685 -15.580 -20.248  1.00  0.00     0.180 A 
ATOM      2  C   UNL     1      66.061 -15.499 -21.504  1.00  0.00     0.208 A 
ATOM      3  C   UNL     1      66.696 -14.789 -22.535  1.00  0.00     0.238 A 
ATOM      4  O   UNL     1      66.108 -14.673 -23.642  1.00  0.00    -0.285 OA
ATOM      5  C   UNL     1      67.955 -14.182 -22.301  1.00  0.00     0.111 A 
ATOM      6  C   UNL     1      68.707 -13.472 -23.285  1.00  0.00     0.134 A 
ATOM      7  C   UNL     1      69.877 -12.802 -22.907  1.00  0.00     0.093 A 
ATOM      8  C   UNL     1      70.355 -12.869 -21.596  1.00  0.00     0.123 A 
ATOM      9  C   UNL     1      69.659 -13.610 -20.643  1.00  0.00     0.094 A 
ATOM     10  C   UNL     1      68.470 -14.260 -20.981  1.00  0.00     0.146 A 
ATOM     11  O   UNL     1      67.832 -14.946 -20.039  1.00  0.00    -0.452 OA
ENDROOT
BRANCH   1  12
ATOM     12  C   UNL     1      66.089 -16.333 -19.120  1.00  0.00     0.025 A 
ATOM     13  C   UNL     1      64.765 -16.066 -18.734  1.00  0.00     0.016 A 
ATOM     14  C   UNL     1      64.189 -16.749 -17.660  1.00  0.00     0.051 A 
ATOM     15  C   UNL     1      64.932 -17.698 -16.946  1.00  0.00     0.157 A 
ATOM     16  C   UNL     1      66.837 -17.271 -18.387  1.00  0.00     0.062 A 
ATOM     17  C   UNL     1      66.265 -17.956 -17.310  1.00  0.00     0.158 A 
BRANCH  15  18
ATOM     18  O   UNL     1      64.355 -18.380 -15.876  1.00  0.00    -0.504 OA
ATOM     19  H   UNL     1      64.538 -18.111 -14.915  1.00  0.00     0.293 HD
ENDBRANCH  15  18
BRANCH  17  20
ATOM     20  O   UNL     1      67.035 -18.884 -16.610  1.00  0.00    -0.504 OA
ATOM     21  H   UNL     1      67.238 -19.804 -16.979  1.00  0.00     0.293 HD
ENDBRANCH  17  20
ENDBRANCH   1  12
BRANCH   2  22
ATOM     22  O   UNL     1      64.810 -16.087 -21.708  1.00  0.00    -0.502 OA
ATOM     23  H   UNL     1      63.959 -15.711 -21.307  1.00  0.00     0.293 HD
ENDBRANCH   2  22
BRANCH   6  24
ATOM     24  O   UNL     1      68.367 -13.418 -24.639  1.00  0.00    -0.507 OA
ATOM     25  H   UNL     1      67.506 -13.769 -25.030  1.00  0.00     0.293 HD
ENDBRANCH   6  24
BRANCH   8  26
ATOM     26  O   UNL     1      71.529 -12.213 -21.232  1.00  0.00    -0.508 OA
ATOM     27  H   UNL     1      72.360 -12.255 -21.811  1.00  0.00     0.293 HD
ENDBRANCH   8  26
TORSDOF 6
ENDMDL
MODEL 7
REMARK VINA RESULT:    -7.142      3.495      5.837
REMARK INTER + INTRA:          -8.908
REMARK INTER:                  -8.617
REMARK INTRA:                  -0.291
REMARK UNBOUND:                -0.305
REMARK SMILES O=c1c(O)c(-c2ccc(O)c(O)c2)oc2cc(O)cc(O)c12
REMARK SMILES IDX 5 1 3 2 2 3 1 4 22 5 20 6 19 7 17 8 16 9 15 10 14 11 6 12
REMARK SMILES IDX 7 13 8 14 9 15 13 16 11 17 10 18 12 20 4 22 21 24 18 26
REMARK H PARENT 10 19 12 21 4 23 21 25 18 27
REMARK Flexibility Score: inf
ROOT
ATOM      1  C   UNL     1      67.387 -14.434 -20.076  1.00  0.00     0.180 A 
ATOM      2  C   UNL     1      67.172 -13.116 -19.638  1.00  0.00     0.208 A 
ATOM      3  C   UNL     1      67.201 -12.073 -20.578  1.00  0.00     0.238 A 
ATOM      4  O   UNL     1      67.062 -10.890 -20.172  1.00  0.00    -0.285 OA
ATOM      5  C   UNL     1      67.429 -12.363 -21.945  1.00  0.00     0.111 A 
ATOM      6  C   UNL     1      67.440 -11.389 -22.989  1.00  0.00     0.134 A 
ATOM      7  C   UNL     1      67.805 -11.771 -24.285  1.00  0.00     0.093 A 
ATOM      8  C   UNL     1      68.097 -13.103 -24.588  1.00  0.00     0.123 A 
ATOM      9  C   UNL     1      68.031 -14.071 -23.589  1.00  0.00     0.094 A 
ATOM     10  C   UNL     1      67.705 -13.715 -22.278  1.00  0.00     0.146 A 
ATOM     11  O   UNL     1      67.663 -14.667 -21.353  1.00  0.00    -0.452 OA
ENDROOT
BRANCH   1  12
ATOM     12  C   UNL     1      67.346 -15.588 -19.149  1.00  0.00     0.025 A 
ATOM     13  C   UNL     1      66.171 -16.351 -19.047  1.00  0.00     0.016 A 
ATOM     14  C   UNL     1      66.102 -17.431 -18.164  1.00  0.00     0.051 A 
ATOM     15  C   UNL     1      67.202 -17.757 -17.358  1.00  0.00     0.157 A 
ATOM     16  C   UNL     1      68.439 -15.906 -18.324  1.00  0.00     0.062 A 
ATOM     17  C   UNL     1      68.374 -16.986 -17.437  1.00  0.00     0.158 A 
BRANCH  15  18
ATOM     18  O   UNL     1      67.132 -18.836 -16.480  1.00  0.00    -0.504 OA
ATOM     19  H   UNL     1      66.242 -19.228 -16.191  1.00  0.00     0.293 HD
ENDBRANCH  15  18
BRANCH  17  20
ATOM     20  O   UNL     1      69.480 -17.276 -16.638  1.00  0.00    -0.504 OA
ATOM     21  H   UNL     1      69.387 -17.678 -15.714  1.00  0.00     0.293 HD
ENDBRANCH  17  20
ENDBRANCH   1  12
BRANCH   2  22
ATOM     22  O   UNL     1      66.970 -12.850 -18.281  1.00  0.00    -0.502 OA
ATOM     23  H   UNL     1      66.220 -13.274 -17.749  1.00  0.00     0.293 HD
ENDBRANCH   2  22
BRANCH   6  24
ATOM     24  O   UNL     1      67.076 -10.051 -22.812  1.00  0.00    -0.507 OA
ATOM     25  H   UNL     1      66.694  -9.667 -21.961  1.00  0.00     0.293 HD
ENDBRANCH   6  24
BRANCH   8  26
ATOM     26  O   UNL     1      68.444 -13.478 -25.885  1.00  0.00    -0.508 OA
ATOM     27  H   UNL     1      67.772 -13.910 -26.509  1.00  0.00     0.293 HD
ENDBRANCH   8  26
TORSDOF 6
ENDMDL
MODEL 8
REMARK VINA RESULT:    -7.101      2.704      4.266
REMARK INTER + INTRA:          -8.859
REMARK INTER:                  -8.850
REMARK INTRA:                  -0.009
REMARK UNBOUND:                -0.305
REMARK SMILES O=c1c(O)c(-c2ccc(O)c(O)c2)oc2cc(O)cc(O)c12
REMARK SMILES IDX 5 1 3 2 2 3 1 4 22 5 20 6 19 7 17 8 16 9 15 10 14 11 6 12
REMARK SMILES IDX 7 13 8 14 9 15 13 16 11 17 10 18 12 20 4 22 21 24 18 26
REMARK H PARENT 10 19 12 21 4 23 21 25 18 27
REMARK Flexibility Score: inf
ROOT
ATOM      1  C   UNL     1      67.163 -14.961 -19.287  1.00  0.00     0.180 A 
ATOM      2  C   UNL     1      66.953 -13.587 -19.076  1.00  0.00     0.208 A 
ATOM      3  C   UNL     1      67.687 -12.663 -19.837  1.00  0.00     0.238 A 
ATOM      4  O   UNL     1      67.534 -11.434 -19.607  1.00  0.00    -0.285 OA
ATOM      5  C   UNL     1      68.609 -13.122 -20.808  1.00  0.00     0.111 A 
ATOM      6  C   UNL     1      69.377 -12.274 -21.661  1.00  0.00     0.134 A 
ATOM      7  C   UNL     1      70.354 -12.835 -22.493  1.00  0.00     0.093 A 
ATOM      8  C   UNL     1      70.546 -14.218 -22.548  1.00  0.00     0.123 A 
ATOM      9  C   UNL     1      69.760 -15.058 -21.763  1.00  0.00     0.094 A 
ATOM     10  C   UNL     1      68.803 -14.526 -20.896  1.00  0.00     0.146 A 
ATOM     11  O   UNL     1      68.082 -15.361 -20.157  1.00  0.00    -0.452 OA
ENDROOT
BRANCH   1  12
ATOM     12  C   UNL     1      66.409 -15.996 -18.542  1.00  0.00     0.025 A 
ATOM     13  C   UNL     1      65.006 -15.934 -18.503  1.00  0.00     0.016 A 
ATOM     14  C   UNL     1      64.276 -16.887 -17.790  1.00  0.00     0.051 A 
ATOM     15  C   UNL     1      64.936 -17.908 -17.093  1.00  0.00     0.157 A 
ATOM     16  C   UNL     1      67.068 -17.010 -17.825  1.00  0.00     0.062 A 
ATOM     17  C   UNL     1      66.340 -17.965 -17.108  1.00  0.00     0.158 A 
BRANCH  15  18
ATOM     18  O   UNL     1      64.204 -18.859 -16.384  1.00  0.00    -0.504 OA
ATOM     19  H   UNL     1      64.429 -19.092 -15.423  1.00  0.00     0.293 HD
ENDBRANCH  15  18
BRANCH  17  20
ATOM     20  O   UNL     1      67.026 -18.961 -16.414  1.00  0.00    -0.504 OA
ATOM     21  H   UNL     1      68.028 -19.085 -16.498  1.00  0.00     0.293 HD
ENDBRANCH  17  20
ENDBRANCH   1  12
BRANCH   2  22
ATOM     22  O   UNL     1      66.053 -13.155 -18.099  1.00  0.00    -0.502 OA
ATOM     23  H   UNL     1      65.646 -13.783 -17.418  1.00  0.00     0.293 HD
ENDBRANCH   2  22
BRANCH   6  24
ATOM     24  O   UNL     1      69.201 -10.890 -21.751  1.00  0.00    -0.507 OA
ATOM     25  H   UNL     1      69.939 -10.227 -21.930  1.00  0.00     0.293 HD
ENDBRANCH   6  24
BRANCH   8  26
ATOM     26  O   UNL     1      71.510 -14.769 -23.391  1.00  0.00    -0.508 OA
ATOM     27  H   UNL     1      72.238 -14.198 -23.807  1.00  0.00     0.293 HD
ENDBRANCH   8  26
TORSDOF 6
ENDMDL
MODEL 9
REMARK VINA RESULT:    -7.071      3.965      8.317
REMARK INTER + INTRA:          -8.823
REMARK INTER:                  -8.506
REMARK INTRA:                  -0.317
REMARK UNBOUND:                -0.305
REMARK SMILES O=c1c(O)c(-c2ccc(O)c(O)c2)oc2cc(O)cc(O)c12
REMARK SMILES IDX 5 1 3 2 2 3 1 4 22 5 20 6 19 7 17 8 16 9 15 10 14 11 6 12
REMARK SMILES IDX 7 13 8 14 9 15 13 16 11 17 10 18 12 20 4 22 21 24 18 26
REMARK H PARENT 10 19 12 21 4 23 21 25 18 27
REMARK Flexibility Score: inf
ROOT
ATOM      1  C   UNL     1      68.704 -13.204 -20.892  1.00  0.00     0.180 A 
ATOM      2  C   UNL     1      67.631 -13.500 -21.750  1.00  0.00     0.208 A 
ATOM      3  C   UNL     1      66.817 -14.609 -21.465  1.00  0.00     0.238 A 
ATOM      4  O   UNL     1      65.891 -14.901 -22.266  1.00  0.00    -0.285 OA
ATOM      5  C   UNL     1      67.076 -15.397 -20.317  1.00  0.00     0.111 A 
ATOM      6  C   UNL     1      66.292 -16.518 -19.910  1.00  0.00     0.134 A 
ATOM      7  C   UNL     1      66.718 -17.303 -18.832  1.00  0.00     0.093 A 
ATOM      8  C   UNL     1      67.865 -16.969 -18.106  1.00  0.00     0.123 A 
ATOM      9  C   UNL     1      68.603 -15.842 -18.458  1.00  0.00     0.094 A 
ATOM     10  C   UNL     1      68.224 -15.060 -19.552  1.00  0.00     0.146 A 
ATOM     11  O   UNL     1      68.962 -14.000 -19.861  1.00  0.00    -0.452 OA
ENDROOT
BRANCH   1  12
ATOM     12  C   UNL     1      69.589 -12.038 -21.112  1.00  0.00     0.025 A 
ATOM     13  C   UNL     1      69.200 -10.775 -20.636  1.00  0.00     0.016 A 
ATOM     14  C   UNL     1      70.010  -9.657 -20.851  1.00  0.00     0.051 A 
ATOM     15  C   UNL     1      71.213  -9.782 -21.558  1.00  0.00     0.157 A 
ATOM     16  C   UNL     1      70.788 -12.155 -21.838  1.00  0.00     0.062 A 
ATOM     17  C   UNL     1      71.601 -11.037 -22.058  1.00  0.00     0.158 A 
BRANCH  15  18
ATOM     18  O   UNL     1      72.021  -8.665 -21.770  1.00  0.00    -0.504 OA
ATOM     19  H   UNL     1      72.296  -8.380 -22.703  1.00  0.00     0.293 HD
ENDBRANCH  15  18
BRANCH  17  20
ATOM     20  O   UNL     1      72.786 -11.190 -22.776  1.00  0.00    -0.504 OA
ATOM     21  H   UNL     1      72.793 -11.437 -23.758  1.00  0.00     0.293 HD
ENDBRANCH  17  20
ENDBRANCH   1  12
BRANCH   2  22
ATOM     22  O   UNL     1      67.405 -12.723 -22.888  1.00  0.00    -0.502 OA
ATOM     23  H   UNL     1      67.670 -13.026 -23.817  1.00  0.00     0.293 HD
ENDBRANCH   2  22
BRANCH   6  24
ATOM     24  O   UNL     1      65.083 -16.884 -20.509  1.00  0.00    -0.507 OA
ATOM     25  H   UNL     1      64.930 -16.946 -21.504  1.00  0.00     0.293 HD
ENDBRANCH   6  24
BRANCH   8  26
ATOM     26  O   UNL     1      68.273 -17.746 -17.024  1.00  0.00    -0.508 OA
ATOM     27  H   UNL     1      68.615 -17.324 -16.168  1.00  0.00     0.293 HD
ENDBRANCH   8  26
TORSDOF 6
ENDMDL
