MODEL 1
REMARK VINA RESULT:    -4.993      0.000      0.000
REMARK INTER + INTRA:         -10.350
REMARK INTER:                  -9.079
REMARK INTRA:                  -1.272
REMARK UNBOUND:                -1.272
REMARK SMILES CCCCCCCCCCCCCCCC(=O)[O-]
REMARK SMILES IDX 9 1 10 2 11 3 12 4 13 5 14 6 15 7 16 8 17 9 18 10 8 11 7 12
REMARK SMILES IDX 6 13 5 14 4 15 3 16 2 17 1 18
REMARK H PARENT
REMARK Flexibility Score: inf
ROOT
ATOM      1  C   UNL     1     -19.849  41.285  88.115  1.00  0.00     0.000 C 
ENDROOT
BRANCH   1   2
ATOM      2  C   UNL     1     -20.384  40.907  86.722  1.00  0.00     0.000 C 
BRANCH   2   3
ATOM      3  C   UNL     1     -21.304  39.674  86.754  1.00  0.00     0.000 C 
BRANCH   3   4
ATOM      4  C   UNL     1     -20.547  38.359  86.506  1.00  0.00     0.000 C 
BRANCH   4   5
ATOM      5  C   UNL     1     -20.163  38.093  85.037  1.00  0.00     0.000 C 
BRANCH   5   6
ATOM      6  C   UNL     1     -18.862  37.278  84.871  1.00  0.00     0.006 C 
BRANCH   6   7
ATOM      7  C   UNL     1     -18.441  37.151  83.401  1.00  0.00     0.053 C 
BRANCH   7   8
ATOM      8  C   UNL     1     -17.127  36.444  83.292  1.00  0.00     0.041 C 
ATOM      9  O   UNL     1     -16.056  37.104  83.222  1.00  0.00    -0.550 OA
ATOM     10  O   UNL     1     -17.087  35.058  83.220  1.00  0.00    -0.550 OA
ENDBRANCH   7   8
ENDBRANCH   6   7
ENDBRANCH   5   6
ENDBRANCH   4   5
ENDBRANCH   3   4
ENDBRANCH   2   3
ENDBRANCH   1   2
BRANCH   1  11
ATOM     11  C   UNL     1     -20.891  41.889  89.079  1.00  0.00     0.000 C 
BRANCH  11  12
ATOM     12  C   UNL     1     -20.998  41.197  90.449  1.00  0.00    -0.000 C 
BRANCH  12  13
ATOM     13  C   UNL     1     -19.626  40.901  91.078  1.00  0.00    -0.000 C 
BRANCH  13  14
ATOM     14  C   UNL     1     -19.513  39.457  91.595  1.00  0.00    -0.000 C 
BRANCH  14  15
ATOM     15  C   UNL     1     -20.432  38.483  90.840  1.00  0.00    -0.000 C 
BRANCH  15  16
ATOM     16  C   UNL     1     -19.757  37.859  89.607  1.00  0.00    -0.000 C 
BRANCH  16  17
ATOM     17  C   UNL     1     -18.359  37.274  89.901  1.00  0.00    -0.003 C 
ATOM     18  C   UNL     1     -18.113  35.955  89.169  1.00  0.00     0.004 C 
ENDBRANCH  16  17
ENDBRANCH  15  16
ENDBRANCH  14  15
ENDBRANCH  13  14
ENDBRANCH  12  13
ENDBRANCH  11  12
ENDBRANCH   1  11
TORSDOF 14
ENDMDL
MODEL 2
REMARK VINA RESULT:    -4.976      7.559     10.511
REMARK INTER + INTRA:         -10.320
REMARK INTER:                  -9.214
REMARK INTRA:                  -1.106
REMARK UNBOUND:                -1.272
REMARK SMILES CCCCCCCCCCCCCCCC(=O)[O-]
REMARK SMILES IDX 9 1 10 2 11 3 12 4 13 5 14 6 15 7 16 8 17 9 18 10 8 11 7 12
REMARK SMILES IDX 6 13 5 14 4 15 3 16 2 17 1 18
REMARK H PARENT
REMARK Flexibility Score: inf
ROOT
ATOM      1  C   UNL     1     -21.377  45.546  86.491  1.00  0.00     0.000 C 
ENDROOT
BRANCH   1   2
ATOM      2  C   UNL     1     -22.815  46.073  86.643  1.00  0.00     0.000 C 
BRANCH   2   3
ATOM      3  C   UNL     1     -23.222  46.273  88.113  1.00  0.00     0.000 C 
BRANCH   3   4
ATOM      4  C   UNL     1     -24.049  45.100  88.666  1.00  0.00     0.000 C 
BRANCH   4   5
ATOM      5  C   UNL     1     -25.309  45.506  89.457  1.00  0.00     0.000 C 
BRANCH   5   6
ATOM      6  C   UNL     1     -26.540  44.622  89.164  1.00  0.00     0.006 C 
BRANCH   6   7
ATOM      7  C   UNL     1     -27.389  44.375  90.418  1.00  0.00     0.053 C 
BRANCH   7   8
ATOM      8  C   UNL     1     -28.291  43.199  90.216  1.00  0.00     0.041 C 
ATOM      9  O   UNL     1     -28.947  42.729  91.183  1.00  0.00    -0.550 OA
ATOM     10  O   UNL     1     -28.371  42.591  88.970  1.00  0.00    -0.550 OA
ENDBRANCH   7   8
ENDBRANCH   6   7
ENDBRANCH   5   6
ENDBRANCH   4   5
ENDBRANCH   3   4
ENDBRANCH   2   3
ENDBRANCH   1   2
BRANCH   1  11
ATOM     11  C   UNL     1     -21.243  44.011  86.413  1.00  0.00     0.000 C 
BRANCH  11  12
ATOM     12  C   UNL     1     -20.004  43.497  85.657  1.00  0.00    -0.000 C 
BRANCH  12  13
ATOM     13  C   UNL     1     -18.838  44.501  85.668  1.00  0.00    -0.000 C 
BRANCH  13  14
ATOM     14  C   UNL     1     -18.258  44.746  84.265  1.00  0.00    -0.000 C 
BRANCH  14  15
ATOM     15  C   UNL     1     -17.896  46.220  84.021  1.00  0.00    -0.000 C 
BRANCH  15  16
ATOM     16  C   UNL     1     -19.131  47.125  83.887  1.00  0.00    -0.000 C 
BRANCH  16  17
ATOM     17  C   UNL     1     -19.834  47.008  82.517  1.00  0.00    -0.003 C 
ATOM     18  C   UNL     1     -21.218  46.368  82.624  1.00  0.00     0.004 C 
ENDBRANCH  16  17
ENDBRANCH  15  16
ENDBRANCH  14  15
ENDBRANCH  13  14
ENDBRANCH  12  13
ENDBRANCH  11  12
ENDBRANCH   1  11
TORSDOF 14
ENDMDL
MODEL 3
REMARK VINA RESULT:    -4.974      7.208      9.976
REMARK INTER + INTRA:         -10.316
REMARK INTER:                  -9.080
REMARK INTRA:                  -1.236
REMARK UNBOUND:                -1.272
REMARK SMILES CCCCCCCCCCCCCCCC(=O)[O-]
REMARK SMILES IDX 9 1 10 2 11 3 12 4 13 5 14 6 15 7 16 8 17 9 18 10 8 11 7 12
REMARK SMILES IDX 6 13 5 14 4 15 3 16 2 17 1 18
REMARK H PARENT
REMARK Flexibility Score: inf
ROOT
ATOM      1  C   UNL     1     -23.126  46.130  86.455  1.00  0.00     0.000 C 
ENDROOT
BRANCH   1   2
ATOM      2  C   UNL     1     -24.286  46.862  87.153  1.00  0.00     0.000 C 
BRANCH   2   3
ATOM      3  C   UNL     1     -25.588  46.043  87.156  1.00  0.00     0.000 C 
BRANCH   3   4
ATOM      4  C   UNL     1     -26.101  45.745  88.575  1.00  0.00     0.000 C 
BRANCH   4   5
ATOM      5  C   UNL     1     -25.166  44.874  89.437  1.00  0.00     0.000 C 
BRANCH   5   6
ATOM      6  C   UNL     1     -25.908  43.967  90.442  1.00  0.00     0.006 C 
BRANCH   6   7
ATOM      7  C   UNL     1     -27.386  44.352  90.589  1.00  0.00     0.053 C 
BRANCH   7   8
ATOM      8  C   UNL     1     -28.264  43.177  90.298  1.00  0.00     0.041 C 
ATOM      9  O   UNL     1     -29.063  42.749  91.173  1.00  0.00    -0.550 OA
ATOM     10  O   UNL     1     -28.167  42.523  89.076  1.00  0.00    -0.550 OA
ENDBRANCH   7   8
ENDBRANCH   6   7
ENDBRANCH   5   6
ENDBRANCH   4   5
ENDBRANCH   3   4
ENDBRANCH   2   3
ENDBRANCH   1   2
BRANCH   1  11
ATOM     11  C   UNL     1     -22.106  45.461  87.400  1.00  0.00     0.000 C 
BRANCH  11  12
ATOM     12  C   UNL     1     -22.129  43.922  87.410  1.00  0.00    -0.000 C 
BRANCH  12  13
ATOM     13  C   UNL     1     -20.720  43.304  87.423  1.00  0.00    -0.000 C 
BRANCH  13  14
ATOM     14  C   UNL     1     -20.248  42.886  86.020  1.00  0.00    -0.000 C 
BRANCH  14  15
ATOM     15  C   UNL     1     -19.190  43.839  85.441  1.00  0.00    -0.000 C 
BRANCH  15  16
ATOM     16  C   UNL     1     -19.800  44.956  84.579  1.00  0.00    -0.000 C 
BRANCH  16  17
ATOM     17  C   UNL     1     -18.767  45.997  84.097  1.00  0.00    -0.003 C 
ATOM     18  C   UNL     1     -17.348  45.670  84.564  1.00  0.00     0.004 C 
ENDBRANCH  16  17
ENDBRANCH  15  16
ENDBRANCH  14  15
ENDBRANCH  13  14
ENDBRANCH  12  13
ENDBRANCH  11  12
ENDBRANCH   1  11
TORSDOF 14
ENDMDL
MODEL 4
REMARK VINA RESULT:    -4.963      2.993      5.344
REMARK INTER + INTRA:         -10.296
REMARK INTER:                  -9.393
REMARK INTRA:                  -0.904
REMARK UNBOUND:                -1.272
REMARK SMILES CCCCCCCCCCCCCCCC(=O)[O-]
REMARK SMILES IDX 9 1 10 2 11 3 12 4 13 5 14 6 15 7 16 8 17 9 18 10 8 11 7 12
REMARK SMILES IDX 6 13 5 14 4 15 3 16 2 17 1 18
REMARK H PARENT
REMARK Flexibility Score: inf
ROOT
ATOM      1  C   UNL     1     -20.420  40.806  87.138  1.00  0.00     0.000 C 
ENDROOT
BRANCH   1   2
ATOM      2  C   UNL     1     -21.241  39.556  86.774  1.00  0.00     0.000 C 
BRANCH   2   3
ATOM      3  C   UNL     1     -20.361  38.319  86.526  1.00  0.00     0.000 C 
BRANCH   3   4
ATOM      4  C   UNL     1     -19.525  38.430  85.240  1.00  0.00     0.000 C 
BRANCH   4   5
ATOM      5  C   UNL     1     -19.908  37.436  84.125  1.00  0.00     0.000 C 
BRANCH   5   6
ATOM      6  C   UNL     1     -18.761  37.137  83.136  1.00  0.00     0.006 C 
BRANCH   6   7
ATOM      7  C   UNL     1     -17.389  37.132  83.822  1.00  0.00     0.053 C 
BRANCH   7   8
ATOM      8  C   UNL     1     -16.963  35.732  84.132  1.00  0.00     0.041 C 
ATOM      9  O   UNL     1     -16.643  35.412  85.307  1.00  0.00    -0.550 OA
ATOM     10  O   UNL     1     -16.873  34.792  83.113  1.00  0.00    -0.550 OA
ENDBRANCH   7   8
ENDBRANCH   6   7
ENDBRANCH   5   6
ENDBRANCH   4   5
ENDBRANCH   3   4
ENDBRANCH   2   3
ENDBRANCH   1   2
BRANCH   1  11
ATOM     11  C   UNL     1     -21.097  42.154  86.821  1.00  0.00     0.000 C 
BRANCH  11  12
ATOM     12  C   UNL     1     -20.854  43.271  87.852  1.00  0.00    -0.000 C 
BRANCH  12  13
ATOM     13  C   UNL     1     -20.447  44.605  87.202  1.00  0.00    -0.000 C 
BRANCH  13  14
ATOM     14  C   UNL     1     -21.053  44.787  85.801  1.00  0.00    -0.000 C 
BRANCH  14  15
ATOM     15  C   UNL     1     -20.003  45.167  84.744  1.00  0.00    -0.000 C 
BRANCH  15  16
ATOM     16  C   UNL     1     -18.678  44.407  84.919  1.00  0.00    -0.000 C 
BRANCH  16  17
ATOM     17  C   UNL     1     -17.429  45.296  84.736  1.00  0.00    -0.003 C 
ATOM     18  C   UNL     1     -17.776  46.687  84.206  1.00  0.00     0.004 C 
ENDBRANCH  16  17
ENDBRANCH  15  16
ENDBRANCH  14  15
ENDBRANCH  13  14
ENDBRANCH  12  13
ENDBRANCH  11  12
ENDBRANCH   1  11
TORSDOF 14
ENDMDL
MODEL 5
REMARK VINA RESULT:    -4.928      4.820      7.596
REMARK INTER + INTRA:         -10.234
REMARK INTER:                  -8.751
REMARK INTRA:                  -1.483
REMARK UNBOUND:                -1.272
REMARK SMILES CCCCCCCCCCCCCCCC(=O)[O-]
REMARK SMILES IDX 9 1 10 2 11 3 12 4 13 5 14 6 15 7 16 8 17 9 18 10 8 11 7 12
REMARK SMILES IDX 6 13 5 14 4 15 3 16 2 17 1 18
REMARK H PARENT
REMARK Flexibility Score: inf
ROOT
ATOM      1  C   UNL     1     -19.500  43.494  85.311  1.00  0.00     0.000 C 
ENDROOT
BRANCH   1   2
ATOM      2  C   UNL     1     -20.225  42.838  86.499  1.00  0.00     0.000 C 
BRANCH   2   3
ATOM      3  C   UNL     1     -19.893  41.342  86.645  1.00  0.00     0.000 C 
BRANCH   3   4
ATOM      4  C   UNL     1     -21.110  40.500  87.063  1.00  0.00     0.000 C 
BRANCH   4   5
ATOM      5  C   UNL     1     -20.965  38.983  86.832  1.00  0.00     0.000 C 
BRANCH   5   6
ATOM      6  C   UNL     1     -20.391  38.220  88.045  1.00  0.00     0.006 C 
BRANCH   6   7
ATOM      7  C   UNL     1     -20.519  39.020  89.348  1.00  0.00     0.053 C 
BRANCH   7   8
ATOM      8  C   UNL     1     -19.171  39.250  89.955  1.00  0.00     0.041 C 
ATOM      9  O   UNL     1     -18.683  40.411  89.994  1.00  0.00    -0.550 OA
ATOM     10  O   UNL     1     -18.432  38.176  90.434  1.00  0.00    -0.550 OA
ENDBRANCH   7   8
ENDBRANCH   6   7
ENDBRANCH   5   6
ENDBRANCH   4   5
ENDBRANCH   3   4
ENDBRANCH   2   3
ENDBRANCH   1   2
BRANCH   1  11
ATOM     11  C   UNL     1     -18.374  44.478  85.688  1.00  0.00     0.000 C 
BRANCH  11  12
ATOM     12  C   UNL     1     -17.931  45.433  84.565  1.00  0.00    -0.000 C 
BRANCH  12  13
ATOM     13  C   UNL     1     -18.709  45.217  83.256  1.00  0.00    -0.000 C 
BRANCH  13  14
ATOM     14  C   UNL     1     -19.472  46.475  82.809  1.00  0.00    -0.000 C 
BRANCH  14  15
ATOM     15  C   UNL     1     -20.977  46.395  83.112  1.00  0.00    -0.000 C 
BRANCH  15  16
ATOM     16  C   UNL     1     -21.355  47.065  84.444  1.00  0.00    -0.000 C 
BRANCH  16  17
ATOM     17  C   UNL     1     -22.105  46.128  85.414  1.00  0.00    -0.003 C 
ATOM     18  C   UNL     1     -21.632  46.284  86.859  1.00  0.00     0.004 C 
ENDBRANCH  16  17
ENDBRANCH  15  16
ENDBRANCH  14  15
ENDBRANCH  13  14
ENDBRANCH  12  13
ENDBRANCH  11  12
ENDBRANCH   1  11
TORSDOF 14
ENDMDL
MODEL 6
REMARK VINA RESULT:    -4.847      7.893     10.818
REMARK INTER + INTRA:         -10.086
REMARK INTER:                  -9.177
REMARK INTRA:                  -0.909
REMARK UNBOUND:                -1.272
REMARK SMILES CCCCCCCCCCCCCCCC(=O)[O-]
REMARK SMILES IDX 9 1 10 2 11 3 12 4 13 5 14 6 15 7 16 8 17 9 18 10 8 11 7 12
REMARK SMILES IDX 6 13 5 14 4 15 3 16 2 17 1 18
REMARK H PARENT
REMARK Flexibility Score: inf
ROOT
ATOM      1  C   UNL     1     -22.998  46.545  86.500  1.00  0.00     0.000 C 
ENDROOT
BRANCH   1   2
ATOM      2  C   UNL     1     -24.454  46.831  86.089  1.00  0.00     0.000 C 
BRANCH   2   3
ATOM      3  C   UNL     1     -25.474  46.044  86.929  1.00  0.00     0.000 C 
BRANCH   3   4
ATOM      4  C   UNL     1     -26.195  46.921  87.966  1.00  0.00     0.000 C 
BRANCH   4   5
ATOM      5  C   UNL     1     -25.743  46.712  89.425  1.00  0.00     0.000 C 
BRANCH   5   6
ATOM      6  C   UNL     1     -26.001  45.287  89.959  1.00  0.00     0.006 C 
BRANCH   6   7
ATOM      7  C   UNL     1     -27.425  45.120  90.506  1.00  0.00     0.053 C 
BRANCH   7   8
ATOM      8  C   UNL     1     -27.641  43.720  90.985  1.00  0.00     0.041 C 
ATOM      9  O   UNL     1     -27.042  43.301  92.012  1.00  0.00    -0.550 OA
ATOM     10  O   UNL     1     -28.465  42.860  90.271  1.00  0.00    -0.550 OA
ENDBRANCH   7   8
ENDBRANCH   6   7
ENDBRANCH   5   6
ENDBRANCH   4   5
ENDBRANCH   3   4
ENDBRANCH   2   3
ENDBRANCH   1   2
BRANCH   1  11
ATOM     11  C   UNL     1     -21.923  47.098  85.543  1.00  0.00     0.000 C 
BRANCH  11  12
ATOM     12  C   UNL     1     -21.580  46.193  84.346  1.00  0.00    -0.000 C 
BRANCH  12  13
ATOM     13  C   UNL     1     -21.117  46.986  83.111  1.00  0.00    -0.000 C 
BRANCH  13  14
ATOM     14  C   UNL     1     -19.677  46.644  82.697  1.00  0.00    -0.000 C 
BRANCH  14  15
ATOM     15  C   UNL     1     -18.713  46.583  83.893  1.00  0.00    -0.000 C 
BRANCH  15  16
ATOM     16  C   UNL     1     -17.991  45.230  84.010  1.00  0.00    -0.000 C 
BRANCH  16  17
ATOM     17  C   UNL     1     -18.170  44.553  85.385  1.00  0.00    -0.003 C 
ATOM     18  C   UNL     1     -19.347  43.579  85.407  1.00  0.00     0.004 C 
ENDBRANCH  16  17
ENDBRANCH  15  16
ENDBRANCH  14  15
ENDBRANCH  13  14
ENDBRANCH  12  13
ENDBRANCH  11  12
ENDBRANCH   1  11
TORSDOF 14
ENDMDL
MODEL 7
REMARK VINA RESULT:    -4.840      7.171      9.838
REMARK INTER + INTRA:         -10.073
REMARK INTER:                  -8.421
REMARK INTRA:                  -1.652
REMARK UNBOUND:                -1.272
REMARK SMILES CCCCCCCCCCCCCCCC(=O)[O-]
REMARK SMILES IDX 9 1 10 2 11 3 12 4 13 5 14 6 15 7 16 8 17 9 18 10 8 11 7 12
REMARK SMILES IDX 6 13 5 14 4 15 3 16 2 17 1 18
REMARK H PARENT
REMARK Flexibility Score: inf
ROOT
ATOM      1  C   UNL     1     -23.842  46.039  86.789  1.00  0.00     0.000 C 
ENDROOT
BRANCH   1   2
ATOM      2  C   UNL     1     -24.994  47.025  87.051  1.00  0.00     0.000 C 
BRANCH   2   3
ATOM      3  C   UNL     1     -26.218  46.351  87.693  1.00  0.00     0.000 C 
BRANCH   3   4
ATOM      4  C   UNL     1     -26.615  46.989  89.035  1.00  0.00     0.000 C 
BRANCH   4   5
ATOM      5  C   UNL     1     -26.985  45.990  90.149  1.00  0.00     0.000 C 
BRANCH   5   6
ATOM      6  C   UNL     1     -26.270  44.627  90.027  1.00  0.00     0.006 C 
BRANCH   6   7
ATOM      7  C   UNL     1     -26.852  43.579  90.984  1.00  0.00     0.053 C 
BRANCH   7   8
ATOM      8  C   UNL     1     -28.115  43.004  90.426  1.00  0.00     0.041 C 
ATOM      9  O   UNL     1     -29.107  42.806  91.177  1.00  0.00    -0.550 OA
ATOM     10  O   UNL     1     -28.181  42.641  89.087  1.00  0.00    -0.550 OA
ENDBRANCH   7   8
ENDBRANCH   6   7
ENDBRANCH   5   6
ENDBRANCH   4   5
ENDBRANCH   3   4
ENDBRANCH   2   3
ENDBRANCH   1   2
BRANCH   1  11
ATOM     11  C   UNL     1     -23.243  45.377  88.046  1.00  0.00     0.000 C 
BRANCH  11  12
ATOM     12  C   UNL     1     -23.127  43.843  87.990  1.00  0.00    -0.000 C 
BRANCH  12  13
ATOM     13  C   UNL     1     -22.097  43.285  88.988  1.00  0.00    -0.000 C 
BRANCH  13  14
ATOM     14  C   UNL     1     -21.031  42.411  88.307  1.00  0.00    -0.000 C 
BRANCH  14  15
ATOM     15  C   UNL     1     -21.161  42.400  86.776  1.00  0.00    -0.000 C 
BRANCH  15  16
ATOM     16  C   UNL     1     -19.883  42.879  86.065  1.00  0.00    -0.000 C 
BRANCH  16  17
ATOM     17  C   UNL     1     -19.825  44.409  85.866  1.00  0.00    -0.003 C 
ATOM     18  C   UNL     1     -20.901  44.913  84.904  1.00  0.00     0.004 C 
ENDBRANCH  16  17
ENDBRANCH  15  16
ENDBRANCH  14  15
ENDBRANCH  13  14
ENDBRANCH  12  13
ENDBRANCH  11  12
ENDBRANCH   1  11
TORSDOF 14
ENDMDL
MODEL 8
REMARK VINA RESULT:    -4.780      4.193      6.878
REMARK INTER + INTRA:          -9.964
REMARK INTER:                  -8.139
REMARK INTRA:                  -1.825
REMARK UNBOUND:                -1.272
REMARK SMILES CCCCCCCCCCCCCCCC(=O)[O-]
REMARK SMILES IDX 9 1 10 2 11 3 12 4 13 5 14 6 15 7 16 8 17 9 18 10 8 11 7 12
REMARK SMILES IDX 6 13 5 14 4 15 3 16 2 17 1 18
REMARK H PARENT
REMARK Flexibility Score: inf
ROOT
ATOM      1  C   UNL     1     -20.253  42.852  85.752  1.00  0.00     0.000 C 
ENDROOT
BRANCH   1   2
ATOM      2  C   UNL     1     -20.021  41.804  86.856  1.00  0.00     0.000 C 
BRANCH   2   3
ATOM      3  C   UNL     1     -21.104  40.712  86.874  1.00  0.00     0.000 C 
BRANCH   3   4
ATOM      4  C   UNL     1     -20.533  39.303  86.636  1.00  0.00     0.000 C 
BRANCH   4   5
ATOM      5  C   UNL     1     -21.005  38.230  87.636  1.00  0.00     0.000 C 
BRANCH   5   6
ATOM      6  C   UNL     1     -19.957  37.876  88.713  1.00  0.00     0.006 C 
BRANCH   6   7
ATOM      7  C   UNL     1     -20.297  38.486  90.078  1.00  0.00     0.053 C 
BRANCH   7   8
ATOM      8  C   UNL     1     -19.670  39.837  90.219  1.00  0.00     0.041 C 
ATOM      9  O   UNL     1     -20.393  40.864  90.324  1.00  0.00    -0.550 OA
ATOM     10  O   UNL     1     -18.288  39.968  90.185  1.00  0.00    -0.550 OA
ENDBRANCH   7   8
ENDBRANCH   6   7
ENDBRANCH   5   6
ENDBRANCH   4   5
ENDBRANCH   3   4
ENDBRANCH   2   3
ENDBRANCH   1   2
BRANCH   1  11
ATOM     11  C   UNL     1     -19.098  43.851  85.539  1.00  0.00     0.000 C 
BRANCH  11  12
ATOM     12  C   UNL     1     -19.476  45.144  84.793  1.00  0.00    -0.000 C 
BRANCH  12  13
ATOM     13  C   UNL     1     -20.976  45.224  84.459  1.00  0.00    -0.000 C 
BRANCH  13  14
ATOM     14  C   UNL     1     -21.664  46.429  85.122  1.00  0.00    -0.000 C 
BRANCH  14  15
ATOM     15  C   UNL     1     -22.545  46.026  86.315  1.00  0.00    -0.000 C 
BRANCH  15  16
ATOM     16  C   UNL     1     -21.760  45.939  87.635  1.00  0.00    -0.000 C 
BRANCH  16  17
ATOM     17  C   UNL     1     -22.015  44.632  88.417  1.00  0.00    -0.003 C 
ATOM     18  C   UNL     1     -23.194  43.837  87.857  1.00  0.00     0.004 C 
ENDBRANCH  16  17
ENDBRANCH  15  16
ENDBRANCH  14  15
ENDBRANCH  13  14
ENDBRANCH  12  13
ENDBRANCH  11  12
ENDBRANCH   1  11
TORSDOF 14
ENDMDL
MODEL 9
REMARK VINA RESULT:    -4.779      7.181      9.946
REMARK INTER + INTRA:          -9.963
REMARK INTER:                  -8.608
REMARK INTRA:                  -1.355
REMARK UNBOUND:                -1.272
REMARK SMILES CCCCCCCCCCCCCCCC(=O)[O-]
REMARK SMILES IDX 9 1 10 2 11 3 12 4 13 5 14 6 15 7 16 8 17 9 18 10 8 11 7 12
REMARK SMILES IDX 6 13 5 14 4 15 3 16 2 17 1 18
REMARK H PARENT
REMARK Flexibility Score: inf
ROOT
ATOM      1  C   UNL     1     -23.224  46.873  85.947  1.00  0.00     0.000 C 
ENDROOT
BRANCH   1   2
ATOM      2  C   UNL     1     -23.897  46.642  87.312  1.00  0.00     0.000 C 
BRANCH   2   3
ATOM      3  C   UNL     1     -24.980  45.551  87.263  1.00  0.00     0.000 C 
BRANCH   3   4
ATOM      4  C   UNL     1     -26.149  45.829  88.223  1.00  0.00     0.000 C 
BRANCH   4   5
ATOM      5  C   UNL     1     -25.795  45.761  89.722  1.00  0.00     0.000 C 
BRANCH   5   6
ATOM      6  C   UNL     1     -26.954  45.271  90.615  1.00  0.00     0.006 C 
BRANCH   6   7
ATOM      7  C   UNL     1     -26.884  43.761  90.881  1.00  0.00     0.053 C 
BRANCH   7   8
ATOM      8  C   UNL     1     -28.096  43.077  90.333  1.00  0.00     0.041 C 
ATOM      9  O   UNL     1     -29.108  42.900  91.061  1.00  0.00    -0.550 OA
ATOM     10  O   UNL     1     -28.090  42.590  89.032  1.00  0.00    -0.550 OA
ENDBRANCH   7   8
ENDBRANCH   6   7
ENDBRANCH   5   6
ENDBRANCH   4   5
ENDBRANCH   3   4
ENDBRANCH   2   3
ENDBRANCH   1   2
BRANCH   1  11
ATOM     11  C   UNL     1     -21.746  46.440  85.860  1.00  0.00     0.000 C 
BRANCH  11  12
ATOM     12  C   UNL     1     -21.369  45.639  84.601  1.00  0.00    -0.000 C 
BRANCH  12  13
ATOM     13  C   UNL     1     -19.873  45.284  84.544  1.00  0.00    -0.000 C 
BRANCH  13  14
ATOM     14  C   UNL     1     -19.412  44.478  85.769  1.00  0.00    -0.000 C 
BRANCH  14  15
ATOM     15  C   UNL     1     -19.867  43.010  85.720  1.00  0.00    -0.000 C 
BRANCH  15  16
ATOM     16  C   UNL     1     -20.879  42.662  86.825  1.00  0.00    -0.000 C 
BRANCH  16  17
ATOM     17  C   UNL     1     -20.975  43.734  87.932  1.00  0.00    -0.003 C 
ATOM     18  C   UNL     1     -22.193  43.533  88.834  1.00  0.00     0.004 C 
ENDBRANCH  16  17
ENDBRANCH  15  16
ENDBRANCH  14  15
ENDBRANCH  13  14
ENDBRANCH  12  13
ENDBRANCH  11  12
ENDBRANCH   1  11
TORSDOF 14
ENDMDL
