MODEL 1
REMARK VINA RESULT:     1.304      0.000      0.000
REMARK INTER + INTRA:           2.598
REMARK INTER:                   3.287
REMARK INTRA:                  -0.688
REMARK UNBOUND:                -0.688
REMARK SMILES CCCCCCCCCCCCCCCCCCCCCCCCCCCC(=O)[O-]
REMARK SMILES IDX 15 1 16 2 17 3 18 4 19 5 20 6 21 7 22 8 23 9 24 10 25 11
REMARK SMILES IDX 26 12 27 13 28 14 29 15 30 16 14 17 13 18 12 19 11 20 10 21
REMARK SMILES IDX 9 22 8 23 7 24 6 25 5 26 4 27 3 28 2 29 1 30
REMARK H PARENT
REMARK Flexibility Score: inf
ROOT
ATOM      1  C   UNL     1       5.711 -37.264  24.455  1.00  0.00     0.000 C 
ENDROOT
BRANCH   1   2
ATOM      2  C   UNL     1       4.867 -37.906  25.569  1.00  0.00     0.000 C 
BRANCH   2   3
ATOM      3  C   UNL     1       4.570 -39.394  25.309  1.00  0.00     0.000 C 
BRANCH   3   4
ATOM      4  C   UNL     1       5.725 -40.198  24.678  1.00  0.00     0.000 C 
BRANCH   4   5
ATOM      5  C   UNL     1       5.679 -41.718  24.918  1.00  0.00     0.000 C 
BRANCH   5   6
ATOM      6  C   UNL     1       5.811 -42.531  23.618  1.00  0.00     0.000 C 
BRANCH   6   7
ATOM      7  C   UNL     1       5.050 -41.898  22.441  1.00  0.00     0.000 C 
BRANCH   7   8
ATOM      8  C   UNL     1       5.953 -41.599  21.237  1.00  0.00     0.000 C 
BRANCH   8   9
ATOM      9  C   UNL     1       6.123 -40.088  21.035  1.00  0.00     0.000 C 
BRANCH   9  10
ATOM     10  C   UNL     1       4.889 -39.324  21.537  1.00  0.00     0.000 C 
BRANCH  10  11
ATOM     11  C   UNL     1       4.232 -38.478  20.436  1.00  0.00     0.000 C 
BRANCH  11  12
ATOM     12  C   UNL     1       2.696 -38.567  20.469  1.00  0.00     0.006 C 
BRANCH  12  13
ATOM     13  C   UNL     1       2.063 -38.219  19.115  1.00  0.00     0.053 C 
BRANCH  13  14
ATOM     14  C   UNL     1       0.711 -38.841  18.945  1.00  0.00     0.041 C 
ATOM     15  O   UNL     1       0.592 -40.092  18.862  1.00  0.00    -0.550 OA
ATOM     16  O   UNL     1      -0.421 -38.036  18.873  1.00  0.00    -0.550 OA
ENDBRANCH  13  14
ENDBRANCH  12  13
ENDBRANCH  11  12
ENDBRANCH  10  11
ENDBRANCH   9  10
ENDBRANCH   8   9
ENDBRANCH   7   8
ENDBRANCH   6   7
ENDBRANCH   5   6
ENDBRANCH   4   5
ENDBRANCH   3   4
ENDBRANCH   2   3
ENDBRANCH   1   2
BRANCH   1  17
ATOM     17  C   UNL     1       5.269 -35.828  24.127  1.00  0.00     0.000 C 
BRANCH  17  18
ATOM     18  C   UNL     1       6.125 -35.178  23.026  1.00  0.00     0.000 C 
BRANCH  18  19
ATOM     19  C   UNL     1       6.017 -35.907  21.674  1.00  0.00     0.000 C 
BRANCH  19  20
ATOM     20  C   UNL     1       4.608 -35.924  21.053  1.00  0.00     0.000 C 
BRANCH  20  21
ATOM     21  C   UNL     1       4.447 -34.912  19.905  1.00  0.00     0.000 C 
BRANCH  21  22
ATOM     22  C   UNL     1       5.475 -35.128  18.783  1.00  0.00    -0.000 C 
BRANCH  22  23
ATOM     23  C   UNL     1       4.950 -36.054  17.675  1.00  0.00    -0.000 C 
BRANCH  23  24
ATOM     24  C   UNL     1       3.426 -36.214  17.767  1.00  0.00    -0.000 C 
BRANCH  24  25
ATOM     25  C   UNL     1       2.822 -36.941  16.550  1.00  0.00    -0.000 C 
BRANCH  25  26
ATOM     26  C   UNL     1       3.301 -36.427  15.180  1.00  0.00    -0.000 C 
BRANCH  26  27
ATOM     27  C   UNL     1       2.856 -37.321  14.014  1.00  0.00    -0.000 C 
BRANCH  27  28
ATOM     28  C   UNL     1       3.172 -38.796  14.305  1.00  0.00    -0.000 C 
BRANCH  28  29
ATOM     29  C   UNL     1       4.624 -39.167  13.965  1.00  0.00    -0.003 C 
ATOM     30  C   UNL     1       4.859 -40.676  13.938  1.00  0.00     0.004 C 
ENDBRANCH  28  29
ENDBRANCH  27  28
ENDBRANCH  26  27
ENDBRANCH  25  26
ENDBRANCH  24  25
ENDBRANCH  23  24
ENDBRANCH  22  23
ENDBRANCH  21  22
ENDBRANCH  20  21
ENDBRANCH  19  20
ENDBRANCH  18  19
ENDBRANCH  17  18
ENDBRANCH   1  17
TORSDOF 26
ENDMDL
MODEL 2
REMARK VINA RESULT:     1.992      2.513      8.198
REMARK INTER + INTRA:           4.330
REMARK INTER:                   5.487
REMARK INTRA:                  -1.156
REMARK UNBOUND:                -0.688
REMARK SMILES CCCCCCCCCCCCCCCCCCCCCCCCCCCC(=O)[O-]
REMARK SMILES IDX 15 1 16 2 17 3 18 4 19 5 20 6 21 7 22 8 23 9 24 10 25 11
REMARK SMILES IDX 26 12 27 13 28 14 29 15 30 16 14 17 13 18 12 19 11 20 10 21
REMARK SMILES IDX 9 22 8 23 7 24 6 25 5 26 4 27 3 28 2 29 1 30
REMARK H PARENT
REMARK Flexibility Score: inf
ROOT
ATOM      1  C   UNL     1       4.292 -36.196  17.924  1.00  0.00     0.000 C 
ENDROOT
BRANCH   1   2
ATOM      2  C   UNL     1       3.770 -35.646  16.585  1.00  0.00     0.000 C 
BRANCH   2   3
ATOM      3  C   UNL     1       3.396 -36.759  15.589  1.00  0.00     0.000 C 
BRANCH   3   4
ATOM      4  C   UNL     1       1.888 -37.055  15.464  1.00  0.00     0.000 C 
BRANCH   4   5
ATOM      5  C   UNL     1       1.148 -37.284  16.795  1.00  0.00     0.000 C 
BRANCH   5   6
ATOM      6  C   UNL     1       1.896 -38.248  17.733  1.00  0.00     0.000 C 
BRANCH   6   7
ATOM      7  C   UNL     1       1.174 -38.449  19.076  1.00  0.00     0.000 C 
BRANCH   7   8
ATOM      8  C   UNL     1       1.990 -39.283  20.074  1.00  0.00     0.000 C 
BRANCH   8   9
ATOM      9  C   UNL     1       3.177 -38.481  20.623  1.00  0.00     0.000 C 
BRANCH   9  10
ATOM     10  C   UNL     1       4.405 -38.622  19.711  1.00  0.00     0.000 C 
BRANCH  10  11
ATOM     11  C   UNL     1       5.336 -39.763  20.149  1.00  0.00     0.000 C 
BRANCH  11  12
ATOM     12  C   UNL     1       5.862 -39.569  21.582  1.00  0.00     0.006 C 
BRANCH  12  13
ATOM     13  C   UNL     1       5.000 -40.299  22.622  1.00  0.00     0.053 C 
BRANCH  13  14
ATOM     14  C   UNL     1       5.612 -41.597  23.054  1.00  0.00     0.041 C 
ATOM     15  O   UNL     1       6.077 -42.397  22.199  1.00  0.00    -0.550 OA
ATOM     16  O   UNL     1       5.664 -41.926  24.404  1.00  0.00    -0.550 OA
ENDBRANCH  13  14
ENDBRANCH  12  13
ENDBRANCH  11  12
ENDBRANCH  10  11
ENDBRANCH   9  10
ENDBRANCH   8   9
ENDBRANCH   7   8
ENDBRANCH   6   7
ENDBRANCH   5   6
ENDBRANCH   4   5
ENDBRANCH   3   4
ENDBRANCH   2   3
ENDBRANCH   1   2
BRANCH   1  17
ATOM     17  C   UNL     1       4.675 -35.084  18.914  1.00  0.00     0.000 C 
BRANCH  17  18
ATOM     18  C   UNL     1       6.101 -35.245  19.468  1.00  0.00     0.000 C 
BRANCH  18  19
ATOM     19  C   UNL     1       6.125 -35.719  20.933  1.00  0.00     0.000 C 
BRANCH  19  20
ATOM     20  C   UNL     1       4.770 -36.202  21.483  1.00  0.00     0.000 C 
BRANCH  20  21
ATOM     21  C   UNL     1       4.433 -35.600  22.859  1.00  0.00     0.000 C 
BRANCH  21  22
ATOM     22  C   UNL     1       5.683 -35.111  23.609  1.00  0.00    -0.000 C 
BRANCH  22  23
ATOM     23  C   UNL     1       5.942 -35.904  24.899  1.00  0.00    -0.000 C 
BRANCH  23  24
ATOM     24  C   UNL     1       6.063 -37.406  24.608  1.00  0.00    -0.000 C 
BRANCH  24  25
ATOM     25  C   UNL     1       5.281 -38.279  25.608  1.00  0.00    -0.000 C 
BRANCH  25  26
ATOM     26  C   UNL     1       4.065 -37.593  26.260  1.00  0.00    -0.000 C 
BRANCH  26  27
ATOM     27  C   UNL     1       3.004 -38.590  26.746  1.00  0.00    -0.000 C 
BRANCH  27  28
ATOM     28  C   UNL     1       2.008 -37.908  27.697  1.00  0.00    -0.000 C 
BRANCH  28  29
ATOM     29  C   UNL     1       2.058 -36.375  27.604  1.00  0.00    -0.003 C 
ATOM     30  C   UNL     1       1.801 -35.691  28.946  1.00  0.00     0.004 C 
ENDBRANCH  28  29
ENDBRANCH  27  28
ENDBRANCH  26  27
ENDBRANCH  25  26
ENDBRANCH  24  25
ENDBRANCH  23  24
ENDBRANCH  22  23
ENDBRANCH  21  22
ENDBRANCH  20  21
ENDBRANCH  19  20
ENDBRANCH  18  19
ENDBRANCH  17  18
ENDBRANCH   1  17
TORSDOF 26
ENDMDL
MODEL 3
REMARK VINA RESULT:     2.233      3.473      5.051
REMARK INTER + INTRA:           4.938
REMARK INTER:                   5.491
REMARK INTRA:                  -0.553
REMARK UNBOUND:                -0.688
REMARK SMILES CCCCCCCCCCCCCCCCCCCCCCCCCCCC(=O)[O-]
REMARK SMILES IDX 15 1 16 2 17 3 18 4 19 5 20 6 21 7 22 8 23 9 24 10 25 11
REMARK SMILES IDX 26 12 27 13 28 14 29 15 30 16 14 17 13 18 12 19 11 20 10 21
REMARK SMILES IDX 9 22 8 23 7 24 6 25 5 26 4 27 3 28 2 29 1 30
REMARK H PARENT
REMARK Flexibility Score: inf
ROOT
ATOM      1  C   UNL     1       4.536 -37.306  22.816  1.00  0.00     0.000 C 
ENDROOT
BRANCH   1   2
ATOM      2  C   UNL     1       5.141 -38.382  21.897  1.00  0.00     0.000 C 
BRANCH   2   3
ATOM      3  C   UNL     1       4.749 -39.811  22.315  1.00  0.00     0.000 C 
BRANCH   3   4
ATOM      4  C   UNL     1       5.832 -40.886  22.090  1.00  0.00     0.000 C 
BRANCH   4   5
ATOM      5  C   UNL     1       5.802 -42.069  23.075  1.00  0.00     0.000 C 
BRANCH   5   6
ATOM      6  C   UNL     1       5.434 -41.642  24.507  1.00  0.00     0.000 C 
BRANCH   6   7
ATOM      7  C   UNL     1       5.131 -40.139  24.619  1.00  0.00     0.000 C 
BRANCH   7   8
ATOM      8  C   UNL     1       5.310 -39.599  26.046  1.00  0.00     0.000 C 
BRANCH   8   9
ATOM      9  C   UNL     1       4.999 -38.098  26.111  1.00  0.00     0.000 C 
BRANCH   9  10
ATOM     10  C   UNL     1       3.487 -37.846  26.024  1.00  0.00     0.000 C 
BRANCH  10  11
ATOM     11  C   UNL     1       2.738 -38.314  27.282  1.00  0.00     0.000 C 
BRANCH  11  12
ATOM     12  C   UNL     1       1.673 -37.302  27.738  1.00  0.00     0.006 C 
BRANCH  12  13
ATOM     13  C   UNL     1       2.292 -35.979  28.211  1.00  0.00     0.053 C 
BRANCH  13  14
ATOM     14  C   UNL     1       1.411 -35.258  29.185  1.00  0.00     0.041 C 
ATOM     15  O   UNL     1       0.182 -35.111  28.944  1.00  0.00    -0.550 OA
ATOM     16  O   UNL     1       1.948 -34.743  30.359  1.00  0.00    -0.550 OA
ENDBRANCH  13  14
ENDBRANCH  12  13
ENDBRANCH  11  12
ENDBRANCH  10  11
ENDBRANCH   9  10
ENDBRANCH   8   9
ENDBRANCH   7   8
ENDBRANCH   6   7
ENDBRANCH   5   6
ENDBRANCH   4   5
ENDBRANCH   3   4
ENDBRANCH   2   3
ENDBRANCH   1   2
BRANCH   1  17
ATOM     17  C   UNL     1       5.558 -36.234  23.228  1.00  0.00     0.000 C 
BRANCH  17  18
ATOM     18  C   UNL     1       5.928 -35.288  22.072  1.00  0.00     0.000 C 
BRANCH  18  19
ATOM     19  C   UNL     1       4.957 -35.387  20.882  1.00  0.00     0.000 C 
BRANCH  19  20
ATOM     20  C   UNL     1       5.626 -35.592  19.510  1.00  0.00     0.000 C 
BRANCH  20  21
ATOM     21  C   UNL     1       4.639 -36.055  18.424  1.00  0.00     0.000 C 
BRANCH  21  22
ATOM     22  C   UNL     1       4.412 -37.576  18.446  1.00  0.00    -0.000 C 
BRANCH  22  23
ATOM     23  C   UNL     1       3.013 -37.954  18.953  1.00  0.00    -0.000 C 
BRANCH  23  24
ATOM     24  C   UNL     1       2.087 -38.330  17.788  1.00  0.00    -0.000 C 
BRANCH  24  25
ATOM     25  C   UNL     1       1.117 -37.198  17.400  1.00  0.00    -0.000 C 
BRANCH  25  26
ATOM     26  C   UNL     1       1.186 -36.757  15.926  1.00  0.00    -0.000 C 
BRANCH  26  27
ATOM     27  C   UNL     1       2.617 -36.744  15.370  1.00  0.00    -0.000 C 
BRANCH  27  28
ATOM     28  C   UNL     1       2.704 -37.547  14.063  1.00  0.00    -0.000 C 
BRANCH  28  29
ATOM     29  C   UNL     1       4.070 -38.225  13.876  1.00  0.00    -0.003 C 
ATOM     30  C   UNL     1       4.092 -39.665  14.385  1.00  0.00     0.004 C 
ENDBRANCH  28  29
ENDBRANCH  27  28
ENDBRANCH  26  27
ENDBRANCH  25  26
ENDBRANCH  24  25
ENDBRANCH  23  24
ENDBRANCH  22  23
ENDBRANCH  21  22
ENDBRANCH  20  21
ENDBRANCH  19  20
ENDBRANCH  18  19
ENDBRANCH  17  18
ENDBRANCH   1  17
TORSDOF 26
ENDMDL
MODEL 4
REMARK VINA RESULT:     2.305      2.785      8.344
REMARK INTER + INTRA:           5.121
REMARK INTER:                   5.938
REMARK INTRA:                  -0.817
REMARK UNBOUND:                -0.688
REMARK SMILES CCCCCCCCCCCCCCCCCCCCCCCCCCCC(=O)[O-]
REMARK SMILES IDX 15 1 16 2 17 3 18 4 19 5 20 6 21 7 22 8 23 9 24 10 25 11
REMARK SMILES IDX 26 12 27 13 28 14 29 15 30 16 14 17 13 18 12 19 11 20 10 21
REMARK SMILES IDX 9 22 8 23 7 24 6 25 5 26 4 27 3 28 2 29 1 30
REMARK H PARENT
REMARK Flexibility Score: inf
ROOT
ATOM      1  C   UNL     1       4.690 -37.016  22.724  1.00  0.00     0.000 C 
ENDROOT
BRANCH   1   2
ATOM      2  C   UNL     1       5.309 -35.614  22.850  1.00  0.00     0.000 C 
BRANCH   2   3
ATOM      3  C   UNL     1       6.105 -35.198  21.600  1.00  0.00     0.000 C 
BRANCH   3   4
ATOM      4  C   UNL     1       6.082 -36.208  20.435  1.00  0.00     0.000 C 
BRANCH   4   5
ATOM      5  C   UNL     1       5.400 -35.713  19.146  1.00  0.00     0.000 C 
BRANCH   5   6
ATOM      6  C   UNL     1       3.987 -36.293  18.959  1.00  0.00     0.000 C 
BRANCH   6   7
ATOM      7  C   UNL     1       4.002 -37.758  18.493  1.00  0.00     0.000 C 
BRANCH   7   8
ATOM      8  C   UNL     1       2.703 -38.505  18.828  1.00  0.00     0.000 C 
BRANCH   8   9
ATOM      9  C   UNL     1       1.474 -37.641  18.516  1.00  0.00     0.000 C 
BRANCH   9  10
ATOM     10  C   UNL     1       0.976 -37.890  17.085  1.00  0.00     0.000 C 
BRANCH  10  11
ATOM     11  C   UNL     1       1.330 -36.740  16.129  1.00  0.00     0.000 C 
BRANCH  11  12
ATOM     12  C   UNL     1       2.659 -36.981  15.392  1.00  0.00     0.006 C 
BRANCH  12  13
ATOM     13  C   UNL     1       2.739 -38.387  14.781  1.00  0.00     0.053 C 
BRANCH  13  14
ATOM     14  C   UNL     1       4.079 -38.663  14.169  1.00  0.00     0.041 C 
ATOM     15  O   UNL     1       4.433 -39.846  13.922  1.00  0.00    -0.550 OA
ATOM     16  O   UNL     1       4.939 -37.611  13.875  1.00  0.00    -0.550 OA
ENDBRANCH  13  14
ENDBRANCH  12  13
ENDBRANCH  11  12
ENDBRANCH  10  11
ENDBRANCH   9  10
ENDBRANCH   8   9
ENDBRANCH   7   8
ENDBRANCH   6   7
ENDBRANCH   5   6
ENDBRANCH   4   5
ENDBRANCH   3   4
ENDBRANCH   2   3
ENDBRANCH   1   2
BRANCH   1  17
ATOM     17  C   UNL     1       5.669 -38.047  22.138  1.00  0.00     0.000 C 
BRANCH  17  18
ATOM     18  C   UNL     1       4.964 -39.319  21.634  1.00  0.00     0.000 C 
BRANCH  18  19
ATOM     19  C   UNL     1       5.940 -40.482  21.376  1.00  0.00     0.000 C 
BRANCH  19  20
ATOM     20  C   UNL     1       5.749 -41.706  22.291  1.00  0.00     0.000 C 
BRANCH  20  21
ATOM     21  C   UNL     1       5.918 -41.370  23.784  1.00  0.00     0.000 C 
BRANCH  21  22
ATOM     22  C   UNL     1       4.747 -40.541  24.336  1.00  0.00    -0.000 C 
BRANCH  22  23
ATOM     23  C   UNL     1       5.106 -39.814  25.641  1.00  0.00    -0.000 C 
BRANCH  23  24
ATOM     24  C   UNL     1       4.982 -38.293  25.477  1.00  0.00    -0.000 C 
BRANCH  24  25
ATOM     25  C   UNL     1       4.155 -37.632  26.595  1.00  0.00    -0.000 C 
BRANCH  25  26
ATOM     26  C   UNL     1       2.649 -37.952  26.568  1.00  0.00    -0.000 C 
BRANCH  26  27
ATOM     27  C   UNL     1       1.940 -37.616  27.888  1.00  0.00    -0.000 C 
BRANCH  27  28
ATOM     28  C   UNL     1       1.634 -36.113  27.978  1.00  0.00    -0.000 C 
BRANCH  28  29
ATOM     29  C   UNL     1       1.698 -35.582  29.418  1.00  0.00    -0.003 C 
ATOM     30  C   UNL     1       1.290 -34.113  29.526  1.00  0.00     0.004 C 
ENDBRANCH  28  29
ENDBRANCH  27  28
ENDBRANCH  26  27
ENDBRANCH  25  26
ENDBRANCH  24  25
ENDBRANCH  23  24
ENDBRANCH  22  23
ENDBRANCH  21  22
ENDBRANCH  20  21
ENDBRANCH  19  20
ENDBRANCH  18  19
ENDBRANCH  17  18
ENDBRANCH   1  17
TORSDOF 26
ENDMDL
MODEL 5
REMARK VINA RESULT:     2.774      2.606      8.196
REMARK INTER + INTRA:           6.301
REMARK INTER:                   6.036
REMARK INTRA:                   0.265
REMARK UNBOUND:                -0.688
REMARK SMILES CCCCCCCCCCCCCCCCCCCCCCCCCCCC(=O)[O-]
REMARK SMILES IDX 15 1 16 2 17 3 18 4 19 5 20 6 21 7 22 8 23 9 24 10 25 11
REMARK SMILES IDX 26 12 27 13 28 14 29 15 30 16 14 17 13 18 12 19 11 20 10 21
REMARK SMILES IDX 9 22 8 23 7 24 6 25 5 26 4 27 3 28 2 29 1 30
REMARK H PARENT
REMARK Flexibility Score: inf
ROOT
ATOM      1  C   UNL     1       4.836 -37.873  23.050  1.00  0.00     0.000 C 
ENDROOT
BRANCH   1   2
ATOM      2  C   UNL     1       6.068 -37.433  23.859  1.00  0.00     0.000 C 
BRANCH   2   3
ATOM      3  C   UNL     1       6.074 -35.922  24.160  1.00  0.00     0.000 C 
BRANCH   3   4
ATOM      4  C   UNL     1       5.313 -35.043  23.146  1.00  0.00     0.000 C 
BRANCH   4   5
ATOM      5  C   UNL     1       6.120 -34.618  21.906  1.00  0.00     0.000 C 
BRANCH   5   6
ATOM      6  C   UNL     1       6.068 -35.662  20.776  1.00  0.00     0.000 C 
BRANCH   6   7
ATOM      7  C   UNL     1       4.772 -35.582  19.952  1.00  0.00     0.000 C 
BRANCH   7   8
ATOM      8  C   UNL     1       4.940 -36.114  18.521  1.00  0.00     0.000 C 
BRANCH   8   9
ATOM      9  C   UNL     1       4.014 -37.309  18.264  1.00  0.00     0.000 C 
BRANCH   9  10
ATOM     10  C   UNL     1       3.138 -37.600  19.492  1.00  0.00     0.000 C 
BRANCH  10  11
ATOM     11  C   UNL     1       1.870 -38.392  19.136  1.00  0.00     0.000 C 
BRANCH  11  12
ATOM     12  C   UNL     1       1.761 -38.674  17.628  1.00  0.00     0.006 C 
BRANCH  12  13
ATOM     13  C   UNL     1       1.728 -37.385  16.795  1.00  0.00     0.053 C 
BRANCH  13  14
ATOM     14  C   UNL     1       2.276 -37.587  15.415  1.00  0.00     0.041 C 
ATOM     15  O   UNL     1       1.840 -36.903  14.451  1.00  0.00    -0.550 OA
ATOM     16  O   UNL     1       3.267 -38.537  15.193  1.00  0.00    -0.550 OA
ENDBRANCH  13  14
ENDBRANCH  12  13
ENDBRANCH  11  12
ENDBRANCH  10  11
ENDBRANCH   9  10
ENDBRANCH   8   9
ENDBRANCH   7   8
ENDBRANCH   6   7
ENDBRANCH   5   6
ENDBRANCH   4   5
ENDBRANCH   3   4
ENDBRANCH   2   3
ENDBRANCH   1   2
BRANCH   1  17
ATOM     17  C   UNL     1       5.199 -38.769  21.854  1.00  0.00     0.000 C 
BRANCH  17  18
ATOM     18  C   UNL     1       4.856 -40.250  22.093  1.00  0.00     0.000 C 
BRANCH  18  19
ATOM     19  C   UNL     1       6.100 -41.156  22.124  1.00  0.00     0.000 C 
BRANCH  19  20
ATOM     20  C   UNL     1       5.972 -42.408  23.012  1.00  0.00     0.000 C 
BRANCH  20  21
ATOM     21  C   UNL     1       5.435 -42.092  24.419  1.00  0.00     0.000 C 
BRANCH  21  22
ATOM     22  C   UNL     1       5.579 -40.606  24.783  1.00  0.00    -0.000 C 
BRANCH  22  23
ATOM     23  C   UNL     1       4.265 -39.998  25.299  1.00  0.00    -0.000 C 
BRANCH  23  24
ATOM     24  C   UNL     1       4.525 -39.031  26.462  1.00  0.00    -0.000 C 
BRANCH  24  25
ATOM     25  C   UNL     1       3.470 -37.913  26.564  1.00  0.00    -0.000 C 
BRANCH  25  26
ATOM     26  C   UNL     1       2.316 -38.193  27.544  1.00  0.00    -0.000 C 
BRANCH  26  27
ATOM     27  C   UNL     1       1.439 -36.961  27.807  1.00  0.00    -0.000 C 
BRANCH  27  28
ATOM     28  C   UNL     1       2.274 -35.809  28.388  1.00  0.00    -0.000 C 
BRANCH  28  29
ATOM     29  C   UNL     1       1.575 -35.106  29.562  1.00  0.00    -0.003 C 
ATOM     30  C   UNL     1       0.170 -34.620  29.209  1.00  0.00     0.004 C 
ENDBRANCH  28  29
ENDBRANCH  27  28
ENDBRANCH  26  27
ENDBRANCH  25  26
ENDBRANCH  24  25
ENDBRANCH  23  24
ENDBRANCH  22  23
ENDBRANCH  21  22
ENDBRANCH  20  21
ENDBRANCH  19  20
ENDBRANCH  18  19
ENDBRANCH  17  18
ENDBRANCH   1  17
TORSDOF 26
ENDMDL
MODEL 6
REMARK VINA RESULT:     3.125      2.220      6.237
REMARK INTER + INTRA:           7.187
REMARK INTER:                   7.085
REMARK INTRA:                   0.102
REMARK UNBOUND:                -0.688
REMARK SMILES CCCCCCCCCCCCCCCCCCCCCCCCCCCC(=O)[O-]
REMARK SMILES IDX 15 1 16 2 17 3 18 4 19 5 20 6 21 7 22 8 23 9 24 10 25 11
REMARK SMILES IDX 26 12 27 13 28 14 29 15 30 16 14 17 13 18 12 19 11 20 10 21
REMARK SMILES IDX 9 22 8 23 7 24 6 25 5 26 4 27 3 28 2 29 1 30
REMARK H PARENT
REMARK Flexibility Score: inf
ROOT
ATOM      1  C   UNL     1       4.749 -35.826  23.157  1.00  0.00     0.000 C 
ENDROOT
BRANCH   1   2
ATOM      2  C   UNL     1       4.021 -35.278  21.918  1.00  0.00     0.000 C 
BRANCH   2   3
ATOM      3  C   UNL     1       4.989 -34.802  20.819  1.00  0.00     0.000 C 
BRANCH   3   4
ATOM      4  C   UNL     1       5.914 -35.890  20.236  1.00  0.00     0.000 C 
BRANCH   4   5
ATOM      5  C   UNL     1       5.310 -36.728  19.095  1.00  0.00     0.000 C 
BRANCH   5   6
ATOM      6  C   UNL     1       4.275 -35.946  18.266  1.00  0.00     0.000 C 
BRANCH   6   7
ATOM      7  C   UNL     1       3.915 -36.651  16.948  1.00  0.00     0.000 C 
BRANCH   7   8
ATOM      8  C   UNL     1       2.485 -36.346  16.479  1.00  0.00     0.000 C 
BRANCH   8   9
ATOM      9  C   UNL     1       1.976 -37.430  15.520  1.00  0.00     0.000 C 
BRANCH   9  10
ATOM     10  C   UNL     1       2.801 -37.452  14.226  1.00  0.00     0.000 C 
BRANCH  10  11
ATOM     11  C   UNL     1       4.311 -37.563  14.492  1.00  0.00     0.000 C 
BRANCH  11  12
ATOM     12  C   UNL     1       4.920 -38.836  13.879  1.00  0.00     0.006 C 
BRANCH  12  13
ATOM     13  C   UNL     1       4.061 -40.080  14.148  1.00  0.00     0.053 C 
BRANCH  13  14
ATOM     14  C   UNL     1       4.887 -41.326  14.256  1.00  0.00     0.041 C 
ATOM     15  O   UNL     1       6.097 -41.319  13.904  1.00  0.00    -0.550 OA
ATOM     16  O   UNL     1       4.318 -42.498  14.741  1.00  0.00    -0.550 OA
ENDBRANCH  13  14
ENDBRANCH  12  13
ENDBRANCH  11  12
ENDBRANCH  10  11
ENDBRANCH   9  10
ENDBRANCH   8   9
ENDBRANCH   7   8
ENDBRANCH   6   7
ENDBRANCH   5   6
ENDBRANCH   4   5
ENDBRANCH   3   4
ENDBRANCH   2   3
ENDBRANCH   1   2
BRANCH   1  17
ATOM     17  C   UNL     1       5.781 -34.838  23.725  1.00  0.00     0.000 C 
BRANCH  17  18
ATOM     18  C   UNL     1       6.108 -35.104  25.205  1.00  0.00     0.000 C 
BRANCH  18  19
ATOM     19  C   UNL     1       5.207 -36.183  25.834  1.00  0.00     0.000 C 
BRANCH  19  20
ATOM     20  C   UNL     1       5.672 -37.634  25.604  1.00  0.00     0.000 C 
BRANCH  20  21
ATOM     21  C   UNL     1       4.532 -38.563  25.148  1.00  0.00     0.000 C 
BRANCH  21  22
ATOM     22  C   UNL     1       5.003 -39.616  24.132  1.00  0.00    -0.000 C 
BRANCH  22  23
ATOM     23  C   UNL     1       5.789 -38.997  22.966  1.00  0.00    -0.000 C 
BRANCH  23  24
ATOM     24  C   UNL     1       5.245 -39.482  21.615  1.00  0.00    -0.000 C 
BRANCH  24  25
ATOM     25  C   UNL     1       3.818 -38.980  21.324  1.00  0.00    -0.000 C 
BRANCH  25  26
ATOM     26  C   UNL     1       3.482 -38.797  19.833  1.00  0.00    -0.000 C 
BRANCH  26  27
ATOM     27  C   UNL     1       2.284 -37.867  19.596  1.00  0.00    -0.000 C 
BRANCH  27  28
ATOM     28  C   UNL     1       1.360 -38.431  18.506  1.00  0.00    -0.000 C 
BRANCH  28  29
ATOM     29  C   UNL     1      -0.091 -38.588  18.984  1.00  0.00    -0.003 C 
ATOM     30  C   UNL     1      -0.983 -39.281  17.954  1.00  0.00     0.004 C 
ENDBRANCH  28  29
ENDBRANCH  27  28
ENDBRANCH  26  27
ENDBRANCH  25  26
ENDBRANCH  24  25
ENDBRANCH  23  24
ENDBRANCH  22  23
ENDBRANCH  21  22
ENDBRANCH  20  21
ENDBRANCH  19  20
ENDBRANCH  18  19
ENDBRANCH  17  18
ENDBRANCH   1  17
TORSDOF 26
ENDMDL
MODEL 7
REMARK VINA RESULT:     3.174      2.259      8.209
REMARK INTER + INTRA:           7.309
REMARK INTER:                   7.904
REMARK INTRA:                  -0.595
REMARK UNBOUND:                -0.688
REMARK SMILES CCCCCCCCCCCCCCCCCCCCCCCCCCCC(=O)[O-]
REMARK SMILES IDX 15 1 16 2 17 3 18 4 19 5 20 6 21 7 22 8 23 9 24 10 25 11
REMARK SMILES IDX 26 12 27 13 28 14 29 15 30 16 14 17 13 18 12 19 11 20 10 21
REMARK SMILES IDX 9 22 8 23 7 24 6 25 5 26 4 27 3 28 2 29 1 30
REMARK H PARENT
REMARK Flexibility Score: inf
ROOT
ATOM      1  C   UNL     1       4.981 -38.239  21.777  1.00  0.00     0.000 C 
ENDROOT
BRANCH   1   2
ATOM      2  C   UNL     1       6.122 -37.546  22.541  1.00  0.00     0.000 C 
BRANCH   2   3
ATOM      3  C   UNL     1       5.612 -36.595  23.640  1.00  0.00     0.000 C 
BRANCH   3   4
ATOM      4  C   UNL     1       5.747 -35.090  23.327  1.00  0.00     0.000 C 
BRANCH   4   5
ATOM      5  C   UNL     1       4.574 -34.473  22.544  1.00  0.00     0.000 C 
BRANCH   5   6
ATOM      6  C   UNL     1       3.794 -35.513  21.721  1.00  0.00     0.000 C 
BRANCH   6   7
ATOM      7  C   UNL     1       3.846 -35.235  20.210  1.00  0.00     0.000 C 
BRANCH   7   8
ATOM      8  C   UNL     1       5.243 -35.451  19.611  1.00  0.00     0.000 C 
BRANCH   8   9
ATOM      9  C   UNL     1       5.170 -35.627  18.089  1.00  0.00     0.000 C 
BRANCH   9  10
ATOM     10  C   UNL     1       3.723 -35.862  17.631  1.00  0.00     0.000 C 
BRANCH  10  11
ATOM     11  C   UNL     1       3.636 -36.779  16.401  1.00  0.00     0.000 C 
BRANCH  11  12
ATOM     12  C   UNL     1       2.799 -38.041  16.671  1.00  0.00     0.006 C 
BRANCH  12  13
ATOM     13  C   UNL     1       1.430 -37.712  17.283  1.00  0.00     0.053 C 
BRANCH  13  14
ATOM     14  C   UNL     1       1.274 -38.280  18.661  1.00  0.00     0.041 C 
ATOM     15  O   UNL     1       0.127 -38.439  19.157  1.00  0.00    -0.550 OA
ATOM     16  O   UNL     1       2.398 -38.631  19.400  1.00  0.00    -0.550 OA
ENDBRANCH  13  14
ENDBRANCH  12  13
ENDBRANCH  11  12
ENDBRANCH  10  11
ENDBRANCH   9  10
ENDBRANCH   8   9
ENDBRANCH   7   8
ENDBRANCH   6   7
ENDBRANCH   5   6
ENDBRANCH   4   5
ENDBRANCH   3   4
ENDBRANCH   2   3
ENDBRANCH   1   2
BRANCH   1  17
ATOM     17  C   UNL     1       5.411 -39.576  21.153  1.00  0.00     0.000 C 
BRANCH  17  18
ATOM     18  C   UNL     1       5.029 -40.788  22.021  1.00  0.00     0.000 C 
BRANCH  18  19
ATOM     19  C   UNL     1       6.125 -41.870  22.056  1.00  0.00     0.000 C 
BRANCH  19  20
ATOM     20  C   UNL     1       6.060 -42.824  23.263  1.00  0.00     0.000 C 
BRANCH  20  21
ATOM     21  C   UNL     1       5.284 -42.232  24.453  1.00  0.00     0.000 C 
BRANCH  21  22
ATOM     22  C   UNL     1       5.776 -40.826  24.835  1.00  0.00    -0.000 C 
BRANCH  22  23
ATOM     23  C   UNL     1       4.648 -39.783  24.814  1.00  0.00    -0.000 C 
BRANCH  23  24
ATOM     24  C   UNL     1       4.839 -38.743  25.927  1.00  0.00    -0.000 C 
BRANCH  24  25
ATOM     25  C   UNL     1       3.586 -37.880  26.166  1.00  0.00    -0.000 C 
BRANCH  25  26
ATOM     26  C   UNL     1       2.767 -38.252  27.415  1.00  0.00    -0.000 C 
BRANCH  26  27
ATOM     27  C   UNL     1       1.647 -37.246  27.721  1.00  0.00    -0.000 C 
BRANCH  27  28
ATOM     28  C   UNL     1       2.216 -35.975  28.371  1.00  0.00    -0.000 C 
BRANCH  28  29
ATOM     29  C   UNL     1       1.119 -35.044  28.908  1.00  0.00    -0.003 C 
ATOM     30  C   UNL     1       1.252 -34.773  30.406  1.00  0.00     0.004 C 
ENDBRANCH  28  29
ENDBRANCH  27  28
ENDBRANCH  26  27
ENDBRANCH  25  26
ENDBRANCH  24  25
ENDBRANCH  23  24
ENDBRANCH  22  23
ENDBRANCH  21  22
ENDBRANCH  20  21
ENDBRANCH  19  20
ENDBRANCH  18  19
ENDBRANCH  17  18
ENDBRANCH   1  17
TORSDOF 26
ENDMDL
MODEL 8
REMARK VINA RESULT:     3.653      3.610      5.691
REMARK INTER + INTRA:           8.517
REMARK INTER:                   5.899
REMARK INTRA:                   2.618
REMARK UNBOUND:                -0.688
REMARK SMILES CCCCCCCCCCCCCCCCCCCCCCCCCCCC(=O)[O-]
REMARK SMILES IDX 15 1 16 2 17 3 18 4 19 5 20 6 21 7 22 8 23 9 24 10 25 11
REMARK SMILES IDX 26 12 27 13 28 14 29 15 30 16 14 17 13 18 12 19 11 20 10 21
REMARK SMILES IDX 9 22 8 23 7 24 6 25 5 26 4 27 3 28 2 29 1 30
REMARK H PARENT
REMARK Flexibility Score: inf
ROOT
ATOM      1  C   UNL     1       4.397 -37.042  21.011  1.00  0.00     0.000 C 
ENDROOT
BRANCH   1   2
ATOM      2  C   UNL     1       5.416 -37.971  20.328  1.00  0.00     0.000 C 
BRANCH   2   3
ATOM      3  C   UNL     1       5.120 -39.462  20.571  1.00  0.00     0.000 C 
BRANCH   3   4
ATOM      4  C   UNL     1       4.960 -39.871  22.050  1.00  0.00     0.000 C 
BRANCH   4   5
ATOM      5  C   UNL     1       5.716 -38.993  23.063  1.00  0.00     0.000 C 
BRANCH   5   6
ATOM      6  C   UNL     1       4.974 -37.684  23.387  1.00  0.00     0.000 C 
BRANCH   6   7
ATOM      7  C   UNL     1       5.656 -36.875  24.502  1.00  0.00     0.000 C 
BRANCH   7   8
ATOM      8  C   UNL     1       5.276 -37.358  25.909  1.00  0.00     0.000 C 
BRANCH   8   9
ATOM      9  C   UNL     1       4.400 -38.615  25.844  1.00  0.00     0.000 C 
BRANCH   9  10
ATOM     10  C   UNL     1       3.534 -38.749  27.105  1.00  0.00     0.000 C 
BRANCH  10  11
ATOM     11  C   UNL     1       2.267 -37.881  27.046  1.00  0.00     0.000 C 
BRANCH  11  12
ATOM     12  C   UNL     1       2.039 -37.093  28.347  1.00  0.00     0.006 C 
BRANCH  12  13
ATOM     13  C   UNL     1       1.570 -35.655  28.081  1.00  0.00     0.053 C 
BRANCH  13  14
ATOM     14  C   UNL     1       1.149 -34.956  29.338  1.00  0.00     0.041 C 
ATOM     15  O   UNL     1       1.932 -34.891  30.323  1.00  0.00    -0.550 OA
ATOM     16  O   UNL     1      -0.112 -34.377  29.423  1.00  0.00    -0.550 OA
ENDBRANCH  13  14
ENDBRANCH  12  13
ENDBRANCH  11  12
ENDBRANCH  10  11
ENDBRANCH   9  10
ENDBRANCH   8   9
ENDBRANCH   7   8
ENDBRANCH   6   7
ENDBRANCH   5   6
ENDBRANCH   4   5
ENDBRANCH   3   4
ENDBRANCH   2   3
ENDBRANCH   1   2
BRANCH   1  17
ATOM     17  C   UNL     1       4.426 -35.612  20.446  1.00  0.00     0.000 C 
BRANCH  17  18
ATOM     18  C   UNL     1       5.493 -35.424  19.354  1.00  0.00     0.000 C 
BRANCH  18  19
ATOM     19  C   UNL     1       4.904 -34.941  18.016  1.00  0.00     0.000 C 
BRANCH  19  20
ATOM     20  C   UNL     1       4.087 -35.995  17.246  1.00  0.00     0.000 C 
BRANCH  20  21
ATOM     21  C   UNL     1       3.541 -37.111  18.155  1.00  0.00     0.000 C 
BRANCH  21  22
ATOM     22  C   UNL     1       2.751 -38.173  17.373  1.00  0.00    -0.000 C 
BRANCH  22  23
ATOM     23  C   UNL     1       1.234 -38.043  17.577  1.00  0.00    -0.000 C 
BRANCH  23  24
ATOM     24  C   UNL     1       0.584 -37.283  16.413  1.00  0.00    -0.000 C 
BRANCH  24  25
ATOM     25  C   UNL     1       1.608 -36.758  15.389  1.00  0.00    -0.000 C 
BRANCH  25  26
ATOM     26  C   UNL     1       2.395 -37.847  14.637  1.00  0.00    -0.000 C 
BRANCH  26  27
ATOM     27  C   UNL     1       3.718 -37.334  14.051  1.00  0.00    -0.000 C 
BRANCH  27  28
ATOM     28  C   UNL     1       4.721 -38.485  13.876  1.00  0.00    -0.000 C 
BRANCH  28  29
ATOM     29  C   UNL     1       4.236 -39.794  14.518  1.00  0.00    -0.003 C 
ATOM     30  C   UNL     1       4.876 -41.033  13.895  1.00  0.00     0.004 C 
ENDBRANCH  28  29
ENDBRANCH  27  28
ENDBRANCH  26  27
ENDBRANCH  25  26
ENDBRANCH  24  25
ENDBRANCH  23  24
ENDBRANCH  22  23
ENDBRANCH  21  22
ENDBRANCH  20  21
ENDBRANCH  19  20
ENDBRANCH  18  19
ENDBRANCH  17  18
ENDBRANCH   1  17
TORSDOF 26
ENDMDL
MODEL 9
REMARK VINA RESULT:     3.708      1.161      6.835
REMARK INTER + INTRA:           8.655
REMARK INTER:                   6.495
REMARK INTRA:                   2.160
REMARK UNBOUND:                -0.688
REMARK SMILES CCCCCCCCCCCCCCCCCCCCCCCCCCCC(=O)[O-]
REMARK SMILES IDX 15 1 16 2 17 3 18 4 19 5 20 6 21 7 22 8 23 9 24 10 25 11
REMARK SMILES IDX 26 12 27 13 28 14 29 15 30 16 14 17 13 18 12 19 11 20 10 21
REMARK SMILES IDX 9 22 8 23 7 24 6 25 5 26 4 27 3 28 2 29 1 30
REMARK H PARENT
REMARK Flexibility Score: inf
ROOT
ATOM      1  C   UNL     1       4.952 -35.631  20.376  1.00  0.00     0.000 C 
ENDROOT
BRANCH   1   2
ATOM      2  C   UNL     1       4.879 -34.792  19.088  1.00  0.00     0.000 C 
BRANCH   2   3
ATOM      3  C   UNL     1       4.629 -35.648  17.832  1.00  0.00     0.000 C 
BRANCH   3   4
ATOM      4  C   UNL     1       3.408 -35.237  16.985  1.00  0.00     0.000 C 
BRANCH   4   5
ATOM      5  C   UNL     1       2.453 -36.383  16.604  1.00  0.00     0.000 C 
BRANCH   5   6
ATOM      6  C   UNL     1       1.666 -36.099  15.313  1.00  0.00     0.000 C 
BRANCH   6   7
ATOM      7  C   UNL     1       1.946 -37.131  14.207  1.00  0.00     0.000 C 
BRANCH   7   8
ATOM      8  C   UNL     1       3.396 -37.634  14.213  1.00  0.00     0.000 C 
BRANCH   8   9
ATOM      9  C   UNL     1       3.482 -39.064  14.762  1.00  0.00     0.000 C 
BRANCH   9  10
ATOM     10  C   UNL     1       3.721 -39.058  16.278  1.00  0.00     0.000 C 
BRANCH  10  11
ATOM     11  C   UNL     1       2.568 -38.404  17.055  1.00  0.00     0.000 C 
BRANCH  11  12
ATOM     12  C   UNL     1       2.672 -38.647  18.570  1.00  0.00     0.006 C 
BRANCH  12  13
ATOM     13  C   UNL     1       1.410 -39.306  19.143  1.00  0.00     0.053 C 
BRANCH  13  14
ATOM     14  C   UNL     1       0.209 -38.416  19.038  1.00  0.00     0.041 C 
ATOM     15  O   UNL     1      -0.385 -38.277  17.936  1.00  0.00    -0.550 OA
ATOM     16  O   UNL     1      -0.252 -37.735  20.160  1.00  0.00    -0.550 OA
ENDBRANCH  13  14
ENDBRANCH  12  13
ENDBRANCH  11  12
ENDBRANCH  10  11
ENDBRANCH   9  10
ENDBRANCH   8   9
ENDBRANCH   7   8
ENDBRANCH   6   7
ENDBRANCH   5   6
ENDBRANCH   4   5
ENDBRANCH   3   4
ENDBRANCH   2   3
ENDBRANCH   1   2
BRANCH   1  17
ATOM     17  C   UNL     1       6.120 -35.220  21.287  1.00  0.00     0.000 C 
BRANCH  17  18
ATOM     18  C   UNL     1       6.107 -35.953  22.639  1.00  0.00     0.000 C 
BRANCH  18  19
ATOM     19  C   UNL     1       6.125 -34.992  23.842  1.00  0.00     0.000 C 
BRANCH  19  20
ATOM     20  C   UNL     1       5.987 -35.669  25.219  1.00  0.00     0.000 C 
BRANCH  20  21
ATOM     21  C   UNL     1       6.109 -37.202  25.147  1.00  0.00     0.000 C 
BRANCH  21  22
ATOM     22  C   UNL     1       4.781 -37.913  25.454  1.00  0.00    -0.000 C 
BRANCH  22  23
ATOM     23  C   UNL     1       4.985 -39.363  25.918  1.00  0.00    -0.000 C 
BRANCH  23  24
ATOM     24  C   UNL     1       4.392 -40.354  24.907  1.00  0.00    -0.000 C 
BRANCH  24  25
ATOM     25  C   UNL     1       5.445 -41.308  24.310  1.00  0.00    -0.000 C 
BRANCH  25  26
ATOM     26  C   UNL     1       5.684 -41.151  22.797  1.00  0.00    -0.000 C 
BRANCH  26  27
ATOM     27  C   UNL     1       5.990 -39.704  22.385  1.00  0.00    -0.000 C 
BRANCH  27  28
ATOM     28  C   UNL     1       4.759 -39.046  21.743  1.00  0.00    -0.000 C 
BRANCH  28  29
ATOM     29  C   UNL     1       4.991 -38.669  20.271  1.00  0.00    -0.003 C 
ATOM     30  C   UNL     1       5.910 -39.651  19.546  1.00  0.00     0.004 C 
ENDBRANCH  28  29
ENDBRANCH  27  28
ENDBRANCH  26  27
ENDBRANCH  25  26
ENDBRANCH  24  25
ENDBRANCH  23  24
ENDBRANCH  22  23
ENDBRANCH  21  22
ENDBRANCH  20  21
ENDBRANCH  19  20
ENDBRANCH  18  19
ENDBRANCH  17  18
ENDBRANCH   1  17
TORSDOF 26
ENDMDL
