MODEL 1
REMARK VINA RESULT:    -4.065      0.000      0.000
REMARK INTER + INTRA:          -4.065
REMARK INTER:                  -4.065
REMARK INTRA:                   0.000
REMARK UNBOUND:                 0.000
REMARK SMILES CC1(C)O[C@]2(C)CC[C@H]1CC2
REMARK SMILES IDX 1 1 2 2 9 3 10 4 11 5 5 6 4 7 7 8 8 9 6 10 3 11
REMARK H PARENT
REMARK Flexibility Score: inf
ROOT
ATOM      1  C   UNL     1     116.638 118.950 111.964  1.00  0.00     0.042 C 
ATOM      2  C   UNL     1     117.334 118.348 113.205  1.00  0.00     0.066 C 
ATOM      3  C   UNL     1     118.874 118.687 113.201  1.00  0.00     0.021 C 
ATOM      4  C   UNL     1     119.526 118.018 114.435  1.00  0.00     0.009 C 
ATOM      5  C   UNL     1     119.141 116.520 114.464  1.00  0.00     0.035 C 
ATOM      6  C   UNL     1     118.305 116.166 113.199  1.00  0.00     0.066 C 
ATOM      7  O   UNL     1     117.100 116.932 113.204  1.00  0.00    -0.369 OA
ATOM      8  C   UNL     1     119.132 116.523 111.932  1.00  0.00     0.035 C 
ATOM      9  C   UNL     1     119.519 118.021 111.961  1.00  0.00     0.009 C 
ATOM     10  C   UNL     1     117.944 114.677 113.199  1.00  0.00     0.042 C 
ATOM     11  C   UNL     1     116.647 118.947 114.451  1.00  0.00     0.042 C 
ENDROOT
TORSDOF 0
ENDMDL
MODEL 2
REMARK VINA RESULT:    -4.057      1.194      2.834
REMARK INTER + INTRA:          -4.057
REMARK INTER:                  -4.057
REMARK INTRA:                   0.000
REMARK UNBOUND:                 0.000
REMARK SMILES CC1(C)O[C@]2(C)CC[C@H]1CC2
REMARK SMILES IDX 1 1 2 2 9 3 10 4 11 5 5 6 4 7 7 8 8 9 6 10 3 11
REMARK H PARENT
REMARK Flexibility Score: inf
ROOT
ATOM      1  C   UNL     1     118.747 115.486 112.027  1.00  0.00     0.042 C 
ATOM      2  C   UNL     1     118.025 116.310 113.116  1.00  0.00     0.066 C 
ATOM      3  C   UNL     1     117.608 117.726 112.561  1.00  0.00     0.021 C 
ATOM      4  C   UNL     1     116.937 118.522 113.705  1.00  0.00     0.009 C 
ATOM      5  C   UNL     1     117.860 118.503 114.947  1.00  0.00     0.035 C 
ATOM      6  C   UNL     1     119.190 117.771 114.603  1.00  0.00     0.066 C 
ATOM      7  O   UNL     1     118.902 116.418 114.247  1.00  0.00    -0.369 OA
ATOM      8  C   UNL     1     119.863 118.485 113.396  1.00  0.00     0.035 C 
ATOM      9  C   UNL     1     118.892 118.505 112.191  1.00  0.00     0.009 C 
ATOM     10  C   UNL     1     120.127 117.774 115.815  1.00  0.00     0.042 C 
ATOM     11  C   UNL     1     116.780 115.505 113.549  1.00  0.00     0.042 C 
ENDROOT
TORSDOF 0
ENDMDL
MODEL 3
REMARK VINA RESULT:    -4.056      1.692      3.338
REMARK INTER + INTRA:          -4.056
REMARK INTER:                  -4.056
REMARK INTRA:                   0.000
REMARK UNBOUND:                 0.000
REMARK SMILES CC1(C)O[C@]2(C)CC[C@H]1CC2
REMARK SMILES IDX 1 1 2 2 9 3 10 4 11 5 5 6 4 7 7 8 8 9 6 10 3 11
REMARK H PARENT
REMARK Flexibility Score: inf
ROOT
ATOM      1  C   UNL     1     119.026 116.514 111.878  1.00  0.00     0.042 C 
ATOM      2  C   UNL     1     118.066 116.125 113.024  1.00  0.00     0.066 C 
ATOM      3  C   UNL     1     118.513 114.766 113.688  1.00  0.00     0.021 C 
ATOM      4  C   UNL     1     117.490 114.400 114.790  1.00  0.00     0.009 C 
ATOM      5  C   UNL     1     116.062 114.450 114.195  1.00  0.00     0.035 C 
ATOM      6  C   UNL     1     116.137 114.761 112.672  1.00  0.00     0.066 C 
ATOM      7  O   UNL     1     116.739 116.042 112.483  1.00  0.00    -0.369 OA
ATOM      8  C   UNL     1     117.012 113.678 111.978  1.00  0.00     0.035 C 
ATOM      9  C   UNL     1     118.418 113.645 112.626  1.00  0.00     0.009 C 
ATOM     10  C   UNL     1     114.731 114.780 112.063  1.00  0.00     0.042 C 
ATOM     11  C   UNL     1     118.093 117.272 114.055  1.00  0.00     0.042 C 
ENDROOT
TORSDOF 0
ENDMDL
MODEL 4
REMARK VINA RESULT:    -4.042      1.933      3.279
REMARK INTER + INTRA:          -4.042
REMARK INTER:                  -4.042
REMARK INTRA:                   0.000
REMARK UNBOUND:                 0.000
REMARK SMILES CC1(C)O[C@]2(C)CC[C@H]1CC2
REMARK SMILES IDX 1 1 2 2 9 3 10 4 11 5 5 6 4 7 7 8 8 9 6 10 3 11
REMARK H PARENT
REMARK Flexibility Score: inf
ROOT
ATOM      1  C   UNL     1     114.162 116.624 111.982  1.00  0.00     0.042 C 
ATOM      2  C   UNL     1     114.920 117.172 113.211  1.00  0.00     0.066 C 
ATOM      3  C   UNL     1     114.722 118.732 113.338  1.00  0.00     0.021 C 
ATOM      4  C   UNL     1     115.541 119.232 114.552  1.00  0.00     0.009 C 
ATOM      5  C   UNL     1     116.997 118.720 114.428  1.00  0.00     0.035 C 
ATOM      6  C   UNL     1     117.173 117.954 113.085  1.00  0.00     0.066 C 
ATOM      7  O   UNL     1     116.304 116.820 113.074  1.00  0.00    -0.369 OA
ATOM      8  C   UNL     1     116.794 118.900 111.910  1.00  0.00     0.035 C 
ATOM      9  C   UNL     1     115.344 119.409 112.093  1.00  0.00     0.009 C 
ATOM     10  C   UNL     1     118.619 117.470 112.935  1.00  0.00     0.042 C 
ATOM     11  C   UNL     1     114.361 116.448 114.455  1.00  0.00     0.042 C 
ENDROOT
TORSDOF 0
ENDMDL
MODEL 5
REMARK VINA RESULT:    -4.003      2.253      3.196
REMARK INTER + INTRA:          -4.003
REMARK INTER:                  -4.003
REMARK INTRA:                   0.000
REMARK UNBOUND:                 0.000
REMARK SMILES CC1(C)O[C@]2(C)CC[C@H]1CC2
REMARK SMILES IDX 1 1 2 2 9 3 10 4 11 5 5 6 4 7 7 8 8 9 6 10 3 11
REMARK H PARENT
REMARK Flexibility Score: inf
ROOT
ATOM      1  C   UNL     1     115.500 114.435 111.924  1.00  0.00     0.042 C 
ATOM      2  C   UNL     1     116.341 115.173 112.989  1.00  0.00     0.066 C 
ATOM      3  C   UNL     1     117.772 115.525 112.424  1.00  0.00     0.021 C 
ATOM      4  C   UNL     1     118.585 116.215 113.545  1.00  0.00     0.009 C 
ATOM      5  C   UNL     1     118.533 115.341 114.822  1.00  0.00     0.035 C 
ATOM      6  C   UNL     1     117.760 114.022 114.526  1.00  0.00     0.066 C 
ATOM      7  O   UNL     1     116.418 114.338 114.153  1.00  0.00    -0.369 OA
ATOM      8  C   UNL     1     118.457 113.281 113.350  1.00  0.00     0.035 C 
ATOM      9  C   UNL     1     118.513 114.203 112.108  1.00  0.00     0.009 C 
ATOM     10  C   UNL     1     117.730 113.133 115.773  1.00  0.00     0.042 C 
ATOM     11  C   UNL     1     115.574 116.458 113.369  1.00  0.00     0.042 C 
ENDROOT
TORSDOF 0
ENDMDL
MODEL 6
REMARK VINA RESULT:    -3.993      1.023      3.310
REMARK INTER + INTRA:          -3.993
REMARK INTER:                  -3.993
REMARK INTRA:                   0.000
REMARK UNBOUND:                 0.000
REMARK SMILES CC1(C)O[C@]2(C)CC[C@H]1CC2
REMARK SMILES IDX 1 1 2 2 9 3 10 4 11 5 5 6 4 7 7 8 8 9 6 10 3 11
REMARK H PARENT
REMARK Flexibility Score: inf
ROOT
ATOM      1  C   UNL     1     118.471 115.236 114.424  1.00  0.00     0.042 C 
ATOM      2  C   UNL     1     118.299 116.252 113.272  1.00  0.00     0.066 C 
ATOM      3  C   UNL     1     119.270 117.480 113.463  1.00  0.00     0.021 C 
ATOM      4  C   UNL     1     119.020 118.485 112.313  1.00  0.00     0.009 C 
ATOM      5  C   UNL     1     117.506 118.797 112.231  1.00  0.00     0.035 C 
ATOM      6  C   UNL     1     116.755 118.070 113.384  1.00  0.00     0.066 C 
ATOM      7  O   UNL     1     116.924 116.659 113.238  1.00  0.00    -0.369 OA
ATOM      8  C   UNL     1     117.362 118.519 114.744  1.00  0.00     0.035 C 
ATOM      9  C   UNL     1     118.880 118.215 114.768  1.00  0.00     0.009 C 
ATOM     10  C   UNL     1     115.259 118.396 113.334  1.00  0.00     0.042 C 
ATOM     11  C   UNL     1     118.612 115.508 111.955  1.00  0.00     0.042 C 
ENDROOT
TORSDOF 0
ENDMDL
MODEL 7
REMARK VINA RESULT:    -3.993      1.920      4.137
REMARK INTER + INTRA:          -3.993
REMARK INTER:                  -3.993
REMARK INTRA:                   0.000
REMARK UNBOUND:                 0.000
REMARK SMILES CC1(C)O[C@]2(C)CC[C@H]1CC2
REMARK SMILES IDX 1 1 2 2 9 3 10 4 11 5 5 6 4 7 7 8 8 9 6 10 3 11
REMARK H PARENT
REMARK Flexibility Score: inf
ROOT
ATOM      1  C   UNL     1     117.749 118.531 112.056  1.00  0.00     0.042 C 
ATOM      2  C   UNL     1     116.921 117.843 113.164  1.00  0.00     0.066 C 
ATOM      3  C   UNL     1     115.508 117.408 112.616  1.00  0.00     0.021 C 
ATOM      4  C   UNL     1     114.706 116.773 113.777  1.00  0.00     0.009 C 
ATOM      5  C   UNL     1     114.720 117.734 114.990  1.00  0.00     0.035 C 
ATOM      6  C   UNL     1     115.454 119.053 114.608  1.00  0.00     0.066 C 
ATOM      7  O   UNL     1     116.808 118.754 114.267  1.00  0.00    -0.369 OA
ATOM      8  C   UNL     1     114.745 119.688 113.378  1.00  0.00     0.035 C 
ATOM      9  C   UNL     1     114.729 118.681 112.203  1.00  0.00     0.009 C 
ATOM     10  C   UNL     1     115.446 120.027 115.790  1.00  0.00     0.042 C 
ATOM     11  C   UNL     1     117.724 116.613 113.638  1.00  0.00     0.042 C 
ENDROOT
TORSDOF 0
ENDMDL
MODEL 8
REMARK VINA RESULT:    -3.964      1.558      3.780
REMARK INTER + INTRA:          -3.964
REMARK INTER:                  -3.964
REMARK INTRA:                   0.000
REMARK UNBOUND:                 0.000
REMARK SMILES CC1(C)O[C@]2(C)CC[C@H]1CC2
REMARK SMILES IDX 1 1 2 2 9 3 10 4 11 5 5 6 4 7 7 8 8 9 6 10 3 11
REMARK H PARENT
REMARK Flexibility Score: inf
ROOT
ATOM      1  C   UNL     1     115.250 114.748 114.343  1.00  0.00     0.042 C 
ATOM      2  C   UNL     1     116.286 114.959 113.216  1.00  0.00     0.066 C 
ATOM      3  C   UNL     1     117.497 113.962 113.378  1.00  0.00     0.021 C 
ATOM      4  C   UNL     1     118.524 114.252 112.257  1.00  0.00     0.009 C 
ATOM      5  C   UNL     1     118.859 115.763 112.253  1.00  0.00     0.035 C 
ATOM      6  C   UNL     1     118.125 116.468 113.431  1.00  0.00     0.066 C 
ATOM      7  O   UNL     1     116.715 116.328 113.256  1.00  0.00    -0.369 OA
ATOM      8  C   UNL     1     118.544 115.789 114.766  1.00  0.00     0.035 C 
ATOM      9  C   UNL     1     118.218 114.277 114.711  1.00  0.00     0.009 C 
ATOM     10  C   UNL     1     118.474 117.959 113.459  1.00  0.00     0.042 C 
ATOM     11  C   UNL     1     115.559 114.723 111.875  1.00  0.00     0.042 C 
ENDROOT
TORSDOF 0
ENDMDL
