MODEL 1
REMARK VINA RESULT:    -5.297      0.000      0.000
REMARK INTER + INTRA:          -5.607
REMARK INTER:                  -5.607
REMARK INTRA:                   0.000
REMARK UNBOUND:                 0.000
REMARK SMILES O=c1ccc2cc(O)c(O)cc2o1
REMARK SMILES IDX 4 1 3 2 2 3 1 4 13 5 12 6 11 7 9 8 7 9 6 10 5 11 8 12 10 14
REMARK H PARENT 8 13 10 15
REMARK Flexibility Score: inf
ROOT
ATOM      1  C   UNL     1      12.399  -1.491   5.603  1.00  0.00     0.019 A 
ATOM      2  C   UNL     1      12.312  -1.126   6.947  1.00  0.00     0.094 A 
ATOM      3  C   UNL     1      11.056  -1.103   7.563  1.00  0.00     0.336 A 
ATOM      4  O   UNL     1      10.957  -0.776   8.774  1.00  0.00    -0.246 OA
ATOM      5  O   UNL     1       9.963  -1.424   6.875  1.00  0.00    -0.423 OA
ATOM      6  C   UNL     1      10.002  -1.777   5.593  1.00  0.00     0.142 A 
ATOM      7  C   UNL     1       8.820  -2.105   4.921  1.00  0.00     0.098 A 
ATOM      8  C   UNL     1       8.854  -2.478   3.570  1.00  0.00     0.161 A 
ATOM      9  C   UNL     1      10.083  -2.523   2.886  1.00  0.00     0.158 A 
ATOM     10  C   UNL     1      11.269  -2.196   3.555  1.00  0.00     0.062 A 
ATOM     11  C   UNL     1      11.234  -1.823   4.906  1.00  0.00     0.022 A 
ENDROOT
BRANCH   9  12
ATOM     12  O   UNL     1      10.145  -2.891   1.542  1.00  0.00    -0.504 OA
ATOM     13  H   UNL     1       9.935  -2.240   0.795  1.00  0.00     0.293 HD
ENDBRANCH   9  12
BRANCH   8  14
ATOM     14  O   UNL     1       7.674  -2.804   2.904  1.00  0.00    -0.504 OA
ATOM     15  H   UNL     1       7.022  -2.089   2.600  1.00  0.00     0.293 HD
ENDBRANCH   8  14
TORSDOF 2
ENDMDL
MODEL 2
REMARK VINA RESULT:    -5.281      1.218      4.491
REMARK INTER + INTRA:          -5.590
REMARK INTER:                  -5.590
REMARK INTRA:                   0.000
REMARK UNBOUND:                 0.000
REMARK SMILES O=c1ccc2cc(O)c(O)cc2o1
REMARK SMILES IDX 4 1 3 2 2 3 1 4 13 5 12 6 11 7 9 8 7 9 6 10 5 11 8 12 10 14
REMARK H PARENT 8 13 10 15
REMARK Flexibility Score: inf
ROOT
ATOM      1  C   UNL     1      10.782  -2.154   3.387  1.00  0.00     0.019 A 
ATOM      2  C   UNL     1       9.536  -2.493   2.859  1.00  0.00     0.094 A 
ATOM      3  C   UNL     1       8.422  -2.509   3.705  1.00  0.00     0.336 A 
ATOM      4  O   UNL     1       7.290  -2.813   3.246  1.00  0.00    -0.246 OA
ATOM      5  O   UNL     1       8.551  -2.206   4.994  1.00  0.00    -0.423 OA
ATOM      6  C   UNL     1       9.721  -1.877   5.538  1.00  0.00     0.142 A 
ATOM      7  C   UNL     1       9.796  -1.567   6.900  1.00  0.00     0.098 A 
ATOM      8  C   UNL     1      11.025  -1.219   7.479  1.00  0.00     0.161 A 
ATOM      9  C   UNL     1      12.188  -1.183   6.688  1.00  0.00     0.158 A 
ATOM     10  C   UNL     1      12.116  -1.492   5.324  1.00  0.00     0.062 A 
ATOM     11  C   UNL     1      10.887  -1.839   4.746  1.00  0.00     0.022 A 
ENDROOT
BRANCH   9  12
ATOM     12  O   UNL     1      13.423  -0.840   7.240  1.00  0.00    -0.504 OA
ATOM     13  H   UNL     1      13.796   0.099   7.181  1.00  0.00     0.293 HD
ENDBRANCH   9  12
BRANCH   8  14
ATOM     14  O   UNL     1      11.095  -0.911   8.837  1.00  0.00    -0.504 OA
ATOM     15  H   UNL     1      10.296  -1.030   9.450  1.00  0.00     0.293 HD
ENDBRANCH   8  14
TORSDOF 2
ENDMDL
MODEL 3
REMARK VINA RESULT:    -5.178      2.993      4.328
REMARK INTER + INTRA:          -5.481
REMARK INTER:                  -5.481
REMARK INTRA:                   0.000
REMARK UNBOUND:                 0.000
REMARK SMILES O=c1ccc2cc(O)c(O)cc2o1
REMARK SMILES IDX 4 1 3 2 2 3 1 4 13 5 12 6 11 7 9 8 7 9 6 10 5 11 8 12 10 14
REMARK H PARENT 8 13 10 15
REMARK Flexibility Score: inf
ROOT
ATOM      1  C   UNL     1       6.942  -5.259   5.113  1.00  0.00     0.019 A 
ATOM      2  C   UNL     1       6.791  -5.908   6.338  1.00  0.00     0.094 A 
ATOM      3  C   UNL     1       7.477  -5.418   7.455  1.00  0.00     0.336 A 
ATOM      4  O   UNL     1       7.354  -5.991   8.569  1.00  0.00    -0.246 OA
ATOM      5  O   UNL     1       8.261  -4.348   7.347  1.00  0.00    -0.423 OA
ATOM      6  C   UNL     1       8.432  -3.700   6.198  1.00  0.00     0.142 A 
ATOM      7  C   UNL     1       9.269  -2.580   6.145  1.00  0.00     0.098 A 
ATOM      8  C   UNL     1       9.453  -1.891   4.937  1.00  0.00     0.161 A 
ATOM      9  C   UNL     1       8.794  -2.329   3.773  1.00  0.00     0.158 A 
ATOM     10  C   UNL     1       7.956  -3.449   3.822  1.00  0.00     0.062 A 
ATOM     11  C   UNL     1       7.772  -4.136   5.030  1.00  0.00     0.022 A 
ENDROOT
BRANCH   9  12
ATOM     12  O   UNL     1       8.961  -1.662   2.558  1.00  0.00    -0.504 OA
ATOM     13  H   UNL     1       9.877  -1.436   2.190  1.00  0.00     0.293 HD
ENDBRANCH   9  12
BRANCH   8  14
ATOM     14  O   UNL     1      10.288  -0.776   4.888  1.00  0.00    -0.504 OA
ATOM     15  H   UNL     1       9.970   0.139   5.190  1.00  0.00     0.293 HD
ENDBRANCH   8  14
TORSDOF 2
ENDMDL
MODEL 4
REMARK VINA RESULT:    -5.170      1.070      5.032
REMARK INTER + INTRA:          -5.472
REMARK INTER:                  -5.472
REMARK INTRA:                   0.000
REMARK UNBOUND:                 0.000
REMARK SMILES O=c1ccc2cc(O)c(O)cc2o1
REMARK SMILES IDX 4 1 3 2 2 3 1 4 13 5 12 6 11 7 9 8 7 9 6 10 5 11 8 12 10 14
REMARK H PARENT 8 13 10 15
REMARK Flexibility Score: inf
ROOT
ATOM      1  C   UNL     1       8.608  -2.242   4.587  1.00  0.00     0.019 A 
ATOM      2  C   UNL     1       8.682  -2.582   3.236  1.00  0.00     0.094 A 
ATOM      3  C   UNL     1       9.922  -2.536   2.591  1.00  0.00     0.336 A 
ATOM      4  O   UNL     1      10.009  -2.840   1.373  1.00  0.00    -0.246 OA
ATOM      5  O   UNL     1      11.015  -2.171   3.259  1.00  0.00    -0.423 OA
ATOM      6  C   UNL     1      10.988  -1.839   4.547  1.00  0.00     0.142 A 
ATOM      7  C   UNL     1      12.169  -1.465   5.197  1.00  0.00     0.098 A 
ATOM      8  C   UNL     1      12.148  -1.113   6.555  1.00  0.00     0.161 A 
ATOM      9  C   UNL     1      10.934  -1.137   7.267  1.00  0.00     0.158 A 
ATOM     10  C   UNL     1       9.751  -1.512   6.619  1.00  0.00     0.062 A 
ATOM     11  C   UNL     1       9.773  -1.863   5.263  1.00  0.00     0.022 A 
ENDROOT
BRANCH   9  12
ATOM     12  O   UNL     1      10.886  -0.792   8.618  1.00  0.00    -0.504 OA
ATOM     13  H   UNL     1      10.218  -1.207   9.255  1.00  0.00     0.293 HD
ENDBRANCH   9  12
BRANCH   8  14
ATOM     14  O   UNL     1      13.327  -0.741   7.198  1.00  0.00    -0.504 OA
ATOM     15  H   UNL     1      13.334  -0.036   7.928  1.00  0.00     0.293 HD
ENDBRANCH   8  14
TORSDOF 2
ENDMDL
MODEL 5
REMARK VINA RESULT:    -5.164      3.093      4.704
REMARK INTER + INTRA:          -5.465
REMARK INTER:                  -5.465
REMARK INTRA:                   0.000
REMARK UNBOUND:                 0.000
REMARK SMILES O=c1ccc2cc(O)c(O)cc2o1
REMARK SMILES IDX 4 1 3 2 2 3 1 4 13 5 12 6 11 7 9 8 7 9 6 10 5 11 8 12 10 14
REMARK H PARENT 8 13 10 15
REMARK Flexibility Score: inf
ROOT
ATOM      1  C   UNL     1       7.917  -3.099   3.638  1.00  0.00     0.019 A 
ATOM      2  C   UNL     1       8.794  -2.029   3.462  1.00  0.00     0.094 A 
ATOM      3  C   UNL     1       9.616  -1.643   4.526  1.00  0.00     0.336 A 
ATOM      4  O   UNL     1      10.414  -0.680   4.386  1.00  0.00    -0.246 OA
ATOM      5  O   UNL     1       9.561  -2.289   5.688  1.00  0.00    -0.423 OA
ATOM      6  C   UNL     1       8.739  -3.315   5.898  1.00  0.00     0.142 A 
ATOM      7  C   UNL     1       8.725  -3.956   7.141  1.00  0.00     0.098 A 
ATOM      8  C   UNL     1       7.861  -5.038   7.368  1.00  0.00     0.161 A 
ATOM      9  C   UNL     1       7.005  -5.480   6.343  1.00  0.00     0.158 A 
ATOM     10  C   UNL     1       7.017  -4.840   5.097  1.00  0.00     0.062 A 
ATOM     11  C   UNL     1       7.881  -3.760   4.870  1.00  0.00     0.022 A 
ENDROOT
BRANCH   9  12
ATOM     12  O   UNL     1       6.137  -6.553   6.543  1.00  0.00    -0.504 OA
ATOM     13  H   UNL     1       6.323  -7.275   7.229  1.00  0.00     0.293 HD
ENDBRANCH   9  12
BRANCH   8  14
ATOM     14  O   UNL     1       7.850  -5.675   8.608  1.00  0.00    -0.504 OA
ATOM     15  H   UNL     1       8.710  -5.919   9.087  1.00  0.00     0.293 HD
ENDBRANCH   8  14
TORSDOF 2
ENDMDL
MODEL 6
REMARK VINA RESULT:    -5.072      3.366      5.307
REMARK INTER + INTRA:          -5.368
REMARK INTER:                  -5.368
REMARK INTRA:                   0.000
REMARK UNBOUND:                 0.000
REMARK SMILES O=c1ccc2cc(O)c(O)cc2o1
REMARK SMILES IDX 4 1 3 2 2 3 1 4 13 5 12 6 11 7 9 8 7 9 6 10 5 11 8 12 10 14
REMARK H PARENT 8 13 10 15
REMARK Flexibility Score: inf
ROOT
ATOM      1  C   UNL     1       8.114  -5.702   7.370  1.00  0.00     0.019 A 
ATOM      2  C   UNL     1       7.506  -6.832   6.822  1.00  0.00     0.094 A 
ATOM      3  C   UNL     1       7.067  -6.790   5.494  1.00  0.00     0.336 A 
ATOM      4  O   UNL     1       6.517  -7.799   4.983  1.00  0.00    -0.246 OA
ATOM      5  O   UNL     1       7.228  -5.687   4.767  1.00  0.00    -0.423 OA
ATOM      6  C   UNL     1       7.802  -4.588   5.251  1.00  0.00     0.142 A 
ATOM      7  C   UNL     1       7.945  -3.458   4.439  1.00  0.00     0.098 A 
ATOM      8  C   UNL     1       8.550  -2.297   4.942  1.00  0.00     0.161 A 
ATOM      9  C   UNL     1       9.015  -2.268   6.270  1.00  0.00     0.158 A 
ATOM     10  C   UNL     1       8.874  -3.397   7.086  1.00  0.00     0.062 A 
ATOM     11  C   UNL     1       8.270  -4.558   6.582  1.00  0.00     0.022 A 
ENDROOT
BRANCH   9  12
ATOM     12  O   UNL     1       9.619  -1.126   6.796  1.00  0.00    -0.504 OA
ATOM     13  H   UNL     1      10.132  -0.473   6.215  1.00  0.00     0.293 HD
ENDBRANCH   9  12
BRANCH   8  14
ATOM     14  O   UNL     1       8.690  -1.173   4.130  1.00  0.00    -0.504 OA
ATOM     15  H   UNL     1       7.885  -0.710   3.721  1.00  0.00     0.293 HD
ENDBRANCH   8  14
TORSDOF 2
ENDMDL
MODEL 7
REMARK VINA RESULT:    -4.982      1.149      2.266
REMARK INTER + INTRA:          -5.274
REMARK INTER:                  -5.274
REMARK INTRA:                   0.000
REMARK UNBOUND:                 0.000
REMARK SMILES O=c1ccc2cc(O)c(O)cc2o1
REMARK SMILES IDX 4 1 3 2 2 3 1 4 13 5 12 6 11 7 9 8 7 9 6 10 5 11 8 12 10 14
REMARK H PARENT 8 13 10 15
REMARK Flexibility Score: inf
ROOT
ATOM      1  C   UNL     1       9.980  -1.478   7.035  1.00  0.00     0.019 A 
ATOM      2  C   UNL     1      11.183  -1.190   7.679  1.00  0.00     0.094 A 
ATOM      3  C   UNL     1      12.376  -1.253   6.950  1.00  0.00     0.336 A 
ATOM      4  O   UNL     1      13.471  -0.997   7.514  1.00  0.00    -0.246 OA
ATOM      5  O   UNL     1      12.359  -1.584   5.661  1.00  0.00    -0.423 OA
ATOM      6  C   UNL     1      11.234  -1.865   5.008  1.00  0.00     0.142 A 
ATOM      7  C   UNL     1      11.278  -2.206   3.652  1.00  0.00     0.098 A 
ATOM      8  C   UNL     1      10.096  -2.503   2.959  1.00  0.00     0.161 A 
ATOM      9  C   UNL     1       8.860  -2.460   3.630  1.00  0.00     0.158 A 
ATOM     10  C   UNL     1       8.811  -2.119   4.987  1.00  0.00     0.062 A 
ATOM     11  C   UNL     1       9.994  -1.821   5.679  1.00  0.00     0.022 A 
ENDROOT
BRANCH   9  12
ATOM     12  O   UNL     1       7.669  -2.752   2.963  1.00  0.00    -0.504 OA
ATOM     13  H   UNL     1       6.803  -2.271   3.174  1.00  0.00     0.293 HD
ENDBRANCH   9  12
BRANCH   8  14
ATOM     14  O   UNL     1      10.145  -2.842   1.608  1.00  0.00    -0.504 OA
ATOM     15  H   UNL     1      10.976  -2.681   1.049  1.00  0.00     0.293 HD
ENDBRANCH   8  14
TORSDOF 2
ENDMDL
MODEL 8
REMARK VINA RESULT:    -4.894      1.953      4.321
REMARK INTER + INTRA:          -5.180
REMARK INTER:                  -5.180
REMARK INTRA:                   0.000
REMARK UNBOUND:                 0.000
REMARK SMILES O=c1ccc2cc(O)c(O)cc2o1
REMARK SMILES IDX 4 1 3 2 2 3 1 4 13 5 12 6 11 7 9 8 7 9 6 10 5 11 8 12 10 14
REMARK H PARENT 8 13 10 15
REMARK Flexibility Score: inf
ROOT
ATOM      1  C   UNL     1       9.098  -3.125   3.302  1.00  0.00     0.019 A 
ATOM      2  C   UNL     1       8.011  -3.947   3.597  1.00  0.00     0.094 A 
ATOM      3  C   UNL     1       7.655  -4.147   4.935  1.00  0.00     0.336 A 
ATOM      4  O   UNL     1       6.677  -4.886   5.221  1.00  0.00    -0.246 OA
ATOM      5  O   UNL     1       8.346  -3.561   5.910  1.00  0.00    -0.423 OA
ATOM      6  C   UNL     1       9.389  -2.769   5.672  1.00  0.00     0.142 A 
ATOM      7  C   UNL     1      10.076  -2.179   6.737  1.00  0.00     0.098 A 
ATOM      8  C   UNL     1      11.176  -1.344   6.493  1.00  0.00     0.161 A 
ATOM      9  C   UNL     1      11.591  -1.098   5.171  1.00  0.00     0.158 A 
ATOM     10  C   UNL     1      10.905  -1.687   4.102  1.00  0.00     0.062 A 
ATOM     11  C   UNL     1       9.805  -2.521   4.347  1.00  0.00     0.022 A 
ENDROOT
BRANCH   9  12
ATOM     12  O   UNL     1      12.682  -0.272   4.901  1.00  0.00    -0.504 OA
ATOM     13  H   UNL     1      13.613  -0.482   5.239  1.00  0.00     0.293 HD
ENDBRANCH   9  12
BRANCH   8  14
ATOM     14  O   UNL     1      11.859  -0.758   7.558  1.00  0.00    -0.504 OA
ATOM     15  H   UNL     1      11.478   0.037   8.060  1.00  0.00     0.293 HD
ENDBRANCH   8  14
TORSDOF 2
ENDMDL
MODEL 9
REMARK VINA RESULT:    -4.707      2.872      4.732
REMARK INTER + INTRA:          -4.983
REMARK INTER:                  -4.983
REMARK INTRA:                   0.000
REMARK UNBOUND:                 0.000
REMARK SMILES O=c1ccc2cc(O)c(O)cc2o1
REMARK SMILES IDX 4 1 3 2 2 3 1 4 13 5 12 6 11 7 9 8 7 9 6 10 5 11 8 12 10 14
REMARK H PARENT 8 13 10 15
REMARK Flexibility Score: inf
ROOT
ATOM      1  C   UNL     1       9.903  -2.100   5.582  1.00  0.00     0.019 A 
ATOM      2  C   UNL     1       9.962  -1.618   4.274  1.00  0.00     0.094 A 
ATOM      3  C   UNL     1       9.194  -2.242   3.285  1.00  0.00     0.336 A 
ATOM      4  O   UNL     1       9.234  -1.821   2.100  1.00  0.00    -0.246 OA
ATOM      5  O   UNL     1       8.420  -3.281   3.590  1.00  0.00    -0.423 OA
ATOM      6  C   UNL     1       8.335  -3.772   4.824  1.00  0.00     0.142 A 
ATOM      7  C   UNL     1       7.503  -4.866   5.085  1.00  0.00     0.098 A 
ATOM      8  C   UNL     1       7.408  -5.388   6.383  1.00  0.00     0.161 A 
ATOM      9  C   UNL     1       8.154  -4.810   7.428  1.00  0.00     0.158 A 
ATOM     10  C   UNL     1       8.987  -3.715   7.170  1.00  0.00     0.062 A 
ATOM     11  C   UNL     1       9.080  -3.193   5.872  1.00  0.00     0.022 A 
ENDROOT
BRANCH   9  12
ATOM     12  O   UNL     1       8.078  -5.311   8.728  1.00  0.00    -0.504 OA
ATOM     13  H   UNL     1       8.641  -4.937   9.482  1.00  0.00     0.293 HD
ENDBRANCH   9  12
BRANCH   8  14
ATOM     14  O   UNL     1       6.579  -6.479   6.639  1.00  0.00    -0.504 OA
ATOM     15  H   UNL     1       5.592  -6.359   6.841  1.00  0.00     0.293 HD
ENDBRANCH   8  14
TORSDOF 2
ENDMDL
