MODEL 1
REMARK VINA RESULT:    -6.263      0.000      0.000
REMARK INTER + INTRA:          -7.637
REMARK INTER:                  -7.361
REMARK INTRA:                  -0.276
REMARK UNBOUND:                -0.276
REMARK SMILES O=c1c(O)c(-c2ccc(O)cc2)oc2cc(O)cc(O)c12
REMARK SMILES IDX 5 1 3 2 2 3 1 4 21 5 19 6 18 7 16 8 15 9 14 10 13 11 6 12
REMARK SMILES IDX 7 13 8 14 9 15 12 16 11 17 10 18 4 20 20 22 17 24
REMARK H PARENT 10 19 4 21 20 23 17 25
REMARK Flexibility Score: inf
ROOT
ATOM      1  C   UNL     1      -5.934 -22.106  34.972  1.00  0.00     0.180 A 
ATOM      2  C   UNL     1      -6.853 -21.220  35.562  1.00  0.00     0.208 A 
ATOM      3  C   UNL     1      -6.615 -19.839  35.482  1.00  0.00     0.238 A 
ATOM      4  O   UNL     1      -7.468 -19.049  35.964  1.00  0.00    -0.285 OA
ATOM      5  C   UNL     1      -5.453 -19.360  34.829  1.00  0.00     0.111 A 
ATOM      6  C   UNL     1      -5.090 -17.985  34.724  1.00  0.00     0.134 A 
ATOM      7  C   UNL     1      -3.988 -17.618  33.943  1.00  0.00     0.093 A 
ATOM      8  C   UNL     1      -3.197 -18.584  33.316  1.00  0.00     0.123 A 
ATOM      9  C   UNL     1      -3.507 -19.934  33.462  1.00  0.00     0.094 A 
ATOM     10  C   UNL     1      -4.622 -20.328  34.205  1.00  0.00     0.146 A 
ATOM     11  O   UNL     1      -4.889 -21.624  34.309  1.00  0.00    -0.452 OA
ENDROOT
BRANCH   1  12
ATOM     12  C   UNL     1      -6.104 -23.575  35.036  1.00  0.00     0.021 A 
ATOM     13  C   UNL     1      -5.693 -24.269  36.187  1.00  0.00     0.016 A 
ATOM     14  C   UNL     1      -5.865 -25.654  36.279  1.00  0.00     0.047 A 
ATOM     15  C   UNL     1      -6.462 -26.360  35.230  1.00  0.00     0.115 A 
ATOM     16  C   UNL     1      -6.722 -24.289  33.993  1.00  0.00     0.016 A 
ATOM     17  C   UNL     1      -6.893 -25.673  34.088  1.00  0.00     0.047 A 
BRANCH  15  18
ATOM     18  O   UNL     1      -6.627 -27.740  35.334  1.00  0.00    -0.508 OA
ATOM     19  H   UNL     1      -7.546 -28.167  35.306  1.00  0.00     0.293 HD
ENDBRANCH  15  18
ENDBRANCH   1  12
BRANCH   2  20
ATOM     20  O   UNL     1      -8.005 -21.713  36.183  1.00  0.00    -0.502 OA
ATOM     21  H   UNL     1      -7.995 -22.536  36.772  1.00  0.00     0.293 HD
ENDBRANCH   2  20
BRANCH   6  22
ATOM     22  O   UNL     1      -5.759 -16.949  35.385  1.00  0.00    -0.507 OA
ATOM     23  H   UNL     1      -6.204 -16.168  34.927  1.00  0.00     0.293 HD
ENDBRANCH   6  22
BRANCH   8  24
ATOM     24  O   UNL     1      -2.091 -18.212  32.553  1.00  0.00    -0.508 OA
ATOM     25  H   UNL     1      -1.767 -18.778  31.779  1.00  0.00     0.293 HD
ENDBRANCH   8  24
TORSDOF 5
ENDMDL
MODEL 2
REMARK VINA RESULT:    -5.966      2.275      2.897
REMARK INTER + INTRA:          -7.288
REMARK INTER:                  -7.004
REMARK INTRA:                  -0.284
REMARK UNBOUND:                -0.276
REMARK SMILES O=c1c(O)c(-c2ccc(O)cc2)oc2cc(O)cc(O)c12
REMARK SMILES IDX 5 1 3 2 2 3 1 4 21 5 19 6 18 7 16 8 15 9 14 10 13 11 6 12
REMARK SMILES IDX 7 13 8 14 9 15 12 16 11 17 10 18 4 20 20 22 17 24
REMARK H PARENT 10 19 4 21 20 23 17 25
REMARK Flexibility Score: inf
ROOT
ATOM      1  C   UNL     1      -6.595 -23.727  35.000  1.00  0.00     0.180 A 
ATOM      2  C   UNL     1      -7.042 -22.725  34.119  1.00  0.00     0.208 A 
ATOM      3  C   UNL     1      -6.321 -21.524  34.033  1.00  0.00     0.238 A 
ATOM      4  O   UNL     1      -6.694 -20.653  33.204  1.00  0.00    -0.285 OA
ATOM      5  C   UNL     1      -5.173 -21.331  34.839  1.00  0.00     0.111 A 
ATOM      6  C   UNL     1      -4.390 -20.138  34.864  1.00  0.00     0.134 A 
ATOM      7  C   UNL     1      -3.202 -20.106  35.602  1.00  0.00     0.093 A 
ATOM      8  C   UNL     1      -2.801 -21.203  36.369  1.00  0.00     0.123 A 
ATOM      9  C   UNL     1      -3.589 -22.351  36.400  1.00  0.00     0.094 A 
ATOM     10  C   UNL     1      -4.763 -22.426  35.645  1.00  0.00     0.146 A 
ATOM     11  O   UNL     1      -5.478 -23.542  35.693  1.00  0.00    -0.452 OA
ENDROOT
BRANCH   1  12
ATOM     12  C   UNL     1      -7.316 -25.010  35.164  1.00  0.00     0.021 A 
ATOM     13  C   UNL     1      -8.404 -25.083  36.051  1.00  0.00     0.016 A 
ATOM     14  C   UNL     1      -9.113 -26.278  36.205  1.00  0.00     0.047 A 
ATOM     15  C   UNL     1      -8.755 -27.409  35.465  1.00  0.00     0.115 A 
ATOM     16  C   UNL     1      -6.974 -26.145  34.407  1.00  0.00     0.016 A 
ATOM     17  C   UNL     1      -7.686 -27.339  34.563  1.00  0.00     0.047 A 
BRANCH  15  18
ATOM     18  O   UNL     1      -9.471 -28.594  35.628  1.00  0.00    -0.508 OA
ATOM     19  H   UNL     1      -9.491 -29.082  36.516  1.00  0.00     0.293 HD
ENDBRANCH  15  18
ENDBRANCH   1  12
BRANCH   2  20
ATOM     20  O   UNL     1      -8.165 -22.945  33.315  1.00  0.00    -0.502 OA
ATOM     21  H   UNL     1      -8.923 -22.278  33.247  1.00  0.00     0.293 HD
ENDBRANCH   2  20
BRANCH   6  22
ATOM     22  O   UNL     1      -4.749 -18.957  34.206  1.00  0.00    -0.507 OA
ATOM     23  H   UNL     1      -4.851 -18.863  33.208  1.00  0.00     0.293 HD
ENDBRANCH   6  22
BRANCH   8  24
ATOM     24  O   UNL     1      -1.624 -21.158  37.115  1.00  0.00    -0.508 OA
ATOM     25  H   UNL     1      -0.781 -21.622  36.801  1.00  0.00     0.293 HD
ENDBRANCH   8  24
TORSDOF 5
ENDMDL
MODEL 3
REMARK VINA RESULT:    -5.856      2.089      6.996
REMARK INTER + INTRA:          -7.159
REMARK INTER:                  -6.865
REMARK INTRA:                  -0.294
REMARK UNBOUND:                -0.276
REMARK SMILES O=c1c(O)c(-c2ccc(O)cc2)oc2cc(O)cc(O)c12
REMARK SMILES IDX 5 1 3 2 2 3 1 4 21 5 19 6 18 7 16 8 15 9 14 10 13 11 6 12
REMARK SMILES IDX 7 13 8 14 9 15 12 16 11 17 10 18 4 20 20 22 17 24
REMARK H PARENT 10 19 4 21 20 23 17 25
REMARK Flexibility Score: inf
ROOT
ATOM      1  C   UNL     1      -6.465 -22.091  34.880  1.00  0.00     0.180 A 
ATOM      2  C   UNL     1      -6.772 -22.343  33.531  1.00  0.00     0.208 A 
ATOM      3  C   UNL     1      -7.008 -23.664  33.121  1.00  0.00     0.238 A 
ATOM      4  O   UNL     1      -7.336 -23.877  31.924  1.00  0.00    -0.285 OA
ATOM      5  C   UNL     1      -6.917 -24.721  34.059  1.00  0.00     0.111 A 
ATOM      6  C   UNL     1      -7.097 -26.101  33.747  1.00  0.00     0.134 A 
ATOM      7  C   UNL     1      -7.114 -27.047  34.778  1.00  0.00     0.093 A 
ATOM      8  C   UNL     1      -6.893 -26.669  36.105  1.00  0.00     0.123 A 
ATOM      9  C   UNL     1      -6.658 -25.331  36.414  1.00  0.00     0.094 A 
ATOM     10  C   UNL     1      -6.670 -24.360  35.410  1.00  0.00     0.146 A 
ATOM     11  O   UNL     1      -6.453 -23.095  35.749  1.00  0.00    -0.452 OA
ENDROOT
BRANCH   1  12
ATOM     12  C   UNL     1      -6.180 -20.728  35.382  1.00  0.00     0.021 A 
ATOM     13  C   UNL     1      -7.233 -19.939  35.876  1.00  0.00     0.016 A 
ATOM     14  C   UNL     1      -6.983 -18.657  36.376  1.00  0.00     0.047 A 
ATOM     15  C   UNL     1      -5.678 -18.154  36.403  1.00  0.00     0.115 A 
ATOM     16  C   UNL     1      -4.867 -20.224  35.431  1.00  0.00     0.016 A 
ATOM     17  C   UNL     1      -4.621 -18.942  35.932  1.00  0.00     0.047 A 
BRANCH  15  18
ATOM     18  O   UNL     1      -5.444 -16.875  36.903  1.00  0.00    -0.508 OA
ATOM     19  H   UNL     1      -6.104 -16.420  37.524  1.00  0.00     0.293 HD
ENDBRANCH  15  18
ENDBRANCH   1  12
BRANCH   2  20
ATOM     20  O   UNL     1      -6.879 -21.283  32.625  1.00  0.00    -0.502 OA
ATOM     21  H   UNL     1      -6.104 -20.664  32.419  1.00  0.00     0.293 HD
ENDBRANCH   2  20
BRANCH   6  22
ATOM     22  O   UNL     1      -7.233 -26.594  32.445  1.00  0.00    -0.507 OA
ATOM     23  H   UNL     1      -7.337 -27.569  32.208  1.00  0.00     0.293 HD
ENDBRANCH   6  22
BRANCH   8  24
ATOM     24  O   UNL     1      -6.895 -27.619  37.125  1.00  0.00    -0.508 OA
ATOM     25  H   UNL     1      -7.096 -28.594  36.940  1.00  0.00     0.293 HD
ENDBRANCH   8  24
TORSDOF 5
ENDMDL
MODEL 4
REMARK VINA RESULT:    -5.547      2.358      3.741
REMARK INTER + INTRA:          -6.796
REMARK INTER:                  -6.735
REMARK INTRA:                  -0.060
REMARK UNBOUND:                -0.276
REMARK SMILES O=c1c(O)c(-c2ccc(O)cc2)oc2cc(O)cc(O)c12
REMARK SMILES IDX 5 1 3 2 2 3 1 4 21 5 19 6 18 7 16 8 15 9 14 10 13 11 6 12
REMARK SMILES IDX 7 13 8 14 9 15 12 16 11 17 10 18 4 20 20 22 17 24
REMARK H PARENT 10 19 4 21 20 23 17 25
REMARK Flexibility Score: inf
ROOT
ATOM      1  C   UNL     1      -6.815 -23.854  36.060  1.00  0.00     0.180 A 
ATOM      2  C   UNL     1      -5.435 -23.866  36.334  1.00  0.00     0.208 A 
ATOM      3  C   UNL     1      -4.764 -22.644  36.504  1.00  0.00     0.238 A 
ATOM      4  O   UNL     1      -3.542 -22.663  36.802  1.00  0.00    -0.285 OA
ATOM      5  C   UNL     1      -5.475 -21.426  36.381  1.00  0.00     0.111 A 
ATOM      6  C   UNL     1      -4.889 -20.130  36.492  1.00  0.00     0.134 A 
ATOM      7  C   UNL     1      -5.711 -18.997  36.484  1.00  0.00     0.093 A 
ATOM      8  C   UNL     1      -7.092 -19.110  36.302  1.00  0.00     0.123 A 
ATOM      9  C   UNL     1      -7.667 -20.367  36.132  1.00  0.00     0.094 A 
ATOM     10  C   UNL     1      -6.877 -21.519  36.172  1.00  0.00     0.146 A 
ATOM     11  O   UNL     1      -7.466 -22.698  36.017  1.00  0.00    -0.452 OA
ENDROOT
BRANCH   1  12
ATOM     12  C   UNL     1      -7.585 -25.100  35.845  1.00  0.00     0.021 A 
ATOM     13  C   UNL     1      -8.750 -25.331  36.597  1.00  0.00     0.016 A 
ATOM     14  C   UNL     1      -9.506 -26.489  36.394  1.00  0.00     0.047 A 
ATOM     15  C   UNL     1      -9.117 -27.424  35.428  1.00  0.00     0.115 A 
ATOM     16  C   UNL     1      -7.211 -26.033  34.861  1.00  0.00     0.016 A 
ATOM     17  C   UNL     1      -7.969 -27.191  34.661  1.00  0.00     0.047 A 
BRANCH  15  18
ATOM     18  O   UNL     1      -9.880 -28.574  35.237  1.00  0.00    -0.508 OA
ATOM     19  H   UNL     1     -10.029 -28.962  34.313  1.00  0.00     0.293 HD
ENDBRANCH  15  18
ENDBRANCH   1  12
BRANCH   2  20
ATOM     20  O   UNL     1      -4.757 -25.080  36.473  1.00  0.00    -0.502 OA
ATOM     21  H   UNL     1      -4.159 -25.281  37.266  1.00  0.00     0.293 HD
ENDBRANCH   2  20
BRANCH   6  22
ATOM     22  O   UNL     1      -3.512 -19.902  36.586  1.00  0.00    -0.507 OA
ATOM     23  H   UNL     1      -2.832 -20.214  35.911  1.00  0.00     0.293 HD
ENDBRANCH   6  22
BRANCH   8  24
ATOM     24  O   UNL     1      -7.901 -17.976  36.278  1.00  0.00    -0.508 OA
ATOM     25  H   UNL     1      -7.854 -17.276  37.009  1.00  0.00     0.293 HD
ENDBRANCH   8  24
TORSDOF 5
ENDMDL
MODEL 5
REMARK VINA RESULT:    -5.473      1.576      6.411
REMARK INTER + INTRA:          -6.709
REMARK INTER:                  -6.428
REMARK INTRA:                  -0.281
REMARK UNBOUND:                -0.276
REMARK SMILES O=c1c(O)c(-c2ccc(O)cc2)oc2cc(O)cc(O)c12
REMARK SMILES IDX 5 1 3 2 2 3 1 4 21 5 19 6 18 7 16 8 15 9 14 10 13 11 6 12
REMARK SMILES IDX 7 13 8 14 9 15 12 16 11 17 10 18 4 20 20 22 17 24
REMARK H PARENT 10 19 4 21 20 23 17 25
REMARK Flexibility Score: inf
ROOT
ATOM      1  C   UNL     1      -4.898 -20.735  35.032  1.00  0.00     0.180 A 
ATOM      2  C   UNL     1      -6.244 -20.335  35.103  1.00  0.00     0.208 A 
ATOM      3  C   UNL     1      -7.241 -21.315  35.227  1.00  0.00     0.238 A 
ATOM      4  O   UNL     1      -8.439 -20.948  35.345  1.00  0.00    -0.285 OA
ATOM      5  C   UNL     1      -6.883 -22.684  35.263  1.00  0.00     0.111 A 
ATOM      6  C   UNL     1      -7.811 -23.764  35.346  1.00  0.00     0.134 A 
ATOM      7  C   UNL     1      -7.339 -25.072  35.506  1.00  0.00     0.093 A 
ATOM      8  C   UNL     1      -5.969 -25.345  35.521  1.00  0.00     0.123 A 
ATOM      9  C   UNL     1      -5.054 -24.305  35.381  1.00  0.00     0.094 A 
ATOM     10  C   UNL     1      -5.495 -22.985  35.255  1.00  0.00     0.146 A 
ATOM     11  O   UNL     1      -4.590 -22.022  35.135  1.00  0.00    -0.452 OA
ENDROOT
BRANCH   1  12
ATOM     12  C   UNL     1      -3.794 -19.762  34.876  1.00  0.00     0.021 A 
ATOM     13  C   UNL     1      -3.238 -19.158  36.016  1.00  0.00     0.016 A 
ATOM     14  C   UNL     1      -2.179 -18.253  35.894  1.00  0.00     0.047 A 
ATOM     15  C   UNL     1      -1.653 -17.951  34.634  1.00  0.00     0.115 A 
ATOM     16  C   UNL     1      -3.248 -19.469  33.613  1.00  0.00     0.016 A 
ATOM     17  C   UNL     1      -2.189 -18.564  33.494  1.00  0.00     0.047 A 
BRANCH  15  18
ATOM     18  O   UNL     1      -0.599 -17.047  34.526  1.00  0.00    -0.508 OA
ATOM     19  H   UNL     1      -0.011 -17.014  33.701  1.00  0.00     0.293 HD
ENDBRANCH  15  18
ENDBRANCH   1  12
BRANCH   2  20
ATOM     20  O   UNL     1      -6.575 -18.976  35.088  1.00  0.00    -0.502 OA
ATOM     21  H   UNL     1      -7.228 -18.583  34.422  1.00  0.00     0.293 HD
ENDBRANCH   2  20
BRANCH   6  22
ATOM     22  O   UNL     1      -9.198 -23.609  35.249  1.00  0.00    -0.507 OA
ATOM     23  H   UNL     1      -9.777 -23.169  35.947  1.00  0.00     0.293 HD
ENDBRANCH   6  22
BRANCH   8  24
ATOM     24  O   UNL     1      -5.506 -26.652  35.665  1.00  0.00    -0.508 OA
ATOM     25  H   UNL     1      -5.493 -27.299  34.885  1.00  0.00     0.293 HD
ENDBRANCH   8  24
TORSDOF 5
ENDMDL
MODEL 6
REMARK VINA RESULT:    -5.352      2.282      3.151
REMARK INTER + INTRA:          -6.567
REMARK INTER:                  -6.268
REMARK INTRA:                  -0.299
REMARK UNBOUND:                -0.276
REMARK SMILES O=c1c(O)c(-c2ccc(O)cc2)oc2cc(O)cc(O)c12
REMARK SMILES IDX 5 1 3 2 2 3 1 4 21 5 19 6 18 7 16 8 15 9 14 10 13 11 6 12
REMARK SMILES IDX 7 13 8 14 9 15 12 16 11 17 10 18 4 20 20 22 17 24
REMARK H PARENT 10 19 4 21 20 23 17 25
REMARK Flexibility Score: inf
ROOT
ATOM      1  C   UNL     1      -4.620 -21.208  34.950  1.00  0.00     0.180 A 
ATOM      2  C   UNL     1      -4.844 -20.346  33.862  1.00  0.00     0.208 A 
ATOM      3  C   UNL     1      -3.959 -19.277  33.646  1.00  0.00     0.238 A 
ATOM      4  O   UNL     1      -4.133 -18.542  32.640  1.00  0.00    -0.285 OA
ATOM      5  C   UNL     1      -2.872 -19.073  34.530  1.00  0.00     0.111 A 
ATOM      6  C   UNL     1      -1.938 -17.999  34.432  1.00  0.00     0.134 A 
ATOM      7  C   UNL     1      -0.826 -17.970  35.282  1.00  0.00     0.093 A 
ATOM      8  C   UNL     1      -0.651 -18.942  36.271  1.00  0.00     0.123 A 
ATOM      9  C   UNL     1      -1.590 -19.961  36.415  1.00  0.00     0.094 A 
ATOM     10  C   UNL     1      -2.690 -20.036  35.558  1.00  0.00     0.146 A 
ATOM     11  O   UNL     1      -3.555 -21.029  35.721  1.00  0.00    -0.452 OA
ENDROOT
BRANCH   1  12
ATOM     12  C   UNL     1      -5.523 -22.341  35.255  1.00  0.00     0.021 A 
ATOM     13  C   UNL     1      -5.204 -23.626  34.784  1.00  0.00     0.016 A 
ATOM     14  C   UNL     1      -6.030 -24.714  35.080  1.00  0.00     0.047 A 
ATOM     15  C   UNL     1      -7.176 -24.537  35.861  1.00  0.00     0.115 A 
ATOM     16  C   UNL     1      -6.667 -22.172  36.057  1.00  0.00     0.016 A 
ATOM     17  C   UNL     1      -7.490 -23.263  36.351  1.00  0.00     0.047 A 
BRANCH  15  18
ATOM     18  O   UNL     1      -7.990 -25.630  36.148  1.00  0.00    -0.508 OA
ATOM     19  H   UNL     1      -8.993 -25.595  36.007  1.00  0.00     0.293 HD
ENDBRANCH  15  18
ENDBRANCH   1  12
BRANCH   2  20
ATOM     20  O   UNL     1      -5.911 -20.578  32.988  1.00  0.00    -0.502 OA
ATOM     21  H   UNL     1      -6.817 -20.897  33.309  1.00  0.00     0.293 HD
ENDBRANCH   2  20
BRANCH   6  22
ATOM     22  O   UNL     1      -2.069 -16.930  33.540  1.00  0.00    -0.507 OA
ATOM     23  H   UNL     1      -2.310 -17.021  32.565  1.00  0.00     0.293 HD
ENDBRANCH   6  22
BRANCH   8  24
ATOM     24  O   UNL     1       0.450 -18.896  37.125  1.00  0.00    -0.508 OA
ATOM     25  H   UNL     1       0.587 -18.130  37.772  1.00  0.00     0.293 HD
ENDBRANCH   8  24
TORSDOF 5
ENDMDL
MODEL 7
REMARK VINA RESULT:    -5.193      1.948      2.229
REMARK INTER + INTRA:          -6.380
REMARK INTER:                  -6.080
REMARK INTRA:                  -0.300
REMARK UNBOUND:                -0.276
REMARK SMILES O=c1c(O)c(-c2ccc(O)cc2)oc2cc(O)cc(O)c12
REMARK SMILES IDX 5 1 3 2 2 3 1 4 21 5 19 6 18 7 16 8 15 9 14 10 13 11 6 12
REMARK SMILES IDX 7 13 8 14 9 15 12 16 11 17 10 18 4 20 20 22 17 24
REMARK H PARENT 10 19 4 21 20 23 17 25
REMARK Flexibility Score: inf
ROOT
ATOM      1  C   UNL     1      -6.362 -22.846  35.001  1.00  0.00     0.180 A 
ATOM      2  C   UNL     1      -7.330 -21.844  35.189  1.00  0.00     0.208 A 
ATOM      3  C   UNL     1      -6.924 -20.583  35.654  1.00  0.00     0.238 A 
ATOM      4  O   UNL     1      -7.786 -19.674  35.767  1.00  0.00    -0.285 OA
ATOM      5  C   UNL     1      -5.558 -20.345  35.943  1.00  0.00     0.111 A 
ATOM      6  C   UNL     1      -5.040 -19.119  36.457  1.00  0.00     0.134 A 
ATOM      7  C   UNL     1      -3.656 -18.952  36.582  1.00  0.00     0.093 A 
ATOM      8  C   UNL     1      -2.775 -19.990  36.271  1.00  0.00     0.123 A 
ATOM      9  C   UNL     1      -3.274 -21.212  35.825  1.00  0.00     0.094 A 
ATOM     10  C   UNL     1      -4.648 -21.396  35.656  1.00  0.00     0.146 A 
ATOM     11  O   UNL     1      -5.081 -22.571  35.217  1.00  0.00    -0.452 OA
ENDROOT
BRANCH   1  12
ATOM     12  C   UNL     1      -6.716 -24.207  34.537  1.00  0.00     0.021 A 
ATOM     13  C   UNL     1      -6.649 -24.509  33.166  1.00  0.00     0.016 A 
ATOM     14  C   UNL     1      -6.957 -25.794  32.709  1.00  0.00     0.047 A 
ATOM     15  C   UNL     1      -7.322 -26.795  33.613  1.00  0.00     0.115 A 
ATOM     16  C   UNL     1      -7.065 -25.224  35.445  1.00  0.00     0.016 A 
ATOM     17  C   UNL     1      -7.372 -26.507  34.983  1.00  0.00     0.047 A 
BRANCH  15  18
ATOM     18  O   UNL     1      -7.627 -28.071  33.143  1.00  0.00    -0.508 OA
ATOM     19  H   UNL     1      -8.255 -28.685  33.648  1.00  0.00     0.293 HD
ENDBRANCH  15  18
ENDBRANCH   1  12
BRANCH   2  20
ATOM     20  O   UNL     1      -8.670 -22.093  34.876  1.00  0.00    -0.502 OA
ATOM     21  H   UNL     1      -9.011 -23.019  34.648  1.00  0.00     0.293 HD
ENDBRANCH   2  20
BRANCH   6  22
ATOM     22  O   UNL     1      -5.839 -18.053  36.884  1.00  0.00    -0.507 OA
ATOM     23  H   UNL     1      -6.831 -18.110  37.051  1.00  0.00     0.293 HD
ENDBRANCH   6  22
BRANCH   8  24
ATOM     24  O   UNL     1      -1.398 -19.821  36.414  1.00  0.00    -0.508 OA
ATOM     25  H   UNL     1      -0.969 -19.711  37.324  1.00  0.00     0.293 HD
ENDBRANCH   8  24
TORSDOF 5
ENDMDL
MODEL 8
REMARK VINA RESULT:    -5.173      2.063      7.283
REMARK INTER + INTRA:          -6.356
REMARK INTER:                  -6.060
REMARK INTRA:                  -0.296
REMARK UNBOUND:                -0.276
REMARK SMILES O=c1c(O)c(-c2ccc(O)cc2)oc2cc(O)cc(O)c12
REMARK SMILES IDX 5 1 3 2 2 3 1 4 21 5 19 6 18 7 16 8 15 9 14 10 13 11 6 12
REMARK SMILES IDX 7 13 8 14 9 15 12 16 11 17 10 18 4 20 20 22 17 24
REMARK H PARENT 10 19 4 21 20 23 17 25
REMARK Flexibility Score: inf
ROOT
ATOM      1  C   UNL     1      -6.045 -22.476  35.210  1.00  0.00     0.180 A 
ATOM      2  C   UNL     1      -5.463 -23.247  34.187  1.00  0.00     0.208 A 
ATOM      3  C   UNL     1      -5.934 -24.550  33.964  1.00  0.00     0.238 A 
ATOM      4  O   UNL     1      -5.446 -25.214  33.013  1.00  0.00    -0.285 OA
ATOM      5  C   UNL     1      -6.969 -25.074  34.775  1.00  0.00     0.111 A 
ATOM      6  C   UNL     1      -7.496 -26.395  34.665  1.00  0.00     0.134 A 
ATOM      7  C   UNL     1      -8.608 -26.762  35.431  1.00  0.00     0.093 A 
ATOM      8  C   UNL     1      -9.171 -25.876  36.353  1.00  0.00     0.123 A 
ATOM      9  C   UNL     1      -8.627 -24.604  36.512  1.00  0.00     0.094 A 
ATOM     10  C   UNL     1      -7.540 -24.196  35.735  1.00  0.00     0.146 A 
ATOM     11  O   UNL     1      -7.059 -22.972  35.909  1.00  0.00    -0.452 OA
ENDROOT
BRANCH   1  12
ATOM     12  C   UNL     1      -5.586 -21.104  35.521  1.00  0.00     0.021 A 
ATOM     13  C   UNL     1      -6.206 -20.008  34.897  1.00  0.00     0.016 A 
ATOM     14  C   UNL     1      -5.804 -18.703  35.193  1.00  0.00     0.047 A 
ATOM     15  C   UNL     1      -4.788 -18.474  36.126  1.00  0.00     0.115 A 
ATOM     16  C   UNL     1      -4.578 -20.866  36.473  1.00  0.00     0.016 A 
ATOM     17  C   UNL     1      -4.178 -19.559  36.767  1.00  0.00     0.047 A 
BRANCH  15  18
ATOM     18  O   UNL     1      -4.396 -17.167  36.411  1.00  0.00    -0.508 OA
ATOM     19  H   UNL     1      -4.252 -16.854  37.364  1.00  0.00     0.293 HD
ENDBRANCH  15  18
ENDBRANCH   1  12
BRANCH   2  20
ATOM     20  O   UNL     1      -4.457 -22.702  33.383  1.00  0.00    -0.502 OA
ATOM     21  H   UNL     1      -3.537 -22.478  33.741  1.00  0.00     0.293 HD
ENDBRANCH   2  20
BRANCH   6  22
ATOM     22  O   UNL     1      -6.951 -27.386  33.842  1.00  0.00    -0.507 OA
ATOM     23  H   UNL     1      -7.479 -28.123  33.402  1.00  0.00     0.293 HD
ENDBRANCH   6  22
BRANCH   8  24
ATOM     24  O   UNL     1     -10.269 -26.255  37.125  1.00  0.00    -0.508 OA
ATOM     25  H   UNL     1     -10.640 -25.653  37.849  1.00  0.00     0.293 HD
ENDBRANCH   8  24
TORSDOF 5
ENDMDL
MODEL 9
REMARK VINA RESULT:    -5.052      2.778      4.212
REMARK INTER + INTRA:          -6.215
REMARK INTER:                  -5.958
REMARK INTRA:                  -0.257
REMARK UNBOUND:                -0.276
REMARK SMILES O=c1c(O)c(-c2ccc(O)cc2)oc2cc(O)cc(O)c12
REMARK SMILES IDX 5 1 3 2 2 3 1 4 21 5 19 6 18 7 16 8 15 9 14 10 13 11 6 12
REMARK SMILES IDX 7 13 8 14 9 15 12 16 11 17 10 18 4 20 20 22 17 24
REMARK H PARENT 10 19 4 21 20 23 17 25
REMARK Flexibility Score: inf
ROOT
ATOM      1  C   UNL     1      -5.478 -20.820  34.849  1.00  0.00     0.180 A 
ATOM      2  C   UNL     1      -4.937 -21.742  35.763  1.00  0.00     0.208 A 
ATOM      3  C   UNL     1      -3.631 -21.543  36.239  1.00  0.00     0.238 A 
ATOM      4  O   UNL     1      -3.173 -22.341  37.097  1.00  0.00    -0.285 OA
ATOM      5  C   UNL     1      -2.876 -20.436  35.783  1.00  0.00     0.111 A 
ATOM      6  C   UNL     1      -1.530 -20.159  36.167  1.00  0.00     0.134 A 
ATOM      7  C   UNL     1      -0.926 -18.965  35.757  1.00  0.00     0.093 A 
ATOM      8  C   UNL     1      -1.598 -18.068  34.922  1.00  0.00     0.123 A 
ATOM      9  C   UNL     1      -2.891 -18.357  34.493  1.00  0.00     0.094 A 
ATOM     10  C   UNL     1      -3.533 -19.524  34.915  1.00  0.00     0.146 A 
ATOM     11  O   UNL     1      -4.769 -19.756  34.492  1.00  0.00    -0.452 OA
ENDROOT
BRANCH   1  12
ATOM     12  C   UNL     1      -6.838 -20.977  34.284  1.00  0.00     0.021 A 
ATOM     13  C   UNL     1      -6.996 -21.548  33.010  1.00  0.00     0.016 A 
ATOM     14  C   UNL     1      -8.271 -21.726  32.467  1.00  0.00     0.047 A 
ATOM     15  C   UNL     1      -9.405 -21.350  33.194  1.00  0.00     0.115 A 
ATOM     16  C   UNL     1      -7.983 -20.619  35.020  1.00  0.00     0.016 A 
ATOM     17  C   UNL     1      -9.257 -20.799  34.474  1.00  0.00     0.047 A 
BRANCH  15  18
ATOM     18  O   UNL     1     -10.670 -21.533  32.641  1.00  0.00    -0.508 OA
ATOM     19  H   UNL     1     -11.383 -22.075  33.115  1.00  0.00     0.293 HD
ENDBRANCH  15  18
ENDBRANCH   1  12
BRANCH   2  20
ATOM     20  O   UNL     1      -5.708 -22.817  36.217  1.00  0.00    -0.502 OA
ATOM     21  H   UNL     1      -5.362 -23.769  36.224  1.00  0.00     0.293 HD
ENDBRANCH   2  20
BRANCH   6  22
ATOM     22  O   UNL     1      -0.739 -21.031  36.922  1.00  0.00    -0.507 OA
ATOM     23  H   UNL     1      -0.404 -21.926  36.601  1.00  0.00     0.293 HD
ENDBRANCH   6  22
BRANCH   8  24
ATOM     24  O   UNL     1      -0.983 -16.888  34.505  1.00  0.00    -0.508 OA
ATOM     25  H   UNL     1      -0.232 -16.466  35.036  1.00  0.00     0.293 HD
ENDBRANCH   8  24
TORSDOF 5
ENDMDL
