MODEL 1
REMARK VINA RESULT:    -7.538      0.000      0.000
REMARK INTER + INTRA:          -9.390
REMARK INTER:                  -9.080
REMARK INTRA:                  -0.310
REMARK UNBOUND:                -0.310
REMARK SMILES O=c1c(O)c(-c2ccc(O)c(O)c2)oc2cc(O)cc(O)c12
REMARK SMILES IDX 5 1 3 2 2 3 1 4 22 5 20 6 19 7 17 8 16 9 15 10 14 11 6 12
REMARK SMILES IDX 7 13 8 14 9 15 13 16 11 17 10 18 12 20 4 22 21 24 18 26
REMARK H PARENT 10 19 12 21 4 23 21 25 18 27
REMARK Flexibility Score: inf
ROOT
ATOM      1  C   UNL     1     -14.374  17.800  25.147  1.00  0.00     0.180 A 
ATOM      2  C   UNL     1     -15.161  17.139  24.184  1.00  0.00     0.208 A 
ATOM      3  C   UNL     1     -16.023  17.896  23.376  1.00  0.00     0.238 A 
ATOM      4  O   UNL     1     -16.724  17.316  22.503  1.00  0.00    -0.285 OA
ATOM      5  C   UNL     1     -16.101  19.293  23.558  1.00  0.00     0.111 A 
ATOM      6  C   UNL     1     -16.948  20.127  22.789  1.00  0.00     0.134 A 
ATOM      7  C   UNL     1     -16.975  21.507  23.036  1.00  0.00     0.093 A 
ATOM      8  C   UNL     1     -16.176  22.068  24.035  1.00  0.00     0.123 A 
ATOM      9  C   UNL     1     -15.337  21.249  24.797  1.00  0.00     0.094 A 
ATOM     10  C   UNL     1     -15.294  19.872  24.565  1.00  0.00     0.146 A 
ATOM     11  O   UNL     1     -14.485  19.117  25.300  1.00  0.00    -0.452 OA
ENDROOT
BRANCH   1  12
ATOM     12  C   UNL     1     -13.427  17.073  26.022  1.00  0.00     0.025 A 
ATOM     13  C   UNL     1     -12.152  16.743  25.535  1.00  0.00     0.016 A 
ATOM     14  C   UNL     1     -11.250  16.038  26.336  1.00  0.00     0.051 A 
ATOM     15  C   UNL     1     -11.613  15.641  27.629  1.00  0.00     0.157 A 
ATOM     16  C   UNL     1     -13.795  16.655  27.314  1.00  0.00     0.062 A 
ATOM     17  C   UNL     1     -12.894  15.948  28.118  1.00  0.00     0.158 A 
BRANCH  15  18
ATOM     18  O   UNL     1     -10.709  14.941  28.428  1.00  0.00    -0.504 OA
ATOM     19  H   UNL     1     -10.799  13.944  28.581  1.00  0.00     0.293 HD
ENDBRANCH  15  18
BRANCH  17  20
ATOM     20  O   UNL     1     -13.291  15.554  29.396  1.00  0.00    -0.504 OA
ATOM     21  H   UNL     1     -14.007  16.050  29.913  1.00  0.00     0.293 HD
ENDBRANCH  17  20
ENDBRANCH   1  12
BRANCH   2  22
ATOM     22  O   UNL     1     -15.102  15.748  24.058  1.00  0.00    -0.502 OA
ATOM     23  H   UNL     1     -15.269  15.125  24.839  1.00  0.00     0.293 HD
ENDBRANCH   2  22
BRANCH   6  24
ATOM     24  O   UNL     1     -17.759  19.597  21.785  1.00  0.00    -0.507 OA
ATOM     25  H   UNL     1     -18.674  19.983  21.579  1.00  0.00     0.293 HD
ENDBRANCH   6  24
BRANCH   8  26
ATOM     26  O   UNL     1     -16.222  23.442  24.261  1.00  0.00    -0.508 OA
ATOM     27  H   UNL     1     -15.664  24.088  23.715  1.00  0.00     0.293 HD
ENDBRANCH   8  26
TORSDOF 6
ENDMDL
MODEL 2
REMARK VINA RESULT:    -6.854      3.463      4.282
REMARK INTER + INTRA:          -8.566
REMARK INTER:                  -8.236
REMARK INTRA:                  -0.331
REMARK UNBOUND:                -0.310
REMARK SMILES O=c1c(O)c(-c2ccc(O)c(O)c2)oc2cc(O)cc(O)c12
REMARK SMILES IDX 5 1 3 2 2 3 1 4 22 5 20 6 19 7 17 8 16 9 15 10 14 11 6 12
REMARK SMILES IDX 7 13 8 14 9 15 13 16 11 17 10 18 12 20 4 22 21 24 18 26
REMARK H PARENT 10 19 12 21 4 23 21 25 18 27
REMARK Flexibility Score: inf
ROOT
ATOM      1  C   UNL     1     -12.374  18.857  26.495  1.00  0.00     0.180 A 
ATOM      2  C   UNL     1     -11.567  19.975  26.208  1.00  0.00     0.208 A 
ATOM      3  C   UNL     1     -12.108  21.261  26.363  1.00  0.00     0.238 A 
ATOM      4  O   UNL     1     -11.392  22.270  26.120  1.00  0.00    -0.285 OA
ATOM      5  C   UNL     1     -13.448  21.407  26.779  1.00  0.00     0.111 A 
ATOM      6  C   UNL     1     -14.071  22.667  26.955  1.00  0.00     0.134 A 
ATOM      7  C   UNL     1     -15.411  22.729  27.364  1.00  0.00     0.093 A 
ATOM      8  C   UNL     1     -16.140  21.561  27.597  1.00  0.00     0.123 A 
ATOM      9  C   UNL     1     -15.530  20.314  27.426  1.00  0.00     0.094 A 
ATOM     10  C   UNL     1     -14.195  20.230  27.022  1.00  0.00     0.146 A 
ATOM     11  O   UNL     1     -13.638  19.034  26.871  1.00  0.00    -0.452 OA
ENDROOT
BRANCH   1  12
ATOM     12  C   UNL     1     -11.869  17.471  26.375  1.00  0.00     0.025 A 
ATOM     13  C   UNL     1     -12.026  16.782  25.161  1.00  0.00     0.016 A 
ATOM     14  C   UNL     1     -11.576  15.466  25.032  1.00  0.00     0.051 A 
ATOM     15  C   UNL     1     -10.977  14.813  26.118  1.00  0.00     0.157 A 
ATOM     16  C   UNL     1     -11.286  16.806  27.469  1.00  0.00     0.062 A 
ATOM     17  C   UNL     1     -10.836  15.486  27.343  1.00  0.00     0.158 A 
BRANCH  15  18
ATOM     18  O   UNL     1     -10.526  13.501  25.985  1.00  0.00    -0.504 OA
ATOM     19  H   UNL     1      -9.956  13.214  25.198  1.00  0.00     0.293 HD
ENDBRANCH  15  18
BRANCH  17  20
ATOM     20  O   UNL     1     -10.257  14.860  28.446  1.00  0.00    -0.504 OA
ATOM     21  H   UNL     1     -10.687  14.879  29.363  1.00  0.00     0.293 HD
ENDBRANCH  17  20
ENDBRANCH   1  12
BRANCH   2  22
ATOM     22  O   UNL     1     -10.258  19.802  25.750  1.00  0.00    -0.502 OA
ATOM     23  H   UNL     1      -9.451  19.944  26.346  1.00  0.00     0.293 HD
ENDBRANCH   2  22
BRANCH   6  24
ATOM     24  O   UNL     1     -13.371  23.852  26.728  1.00  0.00    -0.507 OA
ATOM     25  H   UNL     1     -12.795  23.982  25.904  1.00  0.00     0.293 HD
ENDBRANCH   6  24
BRANCH   8  26
ATOM     26  O   UNL     1     -17.470  21.650  28.001  1.00  0.00    -0.508 OA
ATOM     27  H   UNL     1     -17.760  21.380  28.933  1.00  0.00     0.293 HD
ENDBRANCH   8  26
TORSDOF 6
ENDMDL
MODEL 3
REMARK VINA RESULT:    -6.780      1.238      3.032
REMARK INTER + INTRA:          -8.477
REMARK INTER:                  -8.147
REMARK INTRA:                  -0.330
REMARK UNBOUND:                -0.310
REMARK SMILES O=c1c(O)c(-c2ccc(O)c(O)c2)oc2cc(O)cc(O)c12
REMARK SMILES IDX 5 1 3 2 2 3 1 4 22 5 20 6 19 7 17 8 16 9 15 10 14 11 6 12
REMARK SMILES IDX 7 13 8 14 9 15 13 16 11 17 10 18 12 20 4 22 21 24 18 26
REMARK H PARENT 10 19 12 21 4 23 21 25 18 27
REMARK Flexibility Score: inf
ROOT
ATOM      1  C   UNL     1     -13.822  18.974  26.091  1.00  0.00     0.180 A 
ATOM      2  C   UNL     1     -13.732  20.312  26.521  1.00  0.00     0.208 A 
ATOM      3  C   UNL     1     -14.522  21.284  25.888  1.00  0.00     0.238 A 
ATOM      4  O   UNL     1     -14.458  22.483  26.271  1.00  0.00    -0.285 OA
ATOM      5  C   UNL     1     -15.371  20.908  24.825  1.00  0.00     0.111 A 
ATOM      6  C   UNL     1     -16.196  21.825  24.131  1.00  0.00     0.134 A 
ATOM      7  C   UNL     1     -17.006  21.374  23.079  1.00  0.00     0.093 A 
ATOM      8  C   UNL     1     -17.006  20.028  22.707  1.00  0.00     0.123 A 
ATOM      9  C   UNL     1     -16.194  19.117  23.389  1.00  0.00     0.094 A 
ATOM     10  C   UNL     1     -15.381  19.546  24.441  1.00  0.00     0.146 A 
ATOM     11  O   UNL     1     -14.623  18.659  25.076  1.00  0.00    -0.452 OA
ENDROOT
BRANCH   1  12
ATOM     12  C   UNL     1     -13.036  17.891  26.722  1.00  0.00     0.025 A 
ATOM     13  C   UNL     1     -11.769  17.569  26.209  1.00  0.00     0.016 A 
ATOM     14  C   UNL     1     -11.018  16.536  26.776  1.00  0.00     0.051 A 
ATOM     15  C   UNL     1     -11.529  15.799  27.852  1.00  0.00     0.157 A 
ATOM     16  C   UNL     1     -13.554  17.135  27.790  1.00  0.00     0.062 A 
ATOM     17  C   UNL     1     -12.805  16.098  28.358  1.00  0.00     0.158 A 
BRANCH  15  18
ATOM     18  O   UNL     1     -10.776  14.770  28.418  1.00  0.00    -0.504 OA
ATOM     19  H   UNL     1     -10.233  14.913  29.261  1.00  0.00     0.293 HD
ENDBRANCH  15  18
BRANCH  17  20
ATOM     20  O   UNL     1     -13.347  15.374  29.420  1.00  0.00    -0.504 OA
ATOM     21  H   UNL     1     -12.840  14.624  29.873  1.00  0.00     0.293 HD
ENDBRANCH  17  20
ENDBRANCH   1  12
BRANCH   2  22
ATOM     22  O   UNL     1     -12.847  20.667  27.543  1.00  0.00    -0.502 OA
ATOM     23  H   UNL     1     -12.773  21.616  27.892  1.00  0.00     0.293 HD
ENDBRANCH   2  22
BRANCH   6  24
ATOM     24  O   UNL     1     -16.217  23.177  24.478  1.00  0.00    -0.507 OA
ATOM     25  H   UNL     1     -15.943  23.900  23.823  1.00  0.00     0.293 HD
ENDBRANCH   6  24
BRANCH   8  26
ATOM     26  O   UNL     1     -17.819  19.606  21.658  1.00  0.00    -0.508 OA
ATOM     27  H   UNL     1     -18.585  20.176  21.317  1.00  0.00     0.293 HD
ENDBRANCH   8  26
TORSDOF 6
ENDMDL
MODEL 4
REMARK VINA RESULT:    -6.723      2.058      6.719
REMARK INTER + INTRA:          -8.409
REMARK INTER:                  -8.085
REMARK INTRA:                  -0.324
REMARK UNBOUND:                -0.310
REMARK SMILES O=c1c(O)c(-c2ccc(O)c(O)c2)oc2cc(O)cc(O)c12
REMARK SMILES IDX 5 1 3 2 2 3 1 4 22 5 20 6 19 7 17 8 16 9 15 10 14 11 6 12
REMARK SMILES IDX 7 13 8 14 9 15 13 16 11 17 10 18 12 20 4 22 21 24 18 26
REMARK H PARENT 10 19 12 21 4 23 21 25 18 27
REMARK Flexibility Score: inf
ROOT
ATOM      1  C   UNL     1     -15.884  17.830  23.468  1.00  0.00     0.180 A 
ATOM      2  C   UNL     1     -15.526  16.935  22.441  1.00  0.00     0.208 A 
ATOM      3  C   UNL     1     -14.390  16.129  22.609  1.00  0.00     0.238 A 
ATOM      4  O   UNL     1     -14.066  15.316  21.702  1.00  0.00    -0.285 OA
ATOM      5  C   UNL     1     -13.621  16.245  23.786  1.00  0.00     0.111 A 
ATOM      6  C   UNL     1     -12.459  15.473  24.031  1.00  0.00     0.134 A 
ATOM      7  C   UNL     1     -11.744  15.653  25.224  1.00  0.00     0.093 A 
ATOM      8  C   UNL     1     -12.163  16.588  26.172  1.00  0.00     0.123 A 
ATOM      9  C   UNL     1     -13.310  17.353  25.936  1.00  0.00     0.094 A 
ATOM     10  C   UNL     1     -14.038  17.187  24.755  1.00  0.00     0.146 A 
ATOM     11  O   UNL     1     -15.127  17.923  24.558  1.00  0.00    -0.452 OA
ENDROOT
BRANCH   1  12
ATOM     12  C   UNL     1     -17.079  18.699  23.373  1.00  0.00     0.025 A 
ATOM     13  C   UNL     1     -16.927  20.042  22.995  1.00  0.00     0.016 A 
ATOM     14  C   UNL     1     -18.038  20.886  22.919  1.00  0.00     0.051 A 
ATOM     15  C   UNL     1     -19.315  20.404  23.236  1.00  0.00     0.157 A 
ATOM     16  C   UNL     1     -18.360  18.224  23.710  1.00  0.00     0.062 A 
ATOM     17  C   UNL     1     -19.474  19.067  23.637  1.00  0.00     0.158 A 
BRANCH  15  18
ATOM     18  O   UNL     1     -20.423  21.247  23.156  1.00  0.00    -0.504 OA
ATOM     19  H   UNL     1     -20.886  21.431  22.274  1.00  0.00     0.293 HD
ENDBRANCH  15  18
BRANCH  17  20
ATOM     20  O   UNL     1     -20.730  18.560  23.972  1.00  0.00    -0.504 OA
ATOM     21  H   UNL     1     -21.053  18.515  24.931  1.00  0.00     0.293 HD
ENDBRANCH  17  20
ENDBRANCH   1  12
BRANCH   2  22
ATOM     22  O   UNL     1     -16.277  16.875  21.264  1.00  0.00    -0.502 OA
ATOM     23  H   UNL     1     -16.742  17.687  20.875  1.00  0.00     0.293 HD
ENDBRANCH   2  22
BRANCH   6  24
ATOM     24  O   UNL     1     -12.014  14.531  23.103  1.00  0.00    -0.507 OA
ATOM     25  H   UNL     1     -11.187  14.689  22.538  1.00  0.00     0.293 HD
ENDBRANCH   6  24
BRANCH   8  26
ATOM     26  O   UNL     1     -11.434  16.748  27.348  1.00  0.00    -0.508 OA
ATOM     27  H   UNL     1     -10.425  16.838  27.338  1.00  0.00     0.293 HD
ENDBRANCH   8  26
TORSDOF 6
ENDMDL
MODEL 5
REMARK VINA RESULT:    -6.713      1.635      3.321
REMARK INTER + INTRA:          -8.397
REMARK INTER:                  -8.332
REMARK INTRA:                  -0.064
REMARK UNBOUND:                -0.310
REMARK SMILES O=c1c(O)c(-c2ccc(O)c(O)c2)oc2cc(O)cc(O)c12
REMARK SMILES IDX 5 1 3 2 2 3 1 4 22 5 20 6 19 7 17 8 16 9 15 10 14 11 6 12
REMARK SMILES IDX 7 13 8 14 9 15 13 16 11 17 10 18 12 20 4 22 21 24 18 26
REMARK H PARENT 10 19 12 21 4 23 21 25 18 27
REMARK Flexibility Score: inf
ROOT
ATOM      1  C   UNL     1     -13.856  18.104  25.722  1.00  0.00     0.180 A 
ATOM      2  C   UNL     1     -14.335  19.391  26.037  1.00  0.00     0.208 A 
ATOM      3  C   UNL     1     -15.354  19.947  25.249  1.00  0.00     0.238 A 
ATOM      4  O   UNL     1     -15.799  21.094  25.527  1.00  0.00    -0.285 OA
ATOM      5  C   UNL     1     -15.862  19.220  24.151  1.00  0.00     0.111 A 
ATOM      6  C   UNL     1     -16.886  19.710  23.305  1.00  0.00     0.134 A 
ATOM      7  C   UNL     1     -17.331  18.930  22.228  1.00  0.00     0.093 A 
ATOM      8  C   UNL     1     -16.774  17.674  21.980  1.00  0.00     0.123 A 
ATOM      9  C   UNL     1     -15.763  17.184  22.813  1.00  0.00     0.094 A 
ATOM     10  C   UNL     1     -15.306  17.945  23.893  1.00  0.00     0.146 A 
ATOM     11  O   UNL     1     -14.349  17.455  24.671  1.00  0.00    -0.452 OA
ENDROOT
BRANCH   1  12
ATOM     12  C   UNL     1     -12.797  17.444  26.518  1.00  0.00     0.025 A 
ATOM     13  C   UNL     1     -13.063  16.208  27.129  1.00  0.00     0.016 A 
ATOM     14  C   UNL     1     -12.085  15.576  27.902  1.00  0.00     0.051 A 
ATOM     15  C   UNL     1     -10.834  16.177  28.088  1.00  0.00     0.157 A 
ATOM     16  C   UNL     1     -11.546  18.054  26.724  1.00  0.00     0.062 A 
ATOM     17  C   UNL     1     -10.566  17.424  27.500  1.00  0.00     0.158 A 
BRANCH  15  18
ATOM     18  O   UNL     1      -9.859  15.543  28.857  1.00  0.00    -0.504 OA
ATOM     19  H   UNL     1     -10.073  15.151  29.767  1.00  0.00     0.293 HD
ENDBRANCH  15  18
BRANCH  17  20
ATOM     20  O   UNL     1      -9.335  18.055  27.677  1.00  0.00    -0.504 OA
ATOM     21  H   UNL     1      -8.887  18.579  26.935  1.00  0.00     0.293 HD
ENDBRANCH  17  20
ENDBRANCH   1  12
BRANCH   2  22
ATOM     22  O   UNL     1     -13.780  20.111  27.098  1.00  0.00    -0.502 OA
ATOM     23  H   UNL     1     -14.325  20.755  27.660  1.00  0.00     0.293 HD
ENDBRANCH   2  22
BRANCH   6  24
ATOM     24  O   UNL     1     -17.462  20.962  23.525  1.00  0.00    -0.507 OA
ATOM     25  H   UNL     1     -18.428  21.154  23.285  1.00  0.00     0.293 HD
ENDBRANCH   6  24
BRANCH   8  26
ATOM     26  O   UNL     1     -17.233  16.919  20.904  1.00  0.00    -0.508 OA
ATOM     27  H   UNL     1     -16.742  16.091  20.589  1.00  0.00     0.293 HD
ENDBRANCH   8  26
TORSDOF 6
ENDMDL
MODEL 6
REMARK VINA RESULT:    -6.610      1.687      7.323
REMARK INTER + INTRA:          -8.273
REMARK INTER:                  -8.417
REMARK INTRA:                   0.144
REMARK UNBOUND:                -0.310
REMARK SMILES O=c1c(O)c(-c2ccc(O)c(O)c2)oc2cc(O)cc(O)c12
REMARK SMILES IDX 5 1 3 2 2 3 1 4 22 5 20 6 19 7 17 8 16 9 15 10 14 11 6 12
REMARK SMILES IDX 7 13 8 14 9 15 13 16 11 17 10 18 12 20 4 22 21 24 18 26
REMARK H PARENT 10 19 12 21 4 23 21 25 18 27
REMARK Flexibility Score: inf
ROOT
ATOM      1  C   UNL     1     -13.961  17.425  25.143  1.00  0.00     0.180 A 
ATOM      2  C   UNL     1     -13.643  17.835  26.452  1.00  0.00     0.208 A 
ATOM      3  C   UNL     1     -12.607  17.180  27.135  1.00  0.00     0.238 A 
ATOM      4  O   UNL     1     -12.306  17.545  28.304  1.00  0.00    -0.285 OA
ATOM      5  C   UNL     1     -11.921  16.118  26.510  1.00  0.00     0.111 A 
ATOM      6  C   UNL     1     -10.869  15.403  27.130  1.00  0.00     0.134 A 
ATOM      7  C   UNL     1     -10.242  14.353  26.444  1.00  0.00     0.093 A 
ATOM      8  C   UNL     1     -10.647  14.002  25.155  1.00  0.00     0.123 A 
ATOM      9  C   UNL     1     -11.686  14.704  24.537  1.00  0.00     0.094 A 
ATOM     10  C   UNL     1     -12.322  15.755  25.202  1.00  0.00     0.146 A 
ATOM     11  O   UNL     1     -13.303  16.410  24.590  1.00  0.00    -0.452 OA
ENDROOT
BRANCH   1  12
ATOM     12  C   UNL     1     -15.028  18.079  24.351  1.00  0.00     0.025 A 
ATOM     13  C   UNL     1     -15.806  17.307  23.473  1.00  0.00     0.016 A 
ATOM     14  C   UNL     1     -16.804  17.907  22.700  1.00  0.00     0.051 A 
ATOM     15  C   UNL     1     -17.028  19.288  22.782  1.00  0.00     0.157 A 
ATOM     16  C   UNL     1     -15.242  19.467  24.416  1.00  0.00     0.062 A 
ATOM     17  C   UNL     1     -16.239  20.071  23.642  1.00  0.00     0.158 A 
BRANCH  15  18
ATOM     18  O   UNL     1     -18.027  19.883  22.013  1.00  0.00    -0.504 OA
ATOM     19  H   UNL     1     -17.838  20.694  21.435  1.00  0.00     0.293 HD
ENDBRANCH  15  18
BRANCH  17  20
ATOM     20  O   UNL     1     -16.429  21.450  23.736  1.00  0.00    -0.504 OA
ATOM     21  H   UNL     1     -16.692  22.012  22.936  1.00  0.00     0.293 HD
ENDBRANCH  17  20
ENDBRANCH   1  12
BRANCH   2  22
ATOM     22  O   UNL     1     -14.371  18.857  27.069  1.00  0.00    -0.502 OA
ATOM     23  H   UNL     1     -14.360  19.002  28.071  1.00  0.00     0.293 HD
ENDBRANCH   2  22
BRANCH   6  24
ATOM     24  O   UNL     1     -10.441  15.729  28.418  1.00  0.00    -0.507 OA
ATOM     25  H   UNL     1     -11.081  16.088  29.117  1.00  0.00     0.293 HD
ENDBRANCH   6  24
BRANCH   8  26
ATOM     26  O   UNL     1     -10.009  12.954  24.496  1.00  0.00    -0.508 OA
ATOM     27  H   UNL     1      -9.127  13.088  24.016  1.00  0.00     0.293 HD
ENDBRANCH   8  26
TORSDOF 6
ENDMDL
MODEL 7
REMARK VINA RESULT:    -6.586      3.818      4.916
REMARK INTER + INTRA:          -8.243
REMARK INTER:                  -8.228
REMARK INTRA:                  -0.016
REMARK UNBOUND:                -0.310
REMARK SMILES O=c1c(O)c(-c2ccc(O)c(O)c2)oc2cc(O)cc(O)c12
REMARK SMILES IDX 5 1 3 2 2 3 1 4 22 5 20 6 19 7 17 8 16 9 15 10 14 11 6 12
REMARK SMILES IDX 7 13 8 14 9 15 13 16 11 17 10 18 12 20 4 22 21 24 18 26
REMARK H PARENT 10 19 12 21 4 23 21 25 18 27
REMARK Flexibility Score: inf
ROOT
ATOM      1  C   UNL     1     -12.016  19.607  26.408  1.00  0.00     0.180 A 
ATOM      2  C   UNL     1     -12.595  20.128  27.581  1.00  0.00     0.208 A 
ATOM      3  C   UNL     1     -12.879  21.501  27.646  1.00  0.00     0.238 A 
ATOM      4  O   UNL     1     -13.408  21.977  28.687  1.00  0.00    -0.285 OA
ATOM      5  C   UNL     1     -12.562  22.331  26.550  1.00  0.00     0.111 A 
ATOM      6  C   UNL     1     -12.812  23.724  26.536  1.00  0.00     0.134 A 
ATOM      7  C   UNL     1     -12.460  24.482  25.410  1.00  0.00     0.093 A 
ATOM      8  C   UNL     1     -11.863  23.878  24.302  1.00  0.00     0.123 A 
ATOM      9  C   UNL     1     -11.614  22.502  24.310  1.00  0.00     0.094 A 
ATOM     10  C   UNL     1     -11.959  21.728  25.421  1.00  0.00     0.146 A 
ATOM     11  O   UNL     1     -11.717  20.422  25.400  1.00  0.00    -0.452 OA
ENDROOT
BRANCH   1  12
ATOM     12  C   UNL     1     -11.705  18.168  26.257  1.00  0.00     0.025 A 
ATOM     13  C   UNL     1     -10.897  17.532  27.214  1.00  0.00     0.016 A 
ATOM     14  C   UNL     1     -10.573  16.179  27.080  1.00  0.00     0.051 A 
ATOM     15  C   UNL     1     -11.039  15.446  25.980  1.00  0.00     0.157 A 
ATOM     16  C   UNL     1     -12.153  17.433  25.144  1.00  0.00     0.062 A 
ATOM     17  C   UNL     1     -11.829  16.079  25.006  1.00  0.00     0.158 A 
BRANCH  15  18
ATOM     18  O   UNL     1     -10.717  14.096  25.851  1.00  0.00    -0.504 OA
ATOM     19  H   UNL     1      -9.858  13.796  25.405  1.00  0.00     0.293 HD
ENDBRANCH  15  18
BRANCH  17  20
ATOM     20  O   UNL     1     -12.296  15.380  23.893  1.00  0.00    -0.504 OA
ATOM     21  H   UNL     1     -11.851  15.453  22.987  1.00  0.00     0.293 HD
ENDBRANCH  17  20
ENDBRANCH   1  12
BRANCH   2  22
ATOM     22  O   UNL     1     -12.853  19.293  28.672  1.00  0.00    -0.502 OA
ATOM     23  H   UNL     1     -13.740  18.818  28.794  1.00  0.00     0.293 HD
ENDBRANCH   2  22
BRANCH   6  24
ATOM     24  O   UNL     1     -13.406  24.358  27.628  1.00  0.00    -0.507 OA
ATOM     25  H   UNL     1     -13.455  25.368  27.696  1.00  0.00     0.293 HD
ENDBRANCH   6  24
BRANCH   8  26
ATOM     26  O   UNL     1     -11.521  24.654  23.197  1.00  0.00    -0.508 OA
ATOM     27  H   UNL     1     -11.457  24.254  22.268  1.00  0.00     0.293 HD
ENDBRANCH   8  26
TORSDOF 6
ENDMDL
MODEL 8
REMARK VINA RESULT:    -6.544      2.181      7.196
REMARK INTER + INTRA:          -8.193
REMARK INTER:                  -7.883
REMARK INTRA:                  -0.310
REMARK UNBOUND:                -0.310
REMARK SMILES O=c1c(O)c(-c2ccc(O)c(O)c2)oc2cc(O)cc(O)c12
REMARK SMILES IDX 5 1 3 2 2 3 1 4 22 5 20 6 19 7 17 8 16 9 15 10 14 11 6 12
REMARK SMILES IDX 7 13 8 14 9 15 13 16 11 17 10 18 12 20 4 22 21 24 18 26
REMARK H PARENT 10 19 12 21 4 23 21 25 18 27
REMARK Flexibility Score: inf
ROOT
ATOM      1  C   UNL     1     -15.015  19.513  24.901  1.00  0.00     0.180 A 
ATOM      2  C   UNL     1     -14.176  20.492  25.469  1.00  0.00     0.208 A 
ATOM      3  C   UNL     1     -12.884  20.126  25.874  1.00  0.00     0.238 A 
ATOM      4  O   UNL     1     -12.119  20.996  26.373  1.00  0.00    -0.285 OA
ATOM      5  C   UNL     1     -12.459  18.789  25.726  1.00  0.00     0.111 A 
ATOM      6  C   UNL     1     -11.175  18.337  26.113  1.00  0.00     0.134 A 
ATOM      7  C   UNL     1     -10.831  16.989  25.941  1.00  0.00     0.093 A 
ATOM      8  C   UNL     1     -11.743  16.085  25.393  1.00  0.00     0.123 A 
ATOM      9  C   UNL     1     -13.013  16.525  25.008  1.00  0.00     0.094 A 
ATOM     10  C   UNL     1     -13.375  17.865  25.169  1.00  0.00     0.146 A 
ATOM     11  O   UNL     1     -14.586  18.259  24.791  1.00  0.00    -0.452 OA
ENDROOT
BRANCH   1  12
ATOM     12  C   UNL     1     -16.384  19.826  24.432  1.00  0.00     0.025 A 
ATOM     13  C   UNL     1     -17.446  19.822  25.351  1.00  0.00     0.016 A 
ATOM     14  C   UNL     1     -18.749  20.094  24.926  1.00  0.00     0.051 A 
ATOM     15  C   UNL     1     -19.012  20.358  23.576  1.00  0.00     0.157 A 
ATOM     16  C   UNL     1     -16.655  20.072  23.074  1.00  0.00     0.062 A 
ATOM     17  C   UNL     1     -17.959  20.342  22.645  1.00  0.00     0.158 A 
BRANCH  15  18
ATOM     18  O   UNL     1     -20.313  20.632  23.156  1.00  0.00    -0.504 OA
ATOM     19  H   UNL     1     -20.839  21.410  23.534  1.00  0.00     0.293 HD
ENDBRANCH  15  18
BRANCH  17  20
ATOM     20  O   UNL     1     -18.191  20.588  21.292  1.00  0.00    -0.504 OA
ATOM     21  H   UNL     1     -17.727  21.339  20.795  1.00  0.00     0.293 HD
ENDBRANCH  17  20
ENDBRANCH   1  12
BRANCH   2  22
ATOM     22  O   UNL     1     -14.639  21.799  25.650  1.00  0.00    -0.502 OA
ATOM     23  H   UNL     1     -15.351  22.209  25.058  1.00  0.00     0.293 HD
ENDBRANCH   2  22
BRANCH   6  24
ATOM     24  O   UNL     1     -10.240  19.215  26.665  1.00  0.00    -0.507 OA
ATOM     25  H   UNL     1      -9.819  19.957  26.118  1.00  0.00     0.293 HD
ENDBRANCH   6  24
BRANCH   8  26
ATOM     26  O   UNL     1     -11.377  14.750  25.234  1.00  0.00    -0.508 OA
ATOM     27  H   UNL     1     -10.624  14.339  25.772  1.00  0.00     0.293 HD
ENDBRANCH   8  26
TORSDOF 6
ENDMDL
MODEL 9
REMARK VINA RESULT:    -6.433      2.197      6.980
REMARK INTER + INTRA:          -8.059
REMARK INTER:                  -7.867
REMARK INTRA:                  -0.192
REMARK UNBOUND:                -0.310
REMARK SMILES O=c1c(O)c(-c2ccc(O)c(O)c2)oc2cc(O)cc(O)c12
REMARK SMILES IDX 5 1 3 2 2 3 1 4 22 5 20 6 19 7 17 8 16 9 15 10 14 11 6 12
REMARK SMILES IDX 7 13 8 14 9 15 13 16 11 17 10 18 12 20 4 22 21 24 18 26
REMARK H PARENT 10 19 12 21 4 23 21 25 18 27
REMARK Flexibility Score: inf
ROOT
ATOM      1  C   UNL     1     -14.866  18.978  24.994  1.00  0.00     0.180 A 
ATOM      2  C   UNL     1     -14.125  20.024  25.578  1.00  0.00     0.208 A 
ATOM      3  C   UNL     1     -12.845  19.750  26.081  1.00  0.00     0.238 A 
ATOM      4  O   UNL     1     -12.167  20.680  26.597  1.00  0.00    -0.285 OA
ATOM      5  C   UNL     1     -12.335  18.436  26.012  1.00  0.00     0.111 A 
ATOM      6  C   UNL     1     -11.056  18.075  26.501  1.00  0.00     0.134 A 
ATOM      7  C   UNL     1     -10.625  16.744  26.403  1.00  0.00     0.093 A 
ATOM      8  C   UNL     1     -11.444  15.770  25.830  1.00  0.00     0.123 A 
ATOM      9  C   UNL     1     -12.708  16.120  25.346  1.00  0.00     0.094 A 
ATOM     10  C   UNL     1     -13.156  17.441  25.432  1.00  0.00     0.146 A 
ATOM     11  O   UNL     1     -14.359  17.749  24.959  1.00  0.00    -0.452 OA
ENDROOT
BRANCH   1  12
ATOM     12  C   UNL     1     -16.215  19.193  24.423  1.00  0.00     0.025 A 
ATOM     13  C   UNL     1     -16.395  19.121  23.033  1.00  0.00     0.016 A 
ATOM     14  C   UNL     1     -17.656  19.341  22.471  1.00  0.00     0.051 A 
ATOM     15  C   UNL     1     -18.750  19.652  23.289  1.00  0.00     0.157 A 
ATOM     16  C   UNL     1     -17.312  19.525  25.239  1.00  0.00     0.062 A 
ATOM     17  C   UNL     1     -18.575  19.748  24.679  1.00  0.00     0.158 A 
BRANCH  15  18
ATOM     18  O   UNL     1     -20.007  19.868  22.725  1.00  0.00    -0.504 OA
ATOM     19  H   UNL     1     -20.529  20.718  22.905  1.00  0.00     0.293 HD
ENDBRANCH  15  18
BRANCH  17  20
ATOM     20  O   UNL     1     -19.641  20.068  25.519  1.00  0.00    -0.504 OA
ATOM     21  H   UNL     1     -19.552  20.746  26.267  1.00  0.00     0.293 HD
ENDBRANCH  17  20
ENDBRANCH   1  12
BRANCH   2  22
ATOM     22  O   UNL     1     -14.673  21.306  25.679  1.00  0.00    -0.502 OA
ATOM     23  H   UNL     1     -15.614  21.520  25.371  1.00  0.00     0.293 HD
ENDBRANCH   2  22
BRANCH   6  24
ATOM     24  O   UNL     1     -10.214  19.025  27.079  1.00  0.00    -0.507 OA
ATOM     25  H   UNL     1      -9.205  18.956  27.009  1.00  0.00     0.293 HD
ENDBRANCH   6  24
BRANCH   8  26
ATOM     26  O   UNL     1     -10.993  14.455  25.746  1.00  0.00    -0.508 OA
ATOM     27  H   UNL     1     -11.479  13.696  26.210  1.00  0.00     0.293 HD
ENDBRANCH   8  26
TORSDOF 6
ENDMDL
