MODEL 1
REMARK VINA RESULT:    -9.036      0.000      0.000
REMARK INTER + INTRA:         -10.438
REMARK INTER:                 -10.885
REMARK INTRA:                   0.447
REMARK UNBOUND:                 0.447
REMARK SMILES O=c1c(O)c(-c2ccc(O)c(O)c2)oc2cc(O)cc(O)c12
REMARK SMILES IDX 5 1 3 2 2 3 1 4 22 5 20 6 19 7 17 8 16 9 15 10 14 11 6 12
REMARK SMILES IDX 7 13 8 14 9 15 13 16 11 17 10 18 12 20 4 22 21 24 18 26
REMARK H PARENT 10 19 12 21 4 23 21 25 18 27
REMARK Flexibility Score: inf
ROOT
ATOM      1  C   UNL     1     -63.863 -40.679 -30.281  1.00  0.00     0.180 A 
ATOM      2  C   UNL     1     -64.301 -41.438 -31.378  1.00  0.00     0.208 A 
ATOM      3  C   UNL     1     -63.434 -41.629 -32.466  1.00  0.00     0.238 A 
ATOM      4  O   UNL     1     -63.861 -42.246 -33.476  1.00  0.00    -0.285 OA
ATOM      5  C   UNL     1     -62.120 -41.104 -32.419  1.00  0.00     0.111 A 
ATOM      6  C   UNL     1     -61.140 -41.273 -33.445  1.00  0.00     0.134 A 
ATOM      7  C   UNL     1     -59.907 -40.619 -33.337  1.00  0.00     0.093 A 
ATOM      8  C   UNL     1     -59.592 -39.855 -32.214  1.00  0.00     0.123 A 
ATOM      9  C   UNL     1     -60.520 -39.728 -31.180  1.00  0.00     0.094 A 
ATOM     10  C   UNL     1     -61.774 -40.337 -31.275  1.00  0.00     0.146 A 
ATOM     11  O   UNL     1     -62.636 -40.172 -30.279  1.00  0.00    -0.452 OA
ENDROOT
BRANCH   1  12
ATOM     12  C   UNL     1     -64.724 -40.423 -29.104  1.00  0.00     0.025 A 
ATOM     13  C   UNL     1     -64.183 -39.781 -27.979  1.00  0.00     0.016 A 
ATOM     14  C   UNL     1     -64.982 -39.510 -26.866  1.00  0.00     0.051 A 
ATOM     15  C   UNL     1     -66.335 -39.862 -26.864  1.00  0.00     0.157 A 
ATOM     16  C   UNL     1     -66.090 -40.756 -29.110  1.00  0.00     0.062 A 
ATOM     17  C   UNL     1     -66.895 -40.483 -27.994  1.00  0.00     0.158 A 
BRANCH  15  18
ATOM     18  O   UNL     1     -67.108 -39.581 -25.738  1.00  0.00    -0.504 OA
ATOM     19  H   UNL     1     -67.467 -40.312 -25.136  1.00  0.00     0.293 HD
ENDBRANCH  15  18
BRANCH  17  20
ATOM     20  O   UNL     1     -68.247 -40.823 -28.005  1.00  0.00    -0.504 OA
ATOM     21  H   UNL     1     -68.755 -41.013 -27.149  1.00  0.00     0.293 HD
ENDBRANCH  17  20
ENDBRANCH   1  12
BRANCH   2  22
ATOM     22  O   UNL     1     -65.576 -42.012 -31.372  1.00  0.00    -0.502 OA
ATOM     23  H   UNL     1     -65.723 -43.012 -31.452  1.00  0.00     0.293 HD
ENDBRANCH   2  22
BRANCH   6  24
ATOM     24  O   UNL     1     -61.316 -42.086 -34.569  1.00  0.00    -0.507 OA
ATOM     25  H   UNL     1     -62.045 -41.972 -35.257  1.00  0.00     0.293 HD
ENDBRANCH   6  24
BRANCH   8  26
ATOM     26  O   UNL     1     -58.348 -39.233 -32.132  1.00  0.00    -0.508 OA
ATOM     27  H   UNL     1     -57.990 -38.878 -31.254  1.00  0.00     0.293 HD
ENDBRANCH   8  26
TORSDOF 6
ENDMDL
MODEL 2
REMARK VINA RESULT:    -8.684      1.142      6.788
REMARK INTER + INTRA:         -10.014
REMARK INTER:                 -10.545
REMARK INTRA:                   0.531
REMARK UNBOUND:                 0.447
REMARK SMILES O=c1c(O)c(-c2ccc(O)c(O)c2)oc2cc(O)cc(O)c12
REMARK SMILES IDX 5 1 3 2 2 3 1 4 22 5 20 6 19 7 17 8 16 9 15 10 14 11 6 12
REMARK SMILES IDX 7 13 8 14 9 15 13 16 11 17 10 18 12 20 4 22 21 24 18 26
REMARK H PARENT 10 19 12 21 4 23 21 25 18 27
REMARK Flexibility Score: inf
ROOT
ATOM      1  C   UNL     1     -64.064 -40.879 -30.864  1.00  0.00     0.180 A 
ATOM      2  C   UNL     1     -65.361 -41.392 -31.026  1.00  0.00     0.208 A 
ATOM      3  C   UNL     1     -66.294 -41.227 -29.990  1.00  0.00     0.238 A 
ATOM      4  O   UNL     1     -67.431 -41.755 -30.112  1.00  0.00    -0.285 OA
ATOM      5  C   UNL     1     -65.936 -40.502 -28.828  1.00  0.00     0.111 A 
ATOM      6  C   UNL     1     -66.815 -40.234 -27.734  1.00  0.00     0.134 A 
ATOM      7  C   UNL     1     -66.319 -39.597 -26.590  1.00  0.00     0.093 A 
ATOM      8  C   UNL     1     -64.995 -39.162 -26.524  1.00  0.00     0.123 A 
ATOM      9  C   UNL     1     -64.143 -39.369 -27.608  1.00  0.00     0.094 A 
ATOM     10  C   UNL     1     -64.597 -40.035 -28.749  1.00  0.00     0.146 A 
ATOM     11  O   UNL     1     -63.747 -40.231 -29.749  1.00  0.00    -0.452 OA
ENDROOT
BRANCH   1  12
ATOM     12  C   UNL     1     -63.022 -41.026 -31.906  1.00  0.00     0.025 A 
ATOM     13  C   UNL     1     -63.279 -41.826 -33.030  1.00  0.00     0.016 A 
ATOM     14  C   UNL     1     -62.320 -41.962 -34.036  1.00  0.00     0.051 A 
ATOM     15  C   UNL     1     -61.097 -41.290 -33.943  1.00  0.00     0.157 A 
ATOM     16  C   UNL     1     -61.801 -40.333 -31.824  1.00  0.00     0.062 A 
ATOM     17  C   UNL     1     -60.837 -40.466 -32.835  1.00  0.00     0.158 A 
BRANCH  15  18
ATOM     18  O   UNL     1     -60.157 -41.447 -34.961  1.00  0.00    -0.504 OA
ATOM     19  H   UNL     1     -60.029 -40.753 -35.687  1.00  0.00     0.293 HD
ENDBRANCH  15  18
BRANCH  17  20
ATOM     20  O   UNL     1     -59.627 -39.781 -32.742  1.00  0.00    -0.504 OA
ATOM     21  H   UNL     1     -59.593 -38.775 -32.624  1.00  0.00     0.293 HD
ENDBRANCH  17  20
ENDBRANCH   1  12
BRANCH   2  22
ATOM     22  O   UNL     1     -65.719 -42.039 -32.213  1.00  0.00    -0.502 OA
ATOM     23  H   UNL     1     -65.079 -42.640 -32.719  1.00  0.00     0.293 HD
ENDBRANCH   2  22
BRANCH   6  24
ATOM     24  O   UNL     1     -68.177 -40.546 -27.729  1.00  0.00    -0.507 OA
ATOM     25  H   UNL     1     -68.599 -41.287 -27.190  1.00  0.00     0.293 HD
ENDBRANCH   6  24
BRANCH   8  26
ATOM     26  O   UNL     1     -64.541 -38.516 -25.376  1.00  0.00    -0.508 OA
ATOM     27  H   UNL     1     -64.148 -39.032 -24.598  1.00  0.00     0.293 HD
ENDBRANCH   8  26
TORSDOF 6
ENDMDL
MODEL 3
REMARK VINA RESULT:    -8.179      2.032      2.802
REMARK INTER + INTRA:          -9.405
REMARK INTER:                  -9.160
REMARK INTRA:                  -0.245
REMARK UNBOUND:                 0.447
REMARK SMILES O=c1c(O)c(-c2ccc(O)c(O)c2)oc2cc(O)cc(O)c12
REMARK SMILES IDX 5 1 3 2 2 3 1 4 22 5 20 6 19 7 17 8 16 9 15 10 14 11 6 12
REMARK SMILES IDX 7 13 8 14 9 15 13 16 11 17 10 18 12 20 4 22 21 24 18 26
REMARK H PARENT 10 19 12 21 4 23 21 25 18 27
REMARK Flexibility Score: inf
ROOT
ATOM      1  C   UNL     1     -64.851 -41.144 -30.878  1.00  0.00     0.180 A 
ATOM      2  C   UNL     1     -65.829 -42.005 -31.402  1.00  0.00     0.208 A 
ATOM      3  C   UNL     1     -65.531 -42.756 -32.550  1.00  0.00     0.238 A 
ATOM      4  O   UNL     1     -66.437 -43.468 -33.057  1.00  0.00    -0.285 OA
ATOM      5  C   UNL     1     -64.241 -42.680 -33.127  1.00  0.00     0.111 A 
ATOM      6  C   UNL     1     -63.813 -43.429 -34.265  1.00  0.00     0.134 A 
ATOM      7  C   UNL     1     -62.547 -43.192 -34.813  1.00  0.00     0.093 A 
ATOM      8  C   UNL     1     -61.668 -42.280 -34.228  1.00  0.00     0.123 A 
ATOM      9  C   UNL     1     -62.054 -41.583 -33.084  1.00  0.00     0.094 A 
ATOM     10  C   UNL     1     -63.326 -41.769 -32.536  1.00  0.00     0.146 A 
ATOM     11  O   UNL     1     -63.661 -41.069 -31.459  1.00  0.00    -0.452 OA
ENDROOT
BRANCH   1  12
ATOM     12  C   UNL     1     -65.096 -40.310 -29.678  1.00  0.00     0.025 A 
ATOM     13  C   UNL     1     -65.936 -39.189 -29.778  1.00  0.00     0.016 A 
ATOM     14  C   UNL     1     -66.199 -38.401 -28.655  1.00  0.00     0.051 A 
ATOM     15  C   UNL     1     -65.641 -38.727 -27.415  1.00  0.00     0.157 A 
ATOM     16  C   UNL     1     -64.554 -40.650 -28.426  1.00  0.00     0.062 A 
ATOM     17  C   UNL     1     -64.819 -39.860 -27.297  1.00  0.00     0.158 A 
BRANCH  15  18
ATOM     18  O   UNL     1     -65.919 -37.920 -26.312  1.00  0.00    -0.504 OA
ATOM     19  H   UNL     1     -66.812 -37.457 -26.196  1.00  0.00     0.293 HD
ENDBRANCH  15  18
BRANCH  17  20
ATOM     20  O   UNL     1     -64.271 -40.201 -26.061  1.00  0.00    -0.504 OA
ATOM     21  H   UNL     1     -64.613 -39.794 -25.198  1.00  0.00     0.293 HD
ENDBRANCH  17  20
ENDBRANCH   1  12
BRANCH   2  22
ATOM     22  O   UNL     1     -67.072 -42.125 -30.772  1.00  0.00    -0.502 OA
ATOM     23  H   UNL     1     -67.875 -42.544 -31.228  1.00  0.00     0.293 HD
ENDBRANCH   2  22
BRANCH   6  24
ATOM     24  O   UNL     1     -64.577 -44.428 -34.876  1.00  0.00    -0.507 OA
ATOM     25  H   UNL     1     -64.552 -44.656 -35.858  1.00  0.00     0.293 HD
ENDBRANCH   6  24
BRANCH   8  26
ATOM     26  O   UNL     1     -60.408 -42.083 -34.789  1.00  0.00    -0.508 OA
ATOM     27  H   UNL     1     -60.220 -41.302 -35.407  1.00  0.00     0.293 HD
ENDBRANCH   8  26
TORSDOF 6
ENDMDL
MODEL 4
REMARK VINA RESULT:    -8.134      1.724      3.810
REMARK INTER + INTRA:          -9.351
REMARK INTER:                  -9.631
REMARK INTRA:                   0.280
REMARK UNBOUND:                 0.447
REMARK SMILES O=c1c(O)c(-c2ccc(O)c(O)c2)oc2cc(O)cc(O)c12
REMARK SMILES IDX 5 1 3 2 2 3 1 4 22 5 20 6 19 7 17 8 16 9 15 10 14 11 6 12
REMARK SMILES IDX 7 13 8 14 9 15 13 16 11 17 10 18 12 20 4 22 21 24 18 26
REMARK H PARENT 10 19 12 21 4 23 21 25 18 27
REMARK Flexibility Score: inf
ROOT
ATOM      1  C   UNL     1     -64.374 -41.042 -30.545  1.00  0.00     0.180 A 
ATOM      2  C   UNL     1     -63.096 -40.628 -30.954  1.00  0.00     0.208 A 
ATOM      3  C   UNL     1     -62.582 -41.106 -32.170  1.00  0.00     0.238 A 
ATOM      4  O   UNL     1     -61.407 -40.790 -32.494  1.00  0.00    -0.285 OA
ATOM      5  C   UNL     1     -63.374 -41.948 -32.988  1.00  0.00     0.111 A 
ATOM      6  C   UNL     1     -62.972 -42.457 -34.261  1.00  0.00     0.134 A 
ATOM      7  C   UNL     1     -63.797 -43.368 -34.932  1.00  0.00     0.093 A 
ATOM      8  C   UNL     1     -65.035 -43.739 -34.410  1.00  0.00     0.123 A 
ATOM      9  C   UNL     1     -65.463 -43.207 -33.194  1.00  0.00     0.094 A 
ATOM     10  C   UNL     1     -64.646 -42.325 -32.480  1.00  0.00     0.146 A 
ATOM     11  O   UNL     1     -65.081 -41.858 -31.317  1.00  0.00    -0.452 OA
ENDROOT
BRANCH   1  12
ATOM     12  C   UNL     1     -64.978 -40.592 -29.270  1.00  0.00     0.025 A 
ATOM     13  C   UNL     1     -66.375 -40.571 -29.138  1.00  0.00     0.016 A 
ATOM     14  C   UNL     1     -66.967 -40.170 -27.937  1.00  0.00     0.051 A 
ATOM     15  C   UNL     1     -66.173 -39.800 -26.847  1.00  0.00     0.157 A 
ATOM     16  C   UNL     1     -64.182 -40.241 -28.166  1.00  0.00     0.062 A 
ATOM     17  C   UNL     1     -64.773 -39.840 -26.958  1.00  0.00     0.158 A 
BRANCH  15  18
ATOM     18  O   UNL     1     -66.791 -39.402 -25.662  1.00  0.00    -0.504 OA
ATOM     19  H   UNL     1     -66.643 -38.485 -25.259  1.00  0.00     0.293 HD
ENDBRANCH  15  18
BRANCH  17  20
ATOM     20  O   UNL     1     -63.976 -39.487 -25.871  1.00  0.00    -0.504 OA
ATOM     21  H   UNL     1     -63.815 -40.125 -25.100  1.00  0.00     0.293 HD
ENDBRANCH  17  20
ENDBRANCH   1  12
BRANCH   2  22
ATOM     22  O   UNL     1     -62.361 -39.735 -30.170  1.00  0.00    -0.502 OA
ATOM     23  H   UNL     1     -61.418 -39.935 -29.856  1.00  0.00     0.293 HD
ENDBRANCH   2  22
BRANCH   6  24
ATOM     24  O   UNL     1     -61.796 -42.084 -34.917  1.00  0.00    -0.507 OA
ATOM     25  H   UNL     1     -61.014 -41.616 -34.483  1.00  0.00     0.293 HD
ENDBRANCH   6  24
BRANCH   8  26
ATOM     26  O   UNL     1     -65.838 -44.635 -35.114  1.00  0.00    -0.508 OA
ATOM     27  H   UNL     1     -65.731 -44.769 -36.112  1.00  0.00     0.293 HD
ENDBRANCH   8  26
TORSDOF 6
ENDMDL
MODEL 5
REMARK VINA RESULT:    -7.855      1.603      3.063
REMARK INTER + INTRA:          -9.015
REMARK INTER:                  -9.295
REMARK INTRA:                   0.280
REMARK UNBOUND:                 0.447
REMARK SMILES O=c1c(O)c(-c2ccc(O)c(O)c2)oc2cc(O)cc(O)c12
REMARK SMILES IDX 5 1 3 2 2 3 1 4 22 5 20 6 19 7 17 8 16 9 15 10 14 11 6 12
REMARK SMILES IDX 7 13 8 14 9 15 13 16 11 17 10 18 12 20 4 22 21 24 18 26
REMARK H PARENT 10 19 12 21 4 23 21 25 18 27
REMARK Flexibility Score: inf
ROOT
ATOM      1  C   UNL     1     -63.630 -41.087 -30.290  1.00  0.00     0.180 A 
ATOM      2  C   UNL     1     -62.251 -41.264 -30.089  1.00  0.00     0.208 A 
ATOM      3  C   UNL     1     -61.476 -41.809 -31.125  1.00  0.00     0.238 A 
ATOM      4  O   UNL     1     -60.256 -42.035 -30.911  1.00  0.00    -0.285 OA
ATOM      5  C   UNL     1     -62.079 -42.118 -32.369  1.00  0.00     0.111 A 
ATOM      6  C   UNL     1     -61.382 -42.634 -33.504  1.00  0.00     0.134 A 
ATOM      7  C   UNL     1     -62.102 -43.002 -34.647  1.00  0.00     0.093 A 
ATOM      8  C   UNL     1     -63.482 -42.815 -34.722  1.00  0.00     0.123 A 
ATOM      9  C   UNL     1     -64.165 -42.262 -33.640  1.00  0.00     0.094 A 
ATOM     10  C   UNL     1     -63.481 -41.919 -32.470  1.00  0.00     0.146 A 
ATOM     11  O   UNL     1     -64.173 -41.415 -31.456  1.00  0.00    -0.452 OA
ENDROOT
BRANCH   1  12
ATOM     12  C   UNL     1     -64.514 -40.531 -29.240  1.00  0.00     0.025 A 
ATOM     13  C   UNL     1     -64.016 -39.550 -28.367  1.00  0.00     0.016 A 
ATOM     14  C   UNL     1     -64.838 -38.996 -27.383  1.00  0.00     0.051 A 
ATOM     15  C   UNL     1     -66.172 -39.399 -27.266  1.00  0.00     0.157 A 
ATOM     16  C   UNL     1     -65.861 -40.919 -29.136  1.00  0.00     0.062 A 
ATOM     17  C   UNL     1     -66.689 -40.361 -28.150  1.00  0.00     0.158 A 
BRANCH  15  18
ATOM     18  O   UNL     1     -66.968 -38.830 -26.273  1.00  0.00    -0.504 OA
ATOM     19  H   UNL     1     -66.678 -38.009 -25.755  1.00  0.00     0.293 HD
ENDBRANCH  15  18
BRANCH  17  20
ATOM     20  O   UNL     1     -68.022 -40.758 -28.048  1.00  0.00    -0.504 OA
ATOM     21  H   UNL     1     -68.741 -40.124 -27.720  1.00  0.00     0.293 HD
ENDBRANCH  17  20
ENDBRANCH   1  12
BRANCH   2  22
ATOM     22  O   UNL     1     -61.661 -40.881 -28.881  1.00  0.00    -0.502 OA
ATOM     23  H   UNL     1     -60.842 -41.346 -28.504  1.00  0.00     0.293 HD
ENDBRANCH   2  22
BRANCH   6  24
ATOM     24  O   UNL     1     -59.994 -42.779 -33.571  1.00  0.00    -0.507 OA
ATOM     25  H   UNL     1     -59.392 -42.302 -34.226  1.00  0.00     0.293 HD
ENDBRANCH   6  24
BRANCH   8  26
ATOM     26  O   UNL     1     -64.163 -43.177 -35.882  1.00  0.00    -0.508 OA
ATOM     27  H   UNL     1     -63.694 -43.649 -36.646  1.00  0.00     0.293 HD
ENDBRANCH   8  26
TORSDOF 6
ENDMDL
MODEL 6
REMARK VINA RESULT:    -7.784      3.634      7.776
REMARK INTER + INTRA:          -8.930
REMARK INTER:                  -8.672
REMARK INTRA:                  -0.259
REMARK UNBOUND:                 0.447
REMARK SMILES O=c1c(O)c(-c2ccc(O)c(O)c2)oc2cc(O)cc(O)c12
REMARK SMILES IDX 5 1 3 2 2 3 1 4 22 5 20 6 19 7 17 8 16 9 15 10 14 11 6 12
REMARK SMILES IDX 7 13 8 14 9 15 13 16 11 17 10 18 12 20 4 22 21 24 18 26
REMARK H PARENT 10 19 12 21 4 23 21 25 18 27
REMARK Flexibility Score: inf
ROOT
ATOM      1  C   UNL     1     -61.881 -42.468 -35.126  1.00  0.00     0.180 A 
ATOM      2  C   UNL     1     -62.771 -43.154 -34.283  1.00  0.00     0.208 A 
ATOM      3  C   UNL     1     -62.707 -42.930 -32.898  1.00  0.00     0.238 A 
ATOM      4  O   UNL     1     -63.455 -43.604 -32.143  1.00  0.00    -0.285 OA
ATOM      5  C   UNL     1     -61.791 -41.983 -32.379  1.00  0.00     0.111 A 
ATOM      6  C   UNL     1     -61.669 -41.643 -30.997  1.00  0.00     0.134 A 
ATOM      7  C   UNL     1     -60.655 -40.769 -30.588  1.00  0.00     0.093 A 
ATOM      8  C   UNL     1     -59.799 -40.173 -31.514  1.00  0.00     0.123 A 
ATOM      9  C   UNL     1     -59.944 -40.455 -32.872  1.00  0.00     0.094 A 
ATOM     10  C   UNL     1     -60.922 -41.353 -33.309  1.00  0.00     0.146 A 
ATOM     11  O   UNL     1     -61.012 -41.610 -34.608  1.00  0.00    -0.452 OA
ENDROOT
BRANCH   1  12
ATOM     12  C   UNL     1     -61.880 -42.662 -36.595  1.00  0.00     0.025 A 
ATOM     13  C   UNL     1     -61.344 -43.842 -37.134  1.00  0.00     0.016 A 
ATOM     14  C   UNL     1     -61.352 -44.056 -38.515  1.00  0.00     0.051 A 
ATOM     15  C   UNL     1     -61.907 -43.104 -39.375  1.00  0.00     0.157 A 
ATOM     16  C   UNL     1     -62.458 -41.716 -37.459  1.00  0.00     0.062 A 
ATOM     17  C   UNL     1     -62.469 -41.929 -38.845  1.00  0.00     0.158 A 
BRANCH  15  18
ATOM     18  O   UNL     1     -61.898 -43.343 -40.749  1.00  0.00    -0.504 OA
ATOM     19  H   UNL     1     -62.419 -42.767 -41.399  1.00  0.00     0.293 HD
ENDBRANCH  15  18
BRANCH  17  20
ATOM     20  O   UNL     1     -63.037 -40.982 -39.696  1.00  0.00    -0.504 OA
ATOM     21  H   UNL     1     -62.585 -40.703 -40.558  1.00  0.00     0.293 HD
ENDBRANCH  17  20
ENDBRANCH   1  12
BRANCH   2  22
ATOM     22  O   UNL     1     -63.720 -44.028 -34.822  1.00  0.00    -0.502 OA
ATOM     23  H   UNL     1     -64.598 -44.231 -34.359  1.00  0.00     0.293 HD
ENDBRANCH   2  22
BRANCH   6  24
ATOM     24  O   UNL     1     -62.526 -42.111 -29.997  1.00  0.00    -0.507 OA
ATOM     25  H   UNL     1     -63.045 -42.976 -30.038  1.00  0.00     0.293 HD
ENDBRANCH   6  24
BRANCH   8  26
ATOM     26  O   UNL     1     -58.813 -39.294 -31.072  1.00  0.00    -0.508 OA
ATOM     27  H   UNL     1     -57.977 -39.120 -31.616  1.00  0.00     0.293 HD
ENDBRANCH   8  26
TORSDOF 6
ENDMDL
MODEL 7
REMARK VINA RESULT:    -7.587      3.137      7.440
REMARK INTER + INTRA:          -8.693
REMARK INTER:                  -8.491
REMARK INTRA:                  -0.202
REMARK UNBOUND:                 0.447
REMARK SMILES O=c1c(O)c(-c2ccc(O)c(O)c2)oc2cc(O)cc(O)c12
REMARK SMILES IDX 5 1 3 2 2 3 1 4 22 5 20 6 19 7 17 8 16 9 15 10 14 11 6 12
REMARK SMILES IDX 7 13 8 14 9 15 13 16 11 17 10 18 12 20 4 22 21 24 18 26
REMARK H PARENT 10 19 12 21 4 23 21 25 18 27
REMARK Flexibility Score: inf
ROOT
ATOM      1  C   UNL     1     -62.377 -42.016 -34.273  1.00  0.00     0.180 A 
ATOM      2  C   UNL     1     -61.034 -41.951 -33.870  1.00  0.00     0.208 A 
ATOM      3  C   UNL     1     -60.738 -41.649 -32.531  1.00  0.00     0.238 A 
ATOM      4  O   UNL     1     -59.533 -41.518 -32.194  1.00  0.00    -0.285 OA
ATOM      5  C   UNL     1     -61.790 -41.471 -31.600  1.00  0.00     0.111 A 
ATOM      6  C   UNL     1     -61.608 -41.205 -30.208  1.00  0.00     0.134 A 
ATOM      7  C   UNL     1     -62.723 -40.942 -29.403  1.00  0.00     0.093 A 
ATOM      8  C   UNL     1     -64.016 -40.997 -29.923  1.00  0.00     0.123 A 
ATOM      9  C   UNL     1     -64.209 -41.310 -31.268  1.00  0.00     0.094 A 
ATOM     10  C   UNL     1     -63.115 -41.540 -32.107  1.00  0.00     0.146 A 
ATOM     11  O   UNL     1     -63.342 -41.813 -33.385  1.00  0.00    -0.452 OA
ENDROOT
BRANCH   1  12
ATOM     12  C   UNL     1     -62.767 -42.316 -35.671  1.00  0.00     0.025 A 
ATOM     13  C   UNL     1     -62.566 -43.608 -36.181  1.00  0.00     0.016 A 
ATOM     14  C   UNL     1     -62.945 -43.920 -37.488  1.00  0.00     0.051 A 
ATOM     15  C   UNL     1     -63.545 -42.952 -38.301  1.00  0.00     0.157 A 
ATOM     16  C   UNL     1     -63.390 -41.350 -36.481  1.00  0.00     0.062 A 
ATOM     17  C   UNL     1     -63.774 -41.662 -37.794  1.00  0.00     0.158 A 
BRANCH  15  18
ATOM     18  O   UNL     1     -63.911 -43.291 -39.603  1.00  0.00    -0.504 OA
ATOM     19  H   UNL     1     -63.474 -42.867 -40.412  1.00  0.00     0.293 HD
ENDBRANCH  15  18
BRANCH  17  20
ATOM     20  O   UNL     1     -64.385 -40.696 -38.592  1.00  0.00    -0.504 OA
ATOM     21  H   UNL     1     -64.857 -39.894 -38.190  1.00  0.00     0.293 HD
ENDBRANCH  17  20
ENDBRANCH   1  12
BRANCH   2  22
ATOM     22  O   UNL     1     -60.010 -42.206 -34.787  1.00  0.00    -0.502 OA
ATOM     23  H   UNL     1     -59.029 -42.106 -34.550  1.00  0.00     0.293 HD
ENDBRANCH   2  22
BRANCH   6  24
ATOM     24  O   UNL     1     -60.367 -41.213 -29.566  1.00  0.00    -0.507 OA
ATOM     25  H   UNL     1     -59.732 -40.429 -29.523  1.00  0.00     0.293 HD
ENDBRANCH   6  24
BRANCH   8  26
ATOM     26  O   UNL     1     -65.103 -40.746 -29.089  1.00  0.00    -0.508 OA
ATOM     27  H   UNL     1     -65.524 -39.827 -29.029  1.00  0.00     0.293 HD
ENDBRANCH   8  26
TORSDOF 6
ENDMDL
MODEL 8
REMARK VINA RESULT:    -7.470      2.390      7.420
REMARK INTER + INTRA:          -8.552
REMARK INTER:                  -8.244
REMARK INTRA:                  -0.308
REMARK UNBOUND:                 0.447
REMARK SMILES O=c1c(O)c(-c2ccc(O)c(O)c2)oc2cc(O)cc(O)c12
REMARK SMILES IDX 5 1 3 2 2 3 1 4 22 5 20 6 19 7 17 8 16 9 15 10 14 11 6 12
REMARK SMILES IDX 7 13 8 14 9 15 13 16 11 17 10 18 12 20 4 22 21 24 18 26
REMARK H PARENT 10 19 12 21 4 23 21 25 18 27
REMARK Flexibility Score: inf
ROOT
ATOM      1  C   UNL     1     -63.231 -41.789 -33.077  1.00  0.00     0.180 A 
ATOM      2  C   UNL     1     -62.177 -41.232 -32.334  1.00  0.00     0.208 A 
ATOM      3  C   UNL     1     -62.437 -40.738 -31.046  1.00  0.00     0.238 A 
ATOM      4  O   UNL     1     -61.505 -40.173 -30.417  1.00  0.00    -0.285 OA
ATOM      5  C   UNL     1     -63.736 -40.856 -30.495  1.00  0.00     0.111 A 
ATOM      6  C   UNL     1     -64.104 -40.430 -29.182  1.00  0.00     0.134 A 
ATOM      7  C   UNL     1     -65.445 -40.501 -28.784  1.00  0.00     0.093 A 
ATOM      8  C   UNL     1     -66.419 -41.041 -29.624  1.00  0.00     0.123 A 
ATOM      9  C   UNL     1     -66.061 -41.511 -30.887  1.00  0.00     0.094 A 
ATOM     10  C   UNL     1     -64.739 -41.418 -31.329  1.00  0.00     0.146 A 
ATOM     11  O   UNL     1     -64.446 -41.857 -32.547  1.00  0.00    -0.452 OA
ENDROOT
BRANCH   1  12
ATOM     12  C   UNL     1     -63.037 -42.318 -34.447  1.00  0.00     0.025 A 
ATOM     13  C   UNL     1     -63.038 -41.431 -35.535  1.00  0.00     0.016 A 
ATOM     14  C   UNL     1     -62.835 -41.905 -36.834  1.00  0.00     0.051 A 
ATOM     15  C   UNL     1     -62.612 -43.266 -37.063  1.00  0.00     0.157 A 
ATOM     16  C   UNL     1     -62.791 -43.683 -34.677  1.00  0.00     0.062 A 
ATOM     17  C   UNL     1     -62.584 -44.160 -35.980  1.00  0.00     0.158 A 
BRANCH  15  18
ATOM     18  O   UNL     1     -62.416 -43.710 -38.370  1.00  0.00    -0.504 OA
ATOM     19  H   UNL     1     -62.265 -44.687 -38.590  1.00  0.00     0.293 HD
ENDBRANCH  15  18
BRANCH  17  20
ATOM     20  O   UNL     1     -62.349 -45.516 -36.199  1.00  0.00    -0.504 OA
ATOM     21  H   UNL     1     -61.427 -45.863 -36.441  1.00  0.00     0.293 HD
ENDBRANCH  17  20
ENDBRANCH   1  12
BRANCH   2  22
ATOM     22  O   UNL     1     -60.885 -41.194 -32.866  1.00  0.00    -0.502 OA
ATOM     23  H   UNL     1     -60.321 -42.027 -32.988  1.00  0.00     0.293 HD
ENDBRANCH   2  22
BRANCH   6  24
ATOM     24  O   UNL     1     -63.197 -39.958 -28.230  1.00  0.00    -0.507 OA
ATOM     25  H   UNL     1     -62.851 -39.011 -28.180  1.00  0.00     0.293 HD
ENDBRANCH   6  24
BRANCH   8  26
ATOM     26  O   UNL     1     -67.740 -41.112 -29.186  1.00  0.00    -0.508 OA
ATOM     27  H   UNL     1     -68.516 -40.995 -29.826  1.00  0.00     0.293 HD
ENDBRANCH   8  26
TORSDOF 6
ENDMDL
MODEL 9
REMARK VINA RESULT:    -7.364      4.580      7.633
REMARK INTER + INTRA:          -8.424
REMARK INTER:                  -8.110
REMARK INTRA:                  -0.314
REMARK UNBOUND:                 0.447
REMARK SMILES O=c1c(O)c(-c2ccc(O)c(O)c2)oc2cc(O)cc(O)c12
REMARK SMILES IDX 5 1 3 2 2 3 1 4 22 5 20 6 19 7 17 8 16 9 15 10 14 11 6 12
REMARK SMILES IDX 7 13 8 14 9 15 13 16 11 17 10 18 12 20 4 22 21 24 18 26
REMARK H PARENT 10 19 12 21 4 23 21 25 18 27
REMARK Flexibility Score: inf
ROOT
ATOM      1  C   UNL     1     -62.197 -42.740 -35.720  1.00  0.00     0.180 A 
ATOM      2  C   UNL     1     -61.390 -43.890 -35.704  1.00  0.00     0.208 A 
ATOM      3  C   UNL     1     -60.513 -44.092 -34.627  1.00  0.00     0.238 A 
ATOM      4  O   UNL     1     -59.739 -45.085 -34.657  1.00  0.00    -0.285 OA
ATOM      5  C   UNL     1     -60.493 -43.172 -33.551  1.00  0.00     0.111 A 
ATOM      6  C   UNL     1     -59.677 -43.299 -32.387  1.00  0.00     0.134 A 
ATOM      7  C   UNL     1     -59.663 -42.271 -31.436  1.00  0.00     0.093 A 
ATOM      8  C   UNL     1     -60.483 -41.151 -31.575  1.00  0.00     0.123 A 
ATOM      9  C   UNL     1     -61.325 -41.041 -32.680  1.00  0.00     0.094 A 
ATOM     10  C   UNL     1     -61.333 -42.032 -33.666  1.00  0.00     0.146 A 
ATOM     11  O   UNL     1     -62.134 -41.878 -34.713  1.00  0.00    -0.452 OA
ENDROOT
BRANCH   1  12
ATOM     12  C   UNL     1     -63.136 -42.451 -36.828  1.00  0.00     0.025 A 
ATOM     13  C   UNL     1     -64.425 -43.008 -36.802  1.00  0.00     0.016 A 
ATOM     14  C   UNL     1     -65.335 -42.732 -37.825  1.00  0.00     0.051 A 
ATOM     15  C   UNL     1     -64.978 -41.885 -38.880  1.00  0.00     0.157 A 
ATOM     16  C   UNL     1     -62.787 -41.583 -37.877  1.00  0.00     0.062 A 
ATOM     17  C   UNL     1     -63.700 -41.303 -38.905  1.00  0.00     0.158 A 
BRANCH  15  18
ATOM     18  O   UNL     1     -65.907 -41.630 -39.889  1.00  0.00    -0.504 OA
ATOM     19  H   UNL     1     -65.812 -40.845 -40.521  1.00  0.00     0.293 HD
ENDBRANCH  15  18
BRANCH  17  20
ATOM     20  O   UNL     1     -63.342 -40.447 -39.945  1.00  0.00    -0.504 OA
ATOM     21  H   UNL     1     -62.732 -39.652 -39.793  1.00  0.00     0.293 HD
ENDBRANCH  17  20
ENDBRANCH   1  12
BRANCH   2  22
ATOM     22  O   UNL     1     -61.479 -44.826 -36.738  1.00  0.00    -0.502 OA
ATOM     23  H   UNL     1     -60.672 -45.123 -37.276  1.00  0.00     0.293 HD
ENDBRANCH   2  22
BRANCH   6  24
ATOM     24  O   UNL     1     -58.886 -44.417 -32.104  1.00  0.00    -0.507 OA
ATOM     25  H   UNL     1     -58.352 -44.935 -32.785  1.00  0.00     0.293 HD
ENDBRANCH   6  24
BRANCH   8  26
ATOM     26  O   UNL     1     -60.456 -40.156 -30.600  1.00  0.00    -0.508 OA
ATOM     27  H   UNL     1     -60.103 -39.228 -30.799  1.00  0.00     0.293 HD
ENDBRANCH   8  26
TORSDOF 6
ENDMDL
