MODEL 1
REMARK VINA RESULT:    -5.352      0.000      0.000
REMARK INTER + INTRA:          -6.565
REMARK INTER:                  -6.291
REMARK INTRA:                  -0.274
REMARK UNBOUND:                -0.274
REMARK SMILES O=c1cc(-c2ccc(O)c(O)c2)oc2cc(O)cc(O)c12
REMARK SMILES IDX 4 1 3 2 2 3 1 4 21 5 19 6 18 7 16 8 15 9 14 10 13 11 5 12
REMARK SMILES IDX 6 13 7 14 8 15 12 16 10 17 9 18 11 20 20 22 17 24
REMARK H PARENT 9 19 11 21 20 23 17 25
REMARK Flexibility Score: inf
ROOT
ATOM      1  C   UNL     1      -3.569  -1.466  -6.026  1.00  0.00     0.138 A 
ATOM      2  C   UNL     1      -4.395  -0.785  -6.929  1.00  0.00     0.100 A 
ATOM      3  C   UNL     1      -3.828  -0.109  -8.011  1.00  0.00     0.197 A 
ATOM      4  O   UNL     1      -4.599   0.440  -8.839  1.00  0.00    -0.289 OA
ATOM      5  C   UNL     1      -2.421  -0.092  -8.169  1.00  0.00     0.107 A 
ATOM      6  C   UNL     1      -1.730   0.597  -9.210  1.00  0.00     0.134 A 
ATOM      7  C   UNL     1      -0.342   0.446  -9.334  1.00  0.00     0.093 A 
ATOM      8  C   UNL     1       0.384  -0.317  -8.421  1.00  0.00     0.123 A 
ATOM      9  C   UNL     1      -0.276  -0.951  -7.367  1.00  0.00     0.094 A 
ATOM     10  C   UNL     1      -1.663  -0.849  -7.237  1.00  0.00     0.146 A 
ATOM     11  O   UNL     1      -2.255  -1.480  -6.228  1.00  0.00    -0.456 OA
ENDROOT
BRANCH   1  12
ATOM     12  C   UNL     1      -4.119  -2.199  -4.857  1.00  0.00     0.021 A 
ATOM     13  C   UNL     1      -3.727  -3.529  -4.627  1.00  0.00     0.016 A 
ATOM     14  C   UNL     1      -4.225  -4.237  -3.531  1.00  0.00     0.051 A 
ATOM     15  C   UNL     1      -5.115  -3.626  -2.641  1.00  0.00     0.157 A 
ATOM     16  C   UNL     1      -5.006  -1.586  -3.950  1.00  0.00     0.062 A 
ATOM     17  C   UNL     1      -5.504  -2.298  -2.849  1.00  0.00     0.158 A 
BRANCH  15  18
ATOM     18  O   UNL     1      -5.615  -4.329  -1.547  1.00  0.00    -0.504 OA
ATOM     19  H   UNL     1      -6.514  -4.798  -1.584  1.00  0.00     0.293 HD
ENDBRANCH  15  18
BRANCH  17  20
ATOM     20  O   UNL     1      -6.382  -1.688  -1.954  1.00  0.00    -0.504 OA
ATOM     21  H   UNL     1      -7.385  -1.810  -2.030  1.00  0.00     0.293 HD
ENDBRANCH  17  20
ENDBRANCH   1  12
BRANCH   6  22
ATOM     22  O   UNL     1      -2.348   1.453 -10.125  1.00  0.00    -0.507 OA
ATOM     23  H   UNL     1      -1.971   2.336 -10.437  1.00  0.00     0.293 HD
ENDBRANCH   6  22
BRANCH   8  24
ATOM     24  O   UNL     1       1.765  -0.432  -8.566  1.00  0.00    -0.508 OA
ATOM     25  H   UNL     1       2.374   0.373  -8.492  1.00  0.00     0.293 HD
ENDBRANCH   8  24
TORSDOF 5
ENDMDL
MODEL 2
REMARK VINA RESULT:    -5.008      1.724      2.926
REMARK INTER + INTRA:          -6.161
REMARK INTER:                  -5.883
REMARK INTRA:                  -0.278
REMARK UNBOUND:                -0.274
REMARK SMILES O=c1cc(-c2ccc(O)c(O)c2)oc2cc(O)cc(O)c12
REMARK SMILES IDX 4 1 3 2 2 3 1 4 21 5 19 6 18 7 16 8 15 9 14 10 13 11 5 12
REMARK SMILES IDX 6 13 7 14 8 15 12 16 10 17 9 18 11 20 20 22 17 24
REMARK H PARENT 9 19 11 21 20 23 17 25
REMARK Flexibility Score: inf
ROOT
ATOM      1  C   UNL     1      -3.158  -2.637  -5.706  1.00  0.00     0.138 A 
ATOM      2  C   UNL     1      -2.736  -3.857  -6.249  1.00  0.00     0.100 A 
ATOM      3  C   UNL     1      -1.733  -3.873  -7.219  1.00  0.00     0.197 A 
ATOM      4  O   UNL     1      -1.333  -4.988  -7.642  1.00  0.00    -0.289 OA
ATOM      5  C   UNL     1      -1.171  -2.654  -7.667  1.00  0.00     0.107 A 
ATOM      6  C   UNL     1      -0.170  -2.545  -8.680  1.00  0.00     0.134 A 
ATOM      7  C   UNL     1       0.395  -1.294  -8.959  1.00  0.00     0.093 A 
ATOM      8  C   UNL     1      -0.044  -0.143  -8.307  1.00  0.00     0.123 A 
ATOM      9  C   UNL     1      -1.060  -0.230  -7.354  1.00  0.00     0.094 A 
ATOM     10  C   UNL     1      -1.619  -1.468  -7.028  1.00  0.00     0.146 A 
ATOM     11  O   UNL     1      -2.574  -1.510  -6.104  1.00  0.00    -0.456 OA
ENDROOT
BRANCH   1  12
ATOM     12  C   UNL     1      -4.222  -2.563  -4.673  1.00  0.00     0.021 A 
ATOM     13  C   UNL     1      -5.217  -1.574  -4.774  1.00  0.00     0.016 A 
ATOM     14  C   UNL     1      -6.232  -1.488  -3.820  1.00  0.00     0.051 A 
ATOM     15  C   UNL     1      -6.279  -2.395  -2.753  1.00  0.00     0.157 A 
ATOM     16  C   UNL     1      -4.282  -3.479  -3.604  1.00  0.00     0.062 A 
ATOM     17  C   UNL     1      -5.304  -3.393  -2.648  1.00  0.00     0.158 A 
BRANCH  15  18
ATOM     18  O   UNL     1      -7.290  -2.312  -1.798  1.00  0.00    -0.504 OA
ATOM     19  H   UNL     1      -8.237  -2.054  -2.051  1.00  0.00     0.293 HD
ENDBRANCH  15  18
BRANCH  17  20
ATOM     20  O   UNL     1      -5.358  -4.301  -1.591  1.00  0.00    -0.504 OA
ATOM     21  H   UNL     1      -5.018  -4.061  -0.668  1.00  0.00     0.293 HD
ENDBRANCH  17  20
ENDBRANCH   1  12
BRANCH   6  22
ATOM     22  O   UNL     1       0.281  -3.620  -9.451  1.00  0.00    -0.507 OA
ATOM     23  H   UNL     1       1.151  -4.110  -9.306  1.00  0.00     0.293 HD
ENDBRANCH   6  22
BRANCH   8  24
ATOM     24  O   UNL     1       0.531   1.087  -8.622  1.00  0.00    -0.508 OA
ATOM     25  H   UNL     1       0.987   1.654  -7.917  1.00  0.00     0.293 HD
ENDBRANCH   8  24
TORSDOF 5
ENDMDL
MODEL 3
REMARK VINA RESULT:    -4.984      1.509      6.771
REMARK INTER + INTRA:          -6.132
REMARK INTER:                  -5.815
REMARK INTRA:                  -0.317
REMARK UNBOUND:                -0.274
REMARK SMILES O=c1cc(-c2ccc(O)c(O)c2)oc2cc(O)cc(O)c12
REMARK SMILES IDX 4 1 3 2 2 3 1 4 21 5 19 6 18 7 16 8 15 9 14 10 13 11 5 12
REMARK SMILES IDX 6 13 7 14 8 15 12 16 10 17 9 18 11 20 20 22 17 24
REMARK H PARENT 9 19 11 21 20 23 17 25
REMARK Flexibility Score: inf
ROOT
ATOM      1  C   UNL     1      -3.304  -1.126  -6.640  1.00  0.00     0.138 A 
ATOM      2  C   UNL     1      -4.494  -0.652  -7.206  1.00  0.00     0.100 A 
ATOM      3  C   UNL     1      -5.709  -0.890  -6.561  1.00  0.00     0.197 A 
ATOM      4  O   UNL     1      -6.753  -0.399  -7.061  1.00  0.00    -0.289 OA
ATOM      5  C   UNL     1      -5.732  -1.635  -5.358  1.00  0.00     0.107 A 
ATOM      6  C   UNL     1      -6.915  -1.975  -4.635  1.00  0.00     0.134 A 
ATOM      7  C   UNL     1      -6.805  -2.615  -3.394  1.00  0.00     0.093 A 
ATOM      8  C   UNL     1      -5.562  -2.983  -2.881  1.00  0.00     0.123 A 
ATOM      9  C   UNL     1      -4.401  -2.705  -3.605  1.00  0.00     0.094 A 
ATOM     10  C   UNL     1      -4.476  -2.035  -4.828  1.00  0.00     0.146 A 
ATOM     11  O   UNL     1      -3.347  -1.775  -5.481  1.00  0.00    -0.456 OA
ENDROOT
BRANCH   1  12
ATOM     12  C   UNL     1      -1.985  -0.902  -7.284  1.00  0.00     0.021 A 
ATOM     13  C   UNL     1      -1.893  -0.043  -8.394  1.00  0.00     0.016 A 
ATOM     14  C   UNL     1      -0.663   0.189  -9.013  1.00  0.00     0.051 A 
ATOM     15  C   UNL     1       0.499  -0.424  -8.527  1.00  0.00     0.157 A 
ATOM     16  C   UNL     1      -0.809  -1.505  -6.793  1.00  0.00     0.062 A 
ATOM     17  C   UNL     1       0.425  -1.269  -7.414  1.00  0.00     0.158 A 
BRANCH  15  18
ATOM     18  O   UNL     1       1.728  -0.195  -9.143  1.00  0.00    -0.504 OA
ATOM     19  H   UNL     1       1.920   0.668  -9.639  1.00  0.00     0.293 HD
ENDBRANCH  15  18
BRANCH  17  20
ATOM     20  O   UNL     1       1.586  -1.869  -6.927  1.00  0.00    -0.504 OA
ATOM     21  H   UNL     1       2.487  -1.712  -7.363  1.00  0.00     0.293 HD
ENDBRANCH  17  20
ENDBRANCH   1  12
BRANCH   6  22
ATOM     22  O   UNL     1      -8.210  -1.729  -5.098  1.00  0.00    -0.507 OA
ATOM     23  H   UNL     1      -8.907  -2.438  -5.269  1.00  0.00     0.293 HD
ENDBRANCH   6  22
BRANCH   8  24
ATOM     24  O   UNL     1      -5.492  -3.633  -1.650  1.00  0.00    -0.508 OA
ATOM     25  H   UNL     1      -5.257  -3.135  -0.800  1.00  0.00     0.293 HD
ENDBRANCH   8  24
TORSDOF 5
ENDMDL
MODEL 4
REMARK VINA RESULT:    -4.676      1.458      7.235
REMARK INTER + INTRA:          -5.770
REMARK INTER:                  -5.498
REMARK INTRA:                  -0.272
REMARK UNBOUND:                -0.274
REMARK SMILES O=c1cc(-c2ccc(O)c(O)c2)oc2cc(O)cc(O)c12
REMARK SMILES IDX 4 1 3 2 2 3 1 4 21 5 19 6 18 7 16 8 15 9 14 10 13 11 5 12
REMARK SMILES IDX 6 13 7 14 8 15 12 16 10 17 9 18 11 20 20 22 17 24
REMARK H PARENT 9 19 11 21 20 23 17 25
REMARK Flexibility Score: inf
ROOT
ATOM      1  C   UNL     1      -2.738  -2.007  -6.383  1.00  0.00     0.138 A 
ATOM      2  C   UNL     1      -2.341  -3.350  -6.429  1.00  0.00     0.100 A 
ATOM      3  C   UNL     1      -2.877  -4.261  -5.518  1.00  0.00     0.197 A 
ATOM      4  O   UNL     1      -2.549  -5.471  -5.625  1.00  0.00    -0.289 OA
ATOM      5  C   UNL     1      -3.794  -3.816  -4.537  1.00  0.00     0.107 A 
ATOM      6  C   UNL     1      -4.374  -4.647  -3.531  1.00  0.00     0.134 A 
ATOM      7  C   UNL     1      -5.360  -4.121  -2.686  1.00  0.00     0.093 A 
ATOM      8  C   UNL     1      -5.740  -2.782  -2.768  1.00  0.00     0.123 A 
ATOM      9  C   UNL     1      -5.139  -1.946  -3.712  1.00  0.00     0.094 A 
ATOM     10  C   UNL     1      -4.180  -2.450  -4.593  1.00  0.00     0.146 A 
ATOM     11  O   UNL     1      -3.642  -1.626  -5.486  1.00  0.00    -0.456 OA
ENDROOT
BRANCH   1  12
ATOM     12  C   UNL     1      -2.198  -0.996  -7.327  1.00  0.00     0.021 A 
ATOM     13  C   UNL     1      -0.831  -0.670  -7.285  1.00  0.00     0.016 A 
ATOM     14  C   UNL     1      -0.297   0.272  -8.166  1.00  0.00     0.051 A 
ATOM     15  C   UNL     1      -1.118   0.899  -9.112  1.00  0.00     0.157 A 
ATOM     16  C   UNL     1      -3.015  -0.371  -8.289  1.00  0.00     0.062 A 
ATOM     17  C   UNL     1      -2.478   0.574  -9.175  1.00  0.00     0.158 A 
BRANCH  15  18
ATOM     18  O   UNL     1      -0.590   1.841  -9.993  1.00  0.00    -0.504 OA
ATOM     19  H   UNL     1       0.074   2.542  -9.683  1.00  0.00     0.293 HD
ENDBRANCH  15  18
BRANCH  17  20
ATOM     20  O   UNL     1      -3.290   1.192 -10.125  1.00  0.00    -0.504 OA
ATOM     21  H   UNL     1      -2.919   1.515 -11.011  1.00  0.00     0.293 HD
ENDBRANCH  17  20
ENDBRANCH   1  12
BRANCH   6  22
ATOM     22  O   UNL     1      -4.005  -5.976  -3.308  1.00  0.00    -0.507 OA
ATOM     23  H   UNL     1      -4.561  -6.654  -2.808  1.00  0.00     0.293 HD
ENDBRANCH   6  22
BRANCH   8  24
ATOM     24  O   UNL     1      -6.712  -2.289  -1.900  1.00  0.00    -0.508 OA
ATOM     25  H   UNL     1      -7.423  -1.640  -2.215  1.00  0.00     0.293 HD
ENDBRANCH   8  24
TORSDOF 5
ENDMDL
MODEL 5
REMARK VINA RESULT:    -4.585      1.762      3.330
REMARK INTER + INTRA:          -5.664
REMARK INTER:                  -5.351
REMARK INTRA:                  -0.313
REMARK UNBOUND:                -0.274
REMARK SMILES O=c1cc(-c2ccc(O)c(O)c2)oc2cc(O)cc(O)c12
REMARK SMILES IDX 4 1 3 2 2 3 1 4 21 5 19 6 18 7 16 8 15 9 14 10 13 11 5 12
REMARK SMILES IDX 6 13 7 14 8 15 12 16 10 17 9 18 11 20 20 22 17 24
REMARK H PARENT 9 19 11 21 20 23 17 25
REMARK Flexibility Score: inf
ROOT
ATOM      1  C   UNL     1      -3.582  -2.338  -5.859  1.00  0.00     0.138 A 
ATOM      2  C   UNL     1      -2.454  -2.336  -6.690  1.00  0.00     0.100 A 
ATOM      3  C   UNL     1      -2.363  -1.410  -7.731  1.00  0.00     0.197 A 
ATOM      4  O   UNL     1      -1.311  -1.391  -8.420  1.00  0.00    -0.289 OA
ATOM      5  C   UNL     1      -3.425  -0.501  -7.957  1.00  0.00     0.107 A 
ATOM      6  C   UNL     1      -3.460   0.460  -9.012  1.00  0.00     0.134 A 
ATOM      7  C   UNL     1      -4.510   1.385  -9.067  1.00  0.00     0.093 A 
ATOM      8  C   UNL     1      -5.555   1.345  -8.144  1.00  0.00     0.123 A 
ATOM      9  C   UNL     1      -5.558   0.375  -7.140  1.00  0.00     0.094 A 
ATOM     10  C   UNL     1      -4.507  -0.539  -7.038  1.00  0.00     0.146 A 
ATOM     11  O   UNL     1      -4.540  -1.438  -6.059  1.00  0.00    -0.456 OA
ENDROOT
BRANCH   1  12
ATOM     12  C   UNL     1      -3.730  -3.302  -4.740  1.00  0.00     0.021 A 
ATOM     13  C   UNL     1      -2.945  -4.468  -4.722  1.00  0.00     0.016 A 
ATOM     14  C   UNL     1      -3.061  -5.387  -3.676  1.00  0.00     0.051 A 
ATOM     15  C   UNL     1      -3.956  -5.151  -2.625  1.00  0.00     0.157 A 
ATOM     16  C   UNL     1      -4.619  -3.066  -3.672  1.00  0.00     0.062 A 
ATOM     17  C   UNL     1      -4.733  -3.988  -2.623  1.00  0.00     0.158 A 
BRANCH  15  18
ATOM     18  O   UNL     1      -4.075  -6.066  -1.580  1.00  0.00    -0.504 OA
ATOM     19  H   UNL     1      -4.572  -5.834  -0.728  1.00  0.00     0.293 HD
ENDBRANCH  15  18
BRANCH  17  20
ATOM     20  O   UNL     1      -5.615  -3.751  -1.569  1.00  0.00    -0.504 OA
ATOM     21  H   UNL     1      -5.341  -3.207  -0.760  1.00  0.00     0.293 HD
ENDBRANCH  17  20
ENDBRANCH   1  12
BRANCH   6  22
ATOM     22  O   UNL     1      -2.511   0.532 -10.035  1.00  0.00    -0.507 OA
ATOM     23  H   UNL     1      -2.275   1.369 -10.546  1.00  0.00     0.293 HD
ENDBRANCH   6  22
BRANCH   8  24
ATOM     24  O   UNL     1      -6.591   2.272  -8.239  1.00  0.00    -0.508 OA
ATOM     25  H   UNL     1      -6.428   3.218  -8.563  1.00  0.00     0.293 HD
ENDBRANCH   8  24
TORSDOF 5
ENDMDL
MODEL 6
REMARK VINA RESULT:    -4.581     11.506     12.359
REMARK INTER + INTRA:          -5.658
REMARK INTER:                  -5.341
REMARK INTRA:                  -0.317
REMARK UNBOUND:                -0.274
REMARK SMILES O=c1cc(-c2ccc(O)c(O)c2)oc2cc(O)cc(O)c12
REMARK SMILES IDX 4 1 3 2 2 3 1 4 21 5 19 6 18 7 16 8 15 9 14 10 13 11 5 12
REMARK SMILES IDX 6 13 7 14 8 15 12 16 10 17 9 18 11 20 20 22 17 24
REMARK H PARENT 9 19 11 21 20 23 17 25
REMARK Flexibility Score: inf
ROOT
ATOM      1  C   UNL     1      -0.755   6.744   2.197  1.00  0.00     0.138 A 
ATOM      2  C   UNL     1      -0.237   7.064   3.459  1.00  0.00     0.100 A 
ATOM      3  C   UNL     1       1.021   7.659   3.559  1.00  0.00     0.197 A 
ATOM      4  O   UNL     1       1.432   7.992   4.701  1.00  0.00    -0.289 OA
ATOM      5  C   UNL     1       1.777   7.906   2.388  1.00  0.00     0.107 A 
ATOM      6  C   UNL     1       3.088   8.471   2.372  1.00  0.00     0.134 A 
ATOM      7  C   UNL     1       3.691   8.777   1.145  1.00  0.00     0.093 A 
ATOM      8  C   UNL     1       3.059   8.484  -0.062  1.00  0.00     0.123 A 
ATOM      9  C   UNL     1       1.800   7.882  -0.058  1.00  0.00     0.094 A 
ATOM     10  C   UNL     1       1.157   7.597   1.149  1.00  0.00     0.146 A 
ATOM     11  O   UNL     1      -0.048   7.036   1.110  1.00  0.00    -0.456 OA
ENDROOT
BRANCH   1  12
ATOM     12  C   UNL     1      -2.087   6.109   2.034  1.00  0.00     0.021 A 
ATOM     13  C   UNL     1      -2.809   5.712   3.173  1.00  0.00     0.016 A 
ATOM     14  C   UNL     1      -4.067   5.118   3.045  1.00  0.00     0.051 A 
ATOM     15  C   UNL     1      -4.630   4.920   1.778  1.00  0.00     0.157 A 
ATOM     16  C   UNL     1      -2.665   5.918   0.762  1.00  0.00     0.062 A 
ATOM     17  C   UNL     1      -3.928   5.324   0.636  1.00  0.00     0.158 A 
BRANCH  15  18
ATOM     18  O   UNL     1      -5.884   4.328   1.647  1.00  0.00    -0.504 OA
ATOM     19  H   UNL     1      -6.732   4.883   1.620  1.00  0.00     0.293 HD
ENDBRANCH  15  18
BRANCH  17  20
ATOM     20  O   UNL     1      -4.496   5.135  -0.623  1.00  0.00    -0.504 OA
ATOM     21  H   UNL     1      -4.431   5.842  -1.346  1.00  0.00     0.293 HD
ENDBRANCH  17  20
ENDBRANCH   1  12
BRANCH   6  22
ATOM     22  O   UNL     1       3.843   8.725   3.520  1.00  0.00    -0.507 OA
ATOM     23  H   UNL     1       4.739   8.310   3.725  1.00  0.00     0.293 HD
ENDBRANCH   6  22
BRANCH   8  24
ATOM     24  O   UNL     1       3.696   8.789  -1.263  1.00  0.00    -0.508 OA
ATOM     25  H   UNL     1       4.521   9.376  -1.291  1.00  0.00     0.293 HD
ENDBRANCH   8  24
TORSDOF 5
ENDMDL
MODEL 7
REMARK VINA RESULT:    -4.554      2.405      6.732
REMARK INTER + INTRA:          -5.627
REMARK INTER:                  -5.313
REMARK INTRA:                  -0.314
REMARK UNBOUND:                -0.274
REMARK SMILES O=c1cc(-c2ccc(O)c(O)c2)oc2cc(O)cc(O)c12
REMARK SMILES IDX 4 1 3 2 2 3 1 4 21 5 19 6 18 7 16 8 15 9 14 10 13 11 5 12
REMARK SMILES IDX 6 13 7 14 8 15 12 16 10 17 9 18 11 20 20 22 17 24
REMARK H PARENT 9 19 11 21 20 23 17 25
REMARK Flexibility Score: inf
ROOT
ATOM      1  C   UNL     1      -4.129  -1.325  -6.739  1.00  0.00     0.138 A 
ATOM      2  C   UNL     1      -3.118  -2.193  -7.173  1.00  0.00     0.100 A 
ATOM      3  C   UNL     1      -2.740  -3.270  -6.369  1.00  0.00     0.197 A 
ATOM      4  O   UNL     1      -1.874  -4.067  -6.813  1.00  0.00    -0.289 OA
ATOM      5  C   UNL     1      -3.358  -3.458  -5.110  1.00  0.00     0.107 A 
ATOM      6  C   UNL     1      -3.025  -4.497  -4.189  1.00  0.00     0.134 A 
ATOM      7  C   UNL     1      -3.786  -4.655  -3.023  1.00  0.00     0.093 A 
ATOM      8  C   UNL     1      -4.825  -3.777  -2.716  1.00  0.00     0.123 A 
ATOM      9  C   UNL     1      -5.124  -2.725  -3.583  1.00  0.00     0.094 A 
ATOM     10  C   UNL     1      -4.407  -2.563  -4.771  1.00  0.00     0.146 A 
ATOM     11  O   UNL     1      -4.732  -1.557  -5.577  1.00  0.00    -0.456 OA
ENDROOT
BRANCH   1  12
ATOM     12  C   UNL     1      -4.569  -0.164  -7.553  1.00  0.00     0.021 A 
ATOM     13  C   UNL     1      -3.748   0.301  -8.596  1.00  0.00     0.016 A 
ATOM     14  C   UNL     1      -4.142   1.387  -9.380  1.00  0.00     0.051 A 
ATOM     15  C   UNL     1      -5.369   2.021  -9.143  1.00  0.00     0.157 A 
ATOM     16  C   UNL     1      -5.807   0.471  -7.329  1.00  0.00     0.062 A 
ATOM     17  C   UNL     1      -6.202   1.560  -8.118  1.00  0.00     0.158 A 
BRANCH  15  18
ATOM     18  O   UNL     1      -5.766   3.106  -9.923  1.00  0.00    -0.504 OA
ATOM     19  H   UNL     1      -5.093   3.660 -10.441  1.00  0.00     0.293 HD
ENDBRANCH  15  18
BRANCH  17  20
ATOM     20  O   UNL     1      -7.427   2.186  -7.892  1.00  0.00    -0.504 OA
ATOM     21  H   UNL     1      -7.778   2.341  -6.954  1.00  0.00     0.293 HD
ENDBRANCH  17  20
ENDBRANCH   1  12
BRANCH   6  22
ATOM     22  O   UNL     1      -1.953  -5.377  -4.358  1.00  0.00    -0.507 OA
ATOM     23  H   UNL     1      -1.897  -6.090  -5.070  1.00  0.00     0.293 HD
ENDBRANCH   6  22
BRANCH   8  24
ATOM     24  O   UNL     1      -5.550  -3.955  -1.540  1.00  0.00    -0.508 OA
ATOM     25  H   UNL     1      -5.459  -3.316  -0.760  1.00  0.00     0.293 HD
ENDBRANCH   8  24
TORSDOF 5
ENDMDL
MODEL 8
REMARK VINA RESULT:    -4.461     10.640     13.103
REMARK INTER + INTRA:          -5.518
REMARK INTER:                  -5.241
REMARK INTRA:                  -0.277
REMARK UNBOUND:                -0.274
REMARK SMILES O=c1cc(-c2ccc(O)c(O)c2)oc2cc(O)cc(O)c12
REMARK SMILES IDX 4 1 3 2 2 3 1 4 21 5 19 6 18 7 16 8 15 9 14 10 13 11 5 12
REMARK SMILES IDX 6 13 7 14 8 15 12 16 10 17 9 18 11 20 20 22 17 24
REMARK H PARENT 9 19 11 21 20 23 17 25
REMARK Flexibility Score: inf
ROOT
ATOM      1  C   UNL     1      -0.873   7.146   1.091  1.00  0.00     0.138 A 
ATOM      2  C   UNL     1      -0.821   6.750   2.434  1.00  0.00     0.100 A 
ATOM      3  C   UNL     1      -1.892   6.049   2.990  1.00  0.00     0.197 A 
ATOM      4  O   UNL     1      -1.789   5.653   4.180  1.00  0.00    -0.289 OA
ATOM      5  C   UNL     1      -3.034   5.769   2.202  1.00  0.00     0.107 A 
ATOM      6  C   UNL     1      -4.201   5.096   2.674  1.00  0.00     0.134 A 
ATOM      7  C   UNL     1      -5.222   4.772   1.771  1.00  0.00     0.093 A 
ATOM      8  C   UNL     1      -5.145   5.149   0.431  1.00  0.00     0.123 A 
ATOM      9  C   UNL     1      -4.033   5.855  -0.029  1.00  0.00     0.094 A 
ATOM     10  C   UNL     1      -2.983   6.162   0.838  1.00  0.00     0.146 A 
ATOM     11  O   UNL     1      -1.934   6.823   0.358  1.00  0.00    -0.456 OA
ENDROOT
BRANCH   1  12
ATOM     12  C   UNL     1       0.237   7.896   0.450  1.00  0.00     0.021 A 
ATOM     13  C   UNL     1      -0.056   9.012  -0.353  1.00  0.00     0.016 A 
ATOM     14  C   UNL     1       0.971   9.738  -0.962  1.00  0.00     0.051 A 
ATOM     15  C   UNL     1       2.307   9.368  -0.770  1.00  0.00     0.157 A 
ATOM     16  C   UNL     1       1.585   7.537   0.649  1.00  0.00     0.062 A 
ATOM     17  C   UNL     1       2.614   8.268   0.039  1.00  0.00     0.158 A 
BRANCH  15  18
ATOM     18  O   UNL     1       3.334  10.089  -1.376  1.00  0.00    -0.504 OA
ATOM     19  H   UNL     1       3.254  11.086  -1.544  1.00  0.00     0.293 HD
ENDBRANCH  15  18
BRANCH  17  20
ATOM     20  O   UNL     1       3.947   7.908   0.236  1.00  0.00    -0.504 OA
ATOM     21  H   UNL     1       4.200   7.041   0.696  1.00  0.00     0.293 HD
ENDBRANCH  17  20
ENDBRANCH   1  12
BRANCH   6  22
ATOM     22  O   UNL     1      -4.416   4.750   4.010  1.00  0.00    -0.507 OA
ATOM     23  H   UNL     1      -5.139   5.136   4.598  1.00  0.00     0.293 HD
ENDBRANCH   6  22
BRANCH   8  24
ATOM     24  O   UNL     1      -6.188   4.822  -0.435  1.00  0.00    -0.508 OA
ATOM     25  H   UNL     1      -6.294   5.280  -1.332  1.00  0.00     0.293 HD
ENDBRANCH   8  24
TORSDOF 5
ENDMDL
