MODEL 1
REMARK VINA RESULT:    -3.044      0.000      0.000
REMARK INTER + INTRA:          -5.169
REMARK INTER:                  -4.823
REMARK INTRA:                  -0.346
REMARK UNBOUND:                -0.346
REMARK SMILES CCCCCCCCCCCC(=O)[O-]
REMARK SMILES IDX 7 1 8 2 9 3 10 4 11 5 12 6 13 7 14 8 6 9 5 10 4 11 3 12 2 13
REMARK SMILES IDX 1 14
REMARK H PARENT
REMARK Flexibility Score: inf
ROOT
ATOM      1  C   UNL     1      13.231  10.683  15.007  1.00  0.00     0.000 C 
ENDROOT
BRANCH   1   2
ATOM      2  C   UNL     1      12.031  11.550  14.590  1.00  0.00     0.000 C 
BRANCH   2   3
ATOM      3  C   UNL     1      12.038  12.942  15.247  1.00  0.00     0.000 C 
BRANCH   3   4
ATOM      4  C   UNL     1      13.327  13.758  15.042  1.00  0.00     0.006 C 
BRANCH   4   5
ATOM      5  C   UNL     1      13.067  15.158  14.471  1.00  0.00     0.053 C 
BRANCH   5   6
ATOM      6  C   UNL     1      13.238  15.157  12.985  1.00  0.00     0.041 C 
ATOM      7  O   UNL     1      13.622  16.200  12.392  1.00  0.00    -0.550 OA
ATOM      8  O   UNL     1      12.928  14.021  12.250  1.00  0.00    -0.550 OA
ENDBRANCH   5   6
ENDBRANCH   4   5
ENDBRANCH   3   4
ENDBRANCH   2   3
ENDBRANCH   1   2
BRANCH   1   9
ATOM      9  C   UNL     1      12.834   9.238  15.362  1.00  0.00     0.000 C 
BRANCH   9  10
ATOM     10  C   UNL     1      13.950   8.190  15.196  1.00  0.00    -0.000 C 
BRANCH  10  11
ATOM     11  C   UNL     1      13.481   6.760  15.500  1.00  0.00    -0.000 C 
BRANCH  11  12
ATOM     12  C   UNL     1      12.531   6.737  16.703  1.00  0.00    -0.000 C 
BRANCH  12  13
ATOM     13  C   UNL     1      12.857   5.566  17.638  1.00  0.00    -0.003 C 
ATOM     14  C   UNL     1      13.290   4.334  16.849  1.00  0.00     0.004 C 
ENDBRANCH  12  13
ENDBRANCH  11  12
ENDBRANCH  10  11
ENDBRANCH   9  10
ENDBRANCH   1   9
TORSDOF 10
ENDMDL
MODEL 2
REMARK VINA RESULT:    -2.780      4.350      8.243
REMARK INTER + INTRA:          -4.752
REMARK INTER:                  -4.308
REMARK INTRA:                  -0.444
REMARK UNBOUND:                -0.346
REMARK SMILES CCCCCCCCCCCC(=O)[O-]
REMARK SMILES IDX 7 1 8 2 9 3 10 4 11 5 12 6 13 7 14 8 6 9 5 10 4 11 3 12 2 13
REMARK SMILES IDX 1 14
REMARK H PARENT
REMARK Flexibility Score: inf
ROOT
ATOM      1  C   UNL     1      13.109  11.021  15.373  1.00  0.00     0.000 C 
ENDROOT
BRANCH   1   2
ATOM      2  C   UNL     1      12.688   9.586  15.012  1.00  0.00     0.000 C 
BRANCH   2   3
ATOM      3  C   UNL     1      13.839   8.572  15.138  1.00  0.00     0.000 C 
BRANCH   3   4
ATOM      4  C   UNL     1      13.409   7.126  15.447  1.00  0.00     0.006 C 
BRANCH   4   5
ATOM      5  C   UNL     1      12.595   7.006  16.741  1.00  0.00     0.053 C 
BRANCH   5   6
ATOM      6  C   UNL     1      12.825   5.674  17.382  1.00  0.00     0.041 C 
ATOM      7  O   UNL     1      13.267   4.712  16.700  1.00  0.00    -0.550 OA
ATOM      8  O   UNL     1      12.505   5.481  18.719  1.00  0.00    -0.550 OA
ENDBRANCH   5   6
ENDBRANCH   4   5
ENDBRANCH   3   4
ENDBRANCH   2   3
ENDBRANCH   1   2
BRANCH   1   9
ATOM      9  C   UNL     1      12.135  12.086  14.838  1.00  0.00     0.000 C 
BRANCH   9  10
ATOM     10  C   UNL     1      12.117  12.251  13.307  1.00  0.00    -0.000 C 
BRANCH  10  11
ATOM     11  C   UNL     1      12.885  13.491  12.827  1.00  0.00    -0.000 C 
BRANCH  11  12
ATOM     12  C   UNL     1      13.274  14.389  14.008  1.00  0.00    -0.000 C 
BRANCH  12  13
ATOM     13  C   UNL     1      13.295  15.865  13.594  1.00  0.00    -0.003 C 
ATOM     14  C   UNL     1      13.272  16.011  12.075  1.00  0.00     0.004 C 
ENDBRANCH  12  13
ENDBRANCH  11  12
ENDBRANCH  10  11
ENDBRANCH   9  10
ENDBRANCH   1   9
TORSDOF 10
ENDMDL
MODEL 3
REMARK VINA RESULT:    -2.765      1.369      2.223
REMARK INTER + INTRA:          -4.728
REMARK INTER:                  -4.510
REMARK INTRA:                  -0.218
REMARK UNBOUND:                -0.346
REMARK SMILES CCCCCCCCCCCC(=O)[O-]
REMARK SMILES IDX 7 1 8 2 9 3 10 4 11 5 12 6 13 7 14 8 6 9 5 10 4 11 3 12 2 13
REMARK SMILES IDX 1 14
REMARK H PARENT
REMARK Flexibility Score: inf
ROOT
ATOM      1  C   UNL     1      13.808   8.625  15.381  1.00  0.00     0.000 C 
ENDROOT
BRANCH   1   2
ATOM      2  C   UNL     1      12.725   9.643  14.984  1.00  0.00     0.000 C 
BRANCH   2   3
ATOM      3  C   UNL     1      13.131  11.098  15.279  1.00  0.00     0.000 C 
BRANCH   3   4
ATOM      4  C   UNL     1      12.277  12.173  14.581  1.00  0.00     0.006 C 
BRANCH   4   5
ATOM      5  C   UNL     1      12.780  13.599  14.836  1.00  0.00     0.053 C 
BRANCH   5   6
ATOM      6  C   UNL     1      13.046  14.298  13.541  1.00  0.00     0.041 C 
ATOM      7  O   UNL     1      13.467  15.486  13.538  1.00  0.00    -0.550 OA
ATOM      8  O   UNL     1      12.784  13.657  12.338  1.00  0.00    -0.550 OA
ENDBRANCH   5   6
ENDBRANCH   4   5
ENDBRANCH   3   4
ENDBRANCH   2   3
ENDBRANCH   1   2
BRANCH   1   9
ATOM      9  C   UNL     1      13.265   7.191  15.518  1.00  0.00     0.000 C 
BRANCH   9  10
ATOM     10  C   UNL     1      12.581   6.873  16.860  1.00  0.00    -0.000 C 
BRANCH  10  11
ATOM     11  C   UNL     1      12.874   5.452  17.362  1.00  0.00    -0.000 C 
BRANCH  11  12
ATOM     12  C   UNL     1      12.500   5.303  18.842  1.00  0.00    -0.000 C 
BRANCH  12  13
ATOM     13  C   UNL     1      12.166   3.846  19.181  1.00  0.00    -0.003 C 
ATOM     14  C   UNL     1      11.525   3.734  20.562  1.00  0.00     0.004 C 
ENDBRANCH  12  13
ENDBRANCH  11  12
ENDBRANCH  10  11
ENDBRANCH   9  10
ENDBRANCH   1   9
TORSDOF 10
ENDMDL
MODEL 4
REMARK VINA RESULT:    -2.699      1.874      3.252
REMARK INTER + INTRA:          -4.623
REMARK INTER:                  -4.405
REMARK INTRA:                  -0.218
REMARK UNBOUND:                -0.346
REMARK SMILES CCCCCCCCCCCC(=O)[O-]
REMARK SMILES IDX 7 1 8 2 9 3 10 4 11 5 12 6 13 7 14 8 6 9 5 10 4 11 3 12 2 13
REMARK SMILES IDX 1 14
REMARK H PARENT
REMARK Flexibility Score: inf
ROOT
ATOM      1  C   UNL     1      13.407   7.375  15.361  1.00  0.00     0.000 C 
ENDROOT
BRANCH   1   2
ATOM      2  C   UNL     1      13.744   8.875  15.399  1.00  0.00     0.000 C 
BRANCH   2   3
ATOM      3  C   UNL     1      12.545   9.771  15.040  1.00  0.00     0.000 C 
BRANCH   3   4
ATOM      4  C   UNL     1      12.828  11.284  15.055  1.00  0.00     0.006 C 
BRANCH   4   5
ATOM      5  C   UNL     1      11.888  12.079  14.139  1.00  0.00     0.053 C 
BRANCH   5   6
ATOM      6  C   UNL     1      12.647  13.141  13.407  1.00  0.00     0.041 C 
ATOM      7  O   UNL     1      12.650  13.162  12.148  1.00  0.00    -0.550 OA
ATOM      8  O   UNL     1      13.390  14.077  14.114  1.00  0.00    -0.550 OA
ENDBRANCH   5   6
ENDBRANCH   4   5
ENDBRANCH   3   4
ENDBRANCH   2   3
ENDBRANCH   1   2
BRANCH   1   9
ATOM      9  C   UNL     1      12.552   6.921  16.558  1.00  0.00     0.000 C 
BRANCH   9  10
ATOM     10  C   UNL     1      12.950   5.567  17.175  1.00  0.00    -0.000 C 
BRANCH  10  11
ATOM     11  C   UNL     1      12.632   5.472  18.674  1.00  0.00    -0.000 C 
BRANCH  11  12
ATOM     12  C   UNL     1      12.287   4.032  19.073  1.00  0.00    -0.000 C 
BRANCH  12  13
ATOM     13  C   UNL     1      11.302   4.007  20.247  1.00  0.00    -0.003 C 
ATOM     14  C   UNL     1      11.858   3.200  21.417  1.00  0.00     0.004 C 
ENDBRANCH  12  13
ENDBRANCH  11  12
ENDBRANCH  10  11
ENDBRANCH   9  10
ENDBRANCH   1   9
TORSDOF 10
ENDMDL
MODEL 5
REMARK VINA RESULT:    -2.276      6.999      8.161
REMARK INTER + INTRA:          -3.952
REMARK INTER:                  -3.428
REMARK INTRA:                  -0.524
REMARK UNBOUND:                -0.346
REMARK SMILES CCCCCCCCCCCC(=O)[O-]
REMARK SMILES IDX 7 1 8 2 9 3 10 4 11 5 12 6 13 7 14 8 6 9 5 10 4 11 3 12 2 13
REMARK SMILES IDX 1 14
REMARK H PARENT
REMARK Flexibility Score: inf
ROOT
ATOM      1  C   UNL     1      13.358   4.380  16.499  1.00  0.00     0.000 C 
ENDROOT
BRANCH   1   2
ATOM      2  C   UNL     1      14.610   4.213  15.620  1.00  0.00     0.000 C 
BRANCH   2   3
ATOM      3  C   UNL     1      14.813   5.378  14.635  1.00  0.00     0.000 C 
BRANCH   3   4
ATOM      4  C   UNL     1      15.607   5.031  13.362  1.00  0.00     0.006 C 
BRANCH   4   5
ATOM      5  C   UNL     1      17.063   4.647  13.651  1.00  0.00     0.053 C 
BRANCH   5   6
ATOM      6  C   UNL     1      17.642   3.889  12.497  1.00  0.00     0.041 C 
ATOM      7  O   UNL     1      18.834   3.486  12.540  1.00  0.00    -0.550 OA
ATOM      8  O   UNL     1      16.880   3.671  11.357  1.00  0.00    -0.550 OA
ENDBRANCH   5   6
ENDBRANCH   4   5
ENDBRANCH   3   4
ENDBRANCH   2   3
ENDBRANCH   1   2
BRANCH   1   9
ATOM      9  C   UNL     1      12.847   5.832  16.547  1.00  0.00     0.000 C 
BRANCH   9  10
ATOM     10  C   UNL     1      12.491   6.358  17.950  1.00  0.00    -0.000 C 
BRANCH  10  11
ATOM     11  C   UNL     1      12.884   5.387  19.073  1.00  0.00    -0.000 C 
BRANCH  11  12
ATOM     12  C   UNL     1      11.640   4.811  19.761  1.00  0.00    -0.000 C 
BRANCH  12  13
ATOM     13  C   UNL     1      11.829   3.325  20.086  1.00  0.00    -0.003 C 
ATOM     14  C   UNL     1      11.798   3.081  21.592  1.00  0.00     0.004 C 
ENDBRANCH  12  13
ENDBRANCH  11  12
ENDBRANCH  10  11
ENDBRANCH   9  10
ENDBRANCH   1   9
TORSDOF 10
ENDMDL
MODEL 6
REMARK VINA RESULT:    -1.974      5.309      8.719
REMARK INTER + INTRA:          -3.475
REMARK INTER:                  -3.101
REMARK INTRA:                  -0.374
REMARK UNBOUND:                -0.346
REMARK SMILES CCCCCCCCCCCC(=O)[O-]
REMARK SMILES IDX 7 1 8 2 9 3 10 4 11 5 12 6 13 7 14 8 6 9 5 10 4 11 3 12 2 13
REMARK SMILES IDX 1 14
REMARK H PARENT
REMARK Flexibility Score: inf
ROOT
ATOM      1  C   UNL     1      13.960   8.619  15.334  1.00  0.00     0.000 C 
ENDROOT
BRANCH   1   2
ATOM      2  C   UNL     1      13.575   7.140  15.507  1.00  0.00     0.000 C 
BRANCH   2   3
ATOM      3  C   UNL     1      12.616   6.903  16.689  1.00  0.00     0.000 C 
BRANCH   3   4
ATOM      4  C   UNL     1      12.602   5.467  17.244  1.00  0.00     0.006 C 
BRANCH   4   5
ATOM      5  C   UNL     1      12.614   5.416  18.777  1.00  0.00     0.053 C 
BRANCH   5   6
ATOM      6  C   UNL     1      12.142   4.081  19.259  1.00  0.00     0.041 C 
ATOM      7  O   UNL     1      11.433   3.998  20.297  1.00  0.00    -0.550 OA
ATOM      8  O   UNL     1      12.527   2.925  18.592  1.00  0.00    -0.550 OA
ENDBRANCH   5   6
ENDBRANCH   4   5
ENDBRANCH   3   4
ENDBRANCH   2   3
ENDBRANCH   1   2
BRANCH   1   9
ATOM      9  C   UNL     1      12.782   9.499  14.879  1.00  0.00     0.000 C 
BRANCH   9  10
ATOM     10  C   UNL     1      12.867  10.979  15.295  1.00  0.00    -0.000 C 
BRANCH  10  11
ATOM     11  C   UNL     1      12.012  11.901  14.414  1.00  0.00    -0.000 C 
BRANCH  11  12
ATOM     12  C   UNL     1      12.807  13.136  13.975  1.00  0.00    -0.000 C 
BRANCH  12  13
ATOM     13  C   UNL     1      12.788  13.290  12.450  1.00  0.00    -0.003 C 
ATOM     14  C   UNL     1      11.707  12.415  11.821  1.00  0.00     0.004 C 
ENDBRANCH  12  13
ENDBRANCH  11  12
ENDBRANCH  10  11
ENDBRANCH   9  10
ENDBRANCH   1   9
TORSDOF 10
ENDMDL
MODEL 7
REMARK VINA RESULT:    -1.488      7.494      8.941
REMARK INTER + INTRA:          -2.704
REMARK INTER:                  -2.141
REMARK INTRA:                  -0.562
REMARK UNBOUND:                -0.346
REMARK SMILES CCCCCCCCCCCC(=O)[O-]
REMARK SMILES IDX 7 1 8 2 9 3 10 4 11 5 12 6 13 7 14 8 6 9 5 10 4 11 3 12 2 13
REMARK SMILES IDX 1 14
REMARK H PARENT
REMARK Flexibility Score: inf
ROOT
ATOM      1  C   UNL     1      13.537   4.388  16.348  1.00  0.00     0.000 C 
ENDROOT
BRANCH   1   2
ATOM      2  C   UNL     1      12.893   5.781  16.254  1.00  0.00     0.000 C 
BRANCH   2   3
ATOM      3  C   UNL     1      12.700   6.449  17.628  1.00  0.00     0.000 C 
BRANCH   3   4
ATOM      4  C   UNL     1      12.965   5.539  18.842  1.00  0.00     0.006 C 
BRANCH   4   5
ATOM      5  C   UNL     1      11.678   5.005  19.483  1.00  0.00     0.053 C 
BRANCH   5   6
ATOM      6  C   UNL     1      11.897   3.627  20.023  1.00  0.00     0.041 C 
ATOM      7  O   UNL     1      12.321   2.712  19.268  1.00  0.00    -0.550 OA
ATOM      8  O   UNL     1      11.587   3.341  21.345  1.00  0.00    -0.550 OA
ENDBRANCH   5   6
ENDBRANCH   4   5
ENDBRANCH   3   4
ENDBRANCH   2   3
ENDBRANCH   1   2
BRANCH   1   9
ATOM      9  C   UNL     1      14.795   4.246  15.472  1.00  0.00     0.000 C 
BRANCH   9  10
ATOM     10  C   UNL     1      14.993   5.355  14.422  1.00  0.00    -0.000 C 
BRANCH  10  11
ATOM     11  C   UNL     1      14.726   4.879  12.987  1.00  0.00    -0.000 C 
BRANCH  11  12
ATOM     12  C   UNL     1      16.026   4.444  12.301  1.00  0.00    -0.000 C 
BRANCH  12  13
ATOM     13  C   UNL     1      17.247   4.800  13.158  1.00  0.00    -0.003 C 
ATOM     14  C   UNL     1      18.315   3.713  13.075  1.00  0.00     0.004 C 
ENDBRANCH  12  13
ENDBRANCH  11  12
ENDBRANCH  10  11
ENDBRANCH   9  10
ENDBRANCH   1   9
TORSDOF 10
ENDMDL
MODEL 8
REMARK VINA RESULT:    -1.175      1.411      2.072
REMARK INTER + INTRA:          -2.208
REMARK INTER:                  -1.882
REMARK INTRA:                  -0.325
REMARK UNBOUND:                -0.346
REMARK SMILES CCCCCCCCCCCC(=O)[O-]
REMARK SMILES IDX 7 1 8 2 9 3 10 4 11 5 12 6 13 7 14 8 6 9 5 10 4 11 3 12 2 13
REMARK SMILES IDX 1 14
REMARK H PARENT
REMARK Flexibility Score: inf
ROOT
ATOM      1  C   UNL     1      12.897   8.929  15.655  1.00  0.00     0.000 C 
ENDROOT
BRANCH   1   2
ATOM      2  C   UNL     1      12.494  10.121  14.769  1.00  0.00     0.000 C 
BRANCH   2   3
ATOM      3  C   UNL     1      12.928  11.477  15.354  1.00  0.00     0.000 C 
BRANCH   3   4
ATOM      4  C   UNL     1      12.461  12.713  14.561  1.00  0.00     0.006 C 
BRANCH   4   5
ATOM      5  C   UNL     1      11.636  12.352  13.320  1.00  0.00     0.053 C 
BRANCH   5   6
ATOM      6  C   UNL     1      12.269  12.918  12.089  1.00  0.00     0.041 C 
ATOM      7  O   UNL     1      12.878  14.020  12.140  1.00  0.00    -0.550 OA
ATOM      8  O   UNL     1      12.145  12.255  10.875  1.00  0.00    -0.550 OA
ENDBRANCH   5   6
ENDBRANCH   4   5
ENDBRANCH   3   4
ENDBRANCH   2   3
ENDBRANCH   1   2
BRANCH   1   9
ATOM      9  C   UNL     1      14.036   8.088  15.049  1.00  0.00     0.000 C 
BRANCH   9  10
ATOM     10  C   UNL     1      13.763   6.574  14.968  1.00  0.00    -0.000 C 
BRANCH  10  11
ATOM     11  C   UNL     1      13.246   5.985  16.288  1.00  0.00    -0.000 C 
BRANCH  11  12
ATOM     12  C   UNL     1      13.651   4.512  16.428  1.00  0.00    -0.000 C 
BRANCH  12  13
ATOM     13  C   UNL     1      13.190   3.941  17.774  1.00  0.00    -0.003 C 
ATOM     14  C   UNL     1      12.770   2.480  17.637  1.00  0.00     0.004 C 
ENDBRANCH  12  13
ENDBRANCH  11  12
ENDBRANCH  10  11
ENDBRANCH   9  10
ENDBRANCH   1   9
TORSDOF 10
ENDMDL
MODEL 9
REMARK VINA RESULT:    -0.560      1.782      3.269
REMARK INTER + INTRA:          -1.234
REMARK INTER:                  -1.095
REMARK INTRA:                  -0.139
REMARK UNBOUND:                -0.346
REMARK SMILES CCCCCCCCCCCC(=O)[O-]
REMARK SMILES IDX 7 1 8 2 9 3 10 4 11 5 12 6 13 7 14 8 6 9 5 10 4 11 3 12 2 13
REMARK SMILES IDX 1 14
REMARK H PARENT
REMARK Flexibility Score: inf
ROOT
ATOM      1  C   UNL     1      12.970   7.814  16.561  1.00  0.00     0.000 C 
ENDROOT
BRANCH   1   2
ATOM      2  C   UNL     1      13.168   8.525  15.211  1.00  0.00     0.000 C 
BRANCH   2   3
ATOM      3  C   UNL     1      13.198  10.059  15.339  1.00  0.00     0.000 C 
BRANCH   3   4
ATOM      4  C   UNL     1      12.048  10.800  14.631  1.00  0.00     0.006 C 
BRANCH   4   5
ATOM      5  C   UNL     1      11.958  12.280  15.021  1.00  0.00     0.053 C 
BRANCH   5   6
ATOM      6  C   UNL     1      12.751  13.120  14.069  1.00  0.00     0.041 C 
ATOM      7  O   UNL     1      13.478  14.052  14.503  1.00  0.00    -0.550 OA
ATOM      8  O   UNL     1      12.648  12.905  12.701  1.00  0.00    -0.550 OA
ENDBRANCH   5   6
ENDBRANCH   4   5
ENDBRANCH   3   4
ENDBRANCH   2   3
ENDBRANCH   1   2
BRANCH   1   9
ATOM      9  C   UNL     1      12.392   6.395  16.414  1.00  0.00     0.000 C 
BRANCH   9  10
ATOM     10  C   UNL     1      13.283   5.263  16.958  1.00  0.00    -0.000 C 
BRANCH  10  11
ATOM     11  C   UNL     1      14.056   4.523  15.857  1.00  0.00    -0.000 C 
BRANCH  11  12
ATOM     12  C   UNL     1      14.297   5.435  14.648  1.00  0.00    -0.000 C 
BRANCH  12  13
ATOM     13  C   UNL     1      15.395   4.868  13.741  1.00  0.00    -0.003 C 
ATOM     14  C   UNL     1      14.930   4.796  12.289  1.00  0.00     0.004 C 
ENDBRANCH  12  13
ENDBRANCH  11  12
ENDBRANCH  10  11
ENDBRANCH   9  10
ENDBRANCH   1   9
TORSDOF 10
ENDMDL
