MODEL 1
REMARK VINA RESULT:    -4.749      0.000      0.000
REMARK INTER + INTRA:          -5.218
REMARK INTER:                  -5.165
REMARK INTRA:                  -0.053
REMARK UNBOUND:                -0.053
REMARK SMILES COc1cc2ccc(=O)oc2cc1O
REMARK SMILES IDX 3 1 13 2 12 3 11 4 5 5 4 6 6 7 7 8 8 9 9 10 10 11 2 12 1 13
REMARK SMILES IDX 14 14
REMARK H PARENT 14 15
REMARK Flexibility Score: inf
ROOT
ATOM      1  C   UNL     1      18.039 129.599  57.201  1.00  0.00     0.161 A 
ATOM      2  C   UNL     1      18.800 130.469  56.406  1.00  0.00     0.161 A 
ATOM      3  C   UNL     1      18.742 130.383  55.007  1.00  0.00     0.098 A 
ATOM      4  C   UNL     1      17.927 129.429  54.394  1.00  0.00     0.142 A 
ATOM      5  C   UNL     1      17.159 128.550  55.185  1.00  0.00     0.022 A 
ATOM      6  C   UNL     1      17.215 128.636  56.584  1.00  0.00     0.062 A 
ATOM      7  C   UNL     1      16.352 127.605  54.542  1.00  0.00     0.019 A 
ATOM      8  C   UNL     1      16.330 127.560  53.149  1.00  0.00     0.094 A 
ATOM      9  C   UNL     1      17.119 128.464  52.429  1.00  0.00     0.336 A 
ATOM     10  O   UNL     1      17.114 128.439  51.170  1.00  0.00    -0.246 OA
ATOM     11  O   UNL     1      17.877 129.352  53.066  1.00  0.00    -0.423 OA
ENDROOT
BRANCH   1  12
ATOM     12  O   UNL     1      18.127 129.721  58.597  1.00  0.00    -0.493 OA
ATOM     13  C   UNL     1      17.010 129.709  59.481  1.00  0.00     0.278 C 
ENDBRANCH   1  12
BRANCH   2  14
ATOM     14  O   UNL     1      19.614 131.423  57.015  1.00  0.00    -0.504 OA
ATOM     15  H   UNL     1      20.419 131.157  57.570  1.00  0.00     0.293 HD
ENDBRANCH   2  14
TORSDOF 2
ENDMDL
MODEL 2
REMARK VINA RESULT:    -4.700      1.499      4.965
REMARK INTER + INTRA:          -5.165
REMARK INTER:                  -5.206
REMARK INTRA:                   0.040
REMARK UNBOUND:                -0.053
REMARK SMILES COc1cc2ccc(=O)oc2cc1O
REMARK SMILES IDX 3 1 13 2 12 3 11 4 5 5 4 6 6 7 7 8 8 9 9 10 10 11 2 12 1 13
REMARK SMILES IDX 14 14
REMARK H PARENT 14 15
REMARK Flexibility Score: inf
ROOT
ATOM      1  C   UNL     1      16.997 128.229  54.044  1.00  0.00     0.161 A 
ATOM      2  C   UNL     1      18.178 128.789  54.556  1.00  0.00     0.161 A 
ATOM      3  C   UNL     1      18.273 129.121  55.916  1.00  0.00     0.098 A 
ATOM      4  C   UNL     1      17.192 128.897  56.772  1.00  0.00     0.142 A 
ATOM      5  C   UNL     1      16.001 128.334  56.266  1.00  0.00     0.022 A 
ATOM      6  C   UNL     1      15.906 128.001  54.907  1.00  0.00     0.062 A 
ATOM      7  C   UNL     1      14.937 128.122  57.148  1.00  0.00     0.019 A 
ATOM      8  C   UNL     1      15.080 128.469  58.490  1.00  0.00     0.094 A 
ATOM      9  C   UNL     1      16.291 129.022  58.921  1.00  0.00     0.336 A 
ATOM     10  O   UNL     1      16.441 129.343  60.130  1.00  0.00    -0.246 OA
ATOM     11  O   UNL     1      17.288 129.214  58.061  1.00  0.00    -0.423 OA
ENDROOT
BRANCH   1  12
ATOM     12  O   UNL     1      16.947 127.912  52.677  1.00  0.00    -0.493 OA
ATOM     13  C   UNL     1      16.732 128.859  51.637  1.00  0.00     0.278 C 
ENDBRANCH   1  12
BRANCH   2  14
ATOM     14  O   UNL     1      19.258 129.014  53.705  1.00  0.00    -0.504 OA
ATOM     15  H   UNL     1      19.203 129.675  52.940  1.00  0.00     0.293 HD
ENDBRANCH   2  14
TORSDOF 2
ENDMDL
MODEL 3
REMARK VINA RESULT:    -4.511      3.221      5.842
REMARK INTER + INTRA:          -4.959
REMARK INTER:                  -4.914
REMARK INTRA:                  -0.046
REMARK UNBOUND:                -0.053
REMARK SMILES COc1cc2ccc(=O)oc2cc1O
REMARK SMILES IDX 3 1 13 2 12 3 11 4 5 5 4 6 6 7 7 8 8 9 9 10 10 11 2 12 1 13
REMARK SMILES IDX 14 14
REMARK H PARENT 14 15
REMARK Flexibility Score: inf
ROOT
ATOM      1  C   UNL     1      16.929 129.499  50.378  1.00  0.00     0.161 A 
ATOM      2  C   UNL     1      16.152 130.616  50.724  1.00  0.00     0.161 A 
ATOM      3  C   UNL     1      15.554 130.698  51.991  1.00  0.00     0.098 A 
ATOM      4  C   UNL     1      15.726 129.667  52.917  1.00  0.00     0.142 A 
ATOM      5  C   UNL     1      16.505 128.541  52.578  1.00  0.00     0.022 A 
ATOM      6  C   UNL     1      17.104 128.459  51.312  1.00  0.00     0.062 A 
ATOM      7  C   UNL     1      16.658 127.525  53.527  1.00  0.00     0.019 A 
ATOM      8  C   UNL     1      16.043 127.653  54.772  1.00  0.00     0.094 A 
ATOM      9  C   UNL     1      15.286 128.799  55.038  1.00  0.00     0.336 A 
ATOM     10  O   UNL     1      14.722 128.933  56.156  1.00  0.00    -0.246 OA
ATOM     11  O   UNL     1      15.156 129.750  54.117  1.00  0.00    -0.423 OA
ENDROOT
BRANCH   1  12
ATOM     12  O   UNL     1      17.509 129.460  49.100  1.00  0.00    -0.493 OA
ATOM     13  C   UNL     1      18.560 128.580  48.717  1.00  0.00     0.278 C 
ENDBRANCH   1  12
BRANCH   2  14
ATOM     14  O   UNL     1      15.979 131.646  49.801  1.00  0.00    -0.504 OA
ATOM     15  H   UNL     1      15.352 131.552  49.011  1.00  0.00     0.293 HD
ENDBRANCH   2  14
TORSDOF 2
ENDMDL
MODEL 4
REMARK VINA RESULT:    -4.475      2.765      3.526
REMARK INTER + INTRA:          -4.920
REMARK INTER:                  -4.856
REMARK INTRA:                  -0.064
REMARK UNBOUND:                -0.053
REMARK SMILES COc1cc2ccc(=O)oc2cc1O
REMARK SMILES IDX 3 1 13 2 12 3 11 4 5 5 4 6 6 7 7 8 8 9 9 10 10 11 2 12 1 13
REMARK SMILES IDX 14 14
REMARK H PARENT 14 15
REMARK Flexibility Score: inf
ROOT
ATOM      1  C   UNL     1      15.361 129.051  55.020  1.00  0.00     0.161 A 
ATOM      2  C   UNL     1      16.107 127.876  54.836  1.00  0.00     0.161 A 
ATOM      3  C   UNL     1      16.719 127.613  53.602  1.00  0.00     0.098 A 
ATOM      4  C   UNL     1      16.590 128.517  52.545  1.00  0.00     0.142 A 
ATOM      5  C   UNL     1      15.843 129.700  52.721  1.00  0.00     0.022 A 
ATOM      6  C   UNL     1      15.231 129.965  53.955  1.00  0.00     0.062 A 
ATOM      7  C   UNL     1      15.733 130.586  51.644  1.00  0.00     0.019 A 
ATOM      8  C   UNL     1      16.360 130.278  50.438  1.00  0.00     0.094 A 
ATOM      9  C   UNL     1      17.085 129.086  50.337  1.00  0.00     0.336 A 
ATOM     10  O   UNL     1      17.658 128.789  49.255  1.00  0.00    -0.246 OA
ATOM     11  O   UNL     1      17.174 128.261  51.376  1.00  0.00    -0.423 OA
ENDROOT
BRANCH   1  12
ATOM     12  O   UNL     1      14.766 129.275  56.272  1.00  0.00    -0.493 OA
ATOM     13  C   UNL     1      15.200 130.256  57.209  1.00  0.00     0.278 C 
ENDBRANCH   1  12
BRANCH   2  14
ATOM     14  O   UNL     1      16.236 126.972  55.889  1.00  0.00    -0.504 OA
ATOM     15  H   UNL     1      17.115 126.507  56.085  1.00  0.00     0.293 HD
ENDBRANCH   2  14
TORSDOF 2
ENDMDL
MODEL 5
REMARK VINA RESULT:    -4.401      1.748      2.490
REMARK INTER + INTRA:          -4.839
REMARK INTER:                  -4.774
REMARK INTRA:                  -0.065
REMARK UNBOUND:                -0.053
REMARK SMILES COc1cc2ccc(=O)oc2cc1O
REMARK SMILES IDX 3 1 13 2 12 3 11 4 5 5 4 6 6 7 7 8 8 9 9 10 10 11 2 12 1 13
REMARK SMILES IDX 14 14
REMARK H PARENT 14 15
REMARK Flexibility Score: inf
ROOT
ATOM      1  C   UNL     1      17.382 129.939  59.521  1.00  0.00     0.161 A 
ATOM      2  C   UNL     1      18.603 130.210  58.883  1.00  0.00     0.161 A 
ATOM      3  C   UNL     1      18.801 129.835  57.545  1.00  0.00     0.098 A 
ATOM      4  C   UNL     1      17.785 129.186  56.839  1.00  0.00     0.142 A 
ATOM      5  C   UNL     1      16.556 128.910  57.473  1.00  0.00     0.022 A 
ATOM      6  C   UNL     1      16.356 129.286  58.809  1.00  0.00     0.062 A 
ATOM      7  C   UNL     1      15.558 128.261  56.738  1.00  0.00     0.019 A 
ATOM      8  C   UNL     1      15.804 127.908  55.412  1.00  0.00     0.094 A 
ATOM      9  C   UNL     1      17.048 128.214  54.850  1.00  0.00     0.336 A 
ATOM     10  O   UNL     1      17.291 127.903  53.653  1.00  0.00    -0.246 OA
ATOM     11  O   UNL     1      17.980 128.833  55.570  1.00  0.00    -0.423 OA
ENDROOT
BRANCH   1  12
ATOM     12  O   UNL     1      17.228 130.333  60.860  1.00  0.00    -0.493 OA
ATOM     13  C   UNL     1      17.330 129.456  61.977  1.00  0.00     0.278 C 
ENDBRANCH   1  12
BRANCH   2  14
ATOM     14  O   UNL     1      19.618 130.856  59.586  1.00  0.00    -0.504 OA
ATOM     15  H   UNL     1      19.827 131.836  59.437  1.00  0.00     0.293 HD
ENDBRANCH   2  14
TORSDOF 2
ENDMDL
MODEL 6
REMARK VINA RESULT:    -4.390      8.691     10.004
REMARK INTER + INTRA:          -4.827
REMARK INTER:                  -4.780
REMARK INTRA:                  -0.048
REMARK UNBOUND:                -0.053
REMARK SMILES COc1cc2ccc(=O)oc2cc1O
REMARK SMILES IDX 3 1 13 2 12 3 11 4 5 5 4 6 6 7 7 8 8 9 9 10 10 11 2 12 1 13
REMARK SMILES IDX 14 14
REMARK H PARENT 14 15
REMARK Flexibility Score: inf
ROOT
ATOM      1  C   UNL     1      17.607 126.029  63.089  1.00  0.00     0.161 A 
ATOM      2  C   UNL     1      16.304 126.019  63.610  1.00  0.00     0.161 A 
ATOM      3  C   UNL     1      15.779 127.165  64.227  1.00  0.00     0.098 A 
ATOM      4  C   UNL     1      16.551 128.325  64.328  1.00  0.00     0.142 A 
ATOM      5  C   UNL     1      17.861 128.344  63.806  1.00  0.00     0.022 A 
ATOM      6  C   UNL     1      18.386 127.199  63.189  1.00  0.00     0.062 A 
ATOM      7  C   UNL     1      18.608 129.521  63.922  1.00  0.00     0.019 A 
ATOM      8  C   UNL     1      18.042 130.632  64.544  1.00  0.00     0.094 A 
ATOM      9  C   UNL     1      16.736 130.540  65.037  1.00  0.00     0.336 A 
ATOM     10  O   UNL     1      16.207 131.533  65.603  1.00  0.00    -0.246 OA
ATOM     11  O   UNL     1      16.047 129.409  64.914  1.00  0.00    -0.423 OA
ENDROOT
BRANCH   1  12
ATOM     12  O   UNL     1      18.091 124.860  62.479  1.00  0.00    -0.493 OA
ATOM     13  C   UNL     1      19.462 124.478  62.441  1.00  0.00     0.278 C 
ENDBRANCH   1  12
BRANCH   2  14
ATOM     14  O   UNL     1      15.532 124.863  63.512  1.00  0.00    -0.504 OA
ATOM     15  H   UNL     1      15.899 124.012  63.102  1.00  0.00     0.293 HD
ENDBRANCH   2  14
TORSDOF 2
ENDMDL
MODEL 7
REMARK VINA RESULT:    -4.319      1.844      4.667
REMARK INTER + INTRA:          -4.750
REMARK INTER:                  -4.696
REMARK INTRA:                  -0.054
REMARK UNBOUND:                -0.053
REMARK SMILES COc1cc2ccc(=O)oc2cc1O
REMARK SMILES IDX 3 1 13 2 12 3 11 4 5 5 4 6 6 7 7 8 8 9 9 10 10 11 2 12 1 13
REMARK SMILES IDX 14 14
REMARK H PARENT 14 15
REMARK Flexibility Score: inf
ROOT
ATOM      1  C   UNL     1      18.903 130.622  55.078  1.00  0.00     0.161 A 
ATOM      2  C   UNL     1      18.416 129.440  54.500  1.00  0.00     0.161 A 
ATOM      3  C   UNL     1      17.486 128.645  55.188  1.00  0.00     0.098 A 
ATOM      4  C   UNL     1      17.039 129.025  56.456  1.00  0.00     0.142 A 
ATOM      5  C   UNL     1      17.524 130.212  57.045  1.00  0.00     0.022 A 
ATOM      6  C   UNL     1      18.452 131.007  56.357  1.00  0.00     0.062 A 
ATOM      7  C   UNL     1      17.056 130.565  58.315  1.00  0.00     0.019 A 
ATOM      8  C   UNL     1      16.133 129.742  58.958  1.00  0.00     0.094 A 
ATOM      9  C   UNL     1      15.697 128.580  58.313  1.00  0.00     0.336 A 
ATOM     10  O   UNL     1      14.864 127.823  58.877  1.00  0.00    -0.246 OA
ATOM     11  O   UNL     1      16.157 128.267  57.104  1.00  0.00    -0.423 OA
ENDROOT
BRANCH   1  12
ATOM     12  O   UNL     1      19.831 131.386  54.353  1.00  0.00    -0.493 OA
ATOM     13  C   UNL     1      21.050 131.894  54.886  1.00  0.00     0.278 C 
ENDBRANCH   1  12
BRANCH   2  14
ATOM     14  O   UNL     1      18.861 129.058  53.235  1.00  0.00    -0.504 OA
ATOM     15  H   UNL     1      18.213 128.821  52.493  1.00  0.00     0.293 HD
ENDBRANCH   2  14
TORSDOF 2
ENDMDL
MODEL 8
REMARK VINA RESULT:    -4.307      3.934      7.604
REMARK INTER + INTRA:          -4.737
REMARK INTER:                  -4.674
REMARK INTRA:                  -0.063
REMARK UNBOUND:                -0.053
REMARK SMILES COc1cc2ccc(=O)oc2cc1O
REMARK SMILES IDX 3 1 13 2 12 3 11 4 5 5 4 6 6 7 7 8 8 9 9 10 10 11 2 12 1 13
REMARK SMILES IDX 14 14
REMARK H PARENT 14 15
REMARK Flexibility Score: inf
ROOT
ATOM      1  C   UNL     1      18.551 129.887  59.867  1.00  0.00     0.161 A 
ATOM      2  C   UNL     1      19.583 129.390  60.678  1.00  0.00     0.161 A 
ATOM      3  C   UNL     1      19.284 128.729  61.879  1.00  0.00     0.098 A 
ATOM      4  C   UNL     1      17.956 128.562  62.278  1.00  0.00     0.142 A 
ATOM      5  C   UNL     1      16.913 129.058  61.469  1.00  0.00     0.022 A 
ATOM      6  C   UNL     1      17.210 129.718  60.268  1.00  0.00     0.062 A 
ATOM      7  C   UNL     1      15.593 128.874  61.896  1.00  0.00     0.019 A 
ATOM      8  C   UNL     1      15.348 128.212  63.098  1.00  0.00     0.094 A 
ATOM      9  C   UNL     1      16.434 127.747  63.848  1.00  0.00     0.336 A 
ATOM     10  O   UNL     1      16.234 127.146  64.937  1.00  0.00    -0.246 OA
ATOM     11  O   UNL     1      17.679 127.934  63.419  1.00  0.00    -0.423 OA
ENDROOT
BRANCH   1  12
ATOM     12  O   UNL     1      18.896 130.541  58.673  1.00  0.00    -0.493 OA
ATOM     13  C   UNL     1      18.889 129.929  57.387  1.00  0.00     0.278 C 
ENDBRANCH   1  12
BRANCH   2  14
ATOM     14  O   UNL     1      20.909 129.556  60.282  1.00  0.00    -0.504 OA
ATOM     15  H   UNL     1      21.531 130.195  60.763  1.00  0.00     0.293 HD
ENDBRANCH   2  14
TORSDOF 2
ENDMDL
MODEL 9
REMARK VINA RESULT:    -4.244      1.785      5.443
REMARK INTER + INTRA:          -4.669
REMARK INTER:                  -4.608
REMARK INTRA:                  -0.061
REMARK UNBOUND:                -0.053
REMARK SMILES COc1cc2ccc(=O)oc2cc1O
REMARK SMILES IDX 3 1 13 2 12 3 11 4 5 5 4 6 6 7 7 8 8 9 9 10 10 11 2 12 1 13
REMARK SMILES IDX 14 14
REMARK H PARENT 14 15
REMARK Flexibility Score: inf
ROOT
ATOM      1  C   UNL     1      16.528 128.358  53.669  1.00  0.00     0.161 A 
ATOM      2  C   UNL     1      15.191 128.611  54.015  1.00  0.00     0.161 A 
ATOM      3  C   UNL     1      14.869 129.086  55.296  1.00  0.00     0.098 A 
ATOM      4  C   UNL     1      15.877 129.309  56.237  1.00  0.00     0.142 A 
ATOM      5  C   UNL     1      17.223 129.057  55.897  1.00  0.00     0.022 A 
ATOM      6  C   UNL     1      17.546 128.584  54.618  1.00  0.00     0.062 A 
ATOM      7  C   UNL     1      18.209 129.291  56.862  1.00  0.00     0.019 A 
ATOM      8  C   UNL     1      17.838 129.763  58.120  1.00  0.00     0.094 A 
ATOM      9  C   UNL     1      16.483 129.990  58.385  1.00  0.00     0.336 A 
ATOM     10  O   UNL     1      16.127 130.416  59.516  1.00  0.00    -0.246 OA
ATOM     11  O   UNL     1      15.565 129.760  57.450  1.00  0.00    -0.423 OA
ENDROOT
BRANCH   1  12
ATOM     12  O   UNL     1      16.803 127.884  52.376  1.00  0.00    -0.493 OA
ATOM     13  C   UNL     1      17.217 128.703  51.288  1.00  0.00     0.278 C 
ENDBRANCH   1  12
BRANCH   2  14
ATOM     14  O   UNL     1      14.183 128.389  53.078  1.00  0.00    -0.504 OA
ATOM     15  H   UNL     1      14.071 127.492  52.621  1.00  0.00     0.293 HD
ENDBRANCH   2  14
TORSDOF 2
ENDMDL
