MODEL 1
REMARK VINA RESULT:    -5.198      0.000      0.000
REMARK INTER + INTRA:          -6.539
REMARK INTER:                  -6.261
REMARK INTRA:                  -0.278
REMARK UNBOUND:                -0.278
REMARK SMILES O=c1c(O)c(-c2ccc(O)cc2O)oc2cc(O)cc(O)c12
REMARK SMILES IDX 5 1 3 2 2 3 1 4 22 5 20 6 19 7 17 8 16 9 15 10 14 11 6 12
REMARK SMILES IDX 8 13 7 14 9 15 11 16 12 17 10 18 13 20 4 22 21 24 18 26
REMARK H PARENT 10 19 13 21 4 23 21 25 18 27
REMARK Flexibility Score: inf
ROOT
ATOM      1  C   UNL     1      -2.550  -4.612  -5.563  1.00  0.00     0.184 A 
ATOM      2  C   UNL     1      -2.831  -4.932  -4.225  1.00  0.00     0.208 A 
ATOM      3  C   UNL     1      -2.727  -6.269  -3.811  1.00  0.00     0.238 A 
ATOM      4  O   UNL     1      -2.929  -6.543  -2.598  1.00  0.00    -0.285 OA
ATOM      5  C   UNL     1      -2.360  -7.269  -4.743  1.00  0.00     0.111 A 
ATOM      6  C   UNL     1      -2.263  -8.661  -4.443  1.00  0.00     0.134 A 
ATOM      7  C   UNL     1      -1.765  -9.543  -5.410  1.00  0.00     0.093 A 
ATOM      8  C   UNL     1      -1.422  -9.093  -6.688  1.00  0.00     0.123 A 
ATOM      9  C   UNL     1      -1.568  -7.746  -7.009  1.00  0.00     0.094 A 
ATOM     10  C   UNL     1      -2.029  -6.835  -6.054  1.00  0.00     0.146 A 
ATOM     11  O   UNL     1      -2.143  -5.558  -6.398  1.00  0.00    -0.451 OA
ENDROOT
BRANCH   1  12
ATOM     12  C   UNL     1      -2.655  -3.226  -6.068  1.00  0.00     0.063 A 
ATOM     13  C   UNL     1      -3.798  -1.613  -7.484  1.00  0.00     0.047 A 
ATOM     14  C   UNL     1      -3.667  -2.914  -6.990  1.00  0.00     0.020 A 
ATOM     15  C   UNL     1      -2.930  -0.606  -7.053  1.00  0.00     0.119 A 
ATOM     16  C   UNL     1      -1.932  -0.902  -6.115  1.00  0.00     0.093 A 
ATOM     17  C   UNL     1      -1.797  -2.205  -5.610  1.00  0.00     0.130 A 
BRANCH  15  18
ATOM     18  O   UNL     1      -3.071   0.684  -7.556  1.00  0.00    -0.508 OA
ATOM     19  H   UNL     1      -3.874   1.259  -7.326  1.00  0.00     0.293 HD
ENDBRANCH  15  18
BRANCH  17  20
ATOM     20  O   UNL     1      -0.832  -2.476  -4.641  1.00  0.00    -0.507 OA
ATOM     21  H   UNL     1      -1.023  -3.088  -3.856  1.00  0.00     0.293 HD
ENDBRANCH  17  20
ENDBRANCH   1  12
BRANCH   2  22
ATOM     22  O   UNL     1      -3.174  -3.923  -3.322  1.00  0.00    -0.502 OA
ATOM     23  H   UNL     1      -2.815  -2.980  -3.398  1.00  0.00     0.293 HD
ENDBRANCH   2  22
BRANCH   6  24
ATOM     24  O   UNL     1      -2.666  -9.228  -3.231  1.00  0.00    -0.507 OA
ATOM     25  H   UNL     1      -2.404  -8.883  -2.320  1.00  0.00     0.293 HD
ENDBRANCH   6  24
BRANCH   8  26
ATOM     26  O   UNL     1      -0.941  -9.980  -7.648  1.00  0.00    -0.508 OA
ATOM     27  H   UNL     1      -0.261  -9.693  -8.342  1.00  0.00     0.293 HD
ENDBRANCH   8  26
TORSDOF 6
ENDMDL
MODEL 2
REMARK VINA RESULT:    -4.725      2.935      8.108
REMARK INTER + INTRA:          -5.971
REMARK INTER:                  -5.552
REMARK INTRA:                  -0.419
REMARK UNBOUND:                -0.278
REMARK SMILES O=c1c(O)c(-c2ccc(O)cc2O)oc2cc(O)cc(O)c12
REMARK SMILES IDX 5 1 3 2 2 3 1 4 22 5 20 6 19 7 17 8 16 9 15 10 14 11 6 12
REMARK SMILES IDX 8 13 7 14 9 15 11 16 12 17 10 18 13 20 4 22 21 24 18 26
REMARK H PARENT 10 19 13 21 4 23 21 25 18 27
REMARK Flexibility Score: inf
ROOT
ATOM      1  C   UNL     1      -2.334  -0.573  -6.223  1.00  0.00     0.184 A 
ATOM      2  C   UNL     1      -3.205   0.301  -5.553  1.00  0.00     0.208 A 
ATOM      3  C   UNL     1      -2.902   1.672  -5.524  1.00  0.00     0.238 A 
ATOM      4  O   UNL     1      -3.713   2.457  -4.968  1.00  0.00    -0.285 OA
ATOM      5  C   UNL     1      -1.724   2.146  -6.149  1.00  0.00     0.111 A 
ATOM      6  C   UNL     1      -1.297   3.508  -6.147  1.00  0.00     0.134 A 
ATOM      7  C   UNL     1      -0.183   3.885  -6.908  1.00  0.00     0.093 A 
ATOM      8  C   UNL     1       0.557   2.937  -7.620  1.00  0.00     0.123 A 
ATOM      9  C   UNL     1       0.183   1.595  -7.581  1.00  0.00     0.094 A 
ATOM     10  C   UNL     1      -0.945   1.194  -6.859  1.00  0.00     0.146 A 
ATOM     11  O   UNL     1      -1.272  -0.092  -6.857  1.00  0.00    -0.451 OA
ENDROOT
BRANCH   1  12
ATOM     12  C   UNL     1      -2.585  -2.029  -6.279  1.00  0.00     0.063 A 
ATOM     13  C   UNL     1      -3.793  -3.892  -7.270  1.00  0.00     0.047 A 
ATOM     14  C   UNL     1      -3.535  -2.521  -7.188  1.00  0.00     0.020 A 
ATOM     15  C   UNL     1      -3.097  -4.788  -6.456  1.00  0.00     0.119 A 
ATOM     16  C   UNL     1      -2.129  -4.310  -5.562  1.00  0.00     0.093 A 
ATOM     17  C   UNL     1      -1.861  -2.935  -5.477  1.00  0.00     0.130 A 
BRANCH  15  18
ATOM     18  O   UNL     1      -3.367  -6.151  -6.546  1.00  0.00    -0.508 OA
ATOM     19  H   UNL     1      -3.742  -6.563  -7.393  1.00  0.00     0.293 HD
ENDBRANCH  15  18
BRANCH  17  20
ATOM     20  O   UNL     1      -0.862  -2.475  -4.619  1.00  0.00    -0.507 OA
ATOM     21  H   UNL     1      -0.698  -2.904  -3.716  1.00  0.00     0.293 HD
ENDBRANCH  17  20
ENDBRANCH   1  12
BRANCH   2  22
ATOM     22  O   UNL     1      -4.370  -0.192  -4.960  1.00  0.00    -0.502 OA
ATOM     23  H   UNL     1      -4.928  -0.922  -5.383  1.00  0.00     0.293 HD
ENDBRANCH   2  22
BRANCH   6  24
ATOM     24  O   UNL     1      -1.910   4.516  -5.398  1.00  0.00    -0.507 OA
ATOM     25  H   UNL     1      -1.917   5.494  -5.647  1.00  0.00     0.293 HD
ENDBRANCH   6  24
BRANCH   8  26
ATOM     26  O   UNL     1       1.672   3.318  -8.362  1.00  0.00    -0.508 OA
ATOM     27  H   UNL     1       1.799   4.273  -8.676  1.00  0.00     0.293 HD
ENDBRANCH   8  26
TORSDOF 6
ENDMDL
MODEL 3
REMARK VINA RESULT:    -4.460      4.049      8.953
REMARK INTER + INTRA:          -5.651
REMARK INTER:                  -5.324
REMARK INTRA:                  -0.327
REMARK UNBOUND:                -0.278
REMARK SMILES O=c1c(O)c(-c2ccc(O)cc2O)oc2cc(O)cc(O)c12
REMARK SMILES IDX 5 1 3 2 2 3 1 4 22 5 20 6 19 7 17 8 16 9 15 10 14 11 6 12
REMARK SMILES IDX 8 13 7 14 9 15 11 16 12 17 10 18 13 20 4 22 21 24 18 26
REMARK H PARENT 10 19 13 21 4 23 21 25 18 27
REMARK Flexibility Score: inf
ROOT
ATOM      1  C   UNL     1      -1.125   0.804  -6.551  1.00  0.00     0.184 A 
ATOM      2  C   UNL     1      -1.785   2.037  -6.426  1.00  0.00     0.208 A 
ATOM      3  C   UNL     1      -1.042   3.221  -6.555  1.00  0.00     0.238 A 
ATOM      4  O   UNL     1      -1.647   4.323  -6.495  1.00  0.00    -0.285 OA
ATOM      5  C   UNL     1       0.353   3.156  -6.790  1.00  0.00     0.111 A 
ATOM      6  C   UNL     1       1.211   4.291  -6.897  1.00  0.00     0.134 A 
ATOM      7  C   UNL     1       2.552   4.112  -7.260  1.00  0.00     0.093 A 
ATOM      8  C   UNL     1       3.081   2.833  -7.456  1.00  0.00     0.123 A 
ATOM      9  C   UNL     1       2.265   1.715  -7.296  1.00  0.00     0.094 A 
ATOM     10  C   UNL     1       0.914   1.864  -6.969  1.00  0.00     0.146 A 
ATOM     11  O   UNL     1       0.170   0.773  -6.837  1.00  0.00    -0.451 OA
ENDROOT
BRANCH   1  12
ATOM     12  C   UNL     1      -1.845  -0.480  -6.410  1.00  0.00     0.063 A 
ATOM     13  C   UNL     1      -3.576  -1.989  -7.208  1.00  0.00     0.047 A 
ATOM     14  C   UNL     1      -2.879  -0.782  -7.310  1.00  0.00     0.020 A 
ATOM     15  C   UNL     1      -3.240  -2.914  -6.216  1.00  0.00     0.119 A 
ATOM     16  C   UNL     1      -2.194  -2.632  -5.328  1.00  0.00     0.093 A 
ATOM     17  C   UNL     1      -1.486  -1.424  -5.426  1.00  0.00     0.130 A 
BRANCH  15  18
ATOM     18  O   UNL     1      -3.946  -4.111  -6.125  1.00  0.00    -0.508 OA
ATOM     19  H   UNL     1      -4.268  -4.470  -5.234  1.00  0.00     0.293 HD
ENDBRANCH  15  18
BRANCH  17  20
ATOM     20  O   UNL     1      -0.415  -1.176  -4.567  1.00  0.00    -0.507 OA
ATOM     21  H   UNL     1      -0.560  -0.873  -3.611  1.00  0.00     0.293 HD
ENDBRANCH  17  20
ENDBRANCH   1  12
BRANCH   2  22
ATOM     22  O   UNL     1      -3.165   2.073  -6.212  1.00  0.00    -0.502 OA
ATOM     23  H   UNL     1      -3.629   1.460  -5.553  1.00  0.00     0.293 HD
ENDBRANCH   2  22
BRANCH   6  24
ATOM     24  O   UNL     1       0.807   5.602  -6.632  1.00  0.00    -0.507 OA
ATOM     25  H   UNL     1      -0.089   5.861  -6.249  1.00  0.00     0.293 HD
ENDBRANCH   6  24
BRANCH   8  26
ATOM     26  O   UNL     1       4.419   2.663  -7.802  1.00  0.00    -0.508 OA
ATOM     27  H   UNL     1       5.046   3.453  -7.898  1.00  0.00     0.293 HD
ENDBRANCH   8  26
TORSDOF 6
ENDMDL
MODEL 4
REMARK VINA RESULT:    -4.436      3.656      9.312
REMARK INTER + INTRA:          -5.622
REMARK INTER:                  -5.314
REMARK INTRA:                  -0.308
REMARK UNBOUND:                -0.278
REMARK SMILES O=c1c(O)c(-c2ccc(O)cc2O)oc2cc(O)cc(O)c12
REMARK SMILES IDX 5 1 3 2 2 3 1 4 22 5 20 6 19 7 17 8 16 9 15 10 14 11 6 12
REMARK SMILES IDX 8 13 7 14 9 15 11 16 12 17 10 18 13 20 4 22 21 24 18 26
REMARK H PARENT 10 19 13 21 4 23 21 25 18 27
REMARK Flexibility Score: inf
ROOT
ATOM      1  C   UNL     1      -2.331   0.673  -5.972  1.00  0.00     0.184 A 
ATOM      2  C   UNL     1      -1.246   1.378  -6.517  1.00  0.00     0.208 A 
ATOM      3  C   UNL     1      -1.237   2.780  -6.433  1.00  0.00     0.238 A 
ATOM      4  O   UNL     1      -0.237   3.404  -6.875  1.00  0.00    -0.285 OA
ATOM      5  C   UNL     1      -2.319   3.457  -5.821  1.00  0.00     0.111 A 
ATOM      6  C   UNL     1      -2.434   4.876  -5.717  1.00  0.00     0.134 A 
ATOM      7  C   UNL     1      -3.484   5.432  -4.977  1.00  0.00     0.093 A 
ATOM      8  C   UNL     1      -4.461   4.621  -4.391  1.00  0.00     0.123 A 
ATOM      9  C   UNL     1      -4.391   3.238  -4.537  1.00  0.00     0.094 A 
ATOM     10  C   UNL     1      -3.334   2.652  -5.240  1.00  0.00     0.146 A 
ATOM     11  O   UNL     1      -3.299   1.329  -5.345  1.00  0.00    -0.451 OA
ENDROOT
BRANCH   1  12
ATOM     12  C   UNL     1      -2.411  -0.802  -6.040  1.00  0.00     0.063 A 
ATOM     13  C   UNL     1      -3.470  -2.784  -6.968  1.00  0.00     0.047 A 
ATOM     14  C   UNL     1      -3.371  -1.393  -6.876  1.00  0.00     0.020 A 
ATOM     15  C   UNL     1      -2.604  -3.600  -6.237  1.00  0.00     0.119 A 
ATOM     16  C   UNL     1      -1.626  -3.020  -5.418  1.00  0.00     0.093 A 
ATOM     17  C   UNL     1      -1.517  -1.624  -5.323  1.00  0.00     0.130 A 
BRANCH  15  18
ATOM     18  O   UNL     1      -2.717  -4.985  -6.336  1.00  0.00    -0.508 OA
ATOM     19  H   UNL     1      -2.403  -5.485  -7.160  1.00  0.00     0.293 HD
ENDBRANCH  15  18
BRANCH  17  20
ATOM     20  O   UNL     1      -0.509  -1.059  -4.542  1.00  0.00    -0.507 OA
ATOM     21  H   UNL     1      -0.662  -0.818  -3.570  1.00  0.00     0.293 HD
ENDBRANCH  17  20
ENDBRANCH   1  12
BRANCH   2  22
ATOM     22  O   UNL     1      -0.182   0.685  -7.099  1.00  0.00    -0.502 OA
ATOM     23  H   UNL     1      -0.188  -0.321  -7.214  1.00  0.00     0.293 HD
ENDBRANCH   2  22
BRANCH   6  24
ATOM     24  O   UNL     1      -1.565   5.776  -6.341  1.00  0.00    -0.507 OA
ATOM     25  H   UNL     1      -1.089   5.605  -7.213  1.00  0.00     0.293 HD
ENDBRANCH   6  24
BRANCH   8  26
ATOM     26  O   UNL     1      -5.511   5.184  -3.669  1.00  0.00    -0.508 OA
ATOM     27  H   UNL     1      -5.915   6.076  -3.929  1.00  0.00     0.293 HD
ENDBRANCH   8  26
TORSDOF 6
ENDMDL
MODEL 5
REMARK VINA RESULT:    -4.381      1.740      6.499
REMARK INTER + INTRA:          -5.556
REMARK INTER:                  -5.253
REMARK INTRA:                  -0.303
REMARK UNBOUND:                -0.278
REMARK SMILES O=c1c(O)c(-c2ccc(O)cc2O)oc2cc(O)cc(O)c12
REMARK SMILES IDX 5 1 3 2 2 3 1 4 22 5 20 6 19 7 17 8 16 9 15 10 14 11 6 12
REMARK SMILES IDX 8 13 7 14 9 15 11 16 12 17 10 18 13 20 4 22 21 24 18 26
REMARK H PARENT 10 19 13 21 4 23 21 25 18 27
REMARK Flexibility Score: inf
ROOT
ATOM      1  C   UNL     1      -2.851  -5.146  -5.600  1.00  0.00     0.184 A 
ATOM      2  C   UNL     1      -4.141  -4.963  -5.078  1.00  0.00     0.208 A 
ATOM      3  C   UNL     1      -4.585  -3.660  -4.803  1.00  0.00     0.238 A 
ATOM      4  O   UNL     1      -5.762  -3.498  -4.386  1.00  0.00    -0.285 OA
ATOM      5  C   UNL     1      -3.726  -2.559  -5.038  1.00  0.00     0.111 A 
ATOM      6  C   UNL     1      -4.055  -1.199  -4.758  1.00  0.00     0.134 A 
ATOM      7  C   UNL     1      -3.179  -0.180  -5.151  1.00  0.00     0.093 A 
ATOM      8  C   UNL     1      -1.954  -0.477  -5.756  1.00  0.00     0.123 A 
ATOM      9  C   UNL     1      -1.597  -1.805  -5.980  1.00  0.00     0.094 A 
ATOM     10  C   UNL     1      -2.467  -2.842  -5.631  1.00  0.00     0.146 A 
ATOM     11  O   UNL     1      -2.092  -4.092  -5.872  1.00  0.00    -0.451 OA
ENDROOT
BRANCH   1  12
ATOM     12  C   UNL     1      -2.317  -6.492  -5.897  1.00  0.00     0.063 A 
ATOM     13  C   UNL     1      -1.529  -8.098  -7.544  1.00  0.00     0.047 A 
ATOM     14  C   UNL     1      -2.039  -6.835  -7.229  1.00  0.00     0.020 A 
ATOM     15  C   UNL     1      -1.276  -9.026  -6.531  1.00  0.00     0.119 A 
ATOM     16  C   UNL     1      -1.526  -8.685  -5.195  1.00  0.00     0.093 A 
ATOM     17  C   UNL     1      -2.034  -7.418  -4.871  1.00  0.00     0.130 A 
BRANCH  15  18
ATOM     18  O   UNL     1      -0.770 -10.281  -6.860  1.00  0.00    -0.508 OA
ATOM     19  H   UNL     1       0.194 -10.405  -7.149  1.00  0.00     0.293 HD
ENDBRANCH  15  18
BRANCH  17  20
ATOM     20  O   UNL     1      -2.234  -7.072  -3.534  1.00  0.00    -0.507 OA
ATOM     21  H   UNL     1      -1.590  -6.466  -3.040  1.00  0.00     0.293 HD
ENDBRANCH  17  20
ENDBRANCH   1  12
BRANCH   2  22
ATOM     22  O   UNL     1      -4.975  -6.065  -4.873  1.00  0.00    -0.502 OA
ATOM     23  H   UNL     1      -5.072  -6.808  -5.554  1.00  0.00     0.293 HD
ENDBRANCH   2  22
BRANCH   6  24
ATOM     24  O   UNL     1      -5.209  -0.800  -4.077  1.00  0.00    -0.507 OA
ATOM     25  H   UNL     1      -5.711  -1.371  -3.414  1.00  0.00     0.293 HD
ENDBRANCH   6  24
BRANCH   8  26
ATOM     26  O   UNL     1      -1.081   0.542  -6.130  1.00  0.00    -0.508 OA
ATOM     27  H   UNL     1      -0.345   0.863  -5.512  1.00  0.00     0.293 HD
ENDBRANCH   8  26
TORSDOF 6
ENDMDL
MODEL 6
REMARK VINA RESULT:    -4.356      1.747      2.617
REMARK INTER + INTRA:          -5.526
REMARK INTER:                  -5.099
REMARK INTRA:                  -0.427
REMARK UNBOUND:                -0.278
REMARK SMILES O=c1c(O)c(-c2ccc(O)cc2O)oc2cc(O)cc(O)c12
REMARK SMILES IDX 5 1 3 2 2 3 1 4 22 5 20 6 19 7 17 8 16 9 15 10 14 11 6 12
REMARK SMILES IDX 8 13 7 14 9 15 11 16 12 17 10 18 13 20 4 22 21 24 18 26
REMARK H PARENT 10 19 13 21 4 23 21 25 18 27
REMARK Flexibility Score: inf
ROOT
ATOM      1  C   UNL     1      -2.841  -2.420  -5.609  1.00  0.00     0.184 A 
ATOM      2  C   UNL     1      -3.845  -2.407  -4.629  1.00  0.00     0.208 A 
ATOM      3  C   UNL     1      -4.250  -3.622  -4.055  1.00  0.00     0.238 A 
ATOM      4  O   UNL     1      -5.113  -3.599  -3.138  1.00  0.00    -0.285 OA
ATOM      5  C   UNL     1      -3.658  -4.835  -4.482  1.00  0.00     0.111 A 
ATOM      6  C   UNL     1      -4.019  -6.128  -3.998  1.00  0.00     0.134 A 
ATOM      7  C   UNL     1      -3.277  -7.247  -4.396  1.00  0.00     0.093 A 
ATOM      8  C   UNL     1      -2.226  -7.127  -5.310  1.00  0.00     0.123 A 
ATOM      9  C   UNL     1      -1.904  -5.877  -5.833  1.00  0.00     0.094 A 
ATOM     10  C   UNL     1      -2.603  -4.737  -5.428  1.00  0.00     0.146 A 
ATOM     11  O   UNL     1      -2.256  -3.564  -5.942  1.00  0.00    -0.451 OA
ENDROOT
BRANCH   1  12
ATOM     12  C   UNL     1      -2.379  -1.178  -6.265  1.00  0.00     0.063 A 
ATOM     13  C   UNL     1      -2.768   0.572  -7.908  1.00  0.00     0.047 A 
ATOM     14  C   UNL     1      -3.172  -0.605  -7.272  1.00  0.00     0.020 A 
ATOM     15  C   UNL     1      -1.575   1.197  -7.538  1.00  0.00     0.119 A 
ATOM     16  C   UNL     1      -0.787   0.646  -6.518  1.00  0.00     0.093 A 
ATOM     17  C   UNL     1      -1.189  -0.532  -5.871  1.00  0.00     0.130 A 
BRANCH  15  18
ATOM     18  O   UNL     1      -1.183   2.367  -8.183  1.00  0.00    -0.508 OA
ATOM     19  H   UNL     1      -0.313   2.833  -7.955  1.00  0.00     0.293 HD
ENDBRANCH  15  18
BRANCH  17  20
ATOM     20  O   UNL     1      -0.422  -1.044  -4.824  1.00  0.00    -0.507 OA
ATOM     21  H   UNL     1       0.461  -0.626  -4.558  1.00  0.00     0.293 HD
ENDBRANCH  17  20
ENDBRANCH   1  12
BRANCH   2  22
ATOM     22  O   UNL     1      -4.401  -1.194  -4.213  1.00  0.00    -0.502 OA
ATOM     23  H   UNL     1      -5.300  -1.138  -3.751  1.00  0.00     0.293 HD
ENDBRANCH   2  22
BRANCH   6  24
ATOM     24  O   UNL     1      -5.107  -6.370  -3.155  1.00  0.00    -0.507 OA
ATOM     25  H   UNL     1      -5.971  -5.849  -3.168  1.00  0.00     0.293 HD
ENDBRANCH   6  24
BRANCH   8  26
ATOM     26  O   UNL     1      -1.503  -8.248  -5.712  1.00  0.00    -0.508 OA
ATOM     27  H   UNL     1      -1.564  -8.607  -6.657  1.00  0.00     0.293 HD
ENDBRANCH   8  26
TORSDOF 6
ENDMDL
MODEL 7
REMARK VINA RESULT:    -4.333      9.027      9.658
REMARK INTER + INTRA:          -5.498
REMARK INTER:                  -5.102
REMARK INTRA:                  -0.396
REMARK UNBOUND:                -0.278
REMARK SMILES O=c1c(O)c(-c2ccc(O)cc2O)oc2cc(O)cc(O)c12
REMARK SMILES IDX 5 1 3 2 2 3 1 4 22 5 20 6 19 7 17 8 16 9 15 10 14 11 6 12
REMARK SMILES IDX 8 13 7 14 9 15 11 16 12 17 10 18 13 20 4 22 21 24 18 26
REMARK H PARENT 10 19 13 21 4 23 21 25 18 27
REMARK Flexibility Score: inf
ROOT
ATOM      1  C   UNL     1       5.380  -3.858   0.092  1.00  0.00     0.184 A 
ATOM      2  C   UNL     1       5.335  -4.332   1.412  1.00  0.00     0.208 A 
ATOM      3  C   UNL     1       5.342  -5.718   1.637  1.00  0.00     0.238 A 
ATOM      4  O   UNL     1       5.356  -6.137   2.824  1.00  0.00    -0.285 OA
ATOM      5  C   UNL     1       5.378  -6.610   0.538  1.00  0.00     0.111 A 
ATOM      6  C   UNL     1       5.348  -8.033   0.647  1.00  0.00     0.134 A 
ATOM      7  C   UNL     1       5.519  -8.818  -0.500  1.00  0.00     0.093 A 
ATOM      8  C   UNL     1       5.654  -8.231  -1.761  1.00  0.00     0.123 A 
ATOM      9  C   UNL     1       5.626  -6.843  -1.885  1.00  0.00     0.094 A 
ATOM     10  C   UNL     1       5.492  -6.033  -0.754  1.00  0.00     0.146 A 
ATOM     11  O   UNL     1       5.481  -4.716  -0.916  1.00  0.00    -0.451 OA
ENDROOT
BRANCH   1  12
ATOM     12  C   UNL     1       5.359  -2.412  -0.216  1.00  0.00     0.063 A 
ATOM     13  C   UNL     1       4.148  -0.304  -0.206  1.00  0.00     0.047 A 
ATOM     14  C   UNL     1       4.200  -1.674   0.067  1.00  0.00     0.020 A 
ATOM     15  C   UNL     1       5.257   0.347  -0.751  1.00  0.00     0.119 A 
ATOM     16  C   UNL     1       6.429  -0.377  -1.015  1.00  0.00     0.093 A 
ATOM     17  C   UNL     1       6.490  -1.751  -0.739  1.00  0.00     0.130 A 
BRANCH  15  18
ATOM     18  O   UNL     1       5.190   1.711  -1.021  1.00  0.00    -0.508 OA
ATOM     19  H   UNL     1       5.410   2.403  -0.314  1.00  0.00     0.293 HD
ENDBRANCH  15  18
BRANCH  17  20
ATOM     20  O   UNL     1       7.676  -2.451  -0.961  1.00  0.00    -0.507 OA
ATOM     21  H   UNL     1       8.580  -2.046  -0.746  1.00  0.00     0.293 HD
ENDBRANCH  17  20
ENDBRANCH   1  12
BRANCH   2  22
ATOM     22  O   UNL     1       5.318  -3.430   2.479  1.00  0.00    -0.502 OA
ATOM     23  H   UNL     1       6.156  -2.975   2.819  1.00  0.00     0.293 HD
ENDBRANCH   2  22
BRANCH   6  24
ATOM     24  O   UNL     1       5.127  -8.719   1.844  1.00  0.00    -0.507 OA
ATOM     25  H   UNL     1       5.264  -8.329   2.764  1.00  0.00     0.293 HD
ENDBRANCH   6  24
BRANCH   8  26
ATOM     26  O   UNL     1       5.809  -9.019  -2.899  1.00  0.00    -0.508 OA
ATOM     27  H   UNL     1       6.708  -9.121  -3.355  1.00  0.00     0.293 HD
ENDBRANCH   8  26
TORSDOF 6
ENDMDL
MODEL 8
REMARK VINA RESULT:    -4.314      1.739      3.651
REMARK INTER + INTRA:          -5.475
REMARK INTER:                  -5.149
REMARK INTRA:                  -0.326
REMARK UNBOUND:                -0.278
REMARK SMILES O=c1c(O)c(-c2ccc(O)cc2O)oc2cc(O)cc(O)c12
REMARK SMILES IDX 5 1 3 2 2 3 1 4 22 5 20 6 19 7 17 8 16 9 15 10 14 11 6 12
REMARK SMILES IDX 8 13 7 14 9 15 11 16 12 17 10 18 13 20 4 22 21 24 18 26
REMARK H PARENT 10 19 13 21 4 23 21 25 18 27
REMARK Flexibility Score: inf
ROOT
ATOM      1  C   UNL     1      -2.764  -4.148  -4.782  1.00  0.00     0.184 A 
ATOM      2  C   UNL     1      -2.697  -5.436  -5.336  1.00  0.00     0.208 A 
ATOM      3  C   UNL     1      -2.695  -6.546  -4.476  1.00  0.00     0.238 A 
ATOM      4  O   UNL     1      -2.689  -7.700  -4.979  1.00  0.00    -0.285 OA
ATOM      5  C   UNL     1      -2.743  -6.352  -3.074  1.00  0.00     0.111 A 
ATOM      6  C   UNL     1      -2.706  -7.402  -2.108  1.00  0.00     0.134 A 
ATOM      7  C   UNL     1      -2.891  -7.101  -0.753  1.00  0.00     0.093 A 
ATOM      8  C   UNL     1      -3.047  -5.780  -0.323  1.00  0.00     0.123 A 
ATOM      9  C   UNL     1      -3.026  -4.743  -1.252  1.00  0.00     0.094 A 
ATOM     10  C   UNL     1      -2.879  -5.015  -2.616  1.00  0.00     0.146 A 
ATOM     11  O   UNL     1      -2.875  -3.998  -3.468  1.00  0.00    -0.451 OA
ENDROOT
BRANCH   1  12
ATOM     12  C   UNL     1      -2.753  -2.937  -5.629  1.00  0.00     0.063 A 
ATOM     13  C   UNL     1      -3.815  -1.608  -7.366  1.00  0.00     0.047 A 
ATOM     14  C   UNL     1      -3.792  -2.744  -6.553  1.00  0.00     0.020 A 
ATOM     15  C   UNL     1      -2.809  -0.644  -7.256  1.00  0.00     0.119 A 
ATOM     16  C   UNL     1      -1.781  -0.815  -6.320  1.00  0.00     0.093 A 
ATOM     17  C   UNL     1      -1.753  -1.951  -5.497  1.00  0.00     0.130 A 
BRANCH  15  18
ATOM     18  O   UNL     1      -2.844   0.482  -8.075  1.00  0.00    -0.508 OA
ATOM     19  H   UNL     1      -2.013   0.820  -8.547  1.00  0.00     0.293 HD
ENDBRANCH  15  18
BRANCH  17  20
ATOM     20  O   UNL     1      -0.751  -2.087  -4.536  1.00  0.00    -0.507 OA
ATOM     21  H   UNL     1       0.196  -1.772  -4.707  1.00  0.00     0.293 HD
ENDBRANCH  17  20
ENDBRANCH   1  12
BRANCH   2  22
ATOM     22  O   UNL     1      -2.668  -5.601  -6.723  1.00  0.00    -0.502 OA
ATOM     23  H   UNL     1      -1.804  -5.709  -7.240  1.00  0.00     0.293 HD
ENDBRANCH   2  22
BRANCH   6  24
ATOM     24  O   UNL     1      -2.465  -8.742  -2.422  1.00  0.00    -0.507 OA
ATOM     25  H   UNL     1      -2.165  -9.443  -1.761  1.00  0.00     0.293 HD
ENDBRANCH   6  24
BRANCH   8  26
ATOM     26  O   UNL     1      -3.215  -5.489   1.029  1.00  0.00    -0.508 OA
ATOM     27  H   UNL     1      -4.135  -5.359   1.432  1.00  0.00     0.293 HD
ENDBRANCH   8  26
TORSDOF 6
ENDMDL
MODEL 9
REMARK VINA RESULT:    -4.254      3.322      5.291
REMARK INTER + INTRA:          -5.403
REMARK INTER:                  -4.984
REMARK INTRA:                  -0.419
REMARK UNBOUND:                -0.278
REMARK SMILES O=c1c(O)c(-c2ccc(O)cc2O)oc2cc(O)cc(O)c12
REMARK SMILES IDX 5 1 3 2 2 3 1 4 22 5 20 6 19 7 17 8 16 9 15 10 14 11 6 12
REMARK SMILES IDX 8 13 7 14 9 15 11 16 12 17 10 18 13 20 4 22 21 24 18 26
REMARK H PARENT 10 19 13 21 4 23 21 25 18 27
REMARK Flexibility Score: inf
ROOT
ATOM      1  C   UNL     1      -2.000  -0.368  -6.484  1.00  0.00     0.184 A 
ATOM      2  C   UNL     1      -1.524  -1.340  -5.590  1.00  0.00     0.208 A 
ATOM      3  C   UNL     1      -2.093  -2.624  -5.617  1.00  0.00     0.238 A 
ATOM      4  O   UNL     1      -1.626  -3.507  -4.851  1.00  0.00    -0.285 OA
ATOM      5  C   UNL     1      -3.140  -2.912  -6.525  1.00  0.00     0.111 A 
ATOM      6  C   UNL     1      -3.817  -4.165  -6.611  1.00  0.00     0.134 A 
ATOM      7  C   UNL     1      -4.750  -4.378  -7.634  1.00  0.00     0.093 A 
ATOM      8  C   UNL     1      -5.076  -3.360  -8.535  1.00  0.00     0.123 A 
ATOM      9  C   UNL     1      -4.464  -2.114  -8.422  1.00  0.00     0.094 A 
ATOM     10  C   UNL     1      -3.503  -1.883  -7.434  1.00  0.00     0.146 A 
ATOM     11  O   UNL     1      -2.936  -0.684  -7.369  1.00  0.00    -0.451 OA
ENDROOT
BRANCH   1  12
ATOM     12  C   UNL     1      -1.456   1.007  -6.497  1.00  0.00     0.063 A 
ATOM     13  C   UNL     1       0.318   2.532  -7.158  1.00  0.00     0.047 A 
ATOM     14  C   UNL     1      -0.222   1.244  -7.123  1.00  0.00     0.020 A 
ATOM     15  C   UNL     1      -0.373   3.601  -6.582  1.00  0.00     0.119 A 
ATOM     16  C   UNL     1      -1.617   3.379  -5.976  1.00  0.00     0.093 A 
ATOM     17  C   UNL     1      -2.169   2.089  -5.941  1.00  0.00     0.130 A 
BRANCH  15  18
ATOM     18  O   UNL     1       0.179   4.878  -6.622  1.00  0.00    -0.508 OA
ATOM     19  H   UNL     1      -0.375   5.688  -6.877  1.00  0.00     0.293 HD
ENDBRANCH  15  18
BRANCH  17  20
ATOM     20  O   UNL     1      -3.429   1.889  -5.379  1.00  0.00    -0.507 OA
ATOM     21  H   UNL     1      -3.685   2.298  -4.488  1.00  0.00     0.293 HD
ENDBRANCH  17  20
ENDBRANCH   1  12
BRANCH   2  22
ATOM     22  O   UNL     1      -0.477  -1.035  -4.717  1.00  0.00    -0.502 OA
ATOM     23  H   UNL     1      -0.280  -0.090  -4.414  1.00  0.00     0.293 HD
ENDBRANCH   2  22
BRANCH   6  24
ATOM     24  O   UNL     1      -3.633  -5.215  -5.707  1.00  0.00    -0.507 OA
ATOM     25  H   UNL     1      -3.240  -5.116  -4.783  1.00  0.00     0.293 HD
ENDBRANCH   6  24
BRANCH   8  26
ATOM     26  O   UNL     1      -6.016  -3.576  -9.540  1.00  0.00    -0.508 OA
ATOM     27  H   UNL     1      -6.318  -4.510  -9.791  1.00  0.00     0.293 HD
ENDBRANCH   8  26
TORSDOF 6
ENDMDL
