MODEL 1
REMARK VINA RESULT:    -2.173      0.000      0.000
REMARK INTER + INTRA:          -2.497
REMARK INTER:                  -2.300
REMARK INTRA:                  -0.197
REMARK UNBOUND:                -0.197
REMARK SMILES CC1=CC[C@H](C(C)C)C=C1
REMARK SMILES IDX 1 1 2 2 3 3 4 4 5 5 9 6 10 7 6 8 7 9 8 10
REMARK H PARENT
REMARK Flexibility Score: inf
ROOT
ATOM      1  C   UNL     1     168.883 157.274 141.561  1.00  0.00     0.044 C 
ATOM      2  C   UNL     1     167.604 157.217 140.781  1.00  0.00    -0.055 C 
ATOM      3  C   UNL     1     167.410 158.038 139.739  1.00  0.00    -0.023 C 
ATOM      4  C   UNL     1     166.102 158.030 138.989  1.00  0.00     0.035 C 
ATOM      5  C   UNL     1     165.517 156.598 138.899  1.00  0.00     0.018 C 
ATOM      6  C   UNL     1     165.566 155.954 140.276  1.00  0.00    -0.023 C 
ATOM      7  C   UNL     1     166.577 156.207 141.116  1.00  0.00    -0.001 C 
ENDROOT
BRANCH   5   8
ATOM      8  C   UNL     1     164.072 156.566 138.307  1.00  0.00    -0.010 C 
ATOM      9  C   UNL     1     163.722 157.899 137.618  1.00  0.00     0.008 C 
ATOM     10  C   UNL     1     163.003 156.273 139.375  1.00  0.00     0.008 C 
ENDBRANCH   5   8
TORSDOF 1
ENDMDL
MODEL 2
REMARK VINA RESULT:    -2.170     17.203     18.473
REMARK INTER + INTRA:          -2.493
REMARK INTER:                  -2.297
REMARK INTRA:                  -0.196
REMARK UNBOUND:                -0.197
REMARK SMILES CC1=CC[C@H](C(C)C)C=C1
REMARK SMILES IDX 1 1 2 2 3 3 4 4 5 5 9 6 10 7 6 8 7 9 8 10
REMARK H PARENT
REMARK Flexibility Score: inf
ROOT
ATOM      1  C   UNL     1     163.243 174.922 141.708  1.00  0.00     0.044 C 
ATOM      2  C   UNL     1     164.503 174.932 140.895  1.00  0.00    -0.055 C 
ATOM      3  C   UNL     1     164.645 174.099 139.854  1.00  0.00    -0.023 C 
ATOM      4  C   UNL     1     165.933 174.060 139.073  1.00  0.00     0.035 C 
ATOM      5  C   UNL     1     166.562 175.472 138.960  1.00  0.00     0.018 C 
ATOM      6  C   UNL     1     166.568 176.125 140.333  1.00  0.00    -0.023 C 
ATOM      7  C   UNL     1     165.570 175.910 141.199  1.00  0.00    -0.001 C 
ENDROOT
BRANCH   5   8
ATOM      8  C   UNL     1     167.992 175.454 138.332  1.00  0.00    -0.010 C 
ATOM      9  C   UNL     1     168.254 174.135 137.579  1.00  0.00     0.008 C 
ATOM     10  C   UNL     1     169.101 175.644 139.382  1.00  0.00     0.008 C 
ENDBRANCH   5   8
TORSDOF 1
ENDMDL
MODEL 3
REMARK VINA RESULT:    -2.167      1.738      4.617
REMARK INTER + INTRA:          -2.491
REMARK INTER:                  -2.292
REMARK INTRA:                  -0.198
REMARK UNBOUND:                -0.197
REMARK SMILES CC1=CC[C@H](C(C)C)C=C1
REMARK SMILES IDX 1 1 2 2 3 3 4 4 5 5 9 6 10 7 6 8 7 9 8 10
REMARK H PARENT
REMARK Flexibility Score: inf
ROOT
ATOM      1  C   UNL     1     161.547 159.821 137.822  1.00  0.00     0.044 C 
ATOM      2  C   UNL     1     162.565 158.923 138.459  1.00  0.00    -0.055 C 
ATOM      3  C   UNL     1     162.645 158.832 139.794  1.00  0.00    -0.023 C 
ATOM      4  C   UNL     1     163.707 157.980 140.442  1.00  0.00     0.035 C 
ATOM      5  C   UNL     1     163.982 156.701 139.612  1.00  0.00     0.018 C 
ATOM      6  C   UNL     1     164.153 157.083 138.150  1.00  0.00    -0.023 C 
ATOM      7  C   UNL     1     163.440 158.082 137.615  1.00  0.00    -0.001 C 
ENDROOT
BRANCH   5   8
ATOM      8  C   UNL     1     165.208 155.886 140.134  1.00  0.00    -0.010 C 
ATOM      9  C   UNL     1     165.717 156.445 141.477  1.00  0.00     0.008 C 
ATOM     10  C   UNL     1     166.379 155.875 139.135  1.00  0.00     0.008 C 
ENDBRANCH   5   8
TORSDOF 1
ENDMDL
MODEL 4
REMARK VINA RESULT:    -2.154     16.438     17.893
REMARK INTER + INTRA:          -2.477
REMARK INTER:                  -2.322
REMARK INTRA:                  -0.155
REMARK UNBOUND:                -0.197
REMARK SMILES CC1=CC[C@H](C(C)C)C=C1
REMARK SMILES IDX 1 1 2 2 3 3 4 4 5 5 9 6 10 7 6 8 7 9 8 10
REMARK H PARENT
REMARK Flexibility Score: inf
ROOT
ATOM      1  C   UNL     1     165.101 176.095 139.297  1.00  0.00     0.044 C 
ATOM      2  C   UNL     1     166.460 175.476 139.163  1.00  0.00    -0.055 C 
ATOM      3  C   UNL     1     167.544 176.120 139.618  1.00  0.00    -0.023 C 
ATOM      4  C   UNL     1     168.920 175.533 139.430  1.00  0.00     0.035 C 
ATOM      5  C   UNL     1     168.891 173.988 139.553  1.00  0.00     0.018 C 
ATOM      6  C   UNL     1     167.750 173.443 138.708  1.00  0.00    -0.023 C 
ATOM      7  C   UNL     1     166.602 174.122 138.587  1.00  0.00    -0.001 C 
ENDROOT
BRANCH   5   8
ATOM      8  C   UNL     1     170.250 173.320 139.171  1.00  0.00    -0.010 C 
ATOM      9  C   UNL     1     170.157 172.605 137.809  1.00  0.00     0.008 C 
ATOM     10  C   UNL     1     170.725 172.303 140.224  1.00  0.00     0.008 C 
ENDBRANCH   5   8
TORSDOF 1
ENDMDL
MODEL 5
REMARK VINA RESULT:    -2.057     16.681     17.912
REMARK INTER + INTRA:          -2.374
REMARK INTER:                  -2.184
REMARK INTRA:                  -0.190
REMARK UNBOUND:                -0.197
REMARK SMILES CC1=CC[C@H](C(C)C)C=C1
REMARK SMILES IDX 1 1 2 2 3 3 4 4 5 5 9 6 10 7 6 8 7 9 8 10
REMARK H PARENT
REMARK Flexibility Score: inf
ROOT
ATOM      1  C   UNL     1     170.043 172.527 137.777  1.00  0.00     0.044 C 
ATOM      2  C   UNL     1     168.993 173.337 138.477  1.00  0.00    -0.055 C 
ATOM      3  C   UNL     1     168.763 173.160 139.785  1.00  0.00    -0.023 C 
ATOM      4  C   UNL     1     167.667 173.925 140.482  1.00  0.00     0.035 C 
ATOM      5  C   UNL     1     167.538 175.361 139.913  1.00  0.00     0.018 C 
ATOM      6  C   UNL     1     167.521 175.294 138.393  1.00  0.00    -0.023 C 
ATOM      7  C   UNL     1     168.253 174.384 137.740  1.00  0.00    -0.001 C 
ENDROOT
BRANCH   5   8
ATOM      8  C   UNL     1     166.291 176.125 140.462  1.00  0.00    -0.010 C 
ATOM      9  C   UNL     1     165.975 175.707 141.911  1.00  0.00     0.008 C 
ATOM     10  C   UNL     1     165.034 175.898 139.604  1.00  0.00     0.008 C 
ENDBRANCH   5   8
TORSDOF 1
ENDMDL
MODEL 6
REMARK VINA RESULT:    -2.037      2.186      5.156
REMARK INTER + INTRA:          -2.353
REMARK INTER:                  -2.159
REMARK INTRA:                  -0.194
REMARK UNBOUND:                -0.197
REMARK SMILES CC1=CC[C@H](C(C)C)C=C1
REMARK SMILES IDX 1 1 2 2 3 3 4 4 5 5 9 6 10 7 6 8 7 9 8 10
REMARK H PARENT
REMARK Flexibility Score: inf
ROOT
ATOM      1  C   UNL     1     160.178 160.333 137.709  1.00  0.00     0.044 C 
ATOM      2  C   UNL     1     161.361 159.446 137.958  1.00  0.00    -0.055 C 
ATOM      3  C   UNL     1     162.341 159.355 137.048  1.00  0.00    -0.023 C 
ATOM      4  C   UNL     1     163.503 158.418 137.263  1.00  0.00     0.035 C 
ATOM      5  C   UNL     1     163.897 158.350 138.760  1.00  0.00     0.018 C 
ATOM      6  C   UNL     1     162.642 158.151 139.596  1.00  0.00    -0.023 C 
ATOM      7  C   UNL     1     161.484 158.720 139.239  1.00  0.00    -0.001 C 
ENDROOT
BRANCH   5   8
ATOM      8  C   UNL     1     164.961 157.247 139.061  1.00  0.00    -0.010 C 
ATOM      9  C   UNL     1     164.553 155.895 138.443  1.00  0.00     0.008 C 
ATOM     10  C   UNL     1     165.192 157.044 140.569  1.00  0.00     0.008 C 
ENDBRANCH   5   8
TORSDOF 1
ENDMDL
MODEL 7
REMARK VINA RESULT:    -1.997      1.232      4.376
REMARK INTER + INTRA:          -2.310
REMARK INTER:                  -2.154
REMARK INTRA:                  -0.156
REMARK UNBOUND:                -0.197
REMARK SMILES CC1=CC[C@H](C(C)C)C=C1
REMARK SMILES IDX 1 1 2 2 3 3 4 4 5 5 9 6 10 7 6 8 7 9 8 10
REMARK H PARENT
REMARK Flexibility Score: inf
ROOT
ATOM      1  C   UNL     1     162.745 159.004 137.551  1.00  0.00     0.044 C 
ATOM      2  C   UNL     1     163.747 158.144 138.261  1.00  0.00    -0.055 C 
ATOM      3  C   UNL     1     163.816 156.830 138.002  1.00  0.00    -0.023 C 
ATOM      4  C   UNL     1     164.778 155.949 138.757  1.00  0.00     0.035 C 
ATOM      5  C   UNL     1     166.100 156.696 139.062  1.00  0.00     0.018 C 
ATOM      6  C   UNL     1     165.776 158.068 139.632  1.00  0.00    -0.023 C 
ATOM      7  C   UNL     1     164.710 158.754 139.203  1.00  0.00    -0.001 C 
ENDROOT
BRANCH   5   8
ATOM      8  C   UNL     1     167.048 155.896 140.012  1.00  0.00    -0.010 C 
ATOM      9  C   UNL     1     167.030 156.478 141.439  1.00  0.00     0.008 C 
ATOM     10  C   UNL     1     168.504 155.875 139.513  1.00  0.00     0.008 C 
ENDBRANCH   5   8
TORSDOF 1
ENDMDL
MODEL 8
REMARK VINA RESULT:    -1.913     18.834     20.195
REMARK INTER + INTRA:          -2.221
REMARK INTER:                  -2.023
REMARK INTRA:                  -0.198
REMARK UNBOUND:                -0.197
REMARK SMILES CC1=CC[C@H](C(C)C)C=C1
REMARK SMILES IDX 1 1 2 2 3 3 4 4 5 5 9 6 10 7 6 8 7 9 8 10
REMARK H PARENT
REMARK Flexibility Score: inf
ROOT
ATOM      1  C   UNL     1     174.537 174.659 143.326  1.00  0.00     0.044 C 
ATOM      2  C   UNL     1     174.620 174.715 141.830  1.00  0.00    -0.055 C 
ATOM      3  C   UNL     1     173.937 173.837 141.082  1.00  0.00    -0.023 C 
ATOM      4  C   UNL     1     174.066 173.847 139.580  1.00  0.00     0.035 C 
ATOM      5  C   UNL     1     174.219 175.291 139.041  1.00  0.00     0.018 C 
ATOM      6  C   UNL     1     175.271 176.020 139.862  1.00  0.00    -0.023 C 
ATOM      7  C   UNL     1     175.403 175.783 141.173  1.00  0.00    -0.001 C 
ENDROOT
BRANCH   5   8
ATOM      8  C   UNL     1     174.552 175.341 137.516  1.00  0.00    -0.010 C 
ATOM      9  C   UNL     1     174.443 173.944 136.875  1.00  0.00     0.008 C 
ATOM     10  C   UNL     1     175.960 175.897 137.237  1.00  0.00     0.008 C 
ENDBRANCH   5   8
TORSDOF 1
ENDMDL
