MODEL 1
REMARK VINA RESULT:    -5.345      0.000      0.000
REMARK INTER + INTRA:         -13.222
REMARK INTER:                 -11.595
REMARK INTRA:                  -1.627
REMARK UNBOUND:                -1.627
REMARK SMILES CCCCCCCCCCCCCCCCCCCCCC(=O)[O-]
REMARK SMILES IDX 12 1 11 2 10 3 9 4 8 5 7 6 6 7 5 8 4 9 3 10 2 11 1 12 13 13
REMARK SMILES IDX 14 14 15 15 16 16 17 17 18 18 19 19 20 20 21 21 22 22 23 23
REMARK SMILES IDX 24 24
REMARK H PARENT
REMARK Flexibility Score: inf
ROOT
ATOM      1  C   UNL     1     -16.341 -12.786  13.706  1.00  0.00     0.000 C 
ENDROOT
BRANCH   1   2
ATOM      2  C   UNL     1     -16.871 -13.987  14.509  1.00  0.00     0.000 C 
BRANCH   2   3
ATOM      3  C   UNL     1     -16.214 -14.108  15.893  1.00  0.00     0.000 C 
BRANCH   3   4
ATOM      4  C   UNL     1     -15.649 -12.769  16.401  1.00  0.00    -0.000 C 
BRANCH   4   5
ATOM      5  C   UNL     1     -14.633 -12.947  17.540  1.00  0.00    -0.000 C 
BRANCH   5   6
ATOM      6  C   UNL     1     -15.117 -12.342  18.869  1.00  0.00    -0.000 C 
BRANCH   6   7
ATOM      7  C   UNL     1     -16.607 -12.621  19.125  1.00  0.00    -0.000 C 
BRANCH   7   8
ATOM      8  C   UNL     1     -17.035 -12.244  20.554  1.00  0.00    -0.000 C 
BRANCH   8   9
ATOM      9  C   UNL     1     -17.387 -10.751  20.701  1.00  0.00    -0.000 C 
BRANCH   9  10
ATOM     10  C   UNL     1     -18.541 -10.448  21.672  1.00  0.00    -0.000 C 
BRANCH  10  11
ATOM     11  C   UNL     1     -19.923 -10.740  21.069  1.00  0.00    -0.003 C 
ATOM     12  C   UNL     1     -20.929 -11.104  22.157  1.00  0.00     0.004 C 
ENDBRANCH  10  11
ENDBRANCH   9  10
ENDBRANCH   8   9
ENDBRANCH   7   8
ENDBRANCH   6   7
ENDBRANCH   5   6
ENDBRANCH   4   5
ENDBRANCH   3   4
ENDBRANCH   2   3
ENDBRANCH   1   2
BRANCH   1  13
ATOM     13  C   UNL     1     -15.039 -13.113  12.956  1.00  0.00     0.000 C 
BRANCH  13  14
ATOM     14  C   UNL     1     -14.112 -11.894  12.818  1.00  0.00     0.000 C 
BRANCH  14  15
ATOM     15  C   UNL     1     -12.877 -11.979  13.734  1.00  0.00     0.000 C 
BRANCH  15  16
ATOM     16  C   UNL     1     -12.405 -13.412  14.053  1.00  0.00     0.000 C 
BRANCH  16  17
ATOM     17  C   UNL     1     -11.667 -13.576  15.396  1.00  0.00     0.000 C 
BRANCH  17  18
ATOM     18  C   UNL     1     -10.131 -13.520  15.299  1.00  0.00     0.000 C 
BRANCH  18  19
ATOM     19  C   UNL     1      -9.561 -12.161  15.736  1.00  0.00     0.000 C 
BRANCH  19  20
ATOM     20  C   UNL     1      -8.046 -12.218  15.994  1.00  0.00     0.006 C 
BRANCH  20  21
ATOM     21  C   UNL     1      -7.282 -11.118  15.246  1.00  0.00     0.053 C 
BRANCH  21  22
ATOM     22  C   UNL     1      -6.606 -11.684  14.038  1.00  0.00     0.041 C 
ATOM     23  O   UNL     1      -7.230 -12.457  13.265  1.00  0.00    -0.550 OA
ATOM     24  O   UNL     1      -5.303 -11.315  13.733  1.00  0.00    -0.550 OA
ENDBRANCH  21  22
ENDBRANCH  20  21
ENDBRANCH  19  20
ENDBRANCH  18  19
ENDBRANCH  17  18
ENDBRANCH  16  17
ENDBRANCH  15  16
ENDBRANCH  14  15
ENDBRANCH  13  14
ENDBRANCH   1  13
TORSDOF 20
ENDMDL
MODEL 2
REMARK VINA RESULT:    -5.083      1.449      3.022
REMARK INTER + INTRA:         -12.654
REMARK INTER:                 -10.730
REMARK INTRA:                  -1.924
REMARK UNBOUND:                -1.627
REMARK SMILES CCCCCCCCCCCCCCCCCCCCCC(=O)[O-]
REMARK SMILES IDX 12 1 11 2 10 3 9 4 8 5 7 6 6 7 5 8 4 9 3 10 2 11 1 12 13 13
REMARK SMILES IDX 14 14 15 15 16 16 17 17 18 18 19 19 20 20 21 21 22 22 23 23
REMARK SMILES IDX 24 24
REMARK H PARENT
REMARK Flexibility Score: inf
ROOT
ATOM      1  C   UNL     1     -14.819 -12.778  17.554  1.00  0.00     0.000 C 
ENDROOT
BRANCH   1   2
ATOM      2  C   UNL     1     -15.357 -12.098  18.826  1.00  0.00     0.000 C 
BRANCH   2   3
ATOM      3  C   UNL     1     -16.752 -12.605  19.222  1.00  0.00     0.000 C 
BRANCH   3   4
ATOM      4  C   UNL     1     -17.290 -11.925  20.495  1.00  0.00    -0.000 C 
BRANCH   4   5
ATOM      5  C   UNL     1     -16.946 -10.429  20.558  1.00  0.00    -0.000 C 
BRANCH   5   6
ATOM      6  C   UNL     1     -16.447  -9.992  21.947  1.00  0.00    -0.000 C 
BRANCH   6   7
ATOM      7  C   UNL     1     -16.386 -11.166  22.938  1.00  0.00    -0.000 C 
BRANCH   7   8
ATOM      8  C   UNL     1     -17.258 -10.927  24.182  1.00  0.00    -0.000 C 
BRANCH   8   9
ATOM      9  C   UNL     1     -18.512 -10.083  23.884  1.00  0.00    -0.000 C 
BRANCH   9  10
ATOM     10  C   UNL     1     -19.658 -10.843  23.195  1.00  0.00    -0.000 C 
BRANCH  10  11
ATOM     11  C   UNL     1     -20.598  -9.921  22.405  1.00  0.00    -0.003 C 
ATOM     12  C   UNL     1     -20.599 -10.280  20.922  1.00  0.00     0.004 C 
ENDBRANCH  10  11
ENDBRANCH   9  10
ENDBRANCH   8   9
ENDBRANCH   7   8
ENDBRANCH   6   7
ENDBRANCH   5   6
ENDBRANCH   4   5
ENDBRANCH   3   4
ENDBRANCH   2   3
ENDBRANCH   1   2
BRANCH   1  13
ATOM     13  C   UNL     1     -15.946 -13.219  16.605  1.00  0.00     0.000 C 
BRANCH  13  14
ATOM     14  C   UNL     1     -15.436 -13.543  15.191  1.00  0.00     0.000 C 
BRANCH  14  15
ATOM     15  C   UNL     1     -14.336 -12.575  14.719  1.00  0.00     0.000 C 
BRANCH  15  16
ATOM     16  C   UNL     1     -13.091 -13.253  14.114  1.00  0.00     0.000 C 
BRANCH  16  17
ATOM     17  C   UNL     1     -12.277 -14.124  15.091  1.00  0.00     0.000 C 
BRANCH  17  18
ATOM     18  C   UNL     1     -10.749 -13.994  14.950  1.00  0.00     0.000 C 
BRANCH  18  19
ATOM     19  C   UNL     1     -10.233 -12.608  15.369  1.00  0.00     0.000 C 
BRANCH  19  20
ATOM     20  C   UNL     1      -9.757 -11.773  14.169  1.00  0.00     0.006 C 
BRANCH  20  21
ATOM     21  C   UNL     1      -8.731 -10.705  14.567  1.00  0.00     0.053 C 
BRANCH  21  22
ATOM     22  C   UNL     1      -7.422 -11.341  14.911  1.00  0.00     0.041 C 
ATOM     23  O   UNL     1      -6.906 -11.157  16.045  1.00  0.00    -0.550 OA
ATOM     24  O   UNL     1      -6.797 -12.181  14.001  1.00  0.00    -0.550 OA
ENDBRANCH  21  22
ENDBRANCH  20  21
ENDBRANCH  19  20
ENDBRANCH  18  19
ENDBRANCH  17  18
ENDBRANCH  16  17
ENDBRANCH  15  16
ENDBRANCH  14  15
ENDBRANCH  13  14
ENDBRANCH   1  13
TORSDOF 20
ENDMDL
MODEL 3
REMARK VINA RESULT:    -5.030      2.245      4.799
REMARK INTER + INTRA:         -12.538
REMARK INTER:                 -10.194
REMARK INTRA:                  -2.344
REMARK UNBOUND:                -1.627
REMARK SMILES CCCCCCCCCCCCCCCCCCCCCC(=O)[O-]
REMARK SMILES IDX 12 1 11 2 10 3 9 4 8 5 7 6 6 7 5 8 4 9 3 10 2 11 1 12 13 13
REMARK SMILES IDX 14 14 15 15 16 16 17 17 18 18 19 19 20 20 21 21 22 22 23 23
REMARK SMILES IDX 24 24
REMARK H PARENT
REMARK Flexibility Score: inf
ROOT
ATOM      1  C   UNL     1     -15.066 -12.732  17.952  1.00  0.00     0.000 C 
ENDROOT
BRANCH   1   2
ATOM      2  C   UNL     1     -16.449 -12.730  18.626  1.00  0.00     0.000 C 
BRANCH   2   3
ATOM      3  C   UNL     1     -16.480 -11.884  19.909  1.00  0.00     0.000 C 
BRANCH   3   4
ATOM      4  C   UNL     1     -17.911 -11.508  20.336  1.00  0.00    -0.000 C 
BRANCH   4   5
ATOM      5  C   UNL     1     -17.943 -10.657  21.616  1.00  0.00    -0.000 C 
BRANCH   5   6
ATOM      6  C   UNL     1     -16.651 -10.779  22.442  1.00  0.00    -0.000 C 
BRANCH   6   7
ATOM      7  C   UNL     1     -16.020  -9.409  22.740  1.00  0.00    -0.000 C 
BRANCH   7   8
ATOM      8  C   UNL     1     -14.499  -9.499  22.951  1.00  0.00    -0.000 C 
BRANCH   8   9
ATOM      9  C   UNL     1     -13.699  -9.291  21.651  1.00  0.00    -0.000 C 
BRANCH   9  10
ATOM     10  C   UNL     1     -12.765 -10.453  21.270  1.00  0.00    -0.000 C 
BRANCH  10  11
ATOM     11  C   UNL     1     -13.102 -11.758  22.006  1.00  0.00    -0.003 C 
ATOM     12  C   UNL     1     -13.030 -12.953  21.060  1.00  0.00     0.004 C 
ENDBRANCH  10  11
ENDBRANCH   9  10
ENDBRANCH   8   9
ENDBRANCH   7   8
ENDBRANCH   6   7
ENDBRANCH   5   6
ENDBRANCH   4   5
ENDBRANCH   3   4
ENDBRANCH   2   3
ENDBRANCH   1   2
BRANCH   1  13
ATOM     13  C   UNL     1     -15.070 -13.487  16.612  1.00  0.00     0.000 C 
BRANCH  13  14
ATOM     14  C   UNL     1     -16.488 -13.713  16.063  1.00  0.00     0.000 C 
BRANCH  14  15
ATOM     15  C   UNL     1     -16.650 -13.220  14.613  1.00  0.00     0.000 C 
BRANCH  15  16
ATOM     16  C   UNL     1     -16.060 -14.157  13.541  1.00  0.00     0.000 C 
BRANCH  16  17
ATOM     17  C   UNL     1     -14.676 -13.746  12.999  1.00  0.00     0.000 C 
BRANCH  17  18
ATOM     18  C   UNL     1     -14.381 -12.236  13.062  1.00  0.00     0.000 C 
BRANCH  18  19
ATOM     19  C   UNL     1     -13.057 -11.923  13.779  1.00  0.00     0.000 C 
BRANCH  19  20
ATOM     20  C   UNL     1     -12.296 -13.196  14.183  1.00  0.00     0.006 C 
BRANCH  20  21
ATOM     21  C   UNL     1     -10.778 -13.046  14.024  1.00  0.00     0.053 C 
BRANCH  21  22
ATOM     22  C   UNL     1     -10.189 -12.390  15.232  1.00  0.00     0.041 C 
ATOM     23  O   UNL     1     -10.699 -12.579  16.368  1.00  0.00    -0.550 OA
ATOM     24  O   UNL     1      -9.046 -11.613  15.114  1.00  0.00    -0.550 OA
ENDBRANCH  21  22
ENDBRANCH  20  21
ENDBRANCH  19  20
ENDBRANCH  18  19
ENDBRANCH  17  18
ENDBRANCH  16  17
ENDBRANCH  15  16
ENDBRANCH  14  15
ENDBRANCH  13  14
ENDBRANCH   1  13
TORSDOF 20
ENDMDL
MODEL 4
REMARK VINA RESULT:    -5.023      2.152      4.269
REMARK INTER + INTRA:         -12.524
REMARK INTER:                 -10.223
REMARK INTRA:                  -2.301
REMARK UNBOUND:                -1.627
REMARK SMILES CCCCCCCCCCCCCCCCCCCCCC(=O)[O-]
REMARK SMILES IDX 12 1 11 2 10 3 9 4 8 5 7 6 6 7 5 8 4 9 3 10 2 11 1 12 13 13
REMARK SMILES IDX 14 14 15 15 16 16 17 17 18 18 19 19 20 20 21 21 22 22 23 23
REMARK SMILES IDX 24 24
REMARK H PARENT
REMARK Flexibility Score: inf
ROOT
ATOM      1  C   UNL     1     -14.998 -12.764  17.742  1.00  0.00     0.000 C 
ENDROOT
BRANCH   1   2
ATOM      2  C   UNL     1     -15.768 -11.867  18.727  1.00  0.00     0.000 C 
BRANCH   2   3
ATOM      3  C   UNL     1     -16.923 -12.606  19.421  1.00  0.00     0.000 C 
BRANCH   3   4
ATOM      4  C   UNL     1     -17.805 -11.668  20.265  1.00  0.00    -0.000 C 
BRANCH   4   5
ATOM      5  C   UNL     1     -17.058 -10.405  20.724  1.00  0.00    -0.000 C 
BRANCH   5   6
ATOM      6  C   UNL     1     -16.939 -10.309  22.255  1.00  0.00    -0.000 C 
BRANCH   6   7
ATOM      7  C   UNL     1     -15.762 -11.134  22.800  1.00  0.00    -0.000 C 
BRANCH   7   8
ATOM      8  C   UNL     1     -14.696 -10.257  23.478  1.00  0.00    -0.000 C 
BRANCH   8   9
ATOM      9  C   UNL     1     -13.931  -9.364  22.482  1.00  0.00    -0.000 C 
BRANCH   9  10
ATOM     10  C   UNL     1     -13.434 -10.082  21.215  1.00  0.00    -0.000 C 
BRANCH  10  11
ATOM     11  C   UNL     1     -12.413 -11.189  21.516  1.00  0.00    -0.003 C 
ATOM     12  C   UNL     1     -12.506 -12.314  20.490  1.00  0.00     0.004 C 
ENDBRANCH  10  11
ENDBRANCH   9  10
ENDBRANCH   8   9
ENDBRANCH   7   8
ENDBRANCH   6   7
ENDBRANCH   5   6
ENDBRANCH   4   5
ENDBRANCH   3   4
ENDBRANCH   2   3
ENDBRANCH   1   2
BRANCH   1  13
ATOM     13  C   UNL     1     -15.891 -13.850  17.119  1.00  0.00     0.000 C 
BRANCH  13  14
ATOM     14  C   UNL     1     -16.401 -13.466  15.720  1.00  0.00     0.000 C 
BRANCH  14  15
ATOM     15  C   UNL     1     -15.327 -13.631  14.630  1.00  0.00     0.000 C 
BRANCH  15  16
ATOM     16  C   UNL     1     -14.884 -12.320  13.952  1.00  0.00     0.000 C 
BRANCH  16  17
ATOM     17  C   UNL     1     -13.367 -12.048  13.975  1.00  0.00     0.000 C 
BRANCH  17  18
ATOM     18  C   UNL     1     -12.513 -13.199  14.538  1.00  0.00     0.000 C 
BRANCH  18  19
ATOM     19  C   UNL     1     -11.878 -12.854  15.895  1.00  0.00     0.000 C 
BRANCH  19  20
ATOM     20  C   UNL     1     -10.345 -12.764  15.817  1.00  0.00     0.006 C 
BRANCH  20  21
ATOM     21  C   UNL     1      -9.854 -12.306  14.438  1.00  0.00     0.053 C 
BRANCH  21  22
ATOM     22  C   UNL     1      -8.832 -11.223  14.582  1.00  0.00     0.041 C 
ATOM     23  O   UNL     1      -9.063 -10.070  14.134  1.00  0.00    -0.550 OA
ATOM     24  O   UNL     1      -7.646 -11.472  15.257  1.00  0.00    -0.550 OA
ENDBRANCH  21  22
ENDBRANCH  20  21
ENDBRANCH  19  20
ENDBRANCH  18  19
ENDBRANCH  17  18
ENDBRANCH  16  17
ENDBRANCH  15  16
ENDBRANCH  14  15
ENDBRANCH  13  14
ENDBRANCH   1  13
TORSDOF 20
ENDMDL
MODEL 5
REMARK VINA RESULT:    -4.982      3.280      7.843
REMARK INTER + INTRA:         -12.435
REMARK INTER:                 -10.126
REMARK INTRA:                  -2.309
REMARK UNBOUND:                -1.627
REMARK SMILES CCCCCCCCCCCCCCCCCCCCCC(=O)[O-]
REMARK SMILES IDX 12 1 11 2 10 3 9 4 8 5 7 6 6 7 5 8 4 9 3 10 2 11 1 12 13 13
REMARK SMILES IDX 14 14 15 15 16 16 17 17 18 18 19 19 20 20 21 21 22 22 23 23
REMARK SMILES IDX 24 24
REMARK H PARENT
REMARK Flexibility Score: inf
ROOT
ATOM      1  C   UNL     1     -15.059 -13.872  16.337  1.00  0.00     0.000 C 
ENDROOT
BRANCH   1   2
ATOM      2  C   UNL     1     -16.269 -13.201  15.664  1.00  0.00     0.000 C 
BRANCH   2   3
ATOM      3  C   UNL     1     -16.113 -13.092  14.139  1.00  0.00     0.000 C 
BRANCH   3   4
ATOM      4  C   UNL     1     -14.668 -13.350  13.672  1.00  0.00    -0.000 C 
BRANCH   4   5
ATOM      5  C   UNL     1     -14.007 -12.098  13.074  1.00  0.00    -0.000 C 
BRANCH   5   6
ATOM      6  C   UNL     1     -12.715 -11.700  13.808  1.00  0.00    -0.000 C 
BRANCH   6   7
ATOM      7  C   UNL     1     -11.856 -12.921  14.176  1.00  0.00    -0.000 C 
BRANCH   7   8
ATOM      8  C   UNL     1     -11.574 -13.005  15.686  1.00  0.00    -0.000 C 
BRANCH   8   9
ATOM      9  C   UNL     1     -10.188 -12.453  16.069  1.00  0.00    -0.000 C 
BRANCH   9  10
ATOM     10  C   UNL     1      -8.996 -13.188  15.432  1.00  0.00    -0.000 C 
BRANCH  10  11
ATOM     11  C   UNL     1      -8.197 -12.305  14.463  1.00  0.00    -0.003 C 
ATOM     12  C   UNL     1      -8.754 -10.885  14.431  1.00  0.00     0.004 C 
ENDBRANCH  10  11
ENDBRANCH   9  10
ENDBRANCH   8   9
ENDBRANCH   7   8
ENDBRANCH   6   7
ENDBRANCH   5   6
ENDBRANCH   4   5
ENDBRANCH   3   4
ENDBRANCH   2   3
ENDBRANCH   1   2
BRANCH   1  13
ATOM     13  C   UNL     1     -14.544 -13.074  17.546  1.00  0.00     0.000 C 
BRANCH  13  14
ATOM     14  C   UNL     1     -15.600 -12.110  18.112  1.00  0.00     0.000 C 
BRANCH  14  15
ATOM     15  C   UNL     1     -16.654 -12.825  18.977  1.00  0.00     0.000 C 
BRANCH  15  16
ATOM     16  C   UNL     1     -17.150 -12.019  20.194  1.00  0.00     0.000 C 
BRANCH  16  17
ATOM     17  C   UNL     1     -16.050 -11.291  20.992  1.00  0.00     0.000 C 
BRANCH  17  18
ATOM     18  C   UNL     1     -15.268 -12.184  21.974  1.00  0.00     0.000 C 
BRANCH  18  19
ATOM     19  C   UNL     1     -13.890 -12.594  21.429  1.00  0.00     0.000 C 
BRANCH  19  20
ATOM     20  C   UNL     1     -12.969 -11.385  21.195  1.00  0.00     0.006 C 
BRANCH  20  21
ATOM     21  C   UNL     1     -11.637 -11.779  20.546  1.00  0.00     0.053 C 
BRANCH  21  22
ATOM     22  C   UNL     1     -10.551 -11.824  21.573  1.00  0.00     0.041 C 
ATOM     23  O   UNL     1      -9.343 -11.771  21.222  1.00  0.00    -0.550 OA
ATOM     24  O   UNL     1     -10.871 -11.873  22.923  1.00  0.00    -0.550 OA
ENDBRANCH  21  22
ENDBRANCH  20  21
ENDBRANCH  19  20
ENDBRANCH  18  19
ENDBRANCH  17  18
ENDBRANCH  16  17
ENDBRANCH  15  16
ENDBRANCH  14  15
ENDBRANCH  13  14
ENDBRANCH   1  13
TORSDOF 20
ENDMDL
MODEL 6
REMARK VINA RESULT:    -4.982      1.607      3.701
REMARK INTER + INTRA:         -12.434
REMARK INTER:                 -11.044
REMARK INTRA:                  -1.390
REMARK UNBOUND:                -1.627
REMARK SMILES CCCCCCCCCCCCCCCCCCCCCC(=O)[O-]
REMARK SMILES IDX 12 1 11 2 10 3 9 4 8 5 7 6 6 7 5 8 4 9 3 10 2 11 1 12 13 13
REMARK SMILES IDX 14 14 15 15 16 16 17 17 18 18 19 19 20 20 21 21 22 22 23 23
REMARK SMILES IDX 24 24
REMARK H PARENT
REMARK Flexibility Score: inf
ROOT
ATOM      1  C   UNL     1     -15.694 -12.617  18.053  1.00  0.00     0.000 C 
ENDROOT
BRANCH   1   2
ATOM      2  C   UNL     1     -16.941 -12.747  18.945  1.00  0.00     0.000 C 
BRANCH   2   3
ATOM      3  C   UNL     1     -16.677 -12.317  20.396  1.00  0.00     0.000 C 
BRANCH   3   4
ATOM      4  C   UNL     1     -16.845 -10.800  20.605  1.00  0.00    -0.000 C 
BRANCH   4   5
ATOM      5  C   UNL     1     -18.145 -10.444  21.344  1.00  0.00    -0.000 C 
BRANCH   5   6
ATOM      6  C   UNL     1     -19.405 -10.786  20.530  1.00  0.00    -0.000 C 
BRANCH   6   7
ATOM      7  C   UNL     1     -20.696 -10.381  21.259  1.00  0.00    -0.000 C 
BRANCH   7   8
ATOM      8  C   UNL     1     -21.034 -11.328  22.422  1.00  0.00    -0.000 C 
BRANCH   8   9
ATOM      9  C   UNL     1     -21.447 -10.581  23.704  1.00  0.00    -0.000 C 
BRANCH   9  10
ATOM     10  C   UNL     1     -20.604  -9.336  24.031  1.00  0.00    -0.000 C 
BRANCH  10  11
ATOM     11  C   UNL     1     -19.724  -9.519  25.275  1.00  0.00    -0.003 C 
ATOM     12  C   UNL     1     -18.244  -9.532  24.902  1.00  0.00     0.004 C 
ENDBRANCH  10  11
ENDBRANCH   9  10
ENDBRANCH   8   9
ENDBRANCH   7   8
ENDBRANCH   6   7
ENDBRANCH   5   6
ENDBRANCH   4   5
ENDBRANCH   3   4
ENDBRANCH   2   3
ENDBRANCH   1   2
BRANCH   1  13
ATOM     13  C   UNL     1     -15.523 -13.819  17.109  1.00  0.00     0.000 C 
BRANCH  13  14
ATOM     14  C   UNL     1     -15.191 -13.398  15.668  1.00  0.00     0.000 C 
BRANCH  14  15
ATOM     15  C   UNL     1     -14.342 -12.114  15.605  1.00  0.00     0.000 C 
BRANCH  15  16
ATOM     16  C   UNL     1     -13.403 -12.018  14.387  1.00  0.00     0.000 C 
BRANCH  16  17
ATOM     17  C   UNL     1     -12.076 -12.791  14.516  1.00  0.00     0.000 C 
BRANCH  17  18
ATOM     18  C   UNL     1     -11.495 -12.841  15.941  1.00  0.00     0.000 C 
BRANCH  18  19
ATOM     19  C   UNL     1      -9.994 -12.509  15.978  1.00  0.00     0.000 C 
BRANCH  19  20
ATOM     20  C   UNL     1      -9.417 -12.252  14.576  1.00  0.00     0.006 C 
BRANCH  20  21
ATOM     21  C   UNL     1      -8.911 -10.814  14.405  1.00  0.00     0.053 C 
BRANCH  21  22
ATOM     22  C   UNL     1      -7.441 -10.744  14.670  1.00  0.00     0.041 C 
ATOM     23  O   UNL     1      -6.671 -10.203  13.834  1.00  0.00    -0.550 OA
ATOM     24  O   UNL     1      -6.925 -11.228  15.864  1.00  0.00    -0.550 OA
ENDBRANCH  21  22
ENDBRANCH  20  21
ENDBRANCH  19  20
ENDBRANCH  18  19
ENDBRANCH  17  18
ENDBRANCH  16  17
ENDBRANCH  15  16
ENDBRANCH  14  15
ENDBRANCH  13  14
ENDBRANCH   1  13
TORSDOF 20
ENDMDL
MODEL 7
REMARK VINA RESULT:    -4.960      1.920      3.767
REMARK INTER + INTRA:         -12.387
REMARK INTER:                 -10.220
REMARK INTRA:                  -2.167
REMARK UNBOUND:                -1.627
REMARK SMILES CCCCCCCCCCCCCCCCCCCCCC(=O)[O-]
REMARK SMILES IDX 12 1 11 2 10 3 9 4 8 5 7 6 6 7 5 8 4 9 3 10 2 11 1 12 13 13
REMARK SMILES IDX 14 14 15 15 16 16 17 17 18 18 19 19 20 20 21 21 22 22 23 23
REMARK SMILES IDX 24 24
REMARK H PARENT
REMARK Flexibility Score: inf
ROOT
ATOM      1  C   UNL     1     -15.832 -13.874  16.210  1.00  0.00     0.000 C 
ENDROOT
BRANCH   1   2
ATOM      2  C   UNL     1     -15.373 -13.026  17.409  1.00  0.00     0.000 C 
BRANCH   2   3
ATOM      3  C   UNL     1     -16.365 -13.072  18.581  1.00  0.00     0.000 C 
BRANCH   3   4
ATOM      4  C   UNL     1     -16.329 -11.795  19.440  1.00  0.00    -0.000 C 
BRANCH   4   5
ATOM      5  C   UNL     1     -17.651 -11.542  20.182  1.00  0.00    -0.000 C 
BRANCH   5   6
ATOM      6  C   UNL     1     -17.445 -10.854  21.543  1.00  0.00    -0.000 C 
BRANCH   6   7
ATOM      7  C   UNL     1     -15.980 -10.451  21.775  1.00  0.00    -0.000 C 
BRANCH   7   8
ATOM      8  C   UNL     1     -15.357 -11.174  22.982  1.00  0.00    -0.000 C 
BRANCH   8   9
ATOM      9  C   UNL     1     -14.156 -12.058  22.597  1.00  0.00    -0.000 C 
BRANCH   9  10
ATOM     10  C   UNL     1     -12.813 -11.317  22.485  1.00  0.00    -0.000 C 
BRANCH  10  11
ATOM     11  C   UNL     1     -12.295 -11.231  21.042  1.00  0.00    -0.003 C 
ATOM     12  C   UNL     1     -12.760 -12.431  20.222  1.00  0.00     0.004 C 
ENDBRANCH  10  11
ENDBRANCH   9  10
ENDBRANCH   8   9
ENDBRANCH   7   8
ENDBRANCH   6   7
ENDBRANCH   5   6
ENDBRANCH   4   5
ENDBRANCH   3   4
ENDBRANCH   2   3
ENDBRANCH   1   2
BRANCH   1  13
ATOM     13  C   UNL     1     -16.301 -13.010  15.027  1.00  0.00     0.000 C 
BRANCH  13  14
ATOM     14  C   UNL     1     -16.120 -13.714  13.672  1.00  0.00     0.000 C 
BRANCH  14  15
ATOM     15  C   UNL     1     -14.654 -13.734  13.203  1.00  0.00     0.000 C 
BRANCH  15  16
ATOM     16  C   UNL     1     -13.896 -12.404  13.385  1.00  0.00     0.000 C 
BRANCH  16  17
ATOM     17  C   UNL     1     -12.638 -12.480  14.272  1.00  0.00     0.000 C 
BRANCH  17  18
ATOM     18  C   UNL     1     -12.281 -13.895  14.766  1.00  0.00     0.000 C 
BRANCH  18  19
ATOM     19  C   UNL     1     -10.827 -14.000  15.254  1.00  0.00     0.000 C 
BRANCH  19  20
ATOM     20  C   UNL     1     -10.321 -12.687  15.873  1.00  0.00     0.006 C 
BRANCH  20  21
ATOM     21  C   UNL     1      -8.816 -12.481  15.662  1.00  0.00     0.053 C 
BRANCH  21  22
ATOM     22  C   UNL     1      -8.562 -11.799  14.355  1.00  0.00     0.041 C 
ATOM     23  O   UNL     1      -7.970 -12.409  13.427  1.00  0.00    -0.550 OA
ATOM     24  O   UNL     1      -9.026 -10.509  14.142  1.00  0.00    -0.550 OA
ENDBRANCH  21  22
ENDBRANCH  20  21
ENDBRANCH  19  20
ENDBRANCH  18  19
ENDBRANCH  17  18
ENDBRANCH  16  17
ENDBRANCH  15  16
ENDBRANCH  14  15
ENDBRANCH  13  14
ENDBRANCH   1  13
TORSDOF 20
ENDMDL
MODEL 8
REMARK VINA RESULT:    -4.929      4.926     10.600
REMARK INTER + INTRA:         -12.319
REMARK INTER:                 -10.437
REMARK INTRA:                  -1.881
REMARK UNBOUND:                -1.627
REMARK SMILES CCCCCCCCCCCCCCCCCCCCCC(=O)[O-]
REMARK SMILES IDX 12 1 11 2 10 3 9 4 8 5 7 6 6 7 5 8 4 9 3 10 2 11 1 12 13 13
REMARK SMILES IDX 14 14 15 15 16 16 17 17 18 18 19 19 20 20 21 21 22 22 23 23
REMARK SMILES IDX 24 24
REMARK H PARENT
REMARK Flexibility Score: inf
ROOT
ATOM      1  C   UNL     1     -15.478 -12.115  18.628  1.00  0.00     0.000 C 
ENDROOT
BRANCH   1   2
ATOM      2  C   UNL     1     -15.012 -12.941  17.417  1.00  0.00     0.000 C 
BRANCH   2   3
ATOM      3  C   UNL     1     -16.109 -13.873  16.880  1.00  0.00     0.000 C 
BRANCH   3   4
ATOM      4  C   UNL     1     -16.388 -13.659  15.381  1.00  0.00    -0.000 C 
BRANCH   4   5
ATOM      5  C   UNL     1     -15.750 -12.370  14.837  1.00  0.00    -0.000 C 
BRANCH   5   6
ATOM      6  C   UNL     1     -15.302 -12.502  13.371  1.00  0.00    -0.000 C 
BRANCH   6   7
ATOM      7  C   UNL     1     -13.785 -12.313  13.209  1.00  0.00    -0.000 C 
BRANCH   7   8
ATOM      8  C   UNL     1     -13.029 -12.473  14.539  1.00  0.00    -0.000 C 
BRANCH   8   9
ATOM      9  C   UNL     1     -12.419 -13.876  14.718  1.00  0.00    -0.000 C 
BRANCH   9  10
ATOM     10  C   UNL     1     -10.914 -13.895  15.034  1.00  0.00    -0.000 C 
BRANCH  10  11
ATOM     11  C   UNL     1     -10.470 -12.712  15.906  1.00  0.00    -0.003 C 
ATOM     12  C   UNL     1      -9.303 -11.966  15.264  1.00  0.00     0.004 C 
ENDBRANCH  10  11
ENDBRANCH   9  10
ENDBRANCH   8   9
ENDBRANCH   7   8
ENDBRANCH   6   7
ENDBRANCH   5   6
ENDBRANCH   4   5
ENDBRANCH   3   4
ENDBRANCH   2   3
ENDBRANCH   1   2
BRANCH   1  13
ATOM     13  C   UNL     1     -16.755 -12.685  19.269  1.00  0.00     0.000 C 
BRANCH  13  14
ATOM     14  C   UNL     1     -17.546 -11.627  20.055  1.00  0.00     0.000 C 
BRANCH  14  15
ATOM     15  C   UNL     1     -17.095 -11.516  21.524  1.00  0.00     0.000 C 
BRANCH  15  16
ATOM     16  C   UNL     1     -16.963 -10.076  22.055  1.00  0.00     0.000 C 
BRANCH  16  17
ATOM     17  C   UNL     1     -16.771  -9.952  23.579  1.00  0.00     0.000 C 
BRANCH  17  18
ATOM     18  C   UNL     1     -17.723 -10.820  24.422  1.00  0.00     0.000 C 
BRANCH  18  19
ATOM     19  C   UNL     1     -18.912 -10.019  24.981  1.00  0.00     0.000 C 
BRANCH  19  20
ATOM     20  C   UNL     1     -20.252 -10.461  24.372  1.00  0.00     0.006 C 
BRANCH  20  21
ATOM     21  C   UNL     1     -20.587  -9.705  23.081  1.00  0.00     0.053 C 
BRANCH  21  22
ATOM     22  C   UNL     1     -20.995 -10.662  22.007  1.00  0.00     0.041 C 
ATOM     23  O   UNL     1     -20.618 -10.481  20.819  1.00  0.00    -0.550 OA
ATOM     24  O   UNL     1     -21.747 -11.784  22.324  1.00  0.00    -0.550 OA
ENDBRANCH  21  22
ENDBRANCH  20  21
ENDBRANCH  19  20
ENDBRANCH  18  19
ENDBRANCH  17  18
ENDBRANCH  16  17
ENDBRANCH  15  16
ENDBRANCH  14  15
ENDBRANCH  13  14
ENDBRANCH   1  13
TORSDOF 20
ENDMDL
MODEL 9
REMARK VINA RESULT:    -4.870      2.647      5.903
REMARK INTER + INTRA:         -12.192
REMARK INTER:                  -9.967
REMARK INTRA:                  -2.224
REMARK UNBOUND:                -1.627
REMARK SMILES CCCCCCCCCCCCCCCCCCCCCC(=O)[O-]
REMARK SMILES IDX 12 1 11 2 10 3 9 4 8 5 7 6 6 7 5 8 4 9 3 10 2 11 1 12 13 13
REMARK SMILES IDX 14 14 15 15 16 16 17 17 18 18 19 19 20 20 21 21 22 22 23 23
REMARK SMILES IDX 24 24
REMARK H PARENT
REMARK Flexibility Score: inf
ROOT
ATOM      1  C   UNL     1     -15.958 -11.807  18.728  1.00  0.00     0.000 C 
ENDROOT
BRANCH   1   2
ATOM      2  C   UNL     1     -16.781 -12.463  19.850  1.00  0.00     0.000 C 
BRANCH   2   3
ATOM      3  C   UNL     1     -17.974 -11.600  20.289  1.00  0.00     0.000 C 
BRANCH   3   4
ATOM      4  C   UNL     1     -17.739 -10.910  21.646  1.00  0.00    -0.000 C 
BRANCH   4   5
ATOM      5  C   UNL     1     -16.358 -11.226  22.240  1.00  0.00    -0.000 C 
BRANCH   5   6
ATOM      6  C   UNL     1     -15.379 -10.043  22.131  1.00  0.00    -0.000 C 
BRANCH   6   7
ATOM      7  C   UNL     1     -13.911 -10.495  22.200  1.00  0.00    -0.000 C 
BRANCH   7   8
ATOM      8  C   UNL     1     -13.756 -12.012  21.995  1.00  0.00    -0.000 C 
BRANCH   8   9
ATOM      9  C   UNL     1     -12.617 -12.372  21.022  1.00  0.00    -0.000 C 
BRANCH   9  10
ATOM     10  C   UNL     1     -11.446 -11.374  20.994  1.00  0.00    -0.000 C 
BRANCH  10  11
ATOM     11  C   UNL     1     -10.145 -11.961  21.557  1.00  0.00    -0.003 C 
ATOM     12  C   UNL     1      -8.947 -11.559  20.702  1.00  0.00     0.004 C 
ENDBRANCH  10  11
ENDBRANCH   9  10
ENDBRANCH   8   9
ENDBRANCH   7   8
ENDBRANCH   6   7
ENDBRANCH   5   6
ENDBRANCH   4   5
ENDBRANCH   3   4
ENDBRANCH   2   3
ENDBRANCH   1   2
BRANCH   1  13
ATOM     13  C   UNL     1     -14.878 -12.748  18.168  1.00  0.00     0.000 C 
BRANCH  13  14
ATOM     14  C   UNL     1     -15.075 -13.054  16.674  1.00  0.00     0.000 C 
BRANCH  14  15
ATOM     15  C   UNL     1     -16.398 -13.786  16.388  1.00  0.00     0.000 C 
BRANCH  15  16
ATOM     16  C   UNL     1     -16.817 -13.812  14.904  1.00  0.00     0.000 C 
BRANCH  16  17
ATOM     17  C   UNL     1     -16.240 -12.675  14.039  1.00  0.00     0.000 C 
BRANCH  17  18
ATOM     18  C   UNL     1     -15.043 -13.078  13.158  1.00  0.00     0.000 C 
BRANCH  18  19
ATOM     19  C   UNL     1     -14.099 -11.899  12.868  1.00  0.00     0.000 C 
BRANCH  19  20
ATOM     20  C   UNL     1     -12.813 -11.959  13.707  1.00  0.00     0.006 C 
BRANCH  20  21
ATOM     21  C   UNL     1     -12.483 -13.382  14.173  1.00  0.00     0.053 C 
BRANCH  21  22
ATOM     22  C   UNL     1     -11.327 -13.365  15.122  1.00  0.00     0.041 C 
ATOM     23  O   UNL     1     -10.214 -13.840  14.775  1.00  0.00    -0.550 OA
ATOM     24  O   UNL     1     -11.462 -12.777  16.372  1.00  0.00    -0.550 OA
ENDBRANCH  21  22
ENDBRANCH  20  21
ENDBRANCH  19  20
ENDBRANCH  18  19
ENDBRANCH  17  18
ENDBRANCH  16  17
ENDBRANCH  15  16
ENDBRANCH  14  15
ENDBRANCH  13  14
ENDBRANCH   1  13
TORSDOF 20
ENDMDL
