MODEL 1
REMARK VINA RESULT:    -4.395      0.000      0.000
REMARK INTER + INTRA:          -8.975
REMARK INTER:                  -7.993
REMARK INTRA:                  -0.982
REMARK UNBOUND:                -0.982
REMARK SMILES CCCCCCCCCCCCCCCC(=O)[O-]
REMARK SMILES IDX 9 1 10 2 11 3 12 4 13 5 14 6 15 7 16 8 17 9 18 10 8 11 7 12
REMARK SMILES IDX 6 13 5 14 4 15 3 16 2 17 1 18
REMARK H PARENT
REMARK Flexibility Score: inf
ROOT
ATOM      1  C   UNL     1     120.679 111.293 113.372  1.00  0.00     0.000 C 
ENDROOT
BRANCH   1   2
ATOM      2  C   UNL     1     120.455 110.090 112.438  1.00  0.00     0.000 C 
BRANCH   2   3
ATOM      3  C   UNL     1     119.196 110.235 111.568  1.00  0.00     0.000 C 
BRANCH   3   4
ATOM      4  C   UNL     1     119.507 110.164 110.063  1.00  0.00     0.000 C 
BRANCH   4   5
ATOM      5  C   UNL     1     120.713 109.261 109.749  1.00  0.00     0.000 C 
BRANCH   5   6
ATOM      6  C   UNL     1     121.149 109.351 108.277  1.00  0.00     0.006 C 
BRANCH   6   7
ATOM      7  C   UNL     1     120.009 109.024 107.305  1.00  0.00     0.053 C 
BRANCH   7   8
ATOM      8  C   UNL     1     120.430 107.957 106.345  1.00  0.00     0.041 C 
ATOM      9  O   UNL     1     121.640 107.846 106.013  1.00  0.00    -0.550 OA
ATOM     10  O   UNL     1     119.482 107.115 105.778  1.00  0.00    -0.550 OA
ENDBRANCH   7   8
ENDBRANCH   6   7
ENDBRANCH   5   6
ENDBRANCH   4   5
ENDBRANCH   3   4
ENDBRANCH   2   3
ENDBRANCH   1   2
BRANCH   1  11
ATOM     11  C   UNL     1     120.096 112.629 112.868  1.00  0.00     0.000 C 
BRANCH  11  12
ATOM     12  C   UNL     1     120.408 113.855 113.749  1.00  0.00    -0.000 C 
BRANCH  12  13
ATOM     13  C   UNL     1     119.203 114.768 114.036  1.00  0.00    -0.000 C 
BRANCH  13  14
ATOM     14  C   UNL     1     118.834 114.811 115.530  1.00  0.00    -0.000 C 
BRANCH  14  15
ATOM     15  C   UNL     1     119.556 113.728 116.349  1.00  0.00    -0.000 C 
BRANCH  15  16
ATOM     16  C   UNL     1     118.717 113.238 117.542  1.00  0.00    -0.000 C 
BRANCH  16  17
ATOM     17  C   UNL     1     118.976 111.760 117.875  1.00  0.00    -0.003 C 
ATOM     18  C   UNL     1     120.309 111.252 117.325  1.00  0.00     0.004 C 
ENDBRANCH  16  17
ENDBRANCH  15  16
ENDBRANCH  14  15
ENDBRANCH  13  14
ENDBRANCH  12  13
ENDBRANCH  11  12
ENDBRANCH   1  11
TORSDOF 14
ENDMDL
MODEL 2
REMARK VINA RESULT:    -4.350      1.168      2.265
REMARK INTER + INTRA:          -8.892
REMARK INTER:                  -7.884
REMARK INTRA:                  -1.008
REMARK UNBOUND:                -0.982
REMARK SMILES CCCCCCCCCCCCCCCC(=O)[O-]
REMARK SMILES IDX 9 1 10 2 11 3 12 4 13 5 14 6 15 7 16 8 17 9 18 10 8 11 7 12
REMARK SMILES IDX 6 13 5 14 4 15 3 16 2 17 1 18
REMARK H PARENT
REMARK Flexibility Score: inf
ROOT
ATOM      1  C   UNL     1     121.367 110.758 113.395  1.00  0.00     0.000 C 
ENDROOT
BRANCH   1   2
ATOM      2  C   UNL     1     120.415 109.989 112.461  1.00  0.00     0.000 C 
BRANCH   2   3
ATOM      3  C   UNL     1     119.474 110.917 111.673  1.00  0.00     0.000 C 
BRANCH   3   4
ATOM      4  C   UNL     1     118.964 110.273 110.372  1.00  0.00     0.000 C 
BRANCH   4   5
ATOM      5  C   UNL     1     120.093 109.632 109.545  1.00  0.00     0.000 C 
BRANCH   5   6
ATOM      6  C   UNL     1     120.073 110.081 108.075  1.00  0.00     0.006 C 
BRANCH   6   7
ATOM      7  C   UNL     1     120.033 108.899 107.099  1.00  0.00     0.053 C 
BRANCH   7   8
ATOM      8  C   UNL     1     121.400 108.621 106.559  1.00  0.00     0.041 C 
ATOM      9  O   UNL     1     121.677 107.484 106.093  1.00  0.00    -0.550 OA
ATOM     10  O   UNL     1     122.384 109.600 106.614  1.00  0.00    -0.550 OA
ENDBRANCH   7   8
ENDBRANCH   6   7
ENDBRANCH   5   6
ENDBRANCH   4   5
ENDBRANCH   3   4
ENDBRANCH   2   3
ENDBRANCH   1   2
BRANCH   1  11
ATOM     11  C   UNL     1     120.858 112.139 113.855  1.00  0.00     0.000 C 
BRANCH  11  12
ATOM     12  C   UNL     1     121.302 112.565 115.268  1.00  0.00    -0.000 C 
BRANCH  12  13
ATOM     13  C   UNL     1     121.228 111.455 116.331  1.00  0.00    -0.000 C 
BRANCH  13  14
ATOM     14  C   UNL     1     119.941 111.525 117.172  1.00  0.00    -0.000 C 
BRANCH  14  15
ATOM     15  C   UNL     1     119.543 112.967 117.528  1.00  0.00    -0.000 C 
BRANCH  15  16
ATOM     16  C   UNL     1     118.044 113.100 117.849  1.00  0.00    -0.000 C 
BRANCH  16  17
ATOM     17  C   UNL     1     117.334 114.109 116.932  1.00  0.00    -0.003 C 
ATOM     18  C   UNL     1     118.249 114.665 115.840  1.00  0.00     0.004 C 
ENDBRANCH  16  17
ENDBRANCH  15  16
ENDBRANCH  14  15
ENDBRANCH  13  14
ENDBRANCH  12  13
ENDBRANCH  11  12
ENDBRANCH   1  11
TORSDOF 14
ENDMDL
MODEL 3
REMARK VINA RESULT:    -4.331      3.722      7.816
REMARK INTER + INTRA:          -8.858
REMARK INTER:                  -6.118
REMARK INTRA:                  -2.740
REMARK UNBOUND:                -0.982
REMARK SMILES CCCCCCCCCCCCCCCC(=O)[O-]
REMARK SMILES IDX 9 1 10 2 11 3 12 4 13 5 14 6 15 7 16 8 17 9 18 10 8 11 7 12
REMARK SMILES IDX 6 13 5 14 4 15 3 16 2 17 1 18
REMARK H PARENT
REMARK Flexibility Score: inf
ROOT
ATOM      1  C   UNL     1     119.981 109.247 107.409  1.00  0.00     0.000 C 
ENDROOT
BRANCH   1   2
ATOM      2  C   UNL     1     120.010 110.768 107.641  1.00  0.00     0.000 C 
BRANCH   2   3
ATOM      3  C   UNL     1     119.765 111.152 109.111  1.00  0.00     0.000 C 
BRANCH   3   4
ATOM      4  C   UNL     1     119.443 109.933 109.992  1.00  0.00     0.000 C 
BRANCH   4   5
ATOM      5  C   UNL     1     119.184 110.314 111.461  1.00  0.00     0.000 C 
BRANCH   5   6
ATOM      6  C   UNL     1     120.407 110.065 112.359  1.00  0.00     0.006 C 
BRANCH   6   7
ATOM      7  C   UNL     1     120.715 111.254 113.278  1.00  0.00     0.053 C 
BRANCH   7   8
ATOM      8  C   UNL     1     120.856 112.510 112.478  1.00  0.00     0.041 C 
ATOM      9  O   UNL     1     121.829 112.654 111.692  1.00  0.00    -0.550 OA
ATOM     10  O   UNL     1     119.940 113.543 112.636  1.00  0.00    -0.550 OA
ENDBRANCH   7   8
ENDBRANCH   6   7
ENDBRANCH   5   6
ENDBRANCH   4   5
ENDBRANCH   3   4
ENDBRANCH   2   3
ENDBRANCH   1   2
BRANCH   1  11
ATOM     11  C   UNL     1     121.144 108.692 106.562  1.00  0.00     0.000 C 
BRANCH  11  12
ATOM     12  C   UNL     1     121.967 107.572 107.231  1.00  0.00    -0.000 C 
BRANCH  12  13
ATOM     13  C   UNL     1     122.181 107.743 108.745  1.00  0.00    -0.000 C 
BRANCH  13  14
ATOM     14  C   UNL     1     123.442 108.561 109.077  1.00  0.00    -0.000 C 
BRANCH  14  15
ATOM     15  C   UNL     1     123.120 109.878 109.802  1.00  0.00    -0.000 C 
BRANCH  15  16
ATOM     16  C   UNL     1     123.529 111.114 108.982  1.00  0.00    -0.000 C 
BRANCH  16  17
ATOM     17  C   UNL     1     124.080 110.745 107.596  1.00  0.00    -0.003 C 
ATOM     18  C   UNL     1     123.475 111.589 106.473  1.00  0.00     0.004 C 
ENDBRANCH  16  17
ENDBRANCH  15  16
ENDBRANCH  14  15
ENDBRANCH  13  14
ENDBRANCH  12  13
ENDBRANCH  11  12
ENDBRANCH   1  11
TORSDOF 14
ENDMDL
MODEL 4
REMARK VINA RESULT:    -4.183      4.370      8.950
REMARK INTER + INTRA:          -8.589
REMARK INTER:                  -7.504
REMARK INTRA:                  -1.086
REMARK UNBOUND:                -0.982
REMARK SMILES CCCCCCCCCCCCCCCC(=O)[O-]
REMARK SMILES IDX 9 1 10 2 11 3 12 4 13 5 14 6 15 7 16 8 17 9 18 10 8 11 7 12
REMARK SMILES IDX 6 13 5 14 4 15 3 16 2 17 1 18
REMARK H PARENT
REMARK Flexibility Score: inf
ROOT
ATOM      1  C   UNL     1     119.657 110.049 109.974  1.00  0.00     0.000 C 
ENDROOT
BRANCH   1   2
ATOM      2  C   UNL     1     119.194 110.239 111.429  1.00  0.00     0.000 C 
BRANCH   2   3
ATOM      3  C   UNL     1     120.334 110.061 112.446  1.00  0.00     0.000 C 
BRANCH   3   4
ATOM      4  C   UNL     1     120.762 111.391 113.090  1.00  0.00     0.000 C 
BRANCH   4   5
ATOM      5  C   UNL     1     119.970 112.595 112.549  1.00  0.00     0.000 C 
BRANCH   5   6
ATOM      6  C   UNL     1     120.169 113.861 113.398  1.00  0.00     0.006 C 
BRANCH   6   7
ATOM      7  C   UNL     1     119.885 113.622 114.886  1.00  0.00     0.053 C 
BRANCH   7   8
ATOM      8  C   UNL     1     118.776 114.510 115.356  1.00  0.00     0.041 C 
ATOM      9  O   UNL     1     118.563 115.612 114.785  1.00  0.00    -0.550 OA
ATOM     10  O   UNL     1     118.010 114.145 116.455  1.00  0.00    -0.550 OA
ENDBRANCH   7   8
ENDBRANCH   6   7
ENDBRANCH   5   6
ENDBRANCH   4   5
ENDBRANCH   3   4
ENDBRANCH   2   3
ENDBRANCH   1   2
BRANCH   1  11
ATOM     11  C   UNL     1     119.622 111.322 109.105  1.00  0.00     0.000 C 
BRANCH  11  12
ATOM     12  C   UNL     1     120.014 111.120 107.627  1.00  0.00    -0.000 C 
BRANCH  12  13
ATOM     13  C   UNL     1     121.440 111.572 107.268  1.00  0.00    -0.000 C 
BRANCH  13  14
ATOM     14  C   UNL     1     122.263 110.460 106.595  1.00  0.00    -0.000 C 
BRANCH  14  15
ATOM     15  C   UNL     1     122.172 109.120 107.344  1.00  0.00    -0.000 C 
BRANCH  15  16
ATOM     16  C   UNL     1     121.852 107.943 106.406  1.00  0.00    -0.000 C 
BRANCH  16  17
ATOM     17  C   UNL     1     120.341 107.705 106.256  1.00  0.00    -0.003 C 
ATOM     18  C   UNL     1     120.006 106.678 105.173  1.00  0.00     0.004 C 
ENDBRANCH  16  17
ENDBRANCH  15  16
ENDBRANCH  14  15
ENDBRANCH  13  14
ENDBRANCH  12  13
ENDBRANCH  11  12
ENDBRANCH   1  11
TORSDOF 14
ENDMDL
MODEL 5
REMARK VINA RESULT:    -4.175      4.429      9.350
REMARK INTER + INTRA:          -8.574
REMARK INTER:                  -7.549
REMARK INTRA:                  -1.025
REMARK UNBOUND:                -0.982
REMARK SMILES CCCCCCCCCCCCCCCC(=O)[O-]
REMARK SMILES IDX 9 1 10 2 11 3 12 4 13 5 14 6 15 7 16 8 17 9 18 10 8 11 7 12
REMARK SMILES IDX 6 13 5 14 4 15 3 16 2 17 1 18
REMARK H PARENT
REMARK Flexibility Score: inf
ROOT
ATOM      1  C   UNL     1     120.372 109.602 110.565  1.00  0.00     0.000 C 
ENDROOT
BRANCH   1   2
ATOM      2  C   UNL     1     119.957 110.009 111.990  1.00  0.00     0.000 C 
BRANCH   2   3
ATOM      3  C   UNL     1     119.782 111.528 112.150  1.00  0.00     0.000 C 
BRANCH   3   4
ATOM      4  C   UNL     1     120.681 112.112 113.254  1.00  0.00     0.000 C 
BRANCH   4   5
ATOM      5  C   UNL     1     121.117 111.055 114.284  1.00  0.00     0.000 C 
BRANCH   5   6
ATOM      6  C   UNL     1     121.499 111.675 115.638  1.00  0.00     0.006 C 
BRANCH   6   7
ATOM      7  C   UNL     1     120.442 111.421 116.721  1.00  0.00     0.053 C 
BRANCH   7   8
ATOM      8  C   UNL     1     119.737 112.693 117.071  1.00  0.00     0.041 C 
ATOM      9  O   UNL     1     118.892 112.711 118.005  1.00  0.00    -0.550 OA
ATOM     10  O   UNL     1     119.974 113.847 116.335  1.00  0.00    -0.550 OA
ENDBRANCH   7   8
ENDBRANCH   6   7
ENDBRANCH   5   6
ENDBRANCH   4   5
ENDBRANCH   3   4
ENDBRANCH   2   3
ENDBRANCH   1   2
BRANCH   1  11
ATOM     11  C   UNL     1     120.929 110.747 109.694  1.00  0.00     0.000 C 
BRANCH  11  12
ATOM     12  C   UNL     1     120.027 111.175 108.519  1.00  0.00    -0.000 C 
BRANCH  12  13
ATOM     13  C   UNL     1     120.022 110.208 107.322  1.00  0.00    -0.000 C 
BRANCH  13  14
ATOM     14  C   UNL     1     121.421 109.654 107.000  1.00  0.00    -0.000 C 
BRANCH  14  15
ATOM     15  C   UNL     1     121.416 108.136 106.758  1.00  0.00    -0.000 C 
BRANCH  15  16
ATOM     16  C   UNL     1     120.106 107.648 106.116  1.00  0.00    -0.000 C 
BRANCH  16  17
ATOM     17  C   UNL     1     120.333 106.981 104.750  1.00  0.00    -0.003 C 
ATOM     18  C   UNL     1     121.661 106.227 104.671  1.00  0.00     0.004 C 
ENDBRANCH  16  17
ENDBRANCH  15  16
ENDBRANCH  14  15
ENDBRANCH  13  14
ENDBRANCH  12  13
ENDBRANCH  11  12
ENDBRANCH   1  11
TORSDOF 14
ENDMDL
MODEL 6
REMARK VINA RESULT:    -4.149      4.480      6.943
REMARK INTER + INTRA:          -8.526
REMARK INTER:                  -6.382
REMARK INTRA:                  -2.144
REMARK UNBOUND:                -0.982
REMARK SMILES CCCCCCCCCCCCCCCC(=O)[O-]
REMARK SMILES IDX 9 1 10 2 11 3 12 4 13 5 14 6 15 7 16 8 17 9 18 10 8 11 7 12
REMARK SMILES IDX 6 13 5 14 4 15 3 16 2 17 1 18
REMARK H PARENT
REMARK Flexibility Score: inf
ROOT
ATOM      1  C   UNL     1     122.097 112.548 111.584  1.00  0.00     0.000 C 
ENDROOT
BRANCH   1   2
ATOM      2  C   UNL     1     122.605 112.927 110.181  1.00  0.00     0.000 C 
BRANCH   2   3
ATOM      3  C   UNL     1     121.465 113.123 109.167  1.00  0.00     0.000 C 
BRANCH   3   4
ATOM      4  C   UNL     1     121.976 113.243 107.722  1.00  0.00     0.000 C 
BRANCH   4   5
ATOM      5  C   UNL     1     120.944 112.763 106.685  1.00  0.00     0.000 C 
BRANCH   5   6
ATOM      6  C   UNL     1     120.697 113.799 105.577  1.00  0.00     0.006 C 
BRANCH   6   7
ATOM      7  C   UNL     1     121.524 115.076 105.769  1.00  0.00     0.053 C 
BRANCH   7   8
ATOM      8  C   UNL     1     120.711 116.283 105.422  1.00  0.00     0.041 C 
ATOM      9  O   UNL     1     119.453 116.227 105.446  1.00  0.00    -0.550 OA
ATOM     10  O   UNL     1     121.340 117.456 105.024  1.00  0.00    -0.550 OA
ENDBRANCH   7   8
ENDBRANCH   6   7
ENDBRANCH   5   6
ENDBRANCH   4   5
ENDBRANCH   3   4
ENDBRANCH   2   3
ENDBRANCH   1   2
BRANCH   1  11
ATOM     11  C   UNL     1     120.563 112.514 111.738  1.00  0.00     0.000 C 
BRANCH  11  12
ATOM     12  C   UNL     1     120.011 111.326 112.552  1.00  0.00    -0.000 C 
BRANCH  12  13
ATOM     13  C   UNL     1     119.661 110.080 111.722  1.00  0.00    -0.000 C 
BRANCH  13  14
ATOM     14  C   UNL     1     119.117 110.431 110.326  1.00  0.00    -0.000 C 
BRANCH  14  15
ATOM     15  C   UNL     1     119.864 109.701 109.198  1.00  0.00    -0.000 C 
BRANCH  15  16
ATOM     16  C   UNL     1     121.333 109.415 109.556  1.00  0.00    -0.000 C 
BRANCH  16  17
ATOM     17  C   UNL     1     122.232 109.313 108.314  1.00  0.00    -0.003 C 
ATOM     18  C   UNL     1     121.437 109.170 107.015  1.00  0.00     0.004 C 
ENDBRANCH  16  17
ENDBRANCH  15  16
ENDBRANCH  14  15
ENDBRANCH  13  14
ENDBRANCH  12  13
ENDBRANCH  11  12
ENDBRANCH   1  11
TORSDOF 14
ENDMDL
MODEL 7
REMARK VINA RESULT:    -4.130      4.602      7.918
REMARK INTER + INTRA:          -8.492
REMARK INTER:                  -6.277
REMARK INTRA:                  -2.215
REMARK UNBOUND:                -0.982
REMARK SMILES CCCCCCCCCCCCCCCC(=O)[O-]
REMARK SMILES IDX 9 1 10 2 11 3 12 4 13 5 14 6 15 7 16 8 17 9 18 10 8 11 7 12
REMARK SMILES IDX 6 13 5 14 4 15 3 16 2 17 1 18
REMARK H PARENT
REMARK Flexibility Score: inf
ROOT
ATOM      1  C   UNL     1     119.539 109.735 109.943  1.00  0.00     0.000 C 
ENDROOT
BRANCH   1   2
ATOM      2  C   UNL     1     119.386 110.233 111.391  1.00  0.00     0.000 C 
BRANCH   2   3
ATOM      3  C   UNL     1     120.685 110.105 112.206  1.00  0.00     0.000 C 
BRANCH   3   4
ATOM      4  C   UNL     1     120.832 111.216 113.259  1.00  0.00     0.000 C 
BRANCH   4   5
ATOM      5  C   UNL     1     119.998 112.466 112.924  1.00  0.00     0.000 C 
BRANCH   5   6
ATOM      6  C   UNL     1     120.333 113.659 113.834  1.00  0.00     0.006 C 
BRANCH   6   7
ATOM      7  C   UNL     1     119.611 114.944 113.409  1.00  0.00     0.053 C 
BRANCH   7   8
ATOM      8  C   UNL     1     118.892 115.549 114.574  1.00  0.00     0.041 C 
ATOM      9  O   UNL     1     118.354 114.808 115.439  1.00  0.00    -0.550 OA
ATOM     10  O   UNL     1     118.774 116.928 114.679  1.00  0.00    -0.550 OA
ENDBRANCH   7   8
ENDBRANCH   6   7
ENDBRANCH   5   6
ENDBRANCH   4   5
ENDBRANCH   3   4
ENDBRANCH   2   3
ENDBRANCH   1   2
BRANCH   1  11
ATOM     11  C   UNL     1     120.952 109.248 109.564  1.00  0.00     0.000 C 
BRANCH  11  12
ATOM     12  C   UNL     1     121.428 109.648 108.153  1.00  0.00    -0.000 C 
BRANCH  12  13
ATOM     13  C   UNL     1     120.664 110.825 107.522  1.00  0.00    -0.000 C 
BRANCH  13  14
ATOM     14  C   UNL     1     121.599 111.942 107.026  1.00  0.00    -0.000 C 
BRANCH  14  15
ATOM     15  C   UNL     1     121.427 113.252 107.813  1.00  0.00    -0.000 C 
BRANCH  15  16
ATOM     16  C   UNL     1     121.036 113.008 109.280  1.00  0.00    -0.000 C 
BRANCH  16  17
ATOM     17  C   UNL     1     122.173 113.346 110.257  1.00  0.00    -0.003 C 
ATOM     18  C   UNL     1     123.196 112.218 110.391  1.00  0.00     0.004 C 
ENDBRANCH  16  17
ENDBRANCH  15  16
ENDBRANCH  14  15
ENDBRANCH  13  14
ENDBRANCH  12  13
ENDBRANCH  11  12
ENDBRANCH   1  11
TORSDOF 14
ENDMDL
MODEL 8
REMARK VINA RESULT:    -4.120      4.607      8.527
REMARK INTER + INTRA:          -8.474
REMARK INTER:                  -6.868
REMARK INTRA:                  -1.606
REMARK UNBOUND:                -0.982
REMARK SMILES CCCCCCCCCCCCCCCC(=O)[O-]
REMARK SMILES IDX 9 1 10 2 11 3 12 4 13 5 14 6 15 7 16 8 17 9 18 10 8 11 7 12
REMARK SMILES IDX 6 13 5 14 4 15 3 16 2 17 1 18
REMARK H PARENT
REMARK Flexibility Score: inf
ROOT
ATOM      1  C   UNL     1     121.213 112.926 112.619  1.00  0.00     0.000 C 
ENDROOT
BRANCH   1   2
ATOM      2  C   UNL     1     120.464 113.863 111.654  1.00  0.00     0.000 C 
BRANCH   2   3
ATOM      3  C   UNL     1     119.631 114.930 112.385  1.00  0.00     0.000 C 
BRANCH   3   4
ATOM      4  C   UNL     1     120.342 115.479 113.634  1.00  0.00     0.000 C 
BRANCH   4   5
ATOM      5  C   UNL     1     119.377 116.180 114.607  1.00  0.00     0.000 C 
BRANCH   5   6
ATOM      6  C   UNL     1     118.459 115.190 115.343  1.00  0.00     0.006 C 
BRANCH   6   7
ATOM      7  C   UNL     1     119.245 114.122 116.115  1.00  0.00     0.053 C 
BRANCH   7   8
ATOM      8  C   UNL     1     118.393 113.520 117.187  1.00  0.00     0.041 C 
ATOM      9  O   UNL     1     117.238 113.972 117.406  1.00  0.00    -0.550 OA
ATOM     10  O   UNL     1     118.891 112.492 117.977  1.00  0.00    -0.550 OA
ENDBRANCH   7   8
ENDBRANCH   6   7
ENDBRANCH   5   6
ENDBRANCH   4   5
ENDBRANCH   3   4
ENDBRANCH   2   3
ENDBRANCH   1   2
BRANCH   1  11
ATOM     11  C   UNL     1     120.354 111.805 113.240  1.00  0.00     0.000 C 
BRANCH  11  12
ATOM     12  C   UNL     1     120.798 110.370 112.893  1.00  0.00    -0.000 C 
BRANCH  12  13
ATOM     13  C   UNL     1     120.723 110.013 111.398  1.00  0.00    -0.000 C 
BRANCH  13  14
ATOM     14  C   UNL     1     119.296 110.124 110.833  1.00  0.00    -0.000 C 
BRANCH  14  15
ATOM     15  C   UNL     1     119.206 111.087 109.638  1.00  0.00    -0.000 C 
BRANCH  15  16
ATOM     16  C   UNL     1     120.546 111.230 108.896  1.00  0.00    -0.000 C 
BRANCH  16  17
ATOM     17  C   UNL     1     120.477 110.714 107.450  1.00  0.00    -0.003 C 
ATOM     18  C   UNL     1     119.940 109.285 107.355  1.00  0.00     0.004 C 
ENDBRANCH  16  17
ENDBRANCH  15  16
ENDBRANCH  14  15
ENDBRANCH  13  14
ENDBRANCH  12  13
ENDBRANCH  11  12
ENDBRANCH   1  11
TORSDOF 14
ENDMDL
MODEL 9
REMARK VINA RESULT:    -4.074      4.339      7.992
REMARK INTER + INTRA:          -8.391
REMARK INTER:                  -6.196
REMARK INTRA:                  -2.195
REMARK UNBOUND:                -0.982
REMARK SMILES CCCCCCCCCCCCCCCC(=O)[O-]
REMARK SMILES IDX 9 1 10 2 11 3 12 4 13 5 14 6 15 7 16 8 17 9 18 10 8 11 7 12
REMARK SMILES IDX 6 13 5 14 4 15 3 16 2 17 1 18
REMARK H PARENT
REMARK Flexibility Score: inf
ROOT
ATOM      1  C   UNL     1     121.041 111.302 112.963  1.00  0.00     0.000 C 
ENDROOT
BRANCH   1   2
ATOM      2  C   UNL     1     122.018 111.959 111.971  1.00  0.00     0.000 C 
BRANCH   2   3
ATOM      3  C   UNL     1     121.733 113.455 111.756  1.00  0.00     0.000 C 
BRANCH   3   4
ATOM      4  C   UNL     1     120.228 113.774 111.750  1.00  0.00     0.000 C 
BRANCH   4   5
ATOM      5  C   UNL     1     119.861 114.924 112.705  1.00  0.00     0.000 C 
BRANCH   5   6
ATOM      6  C   UNL     1     119.274 114.421 114.035  1.00  0.00     0.006 C 
BRANCH   6   7
ATOM      7  C   UNL     1     120.320 114.364 115.155  1.00  0.00     0.053 C 
BRANCH   7   8
ATOM      8  C   UNL     1     119.873 113.436 116.241  1.00  0.00     0.041 C 
ATOM      9  O   UNL     1     120.450 112.329 116.404  1.00  0.00    -0.550 OA
ATOM     10  O   UNL     1     118.788 113.771 117.040  1.00  0.00    -0.550 OA
ENDBRANCH   7   8
ENDBRANCH   6   7
ENDBRANCH   5   6
ENDBRANCH   4   5
ENDBRANCH   3   4
ENDBRANCH   2   3
ENDBRANCH   1   2
BRANCH   1  11
ATOM     11  C   UNL     1     120.303 110.059 112.427  1.00  0.00     0.000 C 
BRANCH  11  12
ATOM     12  C   UNL     1     118.946 110.341 111.752  1.00  0.00    -0.000 C 
BRANCH  12  13
ATOM     13  C   UNL     1     118.967 110.295 110.214  1.00  0.00    -0.000 C 
BRANCH  13  14
ATOM     14  C   UNL     1     120.235 109.624 109.658  1.00  0.00    -0.000 C 
BRANCH  14  15
ATOM     15  C   UNL     1     120.602 110.125 108.251  1.00  0.00    -0.000 C 
BRANCH  15  16
ATOM     16  C   UNL     1     120.044 111.530 107.964  1.00  0.00    -0.000 C 
BRANCH  16  17
ATOM     17  C   UNL     1     121.082 112.636 108.212  1.00  0.00    -0.003 C 
ATOM     18  C   UNL     1     122.519 112.112 108.221  1.00  0.00     0.004 C 
ENDBRANCH  16  17
ENDBRANCH  15  16
ENDBRANCH  14  15
ENDBRANCH  13  14
ENDBRANCH  12  13
ENDBRANCH  11  12
ENDBRANCH   1  11
TORSDOF 14
ENDMDL
