MODEL 1
REMARK VINA RESULT:     0.061      0.000      0.000
REMARK INTER + INTRA:          -3.026
REMARK INTER:                   0.155
REMARK INTRA:                  -3.181
REMARK UNBOUND:                -3.181
REMARK SMILES CCCCCCCCCCCCCCCCCCCCCCCCCCCC(=O)[O-]
REMARK SMILES IDX 15 1 16 2 17 3 18 4 19 5 20 6 21 7 22 8 23 9 24 10 25 11
REMARK SMILES IDX 26 12 27 13 28 14 29 15 30 16 14 17 13 18 12 19 11 20 10 21
REMARK SMILES IDX 9 22 8 23 7 24 6 25 5 26 4 27 3 28 2 29 1 30
REMARK H PARENT
REMARK Flexibility Score: inf
ROOT
ATOM      1  C   UNL     1     -44.622   8.689   9.221  1.00  0.00     0.000 C 
ENDROOT
BRANCH   1   2
ATOM      2  C   UNL     1     -43.459   9.562   9.730  1.00  0.00     0.000 C 
BRANCH   2   3
ATOM      3  C   UNL     1     -42.289   8.760  10.328  1.00  0.00     0.000 C 
BRANCH   3   4
ATOM      4  C   UNL     1     -41.719   7.730   9.340  1.00  0.00     0.000 C 
BRANCH   4   5
ATOM      5  C   UNL     1     -41.674   6.332   9.966  1.00  0.00     0.000 C 
BRANCH   5   6
ATOM      6  C   UNL     1     -42.109   5.266   8.951  1.00  0.00     0.000 C 
BRANCH   6   7
ATOM      7  C   UNL     1     -43.606   4.935   9.047  1.00  0.00     0.000 C 
BRANCH   7   8
ATOM      8  C   UNL     1     -44.164   5.134  10.466  1.00  0.00     0.000 C 
BRANCH   8   9
ATOM      9  C   UNL     1     -45.650   5.530  10.472  1.00  0.00     0.000 C 
BRANCH   9  10
ATOM     10  C   UNL     1     -46.294   5.528   9.070  1.00  0.00     0.000 C 
BRANCH  10  11
ATOM     11  C   UNL     1     -47.481   4.553   8.975  1.00  0.00     0.000 C 
BRANCH  11  12
ATOM     12  C   UNL     1     -47.519   3.775   7.646  1.00  0.00     0.006 C 
BRANCH  12  13
ATOM     13  C   UNL     1     -48.863   3.081   7.365  1.00  0.00     0.053 C 
BRANCH  13  14
ATOM     14  C   UNL     1     -48.810   1.600   7.591  1.00  0.00     0.041 C 
ATOM     15  O   UNL     1     -47.776   1.070   8.079  1.00  0.00    -0.550 OA
ATOM     16  O   UNL     1     -49.891   0.798   7.241  1.00  0.00    -0.550 OA
ENDBRANCH  13  14
ENDBRANCH  12  13
ENDBRANCH  11  12
ENDBRANCH  10  11
ENDBRANCH   9  10
ENDBRANCH   8   9
ENDBRANCH   7   8
ENDBRANCH   6   7
ENDBRANCH   5   6
ENDBRANCH   4   5
ENDBRANCH   3   4
ENDBRANCH   2   3
ENDBRANCH   1   2
BRANCH   1  17
ATOM     17  C   UNL     1     -45.062   9.072   7.794  1.00  0.00     0.000 C 
BRANCH  17  18
ATOM     18  C   UNL     1     -43.871   9.298   6.842  1.00  0.00     0.000 C 
BRANCH  18  19
ATOM     19  C   UNL     1     -43.370   8.011   6.145  1.00  0.00     0.000 C 
BRANCH  19  20
ATOM     20  C   UNL     1     -44.452   6.937   5.951  1.00  0.00     0.000 C 
BRANCH  20  21
ATOM     21  C   UNL     1     -43.866   5.549   5.647  1.00  0.00     0.000 C 
BRANCH  21  22
ATOM     22  C   UNL     1     -43.621   5.314   4.145  1.00  0.00    -0.000 C 
BRANCH  22  23
ATOM     23  C   UNL     1     -42.679   4.139   3.807  1.00  0.00    -0.000 C 
BRANCH  23  24
ATOM     24  C   UNL     1     -42.691   3.682   2.337  1.00  0.00    -0.000 C 
BRANCH  24  25
ATOM     25  C   UNL     1     -43.749   2.616   1.991  1.00  0.00    -0.000 C 
BRANCH  25  26
ATOM     26  C   UNL     1     -43.512   1.919   0.635  1.00  0.00    -0.000 C 
BRANCH  26  27
ATOM     27  C   UNL     1     -44.393   0.674   0.442  1.00  0.00    -0.000 C 
BRANCH  27  28
ATOM     28  C   UNL     1     -45.892   0.967   0.624  1.00  0.00    -0.000 C 
BRANCH  28  29
ATOM     29  C   UNL     1     -46.759   0.529  -0.576  1.00  0.00    -0.003 C 
ATOM     30  C   UNL     1     -48.113  -0.032  -0.143  1.00  0.00     0.004 C 
ENDBRANCH  28  29
ENDBRANCH  27  28
ENDBRANCH  26  27
ENDBRANCH  25  26
ENDBRANCH  24  25
ENDBRANCH  23  24
ENDBRANCH  22  23
ENDBRANCH  21  22
ENDBRANCH  20  21
ENDBRANCH  19  20
ENDBRANCH  18  19
ENDBRANCH  17  18
ENDBRANCH   1  17
TORSDOF 26
ENDMDL
MODEL 2
REMARK VINA RESULT:     0.074      2.142      7.007
REMARK INTER + INTRA:          -2.995
REMARK INTER:                   0.533
REMARK INTRA:                  -3.528
REMARK UNBOUND:                -3.181
REMARK SMILES CCCCCCCCCCCCCCCCCCCCCCCCCCCC(=O)[O-]
REMARK SMILES IDX 15 1 16 2 17 3 18 4 19 5 20 6 21 7 22 8 23 9 24 10 25 11
REMARK SMILES IDX 26 12 27 13 28 14 29 15 30 16 14 17 13 18 12 19 11 20 10 21
REMARK SMILES IDX 9 22 8 23 7 24 6 25 5 26 4 27 3 28 2 29 1 30
REMARK H PARENT
REMARK Flexibility Score: inf
ROOT
ATOM      1  C   UNL     1     -45.615   9.890   9.145  1.00  0.00     0.000 C 
ENDROOT
BRANCH   1   2
ATOM      2  C   UNL     1     -45.866   8.782   8.105  1.00  0.00     0.000 C 
BRANCH   2   3
ATOM      3  C   UNL     1     -44.646   8.466   7.220  1.00  0.00     0.000 C 
BRANCH   3   4
ATOM      4  C   UNL     1     -44.906   7.298   6.257  1.00  0.00     0.000 C 
BRANCH   4   5
ATOM      5  C   UNL     1     -43.593   6.748   5.690  1.00  0.00     0.000 C 
BRANCH   5   6
ATOM      6  C   UNL     1     -43.758   5.288   5.248  1.00  0.00     0.000 C 
BRANCH   6   7
ATOM      7  C   UNL     1     -42.955   4.960   3.980  1.00  0.00     0.000 C 
BRANCH   7   8
ATOM      8  C   UNL     1     -43.350   3.608   3.365  1.00  0.00     0.000 C 
BRANCH   8   9
ATOM      9  C   UNL     1     -42.732   3.383   1.974  1.00  0.00     0.000 C 
BRANCH   9  10
ATOM     10  C   UNL     1     -43.721   2.789   0.949  1.00  0.00     0.000 C 
BRANCH  10  11
ATOM     11  C   UNL     1     -43.152   1.544   0.244  1.00  0.00     0.000 C 
BRANCH  11  12
ATOM     12  C   UNL     1     -44.235   0.518  -0.136  1.00  0.00     0.006 C 
BRANCH  12  13
ATOM     13  C   UNL     1     -45.368   0.391   0.897  1.00  0.00     0.053 C 
BRANCH  13  14
ATOM     14  C   UNL     1     -46.727   0.586   0.296  1.00  0.00     0.041 C 
ATOM     15  O   UNL     1     -47.601   1.254   0.911  1.00  0.00    -0.550 OA
ATOM     16  O   UNL     1     -47.040   0.013  -0.932  1.00  0.00    -0.550 OA
ENDBRANCH  13  14
ENDBRANCH  12  13
ENDBRANCH  11  12
ENDBRANCH  10  11
ENDBRANCH   9  10
ENDBRANCH   8   9
ENDBRANCH   7   8
ENDBRANCH   6   7
ENDBRANCH   5   6
ENDBRANCH   4   5
ENDBRANCH   3   4
ENDBRANCH   2   3
ENDBRANCH   1   2
BRANCH   1  17
ATOM     17  C   UNL     1     -44.172   9.871   9.686  1.00  0.00     0.000 C 
BRANCH  17  18
ATOM     18  C   UNL     1     -44.009   8.971  10.926  1.00  0.00     0.000 C 
BRANCH  18  19
ATOM     19  C   UNL     1     -42.684   8.176  10.957  1.00  0.00     0.000 C 
BRANCH  19  20
ATOM     20  C   UNL     1     -41.701   8.545   9.834  1.00  0.00     0.000 C 
BRANCH  20  21
ATOM     21  C   UNL     1     -41.538   7.425   8.793  1.00  0.00     0.000 C 
BRANCH  21  22
ATOM     22  C   UNL     1     -41.169   6.067   9.421  1.00  0.00    -0.000 C 
BRANCH  22  23
ATOM     23  C   UNL     1     -42.083   4.889   9.025  1.00  0.00    -0.000 C 
BRANCH  23  24
ATOM     24  C   UNL     1     -43.592   5.199   9.008  1.00  0.00    -0.000 C 
BRANCH  24  25
ATOM     25  C   UNL     1     -44.347   4.849  10.306  1.00  0.00    -0.000 C 
BRANCH  25  26
ATOM     26  C   UNL     1     -45.788   5.395  10.355  1.00  0.00    -0.000 C 
BRANCH  26  27
ATOM     27  C   UNL     1     -46.467   5.412   8.976  1.00  0.00    -0.000 C 
BRANCH  27  28
ATOM     28  C   UNL     1     -47.632   4.413   8.869  1.00  0.00    -0.000 C 
BRANCH  28  29
ATOM     29  C   UNL     1     -47.696   3.680   7.512  1.00  0.00    -0.003 C 
ATOM     30  C   UNL     1     -48.827   2.653   7.458  1.00  0.00     0.004 C 
ENDBRANCH  28  29
ENDBRANCH  27  28
ENDBRANCH  26  27
ENDBRANCH  25  26
ENDBRANCH  24  25
ENDBRANCH  23  24
ENDBRANCH  22  23
ENDBRANCH  21  22
ENDBRANCH  20  21
ENDBRANCH  19  20
ENDBRANCH  18  19
ENDBRANCH  17  18
ENDBRANCH   1  17
TORSDOF 26
ENDMDL
MODEL 3
REMARK VINA RESULT:     0.111      4.369      7.258
REMARK INTER + INTRA:          -2.902
REMARK INTER:                  -4.038
REMARK INTRA:                   1.136
REMARK UNBOUND:                -3.181
REMARK SMILES CCCCCCCCCCCCCCCCCCCCCCCCCCCC(=O)[O-]
REMARK SMILES IDX 15 1 16 2 17 3 18 4 19 5 20 6 21 7 22 8 23 9 24 10 25 11
REMARK SMILES IDX 26 12 27 13 28 14 29 15 30 16 14 17 13 18 12 19 11 20 10 21
REMARK SMILES IDX 9 22 8 23 7 24 6 25 5 26 4 27 3 28 2 29 1 30
REMARK H PARENT
REMARK Flexibility Score: inf
ROOT
ATOM      1  C   UNL     1     -41.695   9.314   8.218  1.00  0.00     0.000 C 
ENDROOT
BRANCH   1   2
ATOM      2  C   UNL     1     -42.955  10.125   7.856  1.00  0.00     0.000 C 
BRANCH   2   3
ATOM      3  C   UNL     1     -44.122   9.941   8.843  1.00  0.00     0.000 C 
BRANCH   3   4
ATOM      4  C   UNL     1     -44.692   8.514   8.817  1.00  0.00     0.000 C 
BRANCH   4   5
ATOM      5  C   UNL     1     -44.018   7.671   7.728  1.00  0.00     0.000 C 
BRANCH   5   6
ATOM      6  C   UNL     1     -44.968   7.452   6.542  1.00  0.00     0.000 C 
BRANCH   6   7
ATOM      7  C   UNL     1     -45.306   5.970   6.321  1.00  0.00     0.000 C 
BRANCH   7   8
ATOM      8  C   UNL     1     -44.122   5.176   5.745  1.00  0.00     0.000 C 
BRANCH   8   9
ATOM      9  C   UNL     1     -43.493   5.854   4.515  1.00  0.00     0.000 C 
BRANCH   9  10
ATOM     10  C   UNL     1     -43.081   7.321   4.763  1.00  0.00     0.000 C 
BRANCH  10  11
ATOM     11  C   UNL     1     -44.229   8.305   4.478  1.00  0.00     0.000 C 
BRANCH  11  12
ATOM     12  C   UNL     1     -43.755   9.764   4.343  1.00  0.00     0.006 C 
BRANCH  12  13
ATOM     13  C   UNL     1     -42.722   9.985   3.224  1.00  0.00     0.053 C 
BRANCH  13  14
ATOM     14  C   UNL     1     -43.342  10.017   1.860  1.00  0.00     0.041 C 
ATOM     15  O   UNL     1     -42.614   9.969   0.832  1.00  0.00    -0.550 OA
ATOM     16  O   UNL     1     -44.721  10.125   1.719  1.00  0.00    -0.550 OA
ENDBRANCH  13  14
ENDBRANCH  12  13
ENDBRANCH  11  12
ENDBRANCH  10  11
ENDBRANCH   9  10
ENDBRANCH   8   9
ENDBRANCH   7   8
ENDBRANCH   6   7
ENDBRANCH   5   6
ENDBRANCH   4   5
ENDBRANCH   3   4
ENDBRANCH   2   3
ENDBRANCH   1   2
BRANCH   1  17
ATOM     17  C   UNL     1     -40.806  10.041   9.246  1.00  0.00     0.000 C 
BRANCH  17  18
ATOM     18  C   UNL     1     -40.753   9.319  10.607  1.00  0.00     0.000 C 
BRANCH  18  19
ATOM     19  C   UNL     1     -42.031   8.514  10.942  1.00  0.00     0.000 C 
BRANCH  19  20
ATOM     20  C   UNL     1     -41.796   7.005  11.125  1.00  0.00     0.000 C 
BRANCH  20  21
ATOM     21  C   UNL     1     -41.133   6.353   9.901  1.00  0.00     0.000 C 
BRANCH  21  22
ATOM     22  C   UNL     1     -41.894   5.114   9.392  1.00  0.00    -0.000 C 
BRANCH  22  23
ATOM     23  C   UNL     1     -43.425   5.280   9.285  1.00  0.00    -0.000 C 
BRANCH  23  24
ATOM     24  C   UNL     1     -44.241   4.641  10.424  1.00  0.00    -0.000 C 
BRANCH  24  25
ATOM     25  C   UNL     1     -45.575   5.341  10.747  1.00  0.00    -0.000 C 
BRANCH  25  26
ATOM     26  C   UNL     1     -46.535   5.439   9.544  1.00  0.00    -0.000 C 
BRANCH  26  27
ATOM     27  C   UNL     1     -47.443   4.207   9.403  1.00  0.00    -0.000 C 
BRANCH  27  28
ATOM     28  C   UNL     1     -48.295   4.233   8.123  1.00  0.00    -0.000 C 
BRANCH  28  29
ATOM     29  C   UNL     1     -48.258   2.911   7.327  1.00  0.00    -0.003 C 
ATOM     30  C   UNL     1     -48.274   1.682   8.236  1.00  0.00     0.004 C 
ENDBRANCH  28  29
ENDBRANCH  27  28
ENDBRANCH  26  27
ENDBRANCH  25  26
ENDBRANCH  24  25
ENDBRANCH  23  24
ENDBRANCH  22  23
ENDBRANCH  21  22
ENDBRANCH  20  21
ENDBRANCH  19  20
ENDBRANCH  18  19
ENDBRANCH  17  18
ENDBRANCH   1  17
TORSDOF 26
ENDMDL
MODEL 4
REMARK VINA RESULT:     0.128      2.316      6.739
REMARK INTER + INTRA:          -2.859
REMARK INTER:                  -0.667
REMARK INTRA:                  -2.191
REMARK UNBOUND:                -3.181
REMARK SMILES CCCCCCCCCCCCCCCCCCCCCCCCCCCC(=O)[O-]
REMARK SMILES IDX 15 1 16 2 17 3 18 4 19 5 20 6 21 7 22 8 23 9 24 10 25 11
REMARK SMILES IDX 26 12 27 13 28 14 29 15 30 16 14 17 13 18 12 19 11 20 10 21
REMARK SMILES IDX 9 22 8 23 7 24 6 25 5 26 4 27 3 28 2 29 1 30
REMARK H PARENT
REMARK Flexibility Score: inf
ROOT
ATOM      1  C   UNL     1     -43.137   9.711  10.888  1.00  0.00     0.000 C 
ENDROOT
BRANCH   1   2
ATOM      2  C   UNL     1     -44.388  10.125  10.090  1.00  0.00     0.000 C 
BRANCH   2   3
ATOM      3  C   UNL     1     -45.172   8.940   9.497  1.00  0.00     0.000 C 
BRANCH   3   4
ATOM      4  C   UNL     1     -45.567   9.173   8.031  1.00  0.00     0.000 C 
BRANCH   4   5
ATOM      5  C   UNL     1     -45.791   7.843   7.302  1.00  0.00     0.000 C 
BRANCH   5   6
ATOM      6  C   UNL     1     -44.479   7.055   7.189  1.00  0.00     0.000 C 
BRANCH   6   7
ATOM      7  C   UNL     1     -44.617   5.800   6.315  1.00  0.00     0.000 C 
BRANCH   7   8
ATOM      8  C   UNL     1     -43.702   5.838   5.080  1.00  0.00     0.000 C 
BRANCH   8   9
ATOM      9  C   UNL     1     -43.388   4.436   4.528  1.00  0.00     0.000 C 
BRANCH   9  10
ATOM     10  C   UNL     1     -43.037   4.430   3.026  1.00  0.00     0.000 C 
BRANCH  10  11
ATOM     11  C   UNL     1     -43.027   3.009   2.435  1.00  0.00     0.000 C 
BRANCH  11  12
ATOM     12  C   UNL     1     -43.947   2.859   1.209  1.00  0.00     0.006 C 
BRANCH  12  13
ATOM     13  C   UNL     1     -43.684   1.590   0.381  1.00  0.00     0.053 C 
BRANCH  13  14
ATOM     14  C   UNL     1     -44.787   0.581   0.496  1.00  0.00     0.041 C 
ATOM     15  O   UNL     1     -44.523  -0.651   0.471  1.00  0.00    -0.550 OA
ATOM     16  O   UNL     1     -46.109   0.998   0.606  1.00  0.00    -0.550 OA
ENDBRANCH  13  14
ENDBRANCH  12  13
ENDBRANCH  11  12
ENDBRANCH  10  11
ENDBRANCH   9  10
ENDBRANCH   8   9
ENDBRANCH   7   8
ENDBRANCH   6   7
ENDBRANCH   5   6
ENDBRANCH   4   5
ENDBRANCH   3   4
ENDBRANCH   2   3
ENDBRANCH   1   2
BRANCH   1  17
ATOM     17  C   UNL     1     -41.830  10.004  10.125  1.00  0.00     0.000 C 
BRANCH  17  18
ATOM     18  C   UNL     1     -41.664   9.130   8.866  1.00  0.00     0.000 C 
BRANCH  18  19
ATOM     19  C   UNL     1     -42.035   7.644   9.079  1.00  0.00     0.000 C 
BRANCH  19  20
ATOM     20  C   UNL     1     -40.922   6.803   9.726  1.00  0.00     0.000 C 
BRANCH  20  21
ATOM     21  C   UNL     1     -41.400   6.040  10.972  1.00  0.00     0.000 C 
BRANCH  21  22
ATOM     22  C   UNL     1     -42.231   4.789  10.632  1.00  0.00    -0.000 C 
BRANCH  22  23
ATOM     23  C   UNL     1     -43.547   5.059   9.873  1.00  0.00    -0.000 C 
BRANCH  23  24
ATOM     24  C   UNL     1     -44.833   4.912  10.706  1.00  0.00    -0.000 C 
BRANCH  24  25
ATOM     25  C   UNL     1     -45.837   6.075  10.573  1.00  0.00    -0.000 C 
BRANCH  25  26
ATOM     26  C   UNL     1     -47.197   5.659   9.977  1.00  0.00    -0.000 C 
BRANCH  26  27
ATOM     27  C   UNL     1     -47.059   4.668   8.810  1.00  0.00    -0.000 C 
BRANCH  27  28
ATOM     28  C   UNL     1     -48.199   3.637   8.761  1.00  0.00    -0.000 C 
BRANCH  28  29
ATOM     29  C   UNL     1     -48.489   3.102   7.343  1.00  0.00    -0.003 C 
ATOM     30  C   UNL     1     -48.915   1.634   7.350  1.00  0.00     0.004 C 
ENDBRANCH  28  29
ENDBRANCH  27  28
ENDBRANCH  26  27
ENDBRANCH  25  26
ENDBRANCH  24  25
ENDBRANCH  23  24
ENDBRANCH  22  23
ENDBRANCH  21  22
ENDBRANCH  20  21
ENDBRANCH  19  20
ENDBRANCH  18  19
ENDBRANCH  17  18
ENDBRANCH   1  17
TORSDOF 26
ENDMDL
MODEL 5
REMARK VINA RESULT:     0.182      4.619      7.206
REMARK INTER + INTRA:          -2.723
REMARK INTER:                  -4.094
REMARK INTRA:                   1.371
REMARK UNBOUND:                -3.181
REMARK SMILES CCCCCCCCCCCCCCCCCCCCCCCCCCCC(=O)[O-]
REMARK SMILES IDX 15 1 16 2 17 3 18 4 19 5 20 6 21 7 22 8 23 9 24 10 25 11
REMARK SMILES IDX 26 12 27 13 28 14 29 15 30 16 14 17 13 18 12 19 11 20 10 21
REMARK SMILES IDX 9 22 8 23 7 24 6 25 5 26 4 27 3 28 2 29 1 30
REMARK H PARENT
REMARK Flexibility Score: inf
ROOT
ATOM      1  C   UNL     1     -43.217   8.973   9.784  1.00  0.00     0.000 C 
ENDROOT
BRANCH   1   2
ATOM      2  C   UNL     1     -44.326  10.036   9.673  1.00  0.00     0.000 C 
BRANCH   2   3
ATOM      3  C   UNL     1     -45.610   9.532   8.989  1.00  0.00     0.000 C 
BRANCH   3   4
ATOM      4  C   UNL     1     -45.500   8.065   8.545  1.00  0.00     0.000 C 
BRANCH   4   5
ATOM      5  C   UNL     1     -45.391   7.958   7.020  1.00  0.00     0.000 C 
BRANCH   5   6
ATOM      6  C   UNL     1     -45.783   6.553   6.542  1.00  0.00     0.000 C 
BRANCH   6   7
ATOM      7  C   UNL     1     -44.616   5.557   6.617  1.00  0.00     0.000 C 
BRANCH   7   8
ATOM      8  C   UNL     1     -43.246   6.252   6.592  1.00  0.00     0.000 C 
BRANCH   8   9
ATOM      9  C   UNL     1     -43.285   7.621   5.892  1.00  0.00     0.000 C 
BRANCH   9  10
ATOM     10  C   UNL     1     -43.663   7.540   4.398  1.00  0.00     0.000 C 
BRANCH  10  11
ATOM     11  C   UNL     1     -43.012   8.661   3.570  1.00  0.00     0.000 C 
BRANCH  11  12
ATOM     12  C   UNL     1     -43.211  10.059   4.184  1.00  0.00     0.006 C 
BRANCH  12  13
ATOM     13  C   UNL     1     -43.173  10.078   5.722  1.00  0.00     0.053 C 
BRANCH  13  14
ATOM     14  C   UNL     1     -41.778  10.102   6.268  1.00  0.00     0.041 C 
ATOM     15  O   UNL     1     -41.586  10.125   7.514  1.00  0.00    -0.550 OA
ATOM     16  O   UNL     1     -40.687  10.125   5.406  1.00  0.00    -0.550 OA
ENDBRANCH  13  14
ENDBRANCH  12  13
ENDBRANCH  11  12
ENDBRANCH  10  11
ENDBRANCH   9  10
ENDBRANCH   8   9
ENDBRANCH   7   8
ENDBRANCH   6   7
ENDBRANCH   5   6
ENDBRANCH   4   5
ENDBRANCH   3   4
ENDBRANCH   2   3
ENDBRANCH   1   2
BRANCH   1  17
ATOM     17  C   UNL     1     -42.242   9.261  10.943  1.00  0.00     0.000 C 
BRANCH  17  18
ATOM     18  C   UNL     1     -41.002   8.346  10.922  1.00  0.00     0.000 C 
BRANCH  18  19
ATOM     19  C   UNL     1     -40.709   7.714   9.541  1.00  0.00     0.000 C 
BRANCH  19  20
ATOM     20  C   UNL     1     -41.174   6.254   9.405  1.00  0.00     0.000 C 
BRANCH  20  21
ATOM     21  C   UNL     1     -41.601   5.637  10.747  1.00  0.00     0.000 C 
BRANCH  21  22
ATOM     22  C   UNL     1     -42.449   4.363  10.582  1.00  0.00    -0.000 C 
BRANCH  22  23
ATOM     23  C   UNL     1     -43.840   4.575   9.948  1.00  0.00    -0.000 C 
BRANCH  23  24
ATOM     24  C   UNL     1     -44.804   5.468  10.752  1.00  0.00    -0.000 C 
BRANCH  24  25
ATOM     25  C   UNL     1     -46.297   5.111  10.615  1.00  0.00    -0.000 C 
BRANCH  25  26
ATOM     26  C   UNL     1     -46.821   5.166   9.166  1.00  0.00    -0.000 C 
BRANCH  26  27
ATOM     27  C   UNL     1     -48.124   4.374   8.972  1.00  0.00    -0.000 C 
BRANCH  27  28
ATOM     28  C   UNL     1     -47.956   3.162   8.040  1.00  0.00    -0.000 C 
BRANCH  28  29
ATOM     29  C   UNL     1     -49.280   2.673   7.415  1.00  0.00    -0.003 C 
ATOM     30  C   UNL     1     -49.218   1.206   6.992  1.00  0.00     0.004 C 
ENDBRANCH  28  29
ENDBRANCH  27  28
ENDBRANCH  26  27
ENDBRANCH  25  26
ENDBRANCH  24  25
ENDBRANCH  23  24
ENDBRANCH  22  23
ENDBRANCH  21  22
ENDBRANCH  20  21
ENDBRANCH  19  20
ENDBRANCH  18  19
ENDBRANCH  17  18
ENDBRANCH   1  17
TORSDOF 26
ENDMDL
MODEL 6
REMARK VINA RESULT:     0.211      1.499      2.323
REMARK INTER + INTRA:          -2.649
REMARK INTER:                   0.552
REMARK INTRA:                  -3.201
REMARK UNBOUND:                -3.181
REMARK SMILES CCCCCCCCCCCCCCCCCCCCCCCCCCCC(=O)[O-]
REMARK SMILES IDX 15 1 16 2 17 3 18 4 19 5 20 6 21 7 22 8 23 9 24 10 25 11
REMARK SMILES IDX 26 12 27 13 28 14 29 15 30 16 14 17 13 18 12 19 11 20 10 21
REMARK SMILES IDX 9 22 8 23 7 24 6 25 5 26 4 27 3 28 2 29 1 30
REMARK H PARENT
REMARK Flexibility Score: inf
ROOT
ATOM      1  C   UNL     1     -44.906   9.110   8.624  1.00  0.00     0.000 C 
ENDROOT
BRANCH   1   2
ATOM      2  C   UNL     1     -44.873   9.847   9.977  1.00  0.00     0.000 C 
BRANCH   2   3
ATOM      3  C   UNL     1     -43.885   9.246  10.993  1.00  0.00     0.000 C 
BRANCH   3   4
ATOM      4  C   UNL     1     -42.421   9.413  10.557  1.00  0.00     0.000 C 
BRANCH   4   5
ATOM      5  C   UNL     1     -41.635   8.112  10.759  1.00  0.00     0.000 C 
BRANCH   5   6
ATOM      6  C   UNL     1     -41.251   7.492   9.408  1.00  0.00     0.000 C 
BRANCH   6   7
ATOM      7  C   UNL     1     -42.408   6.710   8.768  1.00  0.00     0.000 C 
BRANCH   7   8
ATOM      8  C   UNL     1     -42.179   5.190   8.797  1.00  0.00     0.000 C 
BRANCH   8   9
ATOM      9  C   UNL     1     -42.849   4.511  10.004  1.00  0.00     0.000 C 
BRANCH   9  10
ATOM     10  C   UNL     1     -43.576   5.497  10.943  1.00  0.00     0.000 C 
BRANCH  10  11
ATOM     11  C   UNL     1     -45.102   5.301  10.925  1.00  0.00     0.000 C 
BRANCH  11  12
ATOM     12  C   UNL     1     -45.811   6.176   9.874  1.00  0.00     0.006 C 
BRANCH  12  13
ATOM     13  C   UNL     1     -46.000   5.488   8.512  1.00  0.00     0.053 C 
BRANCH  13  14
ATOM     14  C   UNL     1     -47.241   4.649   8.452  1.00  0.00     0.041 C 
ATOM     15  O   UNL     1     -47.535   4.028   7.396  1.00  0.00    -0.550 OA
ATOM     16  O   UNL     1     -48.087   4.569   9.552  1.00  0.00    -0.550 OA
ENDBRANCH  13  14
ENDBRANCH  12  13
ENDBRANCH  11  12
ENDBRANCH  10  11
ENDBRANCH   9  10
ENDBRANCH   8   9
ENDBRANCH   7   8
ENDBRANCH   6   7
ENDBRANCH   5   6
ENDBRANCH   4   5
ENDBRANCH   3   4
ENDBRANCH   2   3
ENDBRANCH   1   2
BRANCH   1  17
ATOM     17  C   UNL     1     -44.490  10.019   7.451  1.00  0.00     0.000 C 
BRANCH  17  18
ATOM     18  C   UNL     1     -42.993   9.902   7.105  1.00  0.00     0.000 C 
BRANCH  18  19
ATOM     19  C   UNL     1     -42.711   9.182   5.766  1.00  0.00     0.000 C 
BRANCH  19  20
ATOM     20  C   UNL     1     -43.929   8.455   5.172  1.00  0.00     0.000 C 
BRANCH  20  21
ATOM     21  C   UNL     1     -43.979   6.967   5.555  1.00  0.00     0.000 C 
BRANCH  21  22
ATOM     22  C   UNL     1     -43.661   6.029   4.376  1.00  0.00    -0.000 C 
BRANCH  22  23
ATOM     23  C   UNL     1     -43.022   4.679   4.762  1.00  0.00    -0.000 C 
BRANCH  23  24
ATOM     24  C   UNL     1     -42.358   3.907   3.606  1.00  0.00    -0.000 C 
BRANCH  24  25
ATOM     25  C   UNL     1     -43.288   3.569   2.425  1.00  0.00    -0.000 C 
BRANCH  25  26
ATOM     26  C   UNL     1     -42.604   2.758   1.305  1.00  0.00    -0.000 C 
BRANCH  26  27
ATOM     27  C   UNL     1     -43.609   2.061   0.374  1.00  0.00    -0.000 C 
BRANCH  27  28
ATOM     28  C   UNL     1     -44.672   1.253   1.136  1.00  0.00    -0.000 C 
BRANCH  28  29
ATOM     29  C   UNL     1     -45.224   0.050   0.342  1.00  0.00    -0.003 C 
ATOM     30  C   UNL     1     -46.742   0.110   0.172  1.00  0.00     0.004 C 
ENDBRANCH  28  29
ENDBRANCH  27  28
ENDBRANCH  26  27
ENDBRANCH  25  26
ENDBRANCH  24  25
ENDBRANCH  23  24
ENDBRANCH  22  23
ENDBRANCH  21  22
ENDBRANCH  20  21
ENDBRANCH  19  20
ENDBRANCH  18  19
ENDBRANCH  17  18
ENDBRANCH   1  17
TORSDOF 26
ENDMDL
MODEL 7
REMARK VINA RESULT:     0.264      1.969      3.666
REMARK INTER + INTRA:          -2.514
REMARK INTER:                   0.541
REMARK INTRA:                  -3.055
REMARK UNBOUND:                -3.181
REMARK SMILES CCCCCCCCCCCCCCCCCCCCCCCCCCCC(=O)[O-]
REMARK SMILES IDX 15 1 16 2 17 3 18 4 19 5 20 6 21 7 22 8 23 9 24 10 25 11
REMARK SMILES IDX 26 12 27 13 28 14 29 15 30 16 14 17 13 18 12 19 11 20 10 21
REMARK SMILES IDX 9 22 8 23 7 24 6 25 5 26 4 27 3 28 2 29 1 30
REMARK H PARENT
REMARK Flexibility Score: inf
ROOT
ATOM      1  C   UNL     1     -41.253   6.847   9.818  1.00  0.00     0.000 C 
ENDROOT
BRANCH   1   2
ATOM      2  C   UNL     1     -41.563   7.961  10.836  1.00  0.00     0.000 C 
BRANCH   2   3
ATOM      3  C   UNL     1     -40.930   9.320  10.487  1.00  0.00     0.000 C 
BRANCH   3   4
ATOM      4  C   UNL     1     -41.781  10.125   9.492  1.00  0.00     0.000 C 
BRANCH   4   5
ATOM      5  C   UNL     1     -41.217  10.016   8.071  1.00  0.00     0.000 C 
BRANCH   5   6
ATOM      6  C   UNL     1     -42.321   9.637   7.074  1.00  0.00     0.000 C 
BRANCH   6   7
ATOM      7  C   UNL     1     -43.412   8.760   7.706  1.00  0.00     0.000 C 
BRANCH   7   8
ATOM      8  C   UNL     1     -44.829   9.271   7.401  1.00  0.00     0.000 C 
BRANCH   8   9
ATOM      9  C   UNL     1     -45.560   9.783   8.655  1.00  0.00     0.000 C 
BRANCH   9  10
ATOM     10  C   UNL     1     -44.792   9.519   9.967  1.00  0.00     0.000 C 
BRANCH  10  11
ATOM     11  C   UNL     1     -45.507   8.494  10.865  1.00  0.00     0.000 C 
BRANCH  11  12
ATOM     12  C   UNL     1     -44.941   7.069  10.724  1.00  0.00     0.006 C 
BRANCH  12  13
ATOM     13  C   UNL     1     -46.006   5.962  10.800  1.00  0.00     0.053 C 
BRANCH  13  14
ATOM     14  C   UNL     1     -46.562   5.597   9.456  1.00  0.00     0.041 C 
ATOM     15  O   UNL     1     -47.346   4.618   9.340  1.00  0.00    -0.550 OA
ATOM     16  O   UNL     1     -46.196   6.321   8.326  1.00  0.00    -0.550 OA
ENDBRANCH  13  14
ENDBRANCH  12  13
ENDBRANCH  11  12
ENDBRANCH  10  11
ENDBRANCH   9  10
ENDBRANCH   8   9
ENDBRANCH   7   8
ENDBRANCH   6   7
ENDBRANCH   5   6
ENDBRANCH   4   5
ENDBRANCH   3   4
ENDBRANCH   2   3
ENDBRANCH   1   2
BRANCH   1  17
ATOM     17  C   UNL     1     -41.699   5.457  10.316  1.00  0.00     0.000 C 
BRANCH  17  18
ATOM     18  C   UNL     1     -42.313   4.591   9.199  1.00  0.00     0.000 C 
BRANCH  18  19
ATOM     19  C   UNL     1     -43.166   5.386   8.183  1.00  0.00     0.000 C 
BRANCH  19  20
ATOM     20  C   UNL     1     -42.912   5.008   6.714  1.00  0.00     0.000 C 
BRANCH  20  21
ATOM     21  C   UNL     1     -44.010   5.520   5.769  1.00  0.00     0.000 C 
BRANCH  21  22
ATOM     22  C   UNL     1     -43.647   5.361   4.280  1.00  0.00    -0.000 C 
BRANCH  22  23
ATOM     23  C   UNL     1     -42.348   4.577   4.000  1.00  0.00    -0.000 C 
BRANCH  23  24
ATOM     24  C   UNL     1     -42.507   3.330   3.110  1.00  0.00    -0.000 C 
BRANCH  24  25
ATOM     25  C   UNL     1     -43.709   3.362   2.147  1.00  0.00    -0.000 C 
BRANCH  25  26
ATOM     26  C   UNL     1     -43.673   2.262   1.067  1.00  0.00    -0.000 C 
BRANCH  26  27
ATOM     27  C   UNL     1     -44.680   1.132   1.332  1.00  0.00    -0.000 C 
BRANCH  27  28
ATOM     28  C   UNL     1     -44.704   0.075   0.215  1.00  0.00    -0.000 C 
BRANCH  28  29
ATOM     29  C   UNL     1     -46.076  -0.063  -0.479  1.00  0.00    -0.003 C 
ATOM     30  C   UNL     1     -47.178   0.708   0.248  1.00  0.00     0.004 C 
ENDBRANCH  28  29
ENDBRANCH  27  28
ENDBRANCH  26  27
ENDBRANCH  25  26
ENDBRANCH  24  25
ENDBRANCH  23  24
ENDBRANCH  22  23
ENDBRANCH  21  22
ENDBRANCH  20  21
ENDBRANCH  19  20
ENDBRANCH  18  19
ENDBRANCH  17  18
ENDBRANCH   1  17
TORSDOF 26
ENDMDL
MODEL 8
REMARK VINA RESULT:     0.454      2.372      6.297
REMARK INTER + INTRA:          -2.035
REMARK INTER:                   1.535
REMARK INTRA:                  -3.570
REMARK UNBOUND:                -3.181
REMARK SMILES CCCCCCCCCCCCCCCCCCCCCCCCCCCC(=O)[O-]
REMARK SMILES IDX 15 1 16 2 17 3 18 4 19 5 20 6 21 7 22 8 23 9 24 10 25 11
REMARK SMILES IDX 26 12 27 13 28 14 29 15 30 16 14 17 13 18 12 19 11 20 10 21
REMARK SMILES IDX 9 22 8 23 7 24 6 25 5 26 4 27 3 28 2 29 1 30
REMARK H PARENT
REMARK Flexibility Score: inf
ROOT
ATOM      1  C   UNL     1     -41.168   9.741  10.034  1.00  0.00     0.000 C 
ENDROOT
BRANCH   1   2
ATOM      2  C   UNL     1     -41.728   8.566  10.857  1.00  0.00     0.000 C 
BRANCH   2   3
ATOM      3  C   UNL     1     -41.071   7.211  10.540  1.00  0.00     0.000 C 
BRANCH   3   4
ATOM      4  C   UNL     1     -41.954   6.021  10.945  1.00  0.00     0.000 C 
BRANCH   4   5
ATOM      5  C   UNL     1     -42.158   5.060   9.768  1.00  0.00     0.000 C 
BRANCH   5   6
ATOM      6  C   UNL     1     -42.218   5.829   8.440  1.00  0.00     0.000 C 
BRANCH   6   7
ATOM      7  C   UNL     1     -43.233   5.229   7.456  1.00  0.00     0.000 C 
BRANCH   7   8
ATOM      8  C   UNL     1     -42.638   5.014   6.055  1.00  0.00     0.000 C 
BRANCH   8   9
ATOM      9  C   UNL     1     -43.689   4.566   5.024  1.00  0.00     0.000 C 
BRANCH   9  10
ATOM     10  C   UNL     1     -43.228   4.734   3.561  1.00  0.00     0.000 C 
BRANCH  10  11
ATOM     11  C   UNL     1     -42.948   3.382   2.880  1.00  0.00     0.000 C 
BRANCH  11  12
ATOM     12  C   UNL     1     -43.905   3.085   1.711  1.00  0.00     0.006 C 
BRANCH  12  13
ATOM     13  C   UNL     1     -43.448   1.929   0.806  1.00  0.00     0.053 C 
BRANCH  13  14
ATOM     14  C   UNL     1     -44.531   0.923   0.556  1.00  0.00     0.041 C 
ATOM     15  O   UNL     1     -44.263  -0.166  -0.018  1.00  0.00    -0.550 OA
ATOM     16  O   UNL     1     -45.841   1.195   0.934  1.00  0.00    -0.550 OA
ENDBRANCH  13  14
ENDBRANCH  12  13
ENDBRANCH  11  12
ENDBRANCH  10  11
ENDBRANCH   9  10
ENDBRANCH   8   9
ENDBRANCH   7   8
ENDBRANCH   6   7
ENDBRANCH   5   6
ENDBRANCH   4   5
ENDBRANCH   3   4
ENDBRANCH   2   3
ENDBRANCH   1   2
BRANCH   1  17
ATOM     17  C   UNL     1     -42.076  10.109   8.843  1.00  0.00     0.000 C 
BRANCH  17  18
ATOM     18  C   UNL     1     -41.556   9.555   7.502  1.00  0.00     0.000 C 
BRANCH  18  19
ATOM     19  C   UNL     1     -42.629   8.816   6.668  1.00  0.00     0.000 C 
BRANCH  19  20
ATOM     20  C   UNL     1     -44.072   9.258   6.965  1.00  0.00     0.000 C 
BRANCH  20  21
ATOM     21  C   UNL     1     -45.029   8.071   7.160  1.00  0.00     0.000 C 
BRANCH  21  22
ATOM     22  C   UNL     1     -45.788   8.122   8.499  1.00  0.00    -0.000 C 
BRANCH  22  23
ATOM     23  C   UNL     1     -45.009   7.583   9.718  1.00  0.00    -0.000 C 
BRANCH  23  24
ATOM     24  C   UNL     1     -45.771   6.573  10.596  1.00  0.00    -0.000 C 
BRANCH  24  25
ATOM     25  C   UNL     1     -45.602   5.095  10.191  1.00  0.00    -0.000 C 
BRANCH  25  26
ATOM     26  C   UNL     1     -46.353   4.713   8.899  1.00  0.00    -0.000 C 
BRANCH  26  27
ATOM     27  C   UNL     1     -47.873   4.605   9.102  1.00  0.00    -0.000 C 
BRANCH  27  28
ATOM     28  C   UNL     1     -48.576   3.835   7.972  1.00  0.00    -0.000 C 
BRANCH  28  29
ATOM     29  C   UNL     1     -47.947   2.457   7.676  1.00  0.00    -0.003 C 
ATOM     30  C   UNL     1     -48.990   1.343   7.603  1.00  0.00     0.004 C 
ENDBRANCH  28  29
ENDBRANCH  27  28
ENDBRANCH  26  27
ENDBRANCH  25  26
ENDBRANCH  24  25
ENDBRANCH  23  24
ENDBRANCH  22  23
ENDBRANCH  21  22
ENDBRANCH  20  21
ENDBRANCH  19  20
ENDBRANCH  18  19
ENDBRANCH  17  18
ENDBRANCH   1  17
TORSDOF 26
ENDMDL
MODEL 9
REMARK VINA RESULT:     0.641      2.759      6.442
REMARK INTER + INTRA:          -1.566
REMARK INTER:                  -0.416
REMARK INTRA:                  -1.150
REMARK UNBOUND:                -3.181
REMARK SMILES CCCCCCCCCCCCCCCCCCCCCCCCCCCC(=O)[O-]
REMARK SMILES IDX 15 1 16 2 17 3 18 4 19 5 20 6 21 7 22 8 23 9 24 10 25 11
REMARK SMILES IDX 26 12 27 13 28 14 29 15 30 16 14 17 13 18 12 19 11 20 10 21
REMARK SMILES IDX 9 22 8 23 7 24 6 25 5 26 4 27 3 28 2 29 1 30
REMARK H PARENT
REMARK Flexibility Score: inf
ROOT
ATOM      1  C   UNL     1     -44.443   7.890   6.736  1.00  0.00     0.000 C 
ENDROOT
BRANCH   1   2
ATOM      2  C   UNL     1     -43.639   8.819   5.806  1.00  0.00     0.000 C 
BRANCH   2   3
ATOM      3  C   UNL     1     -43.517   8.304   4.361  1.00  0.00     0.000 C 
BRANCH   3   4
ATOM      4  C   UNL     1     -42.760   6.969   4.276  1.00  0.00     0.000 C 
BRANCH   4   5
ATOM      5  C   UNL     1     -43.605   5.902   3.570  1.00  0.00     0.000 C 
BRANCH   5   6
ATOM      6  C   UNL     1     -43.396   4.525   4.218  1.00  0.00     0.000 C 
BRANCH   6   7
ATOM      7  C   UNL     1     -43.521   4.568   5.748  1.00  0.00     0.000 C 
BRANCH   7   8
ATOM      8  C   UNL     1     -44.920   5.002   6.213  1.00  0.00     0.000 C 
BRANCH   8   9
ATOM      9  C   UNL     1     -44.999   5.228   7.733  1.00  0.00     0.000 C 
BRANCH   9  10
ATOM     10  C   UNL     1     -46.394   4.942   8.327  1.00  0.00     0.000 C 
BRANCH  10  11
ATOM     11  C   UNL     1     -47.049   3.696   7.704  1.00  0.00     0.000 C 
BRANCH  11  12
ATOM     12  C   UNL     1     -48.577   3.658   7.894  1.00  0.00     0.006 C 
BRANCH  12  13
ATOM     13  C   UNL     1     -49.289   2.610   7.022  1.00  0.00     0.053 C 
BRANCH  13  14
ATOM     14  C   UNL     1     -49.071   1.207   7.504  1.00  0.00     0.041 C 
ATOM     15  O   UNL     1     -49.930   0.316   7.266  1.00  0.00    -0.550 OA
ATOM     16  O   UNL     1     -47.933   0.887   8.236  1.00  0.00    -0.550 OA
ENDBRANCH  13  14
ENDBRANCH  12  13
ENDBRANCH  11  12
ENDBRANCH  10  11
ENDBRANCH   9  10
ENDBRANCH   8   9
ENDBRANCH   7   8
ENDBRANCH   6   7
ENDBRANCH   5   6
ENDBRANCH   4   5
ENDBRANCH   3   4
ENDBRANCH   2   3
ENDBRANCH   1   2
BRANCH   1  17
ATOM     17  C   UNL     1     -45.381   8.672   7.677  1.00  0.00     0.000 C 
BRANCH  17  18
ATOM     18  C   UNL     1     -44.735   9.955   8.234  1.00  0.00     0.000 C 
BRANCH  18  19
ATOM     19  C   UNL     1     -44.890  10.125   9.764  1.00  0.00     0.000 C 
BRANCH  19  20
ATOM     20  C   UNL     1     -43.622   9.791  10.567  1.00  0.00     0.000 C 
BRANCH  20  21
ATOM     21  C   UNL     1     -42.331  10.014   9.761  1.00  0.00     0.000 C 
BRANCH  21  22
ATOM     22  C   UNL     1     -41.131   9.222  10.314  1.00  0.00    -0.000 C 
BRANCH  22  23
ATOM     23  C   UNL     1     -41.069   7.740   9.890  1.00  0.00    -0.000 C 
BRANCH  23  24
ATOM     24  C   UNL     1     -42.071   7.321   8.798  1.00  0.00    -0.000 C 
BRANCH  24  25
ATOM     25  C   UNL     1     -42.199   5.802   8.573  1.00  0.00    -0.000 C 
BRANCH  25  26
ATOM     26  C   UNL     1     -41.659   4.951   9.741  1.00  0.00    -0.000 C 
BRANCH  26  27
ATOM     27  C   UNL     1     -42.326   5.290  11.084  1.00  0.00    -0.000 C 
BRANCH  27  28
ATOM     28  C   UNL     1     -43.862   5.260  11.015  1.00  0.00    -0.000 C 
BRANCH  28  29
ATOM     29  C   UNL     1     -44.513   6.658  11.070  1.00  0.00    -0.003 C 
ATOM     30  C   UNL     1     -46.039   6.590  11.122  1.00  0.00     0.004 C 
ENDBRANCH  28  29
ENDBRANCH  27  28
ENDBRANCH  26  27
ENDBRANCH  25  26
ENDBRANCH  24  25
ENDBRANCH  23  24
ENDBRANCH  22  23
ENDBRANCH  21  22
ENDBRANCH  20  21
ENDBRANCH  19  20
ENDBRANCH  18  19
ENDBRANCH  17  18
ENDBRANCH   1  17
TORSDOF 26
ENDMDL
