MODEL 1
REMARK VINA RESULT:    -4.673      0.000      0.000
REMARK INTER + INTRA:         -14.162
REMARK INTER:                 -10.683
REMARK INTRA:                  -3.479
REMARK UNBOUND:                -3.479
REMARK SMILES CCCCCCCCCCCCCCCCCCCCCCCC(=O)[O-]
REMARK SMILES IDX 13 1 14 2 15 3 16 4 17 5 18 6 19 7 20 8 21 9 22 10 23 11
REMARK SMILES IDX 24 12 25 13 26 14 12 15 11 16 10 17 9 18 8 19 7 20 6 21 5 22
REMARK SMILES IDX 4 23 3 24 2 25 1 26
REMARK H PARENT
REMARK Flexibility Score: inf
ROOT
ATOM      1  C   UNL     1      17.629  72.855  20.373  1.00  0.00     0.000 C 
ENDROOT
BRANCH   1   2
ATOM      2  C   UNL     1      18.523  71.701  19.875  1.00  0.00     0.000 C 
BRANCH   2   3
ATOM      3  C   UNL     1      18.830  71.718  18.366  1.00  0.00     0.000 C 
BRANCH   3   4
ATOM      4  C   UNL     1      18.254  70.537  17.564  1.00  0.00     0.000 C 
BRANCH   4   5
ATOM      5  C   UNL     1      17.270  69.652  18.362  1.00  0.00     0.000 C 
BRANCH   5   6
ATOM      6  C   UNL     1      16.073  69.178  17.516  1.00  0.00     0.000 C 
BRANCH   6   7
ATOM      7  C   UNL     1      15.233  70.354  16.974  1.00  0.00     0.000 C 
BRANCH   7   8
ATOM      8  C   UNL     1      13.832  69.936  16.491  1.00  0.00     0.000 C 
BRANCH   8   9
ATOM      9  C   UNL     1      12.751  70.120  17.568  1.00  0.00     0.000 C 
BRANCH   9  10
ATOM     10  C   UNL     1      11.953  68.831  17.828  1.00  0.00     0.006 C 
BRANCH  10  11
ATOM     11  C   UNL     1      12.835  67.575  17.766  1.00  0.00     0.053 C 
BRANCH  11  12
ATOM     12  C   UNL     1      13.049  66.998  19.132  1.00  0.00     0.041 C 
ATOM     13  O   UNL     1      14.213  66.866  19.592  1.00  0.00    -0.550 OA
ATOM     14  O   UNL     1      11.954  66.653  19.918  1.00  0.00    -0.550 OA
ENDBRANCH  11  12
ENDBRANCH  10  11
ENDBRANCH   9  10
ENDBRANCH   8   9
ENDBRANCH   7   8
ENDBRANCH   6   7
ENDBRANCH   5   6
ENDBRANCH   4   5
ENDBRANCH   3   4
ENDBRANCH   2   3
ENDBRANCH   1   2
BRANCH   1  15
ATOM     15  C   UNL     1      16.359  73.110  19.538  1.00  0.00     0.000 C 
BRANCH  15  16
ATOM     16  C   UNL     1      16.377  74.393  18.690  1.00  0.00     0.000 C 
BRANCH  16  17
ATOM     17  C   UNL     1      15.591  74.263  17.375  1.00  0.00     0.000 C 
BRANCH  17  18
ATOM     18  C   UNL     1      16.534  73.967  16.197  1.00  0.00    -0.000 C 
BRANCH  18  19
ATOM     19  C   UNL     1      17.902  74.669  16.321  1.00  0.00    -0.000 C 
BRANCH  19  20
ATOM     20  C   UNL     1      17.893  76.153  15.902  1.00  0.00    -0.000 C 
BRANCH  20  21
ATOM     21  C   UNL     1      19.247  76.880  16.007  1.00  0.00    -0.000 C 
BRANCH  21  22
ATOM     22  C   UNL     1      19.286  78.071  16.989  1.00  0.00    -0.000 C 
BRANCH  22  23
ATOM     23  C   UNL     1      20.002  77.787  18.322  1.00  0.00    -0.000 C 
BRANCH  23  24
ATOM     24  C   UNL     1      19.272  76.735  19.173  1.00  0.00    -0.000 C 
BRANCH  24  25
ATOM     25  C   UNL     1      20.075  75.427  19.284  1.00  0.00    -0.003 C 
ATOM     26  C   UNL     1      20.518  75.133  20.720  1.00  0.00     0.004 C 
ENDBRANCH  24  25
ENDBRANCH  23  24
ENDBRANCH  22  23
ENDBRANCH  21  22
ENDBRANCH  20  21
ENDBRANCH  19  20
ENDBRANCH  18  19
ENDBRANCH  17  18
ENDBRANCH  16  17
ENDBRANCH  15  16
ENDBRANCH   1  15
TORSDOF 22
ENDMDL
MODEL 2
REMARK VINA RESULT:    -4.637      3.328      8.456
REMARK INTER + INTRA:         -14.080
REMARK INTER:                 -10.682
REMARK INTRA:                  -3.398
REMARK UNBOUND:                -3.479
REMARK SMILES CCCCCCCCCCCCCCCCCCCCCCCC(=O)[O-]
REMARK SMILES IDX 13 1 14 2 15 3 16 4 17 5 18 6 19 7 20 8 21 9 22 10 23 11
REMARK SMILES IDX 24 12 25 13 26 14 12 15 11 16 10 17 9 18 8 19 7 20 6 21 5 22
REMARK SMILES IDX 4 23 3 24 2 25 1 26
REMARK H PARENT
REMARK Flexibility Score: inf
ROOT
ATOM      1  C   UNL     1      18.273  72.010  20.133  1.00  0.00     0.000 C 
ENDROOT
BRANCH   1   2
ATOM      2  C   UNL     1      17.094  73.002  20.058  1.00  0.00     0.000 C 
BRANCH   2   3
ATOM      3  C   UNL     1      17.132  73.972  18.863  1.00  0.00     0.000 C 
BRANCH   3   4
ATOM      4  C   UNL     1      18.203  73.667  17.801  1.00  0.00     0.000 C 
BRANCH   4   5
ATOM      5  C   UNL     1      17.978  74.389  16.453  1.00  0.00     0.000 C 
BRANCH   5   6
ATOM      6  C   UNL     1      16.949  75.531  16.553  1.00  0.00     0.000 C 
BRANCH   6   7
ATOM      7  C   UNL     1      17.546  76.898  16.155  1.00  0.00     0.000 C 
BRANCH   7   8
ATOM      8  C   UNL     1      19.070  76.983  16.353  1.00  0.00     0.000 C 
BRANCH   8   9
ATOM      9  C   UNL     1      19.522  78.341  16.914  1.00  0.00     0.000 C 
BRANCH   9  10
ATOM     10  C   UNL     1      19.854  78.279  18.414  1.00  0.00     0.006 C 
BRANCH  10  11
ATOM     11  C   UNL     1      19.448  76.939  19.047  1.00  0.00     0.053 C 
BRANCH  11  12
ATOM     12  C   UNL     1      20.649  76.186  19.532  1.00  0.00     0.041 C 
ATOM     13  O   UNL     1      20.512  75.079  20.117  1.00  0.00    -0.550 OA
ATOM     14  O   UNL     1      21.925  76.685  19.289  1.00  0.00    -0.550 OA
ENDBRANCH  11  12
ENDBRANCH  10  11
ENDBRANCH   9  10
ENDBRANCH   8   9
ENDBRANCH   7   8
ENDBRANCH   6   7
ENDBRANCH   5   6
ENDBRANCH   4   5
ENDBRANCH   3   4
ENDBRANCH   2   3
ENDBRANCH   1   2
BRANCH   1  15
ATOM     15  C   UNL     1      17.917  70.606  20.661  1.00  0.00     0.000 C 
BRANCH  15  16
ATOM     16  C   UNL     1      17.487  69.591  19.588  1.00  0.00     0.000 C 
BRANCH  16  17
ATOM     17  C   UNL     1      18.005  69.938  18.181  1.00  0.00     0.000 C 
BRANCH  17  18
ATOM     18  C   UNL     1      16.992  69.520  17.103  1.00  0.00    -0.000 C 
BRANCH  18  19
ATOM     19  C   UNL     1      16.525  70.694  16.218  1.00  0.00    -0.000 C 
BRANCH  19  20
ATOM     20  C   UNL     1      15.409  71.555  16.844  1.00  0.00    -0.000 C 
BRANCH  20  21
ATOM     21  C   UNL     1      14.523  70.841  17.882  1.00  0.00    -0.000 C 
BRANCH  21  22
ATOM     22  C   UNL     1      13.095  70.495  17.412  1.00  0.00    -0.000 C 
BRANCH  22  23
ATOM     23  C   UNL     1      12.628  69.068  17.756  1.00  0.00    -0.000 C 
BRANCH  23  24
ATOM     24  C   UNL     1      13.792  68.144  18.149  1.00  0.00    -0.000 C 
BRANCH  24  25
ATOM     25  C   UNL     1      13.315  66.945  18.988  1.00  0.00    -0.003 C 
ATOM     26  C   UNL     1      12.742  65.818  18.125  1.00  0.00     0.004 C 
ENDBRANCH  24  25
ENDBRANCH  23  24
ENDBRANCH  22  23
ENDBRANCH  21  22
ENDBRANCH  20  21
ENDBRANCH  19  20
ENDBRANCH  18  19
ENDBRANCH  17  18
ENDBRANCH  16  17
ENDBRANCH  15  16
ENDBRANCH   1  15
TORSDOF 22
ENDMDL
MODEL 3
REMARK VINA RESULT:    -4.627      1.246      3.105
REMARK INTER + INTRA:         -14.056
REMARK INTER:                 -10.662
REMARK INTRA:                  -3.394
REMARK UNBOUND:                -3.479
REMARK SMILES CCCCCCCCCCCCCCCCCCCCCCCC(=O)[O-]
REMARK SMILES IDX 13 1 14 2 15 3 16 4 17 5 18 6 19 7 20 8 21 9 22 10 23 11
REMARK SMILES IDX 24 12 25 13 26 14 12 15 11 16 10 17 9 18 8 19 7 20 6 21 5 22
REMARK SMILES IDX 4 23 3 24 2 25 1 26
REMARK H PARENT
REMARK Flexibility Score: inf
ROOT
ATOM      1  C   UNL     1      17.994  73.390  19.882  1.00  0.00     0.000 C 
ENDROOT
BRANCH   1   2
ATOM      2  C   UNL     1      17.157  72.149  20.255  1.00  0.00     0.000 C 
BRANCH   2   3
ATOM      3  C   UNL     1      17.955  70.840  20.391  1.00  0.00     0.000 C 
BRANCH   3   4
ATOM      4  C   UNL     1      17.420  69.654  19.567  1.00  0.00     0.000 C 
BRANCH   4   5
ATOM      5  C   UNL     1      18.071  69.510  18.173  1.00  0.00     0.000 C 
BRANCH   5   6
ATOM      6  C   UNL     1      17.254  70.194  17.060  1.00  0.00     0.000 C 
BRANCH   6   7
ATOM      7  C   UNL     1      16.748  69.192  16.001  1.00  0.00     0.000 C 
BRANCH   7   8
ATOM      8  C   UNL     1      15.393  68.555  16.357  1.00  0.00     0.000 C 
BRANCH   8   9
ATOM      9  C   UNL     1      14.425  69.547  17.022  1.00  0.00     0.000 C 
BRANCH   9  10
ATOM     10  C   UNL     1      13.262  68.844  17.742  1.00  0.00     0.006 C 
BRANCH  10  11
ATOM     11  C   UNL     1      13.689  67.511  18.377  1.00  0.00     0.053 C 
BRANCH  11  12
ATOM     12  C   UNL     1      12.497  66.671  18.721  1.00  0.00     0.041 C 
ATOM     13  O   UNL     1      11.972  65.925  17.853  1.00  0.00    -0.550 OA
ATOM     14  O   UNL     1      11.997  66.676  20.020  1.00  0.00    -0.550 OA
ENDBRANCH  11  12
ENDBRANCH  10  11
ENDBRANCH   9  10
ENDBRANCH   8   9
ENDBRANCH   7   8
ENDBRANCH   6   7
ENDBRANCH   5   6
ENDBRANCH   4   5
ENDBRANCH   3   4
ENDBRANCH   2   3
ENDBRANCH   1   2
BRANCH   1  15
ATOM     15  C   UNL     1      19.001  73.181  18.734  1.00  0.00     0.000 C 
BRANCH  15  16
ATOM     16  C   UNL     1      20.196  74.149  18.725  1.00  0.00     0.000 C 
BRANCH  16  17
ATOM     17  C   UNL     1      20.007  75.356  19.660  1.00  0.00     0.000 C 
BRANCH  17  18
ATOM     18  C   UNL     1      20.557  76.640  19.018  1.00  0.00    -0.000 C 
BRANCH  18  19
ATOM     19  C   UNL     1      21.263  76.392  17.669  1.00  0.00    -0.000 C 
BRANCH  19  20
ATOM     20  C   UNL     1      20.638  77.147  16.478  1.00  0.00    -0.000 C 
BRANCH  20  21
ATOM     21  C   UNL     1      19.255  77.772  16.741  1.00  0.00    -0.000 C 
BRANCH  21  22
ATOM     22  C   UNL     1      18.049  76.964  16.216  1.00  0.00    -0.000 C 
BRANCH  22  23
ATOM     23  C   UNL     1      17.325  76.119  17.280  1.00  0.00    -0.000 C 
BRANCH  23  24
ATOM     24  C   UNL     1      16.023  75.493  16.754  1.00  0.00    -0.000 C 
BRANCH  24  25
ATOM     25  C   UNL     1      16.158  73.974  16.548  1.00  0.00    -0.003 C 
ATOM     26  C   UNL     1      15.059  73.188  17.267  1.00  0.00     0.004 C 
ENDBRANCH  24  25
ENDBRANCH  23  24
ENDBRANCH  22  23
ENDBRANCH  21  22
ENDBRANCH  20  21
ENDBRANCH  19  20
ENDBRANCH  18  19
ENDBRANCH  17  18
ENDBRANCH  16  17
ENDBRANCH  15  16
ENDBRANCH   1  15
TORSDOF 22
ENDMDL
MODEL 4
REMARK VINA RESULT:    -4.622      1.171      3.671
REMARK INTER + INTRA:         -14.045
REMARK INTER:                 -10.723
REMARK INTRA:                  -3.322
REMARK UNBOUND:                -3.479
REMARK SMILES CCCCCCCCCCCCCCCCCCCCCCCC(=O)[O-]
REMARK SMILES IDX 13 1 14 2 15 3 16 4 17 5 18 6 19 7 20 8 21 9 22 10 23 11
REMARK SMILES IDX 24 12 25 13 26 14 12 15 11 16 10 17 9 18 8 19 7 20 6 21 5 22
REMARK SMILES IDX 4 23 3 24 2 25 1 26
REMARK H PARENT
REMARK Flexibility Score: inf
ROOT
ATOM      1  C   UNL     1      19.518  74.628  19.746  1.00  0.00     0.000 C 
ENDROOT
BRANCH   1   2
ATOM      2  C   UNL     1      19.896  73.865  18.460  1.00  0.00     0.000 C 
BRANCH   2   3
ATOM      3  C   UNL     1      19.003  72.655  18.132  1.00  0.00     0.000 C 
BRANCH   3   4
ATOM      4  C   UNL     1      18.169  72.114  19.307  1.00  0.00     0.000 C 
BRANCH   4   5
ATOM      5  C   UNL     1      18.549  70.682  19.744  1.00  0.00     0.000 C 
BRANCH   5   6
ATOM      6  C   UNL     1      18.205  69.622  18.679  1.00  0.00     0.000 C 
BRANCH   6   7
ATOM      7  C   UNL     1      16.712  69.644  18.287  1.00  0.00     0.000 C 
BRANCH   7   8
ATOM      8  C   UNL     1      16.457  69.266  16.817  1.00  0.00     0.000 C 
BRANCH   8   9
ATOM      9  C   UNL     1      14.967  69.303  16.442  1.00  0.00     0.000 C 
BRANCH   9  10
ATOM     10  C   UNL     1      14.239  67.993  16.786  1.00  0.00     0.006 C 
BRANCH  10  11
ATOM     11  C   UNL     1      13.139  68.195  17.840  1.00  0.00     0.053 C 
BRANCH  11  12
ATOM     12  C   UNL     1      13.321  67.259  18.996  1.00  0.00     0.041 C 
ATOM     13  O   UNL     1      14.431  67.184  19.586  1.00  0.00    -0.550 OA
ATOM     14  O   UNL     1      12.244  66.505  19.453  1.00  0.00    -0.550 OA
ENDBRANCH  11  12
ENDBRANCH  10  11
ENDBRANCH   9  10
ENDBRANCH   8   9
ENDBRANCH   7   8
ENDBRANCH   6   7
ENDBRANCH   5   6
ENDBRANCH   4   5
ENDBRANCH   3   4
ENDBRANCH   2   3
ENDBRANCH   1   2
BRANCH   1  15
ATOM     15  C   UNL     1      20.591  75.601  20.272  1.00  0.00     0.000 C 
BRANCH  15  16
ATOM     16  C   UNL     1      21.334  76.406  19.192  1.00  0.00     0.000 C 
BRANCH  16  17
ATOM     17  C   UNL     1      20.415  77.354  18.403  1.00  0.00     0.000 C 
BRANCH  17  18
ATOM     18  C   UNL     1      20.805  77.389  16.916  1.00  0.00    -0.000 C 
BRANCH  18  19
ATOM     19  C   UNL     1      19.591  77.502  15.971  1.00  0.00    -0.000 C 
BRANCH  19  20
ATOM     20  C   UNL     1      18.672  76.263  15.969  1.00  0.00    -0.000 C 
BRANCH  20  21
ATOM     21  C   UNL     1      17.221  76.513  16.420  1.00  0.00    -0.000 C 
BRANCH  21  22
ATOM     22  C   UNL     1      16.763  75.711  17.657  1.00  0.00    -0.000 C 
BRANCH  22  23
ATOM     23  C   UNL     1      15.417  74.982  17.492  1.00  0.00    -0.000 C 
BRANCH  23  24
ATOM     24  C   UNL     1      15.587  73.507  17.094  1.00  0.00    -0.000 C 
BRANCH  24  25
ATOM     25  C   UNL     1      14.482  72.619  17.693  1.00  0.00    -0.003 C 
ATOM     26  C   UNL     1      14.503  72.612  19.224  1.00  0.00     0.004 C 
ENDBRANCH  24  25
ENDBRANCH  23  24
ENDBRANCH  22  23
ENDBRANCH  21  22
ENDBRANCH  20  21
ENDBRANCH  19  20
ENDBRANCH  18  19
ENDBRANCH  17  18
ENDBRANCH  16  17
ENDBRANCH  15  16
ENDBRANCH   1  15
TORSDOF 22
ENDMDL
MODEL 5
REMARK VINA RESULT:    -4.618      2.943      7.541
REMARK INTER + INTRA:         -14.037
REMARK INTER:                 -10.214
REMARK INTRA:                  -3.823
REMARK UNBOUND:                -3.479
REMARK SMILES CCCCCCCCCCCCCCCCCCCCCCCC(=O)[O-]
REMARK SMILES IDX 13 1 14 2 15 3 16 4 17 5 18 6 19 7 20 8 21 9 22 10 23 11
REMARK SMILES IDX 24 12 25 13 26 14 12 15 11 16 10 17 9 18 8 19 7 20 6 21 5 22
REMARK SMILES IDX 4 23 3 24 2 25 1 26
REMARK H PARENT
REMARK Flexibility Score: inf
ROOT
ATOM      1  C   UNL     1      15.798  73.571  19.240  1.00  0.00     0.000 C 
ENDROOT
BRANCH   1   2
ATOM      2  C   UNL     1      16.203  73.908  17.790  1.00  0.00     0.000 C 
BRANCH   2   3
ATOM      3  C   UNL     1      16.472  75.399  17.517  1.00  0.00     0.000 C 
BRANCH   3   4
ATOM      4  C   UNL     1      17.219  75.704  16.206  1.00  0.00     0.000 C 
BRANCH   4   5
ATOM      5  C   UNL     1      17.799  77.134  16.129  1.00  0.00     0.000 C 
BRANCH   5   6
ATOM      6  C   UNL     1      19.340  77.155  16.164  1.00  0.00     0.000 C 
BRANCH   6   7
ATOM      7  C   UNL     1      19.897  78.458  16.774  1.00  0.00     0.000 C 
BRANCH   7   8
ATOM      8  C   UNL     1      20.484  78.273  18.185  1.00  0.00     0.000 C 
BRANCH   8   9
ATOM      9  C   UNL     1      21.329  76.996  18.316  1.00  0.00     0.000 C 
BRANCH   9  10
ATOM     10  C   UNL     1      21.009  76.206  19.596  1.00  0.00     0.006 C 
BRANCH  10  11
ATOM     11  C   UNL     1      19.556  75.706  19.627  1.00  0.00     0.053 C 
BRANCH  11  12
ATOM     12  C   UNL     1      19.487  74.231  19.372  1.00  0.00     0.041 C 
ATOM     13  O   UNL     1      19.806  73.764  18.247  1.00  0.00    -0.550 OA
ATOM     14  O   UNL     1      19.120  73.367  20.398  1.00  0.00    -0.550 OA
ENDBRANCH  11  12
ENDBRANCH  10  11
ENDBRANCH   9  10
ENDBRANCH   8   9
ENDBRANCH   7   8
ENDBRANCH   6   7
ENDBRANCH   5   6
ENDBRANCH   4   5
ENDBRANCH   3   4
ENDBRANCH   2   3
ENDBRANCH   1   2
BRANCH   1  15
ATOM     15  C   UNL     1      14.642  72.562  19.381  1.00  0.00     0.000 C 
BRANCH  15  16
ATOM     16  C   UNL     1      13.344  72.944  18.650  1.00  0.00     0.000 C 
BRANCH  16  17
ATOM     17  C   UNL     1      12.760  71.795  17.810  1.00  0.00     0.000 C 
BRANCH  17  18
ATOM     18  C   UNL     1      13.735  70.608  17.748  1.00  0.00    -0.000 C 
BRANCH  18  19
ATOM     19  C   UNL     1      14.203  70.279  16.316  1.00  0.00    -0.000 C 
BRANCH  19  20
ATOM     20  C   UNL     1      15.570  70.887  15.940  1.00  0.00    -0.000 C 
BRANCH  20  21
ATOM     21  C   UNL     1      16.801  70.053  16.344  1.00  0.00    -0.000 C 
BRANCH  21  22
ATOM     22  C   UNL     1      17.942  70.840  17.023  1.00  0.00    -0.000 C 
BRANCH  22  23
ATOM     23  C   UNL     1      18.131  70.540  18.522  1.00  0.00    -0.000 C 
BRANCH  23  24
ATOM     24  C   UNL     1      17.381  69.275  18.972  1.00  0.00    -0.000 C 
BRANCH  24  25
ATOM     25  C   UNL     1      16.495  69.540  20.202  1.00  0.00    -0.003 C 
ATOM     26  C   UNL     1      17.229  70.325  21.292  1.00  0.00     0.004 C 
ENDBRANCH  24  25
ENDBRANCH  23  24
ENDBRANCH  22  23
ENDBRANCH  21  22
ENDBRANCH  20  21
ENDBRANCH  19  20
ENDBRANCH  18  19
ENDBRANCH  17  18
ENDBRANCH  16  17
ENDBRANCH  15  16
ENDBRANCH   1  15
TORSDOF 22
ENDMDL
MODEL 6
REMARK VINA RESULT:    -4.614      1.139      2.221
REMARK INTER + INTRA:         -14.028
REMARK INTER:                 -10.856
REMARK INTRA:                  -3.171
REMARK UNBOUND:                -3.479
REMARK SMILES CCCCCCCCCCCCCCCCCCCCCCCC(=O)[O-]
REMARK SMILES IDX 13 1 14 2 15 3 16 4 17 5 18 6 19 7 20 8 21 9 22 10 23 11
REMARK SMILES IDX 24 12 25 13 26 14 12 15 11 16 10 17 9 18 8 19 7 20 6 21 5 22
REMARK SMILES IDX 4 23 3 24 2 25 1 26
REMARK H PARENT
REMARK Flexibility Score: inf
ROOT
ATOM      1  C   UNL     1      17.726  72.665  19.771  1.00  0.00     0.000 C 
ENDROOT
BRANCH   1   2
ATOM      2  C   UNL     1      18.435  71.471  20.443  1.00  0.00     0.000 C 
BRANCH   2   3
ATOM      3  C   UNL     1      17.545  70.240  20.694  1.00  0.00     0.000 C 
BRANCH   3   4
ATOM      4  C   UNL     1      17.233  69.388  19.452  1.00  0.00     0.000 C 
BRANCH   4   5
ATOM      5  C   UNL     1      18.218  69.598  18.280  1.00  0.00     0.000 C 
BRANCH   5   6
ATOM      6  C   UNL     1      17.504  69.906  16.949  1.00  0.00     0.000 C 
BRANCH   6   7
ATOM      7  C   UNL     1      16.173  69.138  16.803  1.00  0.00     0.000 C 
BRANCH   7   8
ATOM      8  C   UNL     1      15.070  69.949  16.100  1.00  0.00     0.000 C 
BRANCH   8   9
ATOM      9  C   UNL     1      13.706  69.830  16.799  1.00  0.00     0.000 C 
BRANCH   9  10
ATOM     10  C   UNL     1      13.757  68.925  18.041  1.00  0.00     0.006 C 
BRANCH  10  11
ATOM     11  C   UNL     1      12.526  68.011  18.149  1.00  0.00     0.053 C 
BRANCH  11  12
ATOM     12  C   UNL     1      12.708  66.986  19.227  1.00  0.00     0.041 C 
ATOM     13  O   UNL     1      11.707  66.435  19.756  1.00  0.00    -0.550 OA
ATOM     14  O   UNL     1      13.989  66.603  19.609  1.00  0.00    -0.550 OA
ENDBRANCH  11  12
ENDBRANCH  10  11
ENDBRANCH   9  10
ENDBRANCH   8   9
ENDBRANCH   7   8
ENDBRANCH   6   7
ENDBRANCH   5   6
ENDBRANCH   4   5
ENDBRANCH   3   4
ENDBRANCH   2   3
ENDBRANCH   1   2
BRANCH   1  15
ATOM     15  C   UNL     1      16.214  72.771  20.048  1.00  0.00     0.000 C 
BRANCH  15  16
ATOM     16  C   UNL     1      15.316  72.773  18.799  1.00  0.00     0.000 C 
BRANCH  16  17
ATOM     17  C   UNL     1      16.025  73.307  17.543  1.00  0.00     0.000 C 
BRANCH  17  18
ATOM     18  C   UNL     1      15.465  74.681  17.137  1.00  0.00    -0.000 C 
BRANCH  18  19
ATOM     19  C   UNL     1      16.557  75.674  16.687  1.00  0.00    -0.000 C 
BRANCH  19  20
ATOM     20  C   UNL     1      17.929  75.452  17.354  1.00  0.00    -0.000 C 
BRANCH  20  21
ATOM     21  C   UNL     1      18.212  76.321  18.595  1.00  0.00    -0.000 C 
BRANCH  21  22
ATOM     22  C   UNL     1      19.661  76.268  19.125  1.00  0.00    -0.000 C 
BRANCH  22  23
ATOM     23  C   UNL     1      20.593  77.360  18.569  1.00  0.00    -0.000 C 
BRANCH  23  24
ATOM     24  C   UNL     1      20.945  77.140  17.088  1.00  0.00    -0.000 C 
BRANCH  24  25
ATOM     25  C   UNL     1      20.375  78.253  16.191  1.00  0.00    -0.003 C 
ATOM     26  C   UNL     1      19.966  79.494  16.988  1.00  0.00     0.004 C 
ENDBRANCH  24  25
ENDBRANCH  23  24
ENDBRANCH  22  23
ENDBRANCH  21  22
ENDBRANCH  20  21
ENDBRANCH  19  20
ENDBRANCH  18  19
ENDBRANCH  17  18
ENDBRANCH  16  17
ENDBRANCH  15  16
ENDBRANCH   1  15
TORSDOF 22
ENDMDL
MODEL 7
REMARK VINA RESULT:    -4.579      3.583      7.705
REMARK INTER + INTRA:         -13.947
REMARK INTER:                 -11.465
REMARK INTRA:                  -2.481
REMARK UNBOUND:                -3.479
REMARK SMILES CCCCCCCCCCCCCCCCCCCCCCCC(=O)[O-]
REMARK SMILES IDX 13 1 14 2 15 3 16 4 17 5 18 6 19 7 20 8 21 9 22 10 23 11
REMARK SMILES IDX 24 12 25 13 26 14 12 15 11 16 10 17 9 18 8 19 7 20 6 21 5 22
REMARK SMILES IDX 4 23 3 24 2 25 1 26
REMARK H PARENT
REMARK Flexibility Score: inf
ROOT
ATOM      1  C   UNL     1      19.273  73.749  20.381  1.00  0.00     0.000 C 
ENDROOT
BRANCH   1   2
ATOM      2  C   UNL     1      19.912  74.603  19.267  1.00  0.00     0.000 C 
BRANCH   2   3
ATOM      3  C   UNL     1      20.331  76.022  19.691  1.00  0.00     0.000 C 
BRANCH   3   4
ATOM      4  C   UNL     1      21.353  76.710  18.768  1.00  0.00     0.000 C 
BRANCH   4   5
ATOM      5  C   UNL     1      21.304  76.228  17.301  1.00  0.00     0.000 C 
BRANCH   5   6
ATOM      6  C   UNL     1      20.911  77.347  16.317  1.00  0.00     0.000 C 
BRANCH   6   7
ATOM      7  C   UNL     1      19.381  77.478  16.155  1.00  0.00     0.000 C 
BRANCH   7   8
ATOM      8  C   UNL     1      18.674  76.135  15.896  1.00  0.00     0.000 C 
BRANCH   8   9
ATOM      9  C   UNL     1      17.209  76.134  16.361  1.00  0.00     0.000 C 
BRANCH   9  10
ATOM     10  C   UNL     1      16.918  75.028  17.389  1.00  0.00     0.006 C 
BRANCH  10  11
ATOM     11  C   UNL     1      15.528  75.176  18.028  1.00  0.00     0.053 C 
BRANCH  11  12
ATOM     12  C   UNL     1      14.853  73.846  18.165  1.00  0.00     0.041 C 
ATOM     13  O   UNL     1      15.422  72.798  17.762  1.00  0.00    -0.550 OA
ATOM     14  O   UNL     1      13.611  73.760  18.788  1.00  0.00    -0.550 OA
ENDBRANCH  11  12
ENDBRANCH  10  11
ENDBRANCH   9  10
ENDBRANCH   8   9
ENDBRANCH   7   8
ENDBRANCH   6   7
ENDBRANCH   5   6
ENDBRANCH   4   5
ENDBRANCH   3   4
ENDBRANCH   2   3
ENDBRANCH   1   2
BRANCH   1  15
ATOM     15  C   UNL     1      18.326  72.635  19.894  1.00  0.00     0.000 C 
BRANCH  15  16
ATOM     16  C   UNL     1      18.803  71.867  18.649  1.00  0.00     0.000 C 
BRANCH  16  17
ATOM     17  C   UNL     1      18.848  70.343  18.856  1.00  0.00     0.000 C 
BRANCH  17  18
ATOM     18  C   UNL     1      17.722  69.649  18.073  1.00  0.00    -0.000 C 
BRANCH  18  19
ATOM     19  C   UNL     1      16.422  69.489  18.889  1.00  0.00    -0.000 C 
BRANCH  19  20
ATOM     20  C   UNL     1      16.617  68.828  20.268  1.00  0.00    -0.000 C 
BRANCH  20  21
ATOM     21  C   UNL     1      16.417  69.755  21.483  1.00  0.00    -0.000 C 
BRANCH  21  22
ATOM     22  C   UNL     1      17.382  69.518  22.665  1.00  0.00    -0.000 C 
BRANCH  22  23
ATOM     23  C   UNL     1      16.729  68.912  23.920  1.00  0.00    -0.000 C 
BRANCH  23  24
ATOM     24  C   UNL     1      17.275  67.514  24.255  1.00  0.00    -0.000 C 
BRANCH  24  25
ATOM     25  C   UNL     1      16.684  66.965  25.565  1.00  0.00    -0.003 C 
ATOM     26  C   UNL     1      17.642  67.122  26.749  1.00  0.00     0.004 C 
ENDBRANCH  24  25
ENDBRANCH  23  24
ENDBRANCH  22  23
ENDBRANCH  21  22
ENDBRANCH  20  21
ENDBRANCH  19  20
ENDBRANCH  18  19
ENDBRANCH  17  18
ENDBRANCH  16  17
ENDBRANCH  15  16
ENDBRANCH   1  15
TORSDOF 22
ENDMDL
MODEL 8
REMARK VINA RESULT:    -4.570      2.945      4.696
REMARK INTER + INTRA:         -13.927
REMARK INTER:                 -10.616
REMARK INTRA:                  -3.311
REMARK UNBOUND:                -3.479
REMARK SMILES CCCCCCCCCCCCCCCCCCCCCCCC(=O)[O-]
REMARK SMILES IDX 13 1 14 2 15 3 16 4 17 5 18 6 19 7 20 8 21 9 22 10 23 11
REMARK SMILES IDX 24 12 25 13 26 14 12 15 11 16 10 17 9 18 8 19 7 20 6 21 5 22
REMARK SMILES IDX 4 23 3 24 2 25 1 26
REMARK H PARENT
REMARK Flexibility Score: inf
ROOT
ATOM      1  C   UNL     1      19.114  73.804  20.037  1.00  0.00     0.000 C 
ENDROOT
BRANCH   1   2
ATOM      2  C   UNL     1      18.309  72.513  19.786  1.00  0.00     0.000 C 
BRANCH   2   3
ATOM      3  C   UNL     1      18.713  71.726  18.527  1.00  0.00     0.000 C 
BRANCH   3   4
ATOM      4  C   UNL     1      18.889  70.210  18.726  1.00  0.00     0.000 C 
BRANCH   4   5
ATOM      5  C   UNL     1      17.793  69.353  18.054  1.00  0.00     0.000 C 
BRANCH   5   6
ATOM      6  C   UNL     1      16.368  69.815  18.418  1.00  0.00     0.000 C 
BRANCH   6   7
ATOM      7  C   UNL     1      15.662  68.840  19.383  1.00  0.00     0.000 C 
BRANCH   7   8
ATOM      8  C   UNL     1      16.489  68.515  20.641  1.00  0.00     0.000 C 
BRANCH   8   9
ATOM      9  C   UNL     1      16.443  69.637  21.690  1.00  0.00     0.000 C 
BRANCH   9  10
ATOM     10  C   UNL     1      17.178  69.263  22.987  1.00  0.00     0.006 C 
BRANCH  10  11
ATOM     11  C   UNL     1      16.831  67.844  23.467  1.00  0.00     0.053 C 
BRANCH  11  12
ATOM     12  C   UNL     1      17.192  67.660  24.909  1.00  0.00     0.041 C 
ATOM     13  O   UNL     1      17.903  66.685  25.268  1.00  0.00    -0.550 OA
ATOM     14  O   UNL     1      16.782  68.598  25.852  1.00  0.00    -0.550 OA
ENDBRANCH  11  12
ENDBRANCH  10  11
ENDBRANCH   9  10
ENDBRANCH   8   9
ENDBRANCH   7   8
ENDBRANCH   6   7
ENDBRANCH   5   6
ENDBRANCH   4   5
ENDBRANCH   3   4
ENDBRANCH   2   3
ENDBRANCH   1   2
BRANCH   1  15
ATOM     15  C   UNL     1      19.872  74.354  18.812  1.00  0.00     0.000 C 
BRANCH  15  16
ATOM     16  C   UNL     1      20.507  75.742  19.002  1.00  0.00     0.000 C 
BRANCH  16  17
ATOM     17  C   UNL     1      19.545  76.771  19.618  1.00  0.00     0.000 C 
BRANCH  17  18
ATOM     18  C   UNL     1      18.805  77.557  18.523  1.00  0.00    -0.000 C 
BRANCH  18  19
ATOM     19  C   UNL     1      19.639  77.743  17.239  1.00  0.00    -0.000 C 
BRANCH  19  20
ATOM     20  C   UNL     1      18.948  77.240  15.955  1.00  0.00    -0.000 C 
BRANCH  20  21
ATOM     21  C   UNL     1      17.642  76.452  16.170  1.00  0.00    -0.000 C 
BRANCH  21  22
ATOM     22  C   UNL     1      17.760  74.920  16.024  1.00  0.00    -0.000 C 
BRANCH  22  23
ATOM     23  C   UNL     1      16.626  74.118  16.690  1.00  0.00    -0.000 C 
BRANCH  23  24
ATOM     24  C   UNL     1      16.108  74.782  17.976  1.00  0.00    -0.000 C 
BRANCH  24  25
ATOM     25  C   UNL     1      14.965  73.975  18.618  1.00  0.00    -0.003 C 
ATOM     26  C   UNL     1      14.393  72.917  17.672  1.00  0.00     0.004 C 
ENDBRANCH  24  25
ENDBRANCH  23  24
ENDBRANCH  22  23
ENDBRANCH  21  22
ENDBRANCH  20  21
ENDBRANCH  19  20
ENDBRANCH  18  19
ENDBRANCH  17  18
ENDBRANCH  16  17
ENDBRANCH  15  16
ENDBRANCH   1  15
TORSDOF 22
ENDMDL
MODEL 9
REMARK VINA RESULT:    -4.562      3.525      8.354
REMARK INTER + INTRA:         -13.907
REMARK INTER:                  -9.923
REMARK INTRA:                  -3.984
REMARK UNBOUND:                -3.479
REMARK SMILES CCCCCCCCCCCCCCCCCCCCCCCC(=O)[O-]
REMARK SMILES IDX 13 1 14 2 15 3 16 4 17 5 18 6 19 7 20 8 21 9 22 10 23 11
REMARK SMILES IDX 24 12 25 13 26 14 12 15 11 16 10 17 9 18 8 19 7 20 6 21 5 22
REMARK SMILES IDX 4 23 3 24 2 25 1 26
REMARK H PARENT
REMARK Flexibility Score: inf
ROOT
ATOM      1  C   UNL     1      17.115  72.757  20.363  1.00  0.00     0.000 C 
ENDROOT
BRANCH   1   2
ATOM      2  C   UNL     1      15.930  73.399  19.614  1.00  0.00     0.000 C 
BRANCH   2   3
ATOM      3  C   UNL     1      15.181  72.461  18.650  1.00  0.00     0.000 C 
BRANCH   3   4
ATOM      4  C   UNL     1      14.540  73.145  17.429  1.00  0.00     0.000 C 
BRANCH   4   5
ATOM      5  C   UNL     1      15.200  74.487  17.040  1.00  0.00     0.000 C 
BRANCH   5   6
ATOM      6  C   UNL     1      16.242  74.335  15.914  1.00  0.00     0.000 C 
BRANCH   6   7
ATOM      7  C   UNL     1      17.625  74.892  16.313  1.00  0.00     0.000 C 
BRANCH   7   8
ATOM      8  C   UNL     1      17.578  76.342  16.828  1.00  0.00     0.000 C 
BRANCH   8   9
ATOM      9  C   UNL     1      18.258  76.510  18.196  1.00  0.00     0.000 C 
BRANCH   9  10
ATOM     10  C   UNL     1      19.546  77.346  18.115  1.00  0.00     0.006 C 
BRANCH  10  11
ATOM     11  C   UNL     1      20.812  76.481  18.220  1.00  0.00     0.053 C 
BRANCH  11  12
ATOM     12  C   UNL     1      21.267  76.025  16.867  1.00  0.00     0.041 C 
ATOM     13  O   UNL     1      21.684  76.860  16.022  1.00  0.00    -0.550 OA
ATOM     14  O   UNL     1      21.279  74.668  16.561  1.00  0.00    -0.550 OA
ENDBRANCH  11  12
ENDBRANCH  10  11
ENDBRANCH   9  10
ENDBRANCH   8   9
ENDBRANCH   7   8
ENDBRANCH   6   7
ENDBRANCH   5   6
ENDBRANCH   4   5
ENDBRANCH   3   4
ENDBRANCH   2   3
ENDBRANCH   1   2
BRANCH   1  15
ATOM     15  C   UNL     1      18.501  73.339  20.022  1.00  0.00     0.000 C 
BRANCH  15  16
ATOM     16  C   UNL     1      19.151  72.781  18.744  1.00  0.00     0.000 C 
BRANCH  16  17
ATOM     17  C   UNL     1      19.079  71.247  18.647  1.00  0.00     0.000 C 
BRANCH  17  18
ATOM     18  C   UNL     1      18.231  70.812  17.440  1.00  0.00    -0.000 C 
BRANCH  18  19
ATOM     19  C   UNL     1      17.388  69.549  17.712  1.00  0.00    -0.000 C 
BRANCH  19  20
ATOM     20  C   UNL     1      17.191  69.228  19.208  1.00  0.00    -0.000 C 
BRANCH  20  21
ATOM     21  C   UNL     1      15.728  69.134  19.680  1.00  0.00    -0.000 C 
BRANCH  21  22
ATOM     22  C   UNL     1      15.000  67.820  19.329  1.00  0.00    -0.000 C 
BRANCH  22  23
ATOM     23  C   UNL     1      13.702  67.996  18.519  1.00  0.00    -0.000 C 
BRANCH  23  24
ATOM     24  C   UNL     1      13.854  69.007  17.371  1.00  0.00    -0.000 C 
BRANCH  24  25
ATOM     25  C   UNL     1      12.659  69.975  17.297  1.00  0.00    -0.003 C 
ATOM     26  C   UNL     1      11.332  69.292  17.637  1.00  0.00     0.004 C 
ENDBRANCH  24  25
ENDBRANCH  23  24
ENDBRANCH  22  23
ENDBRANCH  21  22
ENDBRANCH  20  21
ENDBRANCH  19  20
ENDBRANCH  18  19
ENDBRANCH  17  18
ENDBRANCH  16  17
ENDBRANCH  15  16
ENDBRANCH   1  15
TORSDOF 22
ENDMDL
