MODEL 1
REMARK VINA RESULT:    -4.875      0.000      0.000
REMARK INTER + INTRA:         -13.657
REMARK INTER:                 -10.574
REMARK INTRA:                  -3.082
REMARK UNBOUND:                -3.082
REMARK SMILES CCCCCCCCCCCCCCCCCCCCCC(=O)[O-]
REMARK SMILES IDX 12 1 11 2 10 3 9 4 8 5 7 6 6 7 5 8 4 9 3 10 2 11 1 12 13 13
REMARK SMILES IDX 14 14 15 15 16 16 17 17 18 18 19 19 20 20 21 21 22 22 23 23
REMARK SMILES IDX 24 24
REMARK H PARENT
REMARK Flexibility Score: inf
ROOT
ATOM      1  C   UNL     1     -22.427  -7.115  18.248  1.00  0.00     0.000 C 
ENDROOT
BRANCH   1   2
ATOM      2  C   UNL     1     -23.509  -6.105  18.667  1.00  0.00     0.000 C 
BRANCH   2   3
ATOM      3  C   UNL     1     -24.868  -6.778  18.930  1.00  0.00     0.000 C 
BRANCH   3   4
ATOM      4  C   UNL     1     -25.967  -5.770  19.302  1.00  0.00    -0.000 C 
BRANCH   4   5
ATOM      5  C   UNL     1     -27.087  -5.701  18.251  1.00  0.00    -0.000 C 
BRANCH   5   6
ATOM      6  C   UNL     1     -26.967  -6.799  17.179  1.00  0.00    -0.000 C 
BRANCH   6   7
ATOM      7  C   UNL     1     -27.142  -6.273  15.739  1.00  0.00    -0.000 C 
BRANCH   7   8
ATOM      8  C   UNL     1     -26.120  -6.888  14.770  1.00  0.00    -0.000 C 
BRANCH   8   9
ATOM      9  C   UNL     1     -24.943  -7.569  15.489  1.00  0.00    -0.000 C 
BRANCH   9  10
ATOM     10  C   UNL     1     -23.624  -7.537  14.688  1.00  0.00    -0.000 C 
BRANCH  10  11
ATOM     11  C   UNL     1     -22.835  -8.848  14.813  1.00  0.00    -0.003 C 
ATOM     12  C   UNL     1     -23.197  -9.591  16.096  1.00  0.00     0.004 C 
ENDBRANCH  10  11
ENDBRANCH   9  10
ENDBRANCH   8   9
ENDBRANCH   7   8
ENDBRANCH   6   7
ENDBRANCH   5   6
ENDBRANCH   4   5
ENDBRANCH   3   4
ENDBRANCH   2   3
ENDBRANCH   1   2
BRANCH   1  13
ATOM     13  C   UNL     1     -21.377  -6.503  17.310  1.00  0.00     0.000 C 
BRANCH  13  14
ATOM     14  C   UNL     1     -21.693  -5.032  17.016  1.00  0.00     0.000 C 
BRANCH  14  15
ATOM     15  C   UNL     1     -20.997  -4.567  15.731  1.00  0.00     0.000 C 
BRANCH  15  16
ATOM     16  C   UNL     1     -20.438  -5.763  14.945  1.00  0.00     0.000 C 
BRANCH  16  17
ATOM     17  C   UNL     1     -18.919  -5.671  14.719  1.00  0.00     0.000 C 
BRANCH  17  18
ATOM     18  C   UNL     1     -18.215  -7.020  14.472  1.00  0.00     0.000 C 
BRANCH  18  19
ATOM     19  C   UNL     1     -18.788  -8.184  15.307  1.00  0.00     0.000 C 
BRANCH  19  20
ATOM     20  C   UNL     1     -18.163  -8.258  16.712  1.00  0.00     0.006 C 
BRANCH  20  21
ATOM     21  C   UNL     1     -18.884  -9.265  17.616  1.00  0.00     0.053 C 
BRANCH  21  22
ATOM     22  C   UNL     1     -17.918 -10.095  18.404  1.00  0.00     0.041 C 
ATOM     23  O   UNL     1     -18.148 -11.317  18.606  1.00  0.00    -0.550 OA
ATOM     24  O   UNL     1     -16.749  -9.526  18.894  1.00  0.00    -0.550 OA
ENDBRANCH  21  22
ENDBRANCH  20  21
ENDBRANCH  19  20
ENDBRANCH  18  19
ENDBRANCH  17  18
ENDBRANCH  16  17
ENDBRANCH  15  16
ENDBRANCH  14  15
ENDBRANCH  13  14
ENDBRANCH   1  13
TORSDOF 20
ENDMDL
MODEL 2
REMARK VINA RESULT:    -4.599      1.029      3.112
REMARK INTER + INTRA:         -13.059
REMARK INTER:                 -10.347
REMARK INTRA:                  -2.712
REMARK UNBOUND:                -3.082
REMARK SMILES CCCCCCCCCCCCCCCCCCCCCC(=O)[O-]
REMARK SMILES IDX 12 1 11 2 10 3 9 4 8 5 7 6 6 7 5 8 4 9 3 10 2 11 1 12 13 13
REMARK SMILES IDX 14 14 15 15 16 16 17 17 18 18 19 19 20 20 21 21 22 22 23 23
REMARK SMILES IDX 24 24
REMARK H PARENT
REMARK Flexibility Score: inf
ROOT
ATOM      1  C   UNL     1     -21.765  -7.512  17.823  1.00  0.00     0.000 C 
ENDROOT
BRANCH   1   2
ATOM      2  C   UNL     1     -22.207  -8.569  16.797  1.00  0.00     0.000 C 
BRANCH   2   3
ATOM      3  C   UNL     1     -23.646  -8.341  16.302  1.00  0.00     0.000 C 
BRANCH   3   4
ATOM      4  C   UNL     1     -24.700  -8.948  17.241  1.00  0.00    -0.000 C 
BRANCH   4   5
ATOM      5  C   UNL     1     -26.028  -8.173  17.219  1.00  0.00    -0.000 C 
BRANCH   5   6
ATOM      6  C   UNL     1     -25.977  -6.929  16.315  1.00  0.00    -0.000 C 
BRANCH   6   7
ATOM      7  C   UNL     1     -27.331  -6.196  16.201  1.00  0.00    -0.000 C 
BRANCH   7   8
ATOM      8  C   UNL     1     -27.405  -4.971  17.127  1.00  0.00    -0.000 C 
BRANCH   8   9
ATOM      9  C   UNL     1     -27.822  -5.326  18.564  1.00  0.00    -0.000 C 
BRANCH   9  10
ATOM     10  C   UNL     1     -27.148  -4.450  19.640  1.00  0.00    -0.000 C 
BRANCH  10  11
ATOM     11  C   UNL     1     -26.348  -5.283  20.653  1.00  0.00    -0.003 C 
ATOM     12  C   UNL     1     -25.222  -6.053  19.967  1.00  0.00     0.004 C 
ENDBRANCH  10  11
ENDBRANCH   9  10
ENDBRANCH   8   9
ENDBRANCH   7   8
ENDBRANCH   6   7
ENDBRANCH   5   6
ENDBRANCH   4   5
ENDBRANCH   3   4
ENDBRANCH   2   3
ENDBRANCH   1   2
BRANCH   1  13
ATOM     13  C   UNL     1     -22.384  -6.132  17.555  1.00  0.00     0.000 C 
BRANCH  13  14
ATOM     14  C   UNL     1     -21.321  -5.136  17.081  1.00  0.00     0.000 C 
BRANCH  14  15
ATOM     15  C   UNL     1     -21.451  -4.869  15.577  1.00  0.00     0.000 C 
BRANCH  15  16
ATOM     16  C   UNL     1     -20.655  -5.902  14.764  1.00  0.00     0.000 C 
BRANCH  16  17
ATOM     17  C   UNL     1     -19.135  -5.673  14.833  1.00  0.00     0.000 C 
BRANCH  17  18
ATOM     18  C   UNL     1     -18.275  -6.903  14.480  1.00  0.00     0.000 C 
BRANCH  18  19
ATOM     19  C   UNL     1     -18.661  -8.178  15.260  1.00  0.00     0.000 C 
BRANCH  19  20
ATOM     20  C   UNL     1     -18.132  -8.160  16.706  1.00  0.00     0.006 C 
BRANCH  20  21
ATOM     21  C   UNL     1     -18.740  -9.280  17.560  1.00  0.00     0.053 C 
BRANCH  21  22
ATOM     22  C   UNL     1     -17.722  -9.902  18.465  1.00  0.00     0.041 C 
ATOM     23  O   UNL     1     -16.641  -9.304  18.711  1.00  0.00    -0.550 OA
ATOM     24  O   UNL     1     -17.977 -11.132  19.057  1.00  0.00    -0.550 OA
ENDBRANCH  21  22
ENDBRANCH  20  21
ENDBRANCH  19  20
ENDBRANCH  18  19
ENDBRANCH  17  18
ENDBRANCH  16  17
ENDBRANCH  15  16
ENDBRANCH  14  15
ENDBRANCH  13  14
ENDBRANCH   1  13
TORSDOF 20
ENDMDL
MODEL 3
REMARK VINA RESULT:    -4.571      4.059      7.825
REMARK INTER + INTRA:         -12.999
REMARK INTER:                 -10.910
REMARK INTRA:                  -2.089
REMARK UNBOUND:                -3.082
REMARK SMILES CCCCCCCCCCCCCCCCCCCCCC(=O)[O-]
REMARK SMILES IDX 12 1 11 2 10 3 9 4 8 5 7 6 6 7 5 8 4 9 3 10 2 11 1 12 13 13
REMARK SMILES IDX 14 14 15 15 16 16 17 17 18 18 19 19 20 20 21 21 22 22 23 23
REMARK SMILES IDX 24 24
REMARK H PARENT
REMARK Flexibility Score: inf
ROOT
ATOM      1  C   UNL     1     -23.266 -10.208  16.541  1.00  0.00     0.000 C 
ENDROOT
BRANCH   1   2
ATOM      2  C   UNL     1     -22.531  -8.896  16.216  1.00  0.00     0.000 C 
BRANCH   2   3
ATOM      3  C   UNL     1     -21.398  -8.597  17.214  1.00  0.00     0.000 C 
BRANCH   3   4
ATOM      4  C   UNL     1     -21.544  -7.219  17.880  1.00  0.00    -0.000 C 
BRANCH   4   5
ATOM      5  C   UNL     1     -22.159  -6.169  16.940  1.00  0.00    -0.000 C 
BRANCH   5   6
ATOM      6  C   UNL     1     -21.169  -5.053  16.565  1.00  0.00    -0.000 C 
BRANCH   6   7
ATOM      7  C   UNL     1     -20.811  -5.028  15.064  1.00  0.00    -0.000 C 
BRANCH   7   8
ATOM      8  C   UNL     1     -20.521  -6.434  14.515  1.00  0.00    -0.000 C 
BRANCH   8   9
ATOM      9  C   UNL     1     -19.129  -6.958  14.908  1.00  0.00    -0.000 C 
BRANCH   9  10
ATOM     10  C   UNL     1     -18.029  -5.876  14.880  1.00  0.00    -0.000 C 
BRANCH  10  11
ATOM     11  C   UNL     1     -17.345  -5.775  13.508  1.00  0.00    -0.003 C 
ATOM     12  C   UNL     1     -16.504  -4.506  13.403  1.00  0.00     0.004 C 
ENDBRANCH  10  11
ENDBRANCH   9  10
ENDBRANCH   8   9
ENDBRANCH   7   8
ENDBRANCH   6   7
ENDBRANCH   5   6
ENDBRANCH   4   5
ENDBRANCH   3   4
ENDBRANCH   2   3
ENDBRANCH   1   2
BRANCH   1  13
ATOM     13  C   UNL     1     -24.669  -9.972  17.119  1.00  0.00     0.000 C 
BRANCH  13  14
ATOM     14  C   UNL     1     -24.721  -8.666  17.921  1.00  0.00     0.000 C 
BRANCH  14  15
ATOM     15  C   UNL     1     -25.741  -7.693  17.320  1.00  0.00     0.000 C 
BRANCH  15  16
ATOM     16  C   UNL     1     -25.825  -6.402  18.150  1.00  0.00     0.000 C 
BRANCH  16  17
ATOM     17  C   UNL     1     -24.850  -6.392  19.339  1.00  0.00     0.000 C 
BRANCH  17  18
ATOM     18  C   UNL     1     -25.461  -5.937  20.679  1.00  0.00     0.000 C 
BRANCH  18  19
ATOM     19  C   UNL     1     -26.639  -4.951  20.523  1.00  0.00     0.000 C 
BRANCH  19  20
ATOM     20  C   UNL     1     -27.482  -4.841  21.807  1.00  0.00     0.006 C 
BRANCH  20  21
ATOM     21  C   UNL     1     -27.445  -3.430  22.406  1.00  0.00     0.053 C 
BRANCH  21  22
ATOM     22  C   UNL     1     -26.477  -3.336  23.545  1.00  0.00     0.041 C 
ATOM     23  O   UNL     1     -26.864  -3.547  24.725  1.00  0.00    -0.550 OA
ATOM     24  O   UNL     1     -25.142  -3.039  23.302  1.00  0.00    -0.550 OA
ENDBRANCH  21  22
ENDBRANCH  20  21
ENDBRANCH  19  20
ENDBRANCH  18  19
ENDBRANCH  17  18
ENDBRANCH  16  17
ENDBRANCH  15  16
ENDBRANCH  14  15
ENDBRANCH  13  14
ENDBRANCH   1  13
TORSDOF 20
ENDMDL
MODEL 4
REMARK VINA RESULT:    -4.543      0.729      1.879
REMARK INTER + INTRA:         -12.937
REMARK INTER:                 -10.268
REMARK INTRA:                  -2.668
REMARK UNBOUND:                -3.082
REMARK SMILES CCCCCCCCCCCCCCCCCCCCCC(=O)[O-]
REMARK SMILES IDX 12 1 11 2 10 3 9 4 8 5 7 6 6 7 5 8 4 9 3 10 2 11 1 12 13 13
REMARK SMILES IDX 14 14 15 15 16 16 17 17 18 18 19 19 20 20 21 21 22 22 23 23
REMARK SMILES IDX 24 24
REMARK H PARENT
REMARK Flexibility Score: inf
ROOT
ATOM      1  C   UNL     1     -25.002  -6.723  19.539  1.00  0.00     0.000 C 
ENDROOT
BRANCH   1   2
ATOM      2  C   UNL     1     -25.837  -5.569  18.959  1.00  0.00     0.000 C 
BRANCH   2   3
ATOM      3  C   UNL     1     -27.015  -6.070  18.103  1.00  0.00     0.000 C 
BRANCH   3   4
ATOM      4  C   UNL     1     -27.589  -4.979  17.186  1.00  0.00    -0.000 C 
BRANCH   4   5
ATOM      5  C   UNL     1     -27.841  -5.481  15.755  1.00  0.00    -0.000 C 
BRANCH   5   6
ATOM      6  C   UNL     1     -27.227  -6.868  15.494  1.00  0.00    -0.000 C 
BRANCH   6   7
ATOM      7  C   UNL     1     -25.937  -6.819  14.648  1.00  0.00    -0.000 C 
BRANCH   7   8
ATOM      8  C   UNL     1     -24.758  -7.511  15.350  1.00  0.00    -0.000 C 
BRANCH   8   9
ATOM      9  C   UNL     1     -23.590  -7.824  14.400  1.00  0.00    -0.000 C 
BRANCH   9  10
ATOM     10  C   UNL     1     -22.763  -9.058  14.818  1.00  0.00    -0.000 C 
BRANCH  10  11
ATOM     11  C   UNL     1     -22.881  -9.357  16.319  1.00  0.00    -0.003 C 
ATOM     12  C   UNL     1     -23.544 -10.710  16.562  1.00  0.00     0.004 C 
ENDBRANCH  10  11
ENDBRANCH   9  10
ENDBRANCH   8   9
ENDBRANCH   7   8
ENDBRANCH   6   7
ENDBRANCH   5   6
ENDBRANCH   4   5
ENDBRANCH   3   4
ENDBRANCH   2   3
ENDBRANCH   1   2
BRANCH   1  13
ATOM     13  C   UNL     1     -23.851  -7.145  18.614  1.00  0.00     0.000 C 
BRANCH  13  14
ATOM     14  C   UNL     1     -22.934  -5.957  18.302  1.00  0.00     0.000 C 
BRANCH  14  15
ATOM     15  C   UNL     1     -21.825  -6.362  17.324  1.00  0.00     0.000 C 
BRANCH  15  16
ATOM     16  C   UNL     1     -21.355  -5.158  16.495  1.00  0.00     0.000 C 
BRANCH  16  17
ATOM     17  C   UNL     1     -20.885  -5.551  15.084  1.00  0.00     0.000 C 
BRANCH  17  18
ATOM     18  C   UNL     1     -19.499  -6.225  15.024  1.00  0.00     0.000 C 
BRANCH  18  19
ATOM     19  C   UNL     1     -19.553  -7.766  15.093  1.00  0.00     0.000 C 
BRANCH  19  20
ATOM     20  C   UNL     1     -18.531  -8.341  16.091  1.00  0.00     0.006 C 
BRANCH  20  21
ATOM     21  C   UNL     1     -19.207  -9.026  17.284  1.00  0.00     0.053 C 
BRANCH  21  22
ATOM     22  C   UNL     1     -18.246  -9.883  18.050  1.00  0.00     0.041 C 
ATOM     23  O   UNL     1     -18.481 -11.110  18.214  1.00  0.00    -0.550 OA
ATOM     24  O   UNL     1     -17.078  -9.333  18.561  1.00  0.00    -0.550 OA
ENDBRANCH  21  22
ENDBRANCH  20  21
ENDBRANCH  19  20
ENDBRANCH  18  19
ENDBRANCH  17  18
ENDBRANCH  16  17
ENDBRANCH  15  16
ENDBRANCH  14  15
ENDBRANCH  13  14
ENDBRANCH   1  13
TORSDOF 20
ENDMDL
MODEL 5
REMARK VINA RESULT:    -4.508      1.206      4.693
REMARK INTER + INTRA:         -12.860
REMARK INTER:                  -9.731
REMARK INTRA:                  -3.129
REMARK UNBOUND:                -3.082
REMARK SMILES CCCCCCCCCCCCCCCCCCCCCC(=O)[O-]
REMARK SMILES IDX 12 1 11 2 10 3 9 4 8 5 7 6 6 7 5 8 4 9 3 10 2 11 1 12 13 13
REMARK SMILES IDX 14 14 15 15 16 16 17 17 18 18 19 19 20 20 21 21 22 22 23 23
REMARK SMILES IDX 24 24
REMARK H PARENT
REMARK Flexibility Score: inf
ROOT
ATOM      1  C   UNL     1     -25.824  -7.941  17.194  1.00  0.00     0.000 C 
ENDROOT
BRANCH   1   2
ATOM      2  C   UNL     1     -24.721  -8.027  18.263  1.00  0.00     0.000 C 
BRANCH   2   3
ATOM      3  C   UNL     1     -24.215  -6.639  18.695  1.00  0.00     0.000 C 
BRANCH   3   4
ATOM      4  C   UNL     1     -22.716  -6.442  18.419  1.00  0.00    -0.000 C 
BRANCH   4   5
ATOM      5  C   UNL     1     -22.442  -5.302  17.424  1.00  0.00    -0.000 C 
BRANCH   5   6
ATOM      6  C   UNL     1     -21.029  -5.367  16.817  1.00  0.00    -0.000 C 
BRANCH   6   7
ATOM      7  C   UNL     1     -20.998  -5.082  15.301  1.00  0.00    -0.000 C 
BRANCH   7   8
ATOM      8  C   UNL     1     -20.056  -6.037  14.551  1.00  0.00    -0.000 C 
BRANCH   8   9
ATOM      9  C   UNL     1     -18.599  -5.947  15.035  1.00  0.00    -0.000 C 
BRANCH   9  10
ATOM     10  C   UNL     1     -17.561  -6.286  13.944  1.00  0.00    -0.000 C 
BRANCH  10  11
ATOM     11  C   UNL     1     -16.716  -5.067  13.544  1.00  0.00    -0.003 C 
ATOM     12  C   UNL     1     -17.587  -3.963  12.951  1.00  0.00     0.004 C 
ENDBRANCH  10  11
ENDBRANCH   9  10
ENDBRANCH   8   9
ENDBRANCH   7   8
ENDBRANCH   6   7
ENDBRANCH   5   6
ENDBRANCH   4   5
ENDBRANCH   3   4
ENDBRANCH   2   3
ENDBRANCH   1   2
BRANCH   1  13
ATOM     13  C   UNL     1     -25.590  -6.801  16.193  1.00  0.00     0.000 C 
BRANCH  13  14
ATOM     14  C   UNL     1     -25.050  -7.339  14.863  1.00  0.00     0.000 C 
BRANCH  14  15
ATOM     15  C   UNL     1     -23.523  -7.468  14.902  1.00  0.00     0.000 C 
BRANCH  15  16
ATOM     16  C   UNL     1     -23.080  -8.884  14.506  1.00  0.00     0.000 C 
BRANCH  16  17
ATOM     17  C   UNL     1     -22.914  -9.818  15.717  1.00  0.00     0.000 C 
BRANCH  17  18
ATOM     18  C   UNL     1     -22.043  -9.256  16.859  1.00  0.00     0.000 C 
BRANCH  18  19
ATOM     19  C   UNL     1     -20.579  -8.989  16.451  1.00  0.00     0.000 C 
BRANCH  19  20
ATOM     20  C   UNL     1     -19.678  -8.697  17.665  1.00  0.00     0.006 C 
BRANCH  20  21
ATOM     21  C   UNL     1     -18.192  -8.906  17.349  1.00  0.00     0.053 C 
BRANCH  21  22
ATOM     22  C   UNL     1     -17.511  -9.726  18.401  1.00  0.00     0.041 C 
ATOM     23  O   UNL     1     -16.472  -9.295  18.969  1.00  0.00    -0.550 OA
ATOM     24  O   UNL     1     -18.037 -10.956  18.775  1.00  0.00    -0.550 OA
ENDBRANCH  21  22
ENDBRANCH  20  21
ENDBRANCH  19  20
ENDBRANCH  18  19
ENDBRANCH  17  18
ENDBRANCH  16  17
ENDBRANCH  15  16
ENDBRANCH  14  15
ENDBRANCH  13  14
ENDBRANCH   1  13
TORSDOF 20
ENDMDL
MODEL 6
REMARK VINA RESULT:    -4.404      3.589      7.795
REMARK INTER + INTRA:         -12.637
REMARK INTER:                 -10.324
REMARK INTRA:                  -2.313
REMARK UNBOUND:                -3.082
REMARK SMILES CCCCCCCCCCCCCCCCCCCCCC(=O)[O-]
REMARK SMILES IDX 12 1 11 2 10 3 9 4 8 5 7 6 6 7 5 8 4 9 3 10 2 11 1 12 13 13
REMARK SMILES IDX 14 14 15 15 16 16 17 17 18 18 19 19 20 20 21 21 22 22 23 23
REMARK SMILES IDX 24 24
REMARK H PARENT
REMARK Flexibility Score: inf
ROOT
ATOM      1  C   UNL     1     -21.983  -8.161  17.758  1.00  0.00     0.000 C 
ENDROOT
BRANCH   1   2
ATOM      2  C   UNL     1     -21.893  -6.639  17.963  1.00  0.00     0.000 C 
BRANCH   2   3
ATOM      3  C   UNL     1     -22.173  -5.856  16.667  1.00  0.00     0.000 C 
BRANCH   3   4
ATOM      4  C   UNL     1     -20.965  -5.028  16.201  1.00  0.00    -0.000 C 
BRANCH   4   5
ATOM      5  C   UNL     1     -20.409  -5.504  14.849  1.00  0.00    -0.000 C 
BRANCH   5   6
ATOM      6  C   UNL     1     -18.873  -5.597  14.836  1.00  0.00    -0.000 C 
BRANCH   6   7
ATOM      7  C   UNL     1     -18.347  -7.020  14.548  1.00  0.00    -0.000 C 
BRANCH   7   8
ATOM      8  C   UNL     1     -19.012  -8.076  15.445  1.00  0.00    -0.000 C 
BRANCH   8   9
ATOM      9  C   UNL     1     -18.195  -8.392  16.709  1.00  0.00    -0.000 C 
BRANCH   9  10
ATOM     10  C   UNL     1     -18.780  -9.544  17.553  1.00  0.00    -0.000 C 
BRANCH  10  11
ATOM     11  C   UNL     1     -17.919  -9.859  18.785  1.00  0.00    -0.003 C 
ATOM     12  C   UNL     1     -16.560  -9.170  18.699  1.00  0.00     0.004 C 
ENDBRANCH  10  11
ENDBRANCH   9  10
ENDBRANCH   8   9
ENDBRANCH   7   8
ENDBRANCH   6   7
ENDBRANCH   5   6
ENDBRANCH   4   5
ENDBRANCH   3   4
ENDBRANCH   2   3
ENDBRANCH   1   2
BRANCH   1  13
ATOM     13  C   UNL     1     -22.768  -8.543  16.495  1.00  0.00     0.000 C 
BRANCH  13  14
ATOM     14  C   UNL     1     -23.941  -9.468  16.835  1.00  0.00     0.000 C 
BRANCH  14  15
ATOM     15  C   UNL     1     -24.874  -8.817  17.863  1.00  0.00     0.000 C 
BRANCH  15  16
ATOM     16  C   UNL     1     -25.937  -7.951  17.170  1.00  0.00     0.000 C 
BRANCH  16  17
ATOM     17  C   UNL     1     -25.996  -6.519  17.728  1.00  0.00     0.000 C 
BRANCH  17  18
ATOM     18  C   UNL     1     -26.999  -5.585  17.020  1.00  0.00     0.000 C 
BRANCH  18  19
ATOM     19  C   UNL     1     -27.596  -4.500  17.941  1.00  0.00     0.000 C 
BRANCH  19  20
ATOM     20  C   UNL     1     -27.736  -4.982  19.397  1.00  0.00     0.006 C 
BRANCH  20  21
ATOM     21  C   UNL     1     -27.473  -3.859  20.408  1.00  0.00     0.053 C 
BRANCH  21  22
ATOM     22  C   UNL     1     -27.052  -4.398  21.739  1.00  0.00     0.041 C 
ATOM     23  O   UNL     1     -27.549  -5.470  22.177  1.00  0.00    -0.550 OA
ATOM     24  O   UNL     1     -26.090  -3.732  22.488  1.00  0.00    -0.550 OA
ENDBRANCH  21  22
ENDBRANCH  20  21
ENDBRANCH  19  20
ENDBRANCH  18  19
ENDBRANCH  17  18
ENDBRANCH  16  17
ENDBRANCH  15  16
ENDBRANCH  14  15
ENDBRANCH  13  14
ENDBRANCH   1  13
TORSDOF 20
ENDMDL
MODEL 7
REMARK VINA RESULT:    -4.335      2.809      5.137
REMARK INTER + INTRA:         -12.486
REMARK INTER:                 -10.741
REMARK INTRA:                  -1.745
REMARK UNBOUND:                -3.082
REMARK SMILES CCCCCCCCCCCCCCCCCCCCCC(=O)[O-]
REMARK SMILES IDX 12 1 11 2 10 3 9 4 8 5 7 6 6 7 5 8 4 9 3 10 2 11 1 12 13 13
REMARK SMILES IDX 14 14 15 15 16 16 17 17 18 18 19 19 20 20 21 21 22 22 23 23
REMARK SMILES IDX 24 24
REMARK H PARENT
REMARK Flexibility Score: inf
ROOT
ATOM      1  C   UNL     1     -22.943  -8.179  17.625  1.00  0.00     0.000 C 
ENDROOT
BRANCH   1   2
ATOM      2  C   UNL     1     -24.441  -8.254  17.965  1.00  0.00     0.000 C 
BRANCH   2   3
ATOM      3  C   UNL     1     -25.126  -6.877  17.903  1.00  0.00     0.000 C 
BRANCH   3   4
ATOM      4  C   UNL     1     -25.204  -6.191  19.276  1.00  0.00    -0.000 C 
BRANCH   4   5
ATOM      5  C   UNL     1     -26.577  -5.551  19.540  1.00  0.00    -0.000 C 
BRANCH   5   6
ATOM      6  C   UNL     1     -26.635  -4.798  20.881  1.00  0.00    -0.000 C 
BRANCH   6   7
ATOM      7  C   UNL     1     -27.503  -3.523  20.832  1.00  0.00    -0.000 C 
BRANCH   7   8
ATOM      8  C   UNL     1     -27.361  -2.677  22.108  1.00  0.00    -0.000 C 
BRANCH   8   9
ATOM      9  C   UNL     1     -26.537  -3.374  23.203  1.00  0.00    -0.000 C 
BRANCH   9  10
ATOM     10  C   UNL     1     -25.207  -2.660  23.528  1.00  0.00    -0.000 C 
BRANCH  10  11
ATOM     11  C   UNL     1     -25.007  -2.461  25.038  1.00  0.00    -0.003 C 
ATOM     12  C   UNL     1     -26.178  -3.036  25.831  1.00  0.00     0.004 C 
ENDBRANCH  10  11
ENDBRANCH   9  10
ENDBRANCH   8   9
ENDBRANCH   7   8
ENDBRANCH   6   7
ENDBRANCH   5   6
ENDBRANCH   4   5
ENDBRANCH   3   4
ENDBRANCH   2   3
ENDBRANCH   1   2
BRANCH   1  13
ATOM     13  C   UNL     1     -22.598  -6.981  16.729  1.00  0.00     0.000 C 
BRANCH  13  14
ATOM     14  C   UNL     1     -21.724  -5.969  17.477  1.00  0.00     0.000 C 
BRANCH  14  15
ATOM     15  C   UNL     1     -21.310  -4.815  16.557  1.00  0.00     0.000 C 
BRANCH  15  16
ATOM     16  C   UNL     1     -20.912  -5.335  15.167  1.00  0.00     0.000 C 
BRANCH  16  17
ATOM     17  C   UNL     1     -19.393  -5.520  15.011  1.00  0.00     0.000 C 
BRANCH  17  18
ATOM     18  C   UNL     1     -18.959  -6.887  14.443  1.00  0.00     0.000 C 
BRANCH  18  19
ATOM     19  C   UNL     1     -19.357  -8.085  15.332  1.00  0.00     0.000 C 
BRANCH  19  20
ATOM     20  C   UNL     1     -18.359  -8.316  16.481  1.00  0.00     0.006 C 
BRANCH  20  21
ATOM     21  C   UNL     1     -18.981  -9.103  17.641  1.00  0.00     0.053 C 
BRANCH  21  22
ATOM     22  C   UNL     1     -17.965  -9.943  18.350  1.00  0.00     0.041 C 
ATOM     23  O   UNL     1     -16.874  -9.437  18.727  1.00  0.00    -0.550 OA
ATOM     24  O   UNL     1     -18.231 -11.279  18.619  1.00  0.00    -0.550 OA
ENDBRANCH  21  22
ENDBRANCH  20  21
ENDBRANCH  19  20
ENDBRANCH  18  19
ENDBRANCH  17  18
ENDBRANCH  16  17
ENDBRANCH  15  16
ENDBRANCH  14  15
ENDBRANCH  13  14
ENDBRANCH   1  13
TORSDOF 20
ENDMDL
MODEL 8
REMARK VINA RESULT:    -4.270      4.481      8.308
REMARK INTER + INTRA:         -12.346
REMARK INTER:                 -10.842
REMARK INTRA:                  -1.503
REMARK UNBOUND:                -3.082
REMARK SMILES CCCCCCCCCCCCCCCCCCCCCC(=O)[O-]
REMARK SMILES IDX 12 1 11 2 10 3 9 4 8 5 7 6 6 7 5 8 4 9 3 10 2 11 1 12 13 13
REMARK SMILES IDX 14 14 15 15 16 16 17 17 18 18 19 19 20 20 21 21 22 22 23 23
REMARK SMILES IDX 24 24
REMARK H PARENT
REMARK Flexibility Score: inf
ROOT
ATOM      1  C   UNL     1     -24.724  -8.604  17.872  1.00  0.00     0.000 C 
ENDROOT
BRANCH   1   2
ATOM      2  C   UNL     1     -23.268  -8.589  17.379  1.00  0.00     0.000 C 
BRANCH   2   3
ATOM      3  C   UNL     1     -23.055  -9.496  16.154  1.00  0.00     0.000 C 
BRANCH   3   4
ATOM      4  C   UNL     1     -22.871  -8.701  14.851  1.00  0.00    -0.000 C 
BRANCH   4   5
ATOM      5  C   UNL     1     -22.718  -7.190  15.097  1.00  0.00    -0.000 C 
BRANCH   5   6
ATOM      6  C   UNL     1     -21.254  -6.721  15.024  1.00  0.00    -0.000 C 
BRANCH   6   7
ATOM      7  C   UNL     1     -20.277  -7.826  14.568  1.00  0.00    -0.000 C 
BRANCH   7   8
ATOM      8  C   UNL     1     -19.001  -7.859  15.425  1.00  0.00    -0.000 C 
BRANCH   8   9
ATOM      9  C   UNL     1     -19.140  -8.740  16.678  1.00  0.00    -0.000 C 
BRANCH   9  10
ATOM     10  C   UNL     1     -17.842  -8.852  17.505  1.00  0.00    -0.000 C 
BRANCH  10  11
ATOM     11  C   UNL     1     -17.998  -9.791  18.710  1.00  0.00    -0.003 C 
ATOM     12  C   UNL     1     -18.376 -11.201  18.266  1.00  0.00     0.004 C 
ENDBRANCH  10  11
ENDBRANCH   9  10
ENDBRANCH   8   9
ENDBRANCH   7   8
ENDBRANCH   6   7
ENDBRANCH   5   6
ENDBRANCH   4   5
ENDBRANCH   3   4
ENDBRANCH   2   3
ENDBRANCH   1   2
BRANCH   1  13
ATOM     13  C   UNL     1     -25.575  -7.493  17.240  1.00  0.00     0.000 C 
BRANCH  13  14
ATOM     14  C   UNL     1     -25.880  -6.388  18.257  1.00  0.00     0.000 C 
BRANCH  14  15
ATOM     15  C   UNL     1     -24.816  -6.348  19.360  1.00  0.00     0.000 C 
BRANCH  15  16
ATOM     16  C   UNL     1     -25.439  -5.966  20.712  1.00  0.00     0.000 C 
BRANCH  16  17
ATOM     17  C   UNL     1     -26.595  -4.961  20.574  1.00  0.00     0.000 C 
BRANCH  17  18
ATOM     18  C   UNL     1     -27.127  -4.395  21.906  1.00  0.00     0.000 C 
BRANCH  18  19
ATOM     19  C   UNL     1     -27.403  -2.877  21.871  1.00  0.00     0.000 C 
BRANCH  19  20
ATOM     20  C   UNL     1     -26.441  -2.088  22.779  1.00  0.00     0.006 C 
BRANCH  20  21
ATOM     21  C   UNL     1     -25.435  -3.000  23.491  1.00  0.00     0.053 C 
BRANCH  21  22
ATOM     22  C   UNL     1     -25.406  -2.750  24.967  1.00  0.00     0.041 C 
ATOM     23  O   UNL     1     -26.391  -3.071  25.684  1.00  0.00    -0.550 OA
ATOM     24  O   UNL     1     -24.282  -2.185  25.555  1.00  0.00    -0.550 OA
ENDBRANCH  21  22
ENDBRANCH  20  21
ENDBRANCH  19  20
ENDBRANCH  18  19
ENDBRANCH  17  18
ENDBRANCH  16  17
ENDBRANCH  15  16
ENDBRANCH  14  15
ENDBRANCH  13  14
ENDBRANCH   1  13
TORSDOF 20
ENDMDL
MODEL 9
REMARK VINA RESULT:    -4.269      3.159      7.232
REMARK INTER + INTRA:         -12.343
REMARK INTER:                 -10.102
REMARK INTRA:                  -2.240
REMARK UNBOUND:                -3.082
REMARK SMILES CCCCCCCCCCCCCCCCCCCCCC(=O)[O-]
REMARK SMILES IDX 12 1 11 2 10 3 9 4 8 5 7 6 6 7 5 8 4 9 3 10 2 11 1 12 13 13
REMARK SMILES IDX 14 14 15 15 16 16 17 17 18 18 19 19 20 20 21 21 22 22 23 23
REMARK SMILES IDX 24 24
REMARK H PARENT
REMARK Flexibility Score: inf
ROOT
ATOM      1  C   UNL     1     -22.838 -10.084  16.485  1.00  0.00     0.000 C 
ENDROOT
BRANCH   1   2
ATOM      2  C   UNL     1     -22.319  -8.655  16.253  1.00  0.00     0.000 C 
BRANCH   2   3
ATOM      3  C   UNL     1     -21.179  -8.282  17.216  1.00  0.00     0.000 C 
BRANCH   3   4
ATOM      4  C   UNL     1     -21.615  -7.273  18.290  1.00  0.00    -0.000 C 
BRANCH   4   5
ATOM      5  C   UNL     1     -22.277  -6.020  17.691  1.00  0.00    -0.000 C 
BRANCH   5   6
ATOM      6  C   UNL     1     -21.274  -5.108  16.964  1.00  0.00    -0.000 C 
BRANCH   6   7
ATOM      7  C   UNL     1     -21.455  -5.095  15.431  1.00  0.00    -0.000 C 
BRANCH   7   8
ATOM      8  C   UNL     1     -20.113  -5.208  14.689  1.00  0.00    -0.000 C 
BRANCH   8   9
ATOM      9  C   UNL     1     -19.378  -6.529  14.971  1.00  0.00    -0.000 C 
BRANCH   9  10
ATOM     10  C   UNL     1     -17.982  -6.614  14.319  1.00  0.00    -0.000 C 
BRANCH  10  11
ATOM     11  C   UNL     1     -17.170  -5.325  14.511  1.00  0.00    -0.003 C 
ATOM     12  C   UNL     1     -16.762  -4.725  13.168  1.00  0.00     0.004 C 
ENDBRANCH  10  11
ENDBRANCH   9  10
ENDBRANCH   8   9
ENDBRANCH   7   8
ENDBRANCH   6   7
ENDBRANCH   5   6
ENDBRANCH   4   5
ENDBRANCH   3   4
ENDBRANCH   2   3
ENDBRANCH   1   2
BRANCH   1  13
ATOM     13  C   UNL     1     -24.319 -10.119  16.887  1.00  0.00     0.000 C 
BRANCH  13  14
ATOM     14  C   UNL     1     -24.707  -8.857  17.665  1.00  0.00     0.000 C 
BRANCH  14  15
ATOM     15  C   UNL     1     -26.020  -8.268  17.136  1.00  0.00     0.000 C 
BRANCH  15  16
ATOM     16  C   UNL     1     -25.757  -7.030  16.265  1.00  0.00     0.000 C 
BRANCH  16  17
ATOM     17  C   UNL     1     -26.918  -6.717  15.306  1.00  0.00     0.000 C 
BRANCH  17  18
ATOM     18  C   UNL     1     -27.846  -5.572  15.758  1.00  0.00     0.000 C 
BRANCH  18  19
ATOM     19  C   UNL     1     -27.300  -4.764  16.955  1.00  0.00     0.000 C 
BRANCH  19  20
ATOM     20  C   UNL     1     -27.887  -5.240  18.296  1.00  0.00     0.006 C 
BRANCH  20  21
ATOM     21  C   UNL     1     -27.357  -4.426  19.483  1.00  0.00     0.053 C 
BRANCH  21  22
ATOM     22  C   UNL     1     -26.368  -5.206  20.293  1.00  0.00     0.041 C 
ATOM     23  O   UNL     1     -26.463  -5.241  21.549  1.00  0.00    -0.550 OA
ATOM     24  O   UNL     1     -25.356  -5.916  19.661  1.00  0.00    -0.550 OA
ENDBRANCH  21  22
ENDBRANCH  20  21
ENDBRANCH  19  20
ENDBRANCH  18  19
ENDBRANCH  17  18
ENDBRANCH  16  17
ENDBRANCH  15  16
ENDBRANCH  14  15
ENDBRANCH  13  14
ENDBRANCH   1  13
TORSDOF 20
ENDMDL
