MODEL 1
REMARK VINA RESULT:    -5.239      0.000      0.000
REMARK INTER + INTRA:          -6.426
REMARK INTER:                  -6.158
REMARK INTRA:                  -0.269
REMARK UNBOUND:                -0.269
REMARK SMILES O=c1cc(-c2ccc(O)c(O)c2)oc2cc(O)cc(O)c12
REMARK SMILES IDX 4 1 3 2 2 3 1 4 21 5 19 6 18 7 16 8 15 9 14 10 13 11 5 12
REMARK SMILES IDX 6 13 7 14 8 15 12 16 10 17 9 18 11 20 20 22 17 24
REMARK H PARENT 9 19 11 21 20 23 17 25
REMARK Flexibility Score: inf
ROOT
ATOM      1  C   UNL     1      15.707  54.599  30.610  1.00  0.00     0.138 A 
ATOM      2  C   UNL     1      15.714  54.522  29.211  1.00  0.00     0.100 A 
ATOM      3  C   UNL     1      15.404  53.314  28.584  1.00  0.00     0.197 A 
ATOM      4  O   UNL     1      15.472  53.262  27.329  1.00  0.00    -0.289 OA
ATOM      5  C   UNL     1      15.050  52.187  29.365  1.00  0.00     0.107 A 
ATOM      6  C   UNL     1      14.682  50.912  28.835  1.00  0.00     0.134 A 
ATOM      7  C   UNL     1      14.448  49.843  29.709  1.00  0.00     0.093 A 
ATOM      8  C   UNL     1      14.513  50.017  31.094  1.00  0.00     0.123 A 
ATOM      9  C   UNL     1      14.821  51.268  31.621  1.00  0.00     0.094 A 
ATOM     10  C   UNL     1      15.094  52.345  30.776  1.00  0.00     0.146 A 
ATOM     11  O   UNL     1      15.403  53.518  31.321  1.00  0.00    -0.456 OA
ENDROOT
BRANCH   1  12
ATOM     12  C   UNL     1      16.025  55.859  31.328  1.00  0.00     0.021 A 
ATOM     13  C   UNL     1      15.083  56.402  32.219  1.00  0.00     0.016 A 
ATOM     14  C   UNL     1      15.359  57.583  32.913  1.00  0.00     0.051 A 
ATOM     15  C   UNL     1      16.583  58.235  32.740  1.00  0.00     0.157 A 
ATOM     16  C   UNL     1      17.262  56.512  31.167  1.00  0.00     0.062 A 
ATOM     17  C   UNL     1      17.542  57.697  31.866  1.00  0.00     0.158 A 
BRANCH  15  18
ATOM     18  O   UNL     1      16.831  59.412  33.445  1.00  0.00    -0.504 OA
ATOM     19  H   UNL     1      17.351  60.182  33.042  1.00  0.00     0.293 HD
ENDBRANCH  15  18
BRANCH  17  20
ATOM     20  O   UNL     1      18.769  58.336  31.696  1.00  0.00    -0.504 OA
ATOM     21  H   UNL     1      19.495  57.946  31.108  1.00  0.00     0.293 HD
ENDBRANCH  17  20
ENDBRANCH   1  12
BRANCH   6  22
ATOM     22  O   UNL     1      14.511  50.650  27.473  1.00  0.00    -0.507 OA
ATOM     23  H   UNL     1      14.745  49.783  27.015  1.00  0.00     0.293 HD
ENDBRANCH   6  22
BRANCH   8  24
ATOM     24  O   UNL     1      14.263  48.951  31.956  1.00  0.00    -0.508 OA
ATOM     25  H   UNL     1      14.644  48.028  31.782  1.00  0.00     0.293 HD
ENDBRANCH   8  24
TORSDOF 5
ENDMDL
MODEL 2
REMARK VINA RESULT:    -5.217      1.911      7.228
REMARK INTER + INTRA:          -6.401
REMARK INTER:                  -6.094
REMARK INTRA:                  -0.307
REMARK UNBOUND:                -0.269
REMARK SMILES O=c1cc(-c2ccc(O)c(O)c2)oc2cc(O)cc(O)c12
REMARK SMILES IDX 4 1 3 2 2 3 1 4 21 5 19 6 18 7 16 8 15 9 14 10 13 11 5 12
REMARK SMILES IDX 6 13 7 14 8 15 12 16 10 17 9 18 11 20 20 22 17 24
REMARK H PARENT 9 19 11 21 20 23 17 25
REMARK Flexibility Score: inf
ROOT
ATOM      1  C   UNL     1      14.483  54.098  31.790  1.00  0.00     0.138 A 
ATOM      2  C   UNL     1      13.455  54.816  32.416  1.00  0.00     0.100 A 
ATOM      3  C   UNL     1      13.667  56.146  32.783  1.00  0.00     0.197 A 
ATOM      4  O   UNL     1      12.744  56.747  33.392  1.00  0.00    -0.289 OA
ATOM      5  C   UNL     1      14.904  56.769  32.489  1.00  0.00     0.107 A 
ATOM      6  C   UNL     1      15.221  58.129  32.786  1.00  0.00     0.134 A 
ATOM      7  C   UNL     1      16.514  58.607  32.537  1.00  0.00     0.093 A 
ATOM      8  C   UNL     1      17.483  57.789  31.949  1.00  0.00     0.123 A 
ATOM      9  C   UNL     1      17.168  56.476  31.610  1.00  0.00     0.094 A 
ATOM     10  C   UNL     1      15.899  55.960  31.877  1.00  0.00     0.146 A 
ATOM     11  O   UNL     1      15.646  54.696  31.553  1.00  0.00    -0.456 OA
ENDROOT
BRANCH   1  12
ATOM     12  C   UNL     1      14.311  52.682  31.375  1.00  0.00     0.021 A 
ATOM     13  C   UNL     1      13.031  52.215  31.033  1.00  0.00     0.016 A 
ATOM     14  C   UNL     1      12.842  50.890  30.631  1.00  0.00     0.051 A 
ATOM     15  C   UNL     1      13.927  50.013  30.554  1.00  0.00     0.157 A 
ATOM     16  C   UNL     1      15.404  51.800  31.282  1.00  0.00     0.062 A 
ATOM     17  C   UNL     1      15.216  50.469  30.877  1.00  0.00     0.158 A 
BRANCH  15  18
ATOM     18  O   UNL     1      13.709  48.696  30.151  1.00  0.00    -0.504 OA
ATOM     19  H   UNL     1      13.391  47.982  30.794  1.00  0.00     0.293 HD
ENDBRANCH  15  18
BRANCH  17  20
ATOM     20  O   UNL     1      16.305  49.604  30.791  1.00  0.00    -0.504 OA
ATOM     21  H   UNL     1      17.099  49.805  30.195  1.00  0.00     0.293 HD
ENDBRANCH  17  20
ENDBRANCH   1  12
BRANCH   6  22
ATOM     22  O   UNL     1      14.307  59.053  33.300  1.00  0.00    -0.507 OA
ATOM     23  H   UNL     1      14.036  59.125  34.269  1.00  0.00     0.293 HD
ENDBRANCH   6  22
BRANCH   8  24
ATOM     24  O   UNL     1      18.762  58.278  31.691  1.00  0.00    -0.508 OA
ATOM     25  H   UNL     1      19.547  58.058  32.295  1.00  0.00     0.293 HD
ENDBRANCH   8  24
TORSDOF 5
ENDMDL
MODEL 3
REMARK VINA RESULT:    -5.198      1.881      2.243
REMARK INTER + INTRA:          -6.379
REMARK INTER:                  -6.074
REMARK INTRA:                  -0.305
REMARK UNBOUND:                -0.269
REMARK SMILES O=c1cc(-c2ccc(O)c(O)c2)oc2cc(O)cc(O)c12
REMARK SMILES IDX 4 1 3 2 2 3 1 4 21 5 19 6 18 7 16 8 15 9 14 10 13 11 5 12
REMARK SMILES IDX 6 13 7 14 8 15 12 16 10 17 9 18 11 20 20 22 17 24
REMARK H PARENT 9 19 11 21 20 23 17 25
REMARK Flexibility Score: inf
ROOT
ATOM      1  C   UNL     1      14.728  55.212  31.725  1.00  0.00     0.138 A 
ATOM      2  C   UNL     1      13.347  55.199  31.489  1.00  0.00     0.100 A 
ATOM      3  C   UNL     1      12.712  53.998  31.170  1.00  0.00     0.197 A 
ATOM      4  O   UNL     1      11.481  54.029  30.910  1.00  0.00    -0.289 OA
ATOM      5  C   UNL     1      13.460  52.797  31.122  1.00  0.00     0.107 A 
ATOM      6  C   UNL     1      12.914  51.508  30.840  1.00  0.00     0.134 A 
ATOM      7  C   UNL     1      13.771  50.406  30.723  1.00  0.00     0.093 A 
ATOM      8  C   UNL     1      15.146  50.536  30.933  1.00  0.00     0.123 A 
ATOM      9  C   UNL     1      15.681  51.780  31.257  1.00  0.00     0.094 A 
ATOM     10  C   UNL     1      14.859  52.904  31.348  1.00  0.00     0.146 A 
ATOM     11  O   UNL     1      15.414  54.075  31.642  1.00  0.00    -0.456 OA
ENDROOT
BRANCH   1  12
ATOM     12  C   UNL     1      15.455  56.460  32.072  1.00  0.00     0.021 A 
ATOM     13  C   UNL     1      14.794  57.461  32.803  1.00  0.00     0.016 A 
ATOM     14  C   UNL     1      15.456  58.642  33.149  1.00  0.00     0.051 A 
ATOM     15  C   UNL     1      16.790  58.839  32.781  1.00  0.00     0.157 A 
ATOM     16  C   UNL     1      16.803  56.656  31.715  1.00  0.00     0.062 A 
ATOM     17  C   UNL     1      17.469  57.841  32.064  1.00  0.00     0.158 A 
BRANCH  15  18
ATOM     18  O   UNL     1      17.425  60.027  33.139  1.00  0.00    -0.504 OA
ATOM     19  H   UNL     1      18.431  60.097  33.225  1.00  0.00     0.293 HD
ENDBRANCH  15  18
BRANCH  17  20
ATOM     20  O   UNL     1      18.803  58.025  31.702  1.00  0.00    -0.504 OA
ATOM     21  H   UNL     1      19.101  57.996  30.735  1.00  0.00     0.293 HD
ENDBRANCH  17  20
ENDBRANCH   1  12
BRANCH   6  22
ATOM     22  O   UNL     1      11.548  51.251  30.691  1.00  0.00    -0.507 OA
ATOM     23  H   UNL     1      11.093  51.015  29.823  1.00  0.00     0.293 HD
ENDBRANCH   6  22
BRANCH   8  24
ATOM     24  O   UNL     1      15.988  49.432  30.829  1.00  0.00    -0.508 OA
ATOM     25  H   UNL     1      15.622  48.486  30.797  1.00  0.00     0.293 HD
ENDBRANCH   8  24
TORSDOF 5
ENDMDL
MODEL 4
REMARK VINA RESULT:    -5.071      1.187      2.711
REMARK INTER + INTRA:          -6.229
REMARK INTER:                  -5.944
REMARK INTRA:                  -0.285
REMARK UNBOUND:                -0.269
REMARK SMILES O=c1cc(-c2ccc(O)c(O)c2)oc2cc(O)cc(O)c12
REMARK SMILES IDX 4 1 3 2 2 3 1 4 21 5 19 6 18 7 16 8 15 9 14 10 13 11 5 12
REMARK SMILES IDX 6 13 7 14 8 15 12 16 10 17 9 18 11 20 20 22 17 24
REMARK H PARENT 9 19 11 21 20 23 17 25
REMARK Flexibility Score: inf
ROOT
ATOM      1  C   UNL     1      15.652  54.493  31.040  1.00  0.00     0.138 A 
ATOM      2  C   UNL     1      15.288  53.393  31.828  1.00  0.00     0.100 A 
ATOM      3  C   UNL     1      14.975  52.179  31.215  1.00  0.00     0.197 A 
ATOM      4  O   UNL     1      14.599  51.226  31.945  1.00  0.00    -0.289 OA
ATOM      5  C   UNL     1      15.061  52.058  29.807  1.00  0.00     0.107 A 
ATOM      6  C   UNL     1      14.797  50.861  29.074  1.00  0.00     0.134 A 
ATOM      7  C   UNL     1      14.820  50.889  27.674  1.00  0.00     0.093 A 
ATOM      8  C   UNL     1      15.151  52.057  26.982  1.00  0.00     0.123 A 
ATOM      9  C   UNL     1      15.459  53.216  27.689  1.00  0.00     0.094 A 
ATOM     10  C   UNL     1      15.412  53.230  29.084  1.00  0.00     0.146 A 
ATOM     11  O   UNL     1      15.695  54.363  29.718  1.00  0.00    -0.456 OA
ENDROOT
BRANCH   1  12
ATOM     12  C   UNL     1      16.000  55.807  31.639  1.00  0.00     0.021 A 
ATOM     13  C   UNL     1      15.113  56.406  32.551  1.00  0.00     0.016 A 
ATOM     14  C   UNL     1      15.419  57.638  33.135  1.00  0.00     0.051 A 
ATOM     15  C   UNL     1      16.617  58.288  32.828  1.00  0.00     0.157 A 
ATOM     16  C   UNL     1      17.213  56.458  31.344  1.00  0.00     0.062 A 
ATOM     17  C   UNL     1      17.521  57.695  31.931  1.00  0.00     0.158 A 
BRANCH  15  18
ATOM     18  O   UNL     1      16.895  59.517  33.424  1.00  0.00    -0.504 OA
ATOM     19  H   UNL     1      16.930  60.378  32.894  1.00  0.00     0.293 HD
ENDBRANCH  15  18
BRANCH  17  20
ATOM     20  O   UNL     1      18.724  58.332  31.629  1.00  0.00    -0.504 OA
ATOM     21  H   UNL     1      19.617  57.868  31.750  1.00  0.00     0.293 HD
ENDBRANCH  17  20
ENDBRANCH   1  12
BRANCH   6  22
ATOM     22  O   UNL     1      14.534  49.622  29.667  1.00  0.00    -0.507 OA
ATOM     23  H   UNL     1      13.620  49.286  29.926  1.00  0.00     0.293 HD
ENDBRANCH   6  22
BRANCH   8  24
ATOM     24  O   UNL     1      15.186  52.071  25.590  1.00  0.00    -0.508 OA
ATOM     25  H   UNL     1      15.001  52.918  25.063  1.00  0.00     0.293 HD
ENDBRANCH   8  24
TORSDOF 5
ENDMDL
MODEL 5
REMARK VINA RESULT:    -5.021      3.337      7.452
REMARK INTER + INTRA:          -6.170
REMARK INTER:                  -5.904
REMARK INTRA:                  -0.267
REMARK UNBOUND:                -0.269
REMARK SMILES O=c1cc(-c2ccc(O)c(O)c2)oc2cc(O)cc(O)c12
REMARK SMILES IDX 4 1 3 2 2 3 1 4 21 5 19 6 18 7 16 8 15 9 14 10 13 11 5 12
REMARK SMILES IDX 6 13 7 14 8 15 12 16 10 17 9 18 11 20 20 22 17 24
REMARK H PARENT 9 19 11 21 20 23 17 25
REMARK Flexibility Score: inf
ROOT
ATOM      1  C   UNL     1      14.574  50.557  31.146  1.00  0.00     0.138 A 
ATOM      2  C   UNL     1      13.317  50.719  30.547  1.00  0.00     0.100 A 
ATOM      3  C   UNL     1      12.582  51.881  30.788  1.00  0.00     0.197 A 
ATOM      4  O   UNL     1      11.435  51.973  30.281  1.00  0.00    -0.289 OA
ATOM      5  C   UNL     1      13.126  52.901  31.605  1.00  0.00     0.107 A 
ATOM      6  C   UNL     1      12.483  54.143  31.895  1.00  0.00     0.134 A 
ATOM      7  C   UNL     1      13.077  55.034  32.798  1.00  0.00     0.093 A 
ATOM      8  C   UNL     1      14.317  54.753  33.378  1.00  0.00     0.123 A 
ATOM      9  C   UNL     1      14.975  53.567  33.063  1.00  0.00     0.094 A 
ATOM     10  C   UNL     1      14.394  52.643  32.193  1.00  0.00     0.146 A 
ATOM     11  O   UNL     1      15.049  51.515  31.935  1.00  0.00    -0.456 OA
ENDROOT
BRANCH   1  12
ATOM     12  C   UNL     1      15.400  49.343  30.921  1.00  0.00     0.021 A 
ATOM     13  C   UNL     1      16.500  49.410  30.049  1.00  0.00     0.016 A 
ATOM     14  C   UNL     1      17.299  48.285  29.825  1.00  0.00     0.051 A 
ATOM     15  C   UNL     1      17.019  47.079  30.474  1.00  0.00     0.157 A 
ATOM     16  C   UNL     1      15.130  48.130  31.583  1.00  0.00     0.062 A 
ATOM     17  C   UNL     1      15.933  47.001  31.360  1.00  0.00     0.158 A 
BRANCH  15  18
ATOM     18  O   UNL     1      17.832  45.973  30.230  1.00  0.00    -0.504 OA
ATOM     19  H   UNL     1      18.697  46.044  29.708  1.00  0.00     0.293 HD
ENDBRANCH  15  18
BRANCH  17  20
ATOM     20  O   UNL     1      15.655  45.804  32.020  1.00  0.00    -0.504 OA
ATOM     21  H   UNL     1      15.756  44.907  31.561  1.00  0.00     0.293 HD
ENDBRANCH  17  20
ENDBRANCH   1  12
BRANCH   6  22
ATOM     22  O   UNL     1      11.283  54.558  31.311  1.00  0.00    -0.507 OA
ATOM     23  H   UNL     1      10.486  54.917  31.813  1.00  0.00     0.293 HD
ENDBRANCH   6  22
BRANCH   8  24
ATOM     24  O   UNL     1      14.907  55.653  34.262  1.00  0.00    -0.508 OA
ATOM     25  H   UNL     1      15.758  56.151  34.025  1.00  0.00     0.293 HD
ENDBRANCH   8  24
TORSDOF 5
ENDMDL
MODEL 6
REMARK VINA RESULT:    -4.975      4.915      8.722
REMARK INTER + INTRA:          -6.117
REMARK INTER:                  -5.825
REMARK INTRA:                  -0.292
REMARK UNBOUND:                -0.269
REMARK SMILES O=c1cc(-c2ccc(O)c(O)c2)oc2cc(O)cc(O)c12
REMARK SMILES IDX 4 1 3 2 2 3 1 4 21 5 19 6 18 7 16 8 15 9 14 10 13 11 5 12
REMARK SMILES IDX 6 13 7 14 8 15 12 16 10 17 9 18 11 20 20 22 17 24
REMARK H PARENT 9 19 11 21 20 23 17 25
REMARK Flexibility Score: inf
ROOT
ATOM      1  C   UNL     1      15.890  47.371  30.117  1.00  0.00     0.138 A 
ATOM      2  C   UNL     1      16.532  46.662  29.093  1.00  0.00     0.100 A 
ATOM      3  C   UNL     1      17.046  47.351  27.993  1.00  0.00     0.197 A 
ATOM      4  O   UNL     1      17.566  46.681  27.064  1.00  0.00    -0.289 OA
ATOM      5  C   UNL     1      16.947  48.762  27.937  1.00  0.00     0.107 A 
ATOM      6  C   UNL     1      17.464  49.574  26.882  1.00  0.00     0.134 A 
ATOM      7  C   UNL     1      17.219  50.953  26.889  1.00  0.00     0.093 A 
ATOM      8  C   UNL     1      16.525  51.557  27.941  1.00  0.00     0.123 A 
ATOM      9  C   UNL     1      16.061  50.780  28.999  1.00  0.00     0.094 A 
ATOM     10  C   UNL     1      16.259  49.399  29.005  1.00  0.00     0.146 A 
ATOM     11  O   UNL     1      15.783  48.693  30.027  1.00  0.00    -0.456 OA
ENDROOT
BRANCH   1  12
ATOM     12  C   UNL     1      15.329  46.690  31.311  1.00  0.00     0.021 A 
ATOM     13  C   UNL     1      15.112  47.428  32.488  1.00  0.00     0.016 A 
ATOM     14  C   UNL     1      14.578  46.813  33.623  1.00  0.00     0.051 A 
ATOM     15  C   UNL     1      14.242  45.457  33.602  1.00  0.00     0.157 A 
ATOM     16  C   UNL     1      14.977  45.327  31.289  1.00  0.00     0.062 A 
ATOM     17  C   UNL     1      14.439  44.710  32.429  1.00  0.00     0.158 A 
BRANCH  15  18
ATOM     18  O   UNL     1      13.713  44.870  34.750  1.00  0.00    -0.504 OA
ATOM     19  H   UNL     1      12.816  45.144  35.132  1.00  0.00     0.293 HD
ENDBRANCH  15  18
BRANCH  17  20
ATOM     20  O   UNL     1      14.095  43.358  32.396  1.00  0.00    -0.504 OA
ATOM     21  H   UNL     1      14.512  42.688  33.032  1.00  0.00     0.293 HD
ENDBRANCH  17  20
ENDBRANCH   1  12
BRANCH   6  22
ATOM     22  O   UNL     1      18.237  49.085  25.825  1.00  0.00    -0.507 OA
ATOM     23  H   UNL     1      18.572  49.634  25.048  1.00  0.00     0.293 HD
ENDBRANCH   6  22
BRANCH   8  24
ATOM     24  O   UNL     1      16.299  52.931  27.946  1.00  0.00    -0.508 OA
ATOM     25  H   UNL     1      16.802  53.549  28.574  1.00  0.00     0.293 HD
ENDBRANCH   8  24
TORSDOF 5
ENDMDL
MODEL 7
REMARK VINA RESULT:    -4.939      4.699      8.538
REMARK INTER + INTRA:          -6.075
REMARK INTER:                  -5.760
REMARK INTRA:                  -0.314
REMARK UNBOUND:                -0.269
REMARK SMILES O=c1cc(-c2ccc(O)c(O)c2)oc2cc(O)cc(O)c12
REMARK SMILES IDX 4 1 3 2 2 3 1 4 21 5 19 6 18 7 16 8 15 9 14 10 13 11 5 12
REMARK SMILES IDX 6 13 7 14 8 15 12 16 10 17 9 18 11 20 20 22 17 24
REMARK H PARENT 9 19 11 21 20 23 17 25
REMARK Flexibility Score: inf
ROOT
ATOM      1  C   UNL     1      15.349  48.296  30.863  1.00  0.00     0.138 A 
ATOM      2  C   UNL     1      15.010  49.619  31.180  1.00  0.00     0.100 A 
ATOM      3  C   UNL     1      15.391  50.653  30.322  1.00  0.00     0.197 A 
ATOM      4  O   UNL     1      15.120  51.834  30.661  1.00  0.00    -0.289 OA
ATOM      5  C   UNL     1      16.083  50.355  29.123  1.00  0.00     0.107 A 
ATOM      6  C   UNL     1      16.492  51.323  28.157  1.00  0.00     0.134 A 
ATOM      7  C   UNL     1      17.257  50.918  27.056  1.00  0.00     0.093 A 
ATOM      8  C   UNL     1      17.581  49.573  26.858  1.00  0.00     0.123 A 
ATOM      9  C   UNL     1      17.143  48.615  27.768  1.00  0.00     0.094 A 
ATOM     10  C   UNL     1      16.408  48.990  28.894  1.00  0.00     0.146 A 
ATOM     11  O   UNL     1      16.027  48.045  29.747  1.00  0.00    -0.456 OA
ENDROOT
BRANCH   1  12
ATOM     12  C   UNL     1      14.967  47.158  31.737  1.00  0.00     0.021 A 
ATOM     13  C   UNL     1      14.543  47.410  33.053  1.00  0.00     0.016 A 
ATOM     14  C   UNL     1      14.171  46.358  33.894  1.00  0.00     0.051 A 
ATOM     15  C   UNL     1      14.205  45.039  33.433  1.00  0.00     0.157 A 
ATOM     16  C   UNL     1      14.986  45.829  31.272  1.00  0.00     0.062 A 
ATOM     17  C   UNL     1      14.611  44.771  32.115  1.00  0.00     0.158 A 
BRANCH  15  18
ATOM     18  O   UNL     1      13.829  44.009  34.294  1.00  0.00    -0.504 OA
ATOM     19  H   UNL     1      13.383  43.163  33.961  1.00  0.00     0.293 HD
ENDBRANCH  15  18
BRANCH  17  20
ATOM     20  O   UNL     1      14.636  43.459  31.645  1.00  0.00    -0.504 OA
ATOM     21  H   UNL     1      15.505  42.996  31.407  1.00  0.00     0.293 HD
ENDBRANCH  17  20
ENDBRANCH   1  12
BRANCH   6  22
ATOM     22  O   UNL     1      16.156  52.678  28.216  1.00  0.00    -0.507 OA
ATOM     23  H   UNL     1      15.218  53.046  28.186  1.00  0.00     0.293 HD
ENDBRANCH   6  22
BRANCH   8  24
ATOM     24  O   UNL     1      18.330  49.179  25.752  1.00  0.00    -0.508 OA
ATOM     25  H   UNL     1      17.903  49.048  24.841  1.00  0.00     0.293 HD
ENDBRANCH   8  24
TORSDOF 5
ENDMDL
MODEL 8
REMARK VINA RESULT:    -4.908      5.822      8.710
REMARK INTER + INTRA:          -6.038
REMARK INTER:                  -5.741
REMARK INTRA:                  -0.296
REMARK UNBOUND:                -0.269
REMARK SMILES O=c1cc(-c2ccc(O)c(O)c2)oc2cc(O)cc(O)c12
REMARK SMILES IDX 4 1 3 2 2 3 1 4 21 5 19 6 18 7 16 8 15 9 14 10 13 11 5 12
REMARK SMILES IDX 6 13 7 14 8 15 12 16 10 17 9 18 11 20 20 22 17 24
REMARK H PARENT 9 19 11 21 20 23 17 25
REMARK Flexibility Score: inf
ROOT
ATOM      1  C   UNL     1      15.735  46.371  30.231  1.00  0.00     0.138 A 
ATOM      2  C   UNL     1      15.830  45.058  29.750  1.00  0.00     0.100 A 
ATOM      3  C   UNL     1      15.315  44.006  30.509  1.00  0.00     0.197 A 
ATOM      4  O   UNL     1      15.465  42.834  30.076  1.00  0.00    -0.289 OA
ATOM      5  C   UNL     1      14.667  44.276  31.739  1.00  0.00     0.107 A 
ATOM      6  C   UNL     1      14.074  43.287  32.581  1.00  0.00     0.134 A 
ATOM      7  C   UNL     1      13.549  43.664  33.823  1.00  0.00     0.093 A 
ATOM      8  C   UNL     1      13.545  45.001  34.229  1.00  0.00     0.123 A 
ATOM      9  C   UNL     1      14.076  45.979  33.392  1.00  0.00     0.094 A 
ATOM     10  C   UNL     1      14.638  45.632  32.163  1.00  0.00     0.146 A 
ATOM     11  O   UNL     1      15.150  46.596  31.404  1.00  0.00    -0.456 OA
ENDROOT
BRANCH   1  12
ATOM     12  C   UNL     1      16.262  47.529  29.464  1.00  0.00     0.021 A 
ATOM     13  C   UNL     1      16.305  48.796  30.070  1.00  0.00     0.016 A 
ATOM     14  C   UNL     1      16.803  49.900  29.374  1.00  0.00     0.051 A 
ATOM     15  C   UNL     1      17.277  49.757  28.067  1.00  0.00     0.157 A 
ATOM     16  C   UNL     1      16.753  47.386  28.152  1.00  0.00     0.062 A 
ATOM     17  C   UNL     1      17.255  48.495  27.453  1.00  0.00     0.158 A 
BRANCH  15  18
ATOM     18  O   UNL     1      17.767  50.877  27.396  1.00  0.00    -0.504 OA
ATOM     19  H   UNL     1      17.200  51.701  27.237  1.00  0.00     0.293 HD
ENDBRANCH  15  18
BRANCH  17  20
ATOM     20  O   UNL     1      17.736  48.342  26.153  1.00  0.00    -0.504 OA
ATOM     21  H   UNL     1      17.247  48.730  25.355  1.00  0.00     0.293 HD
ENDBRANCH  17  20
ENDBRANCH   1  12
BRANCH   6  22
ATOM     22  O   UNL     1      13.954  41.937  32.239  1.00  0.00    -0.507 OA
ATOM     23  H   UNL     1      13.107  41.492  31.922  1.00  0.00     0.293 HD
ENDBRANCH   6  22
BRANCH   8  24
ATOM     24  O   UNL     1      13.006  45.368  35.460  1.00  0.00    -0.508 OA
ATOM     25  H   UNL     1      12.007  45.338  35.632  1.00  0.00     0.293 HD
ENDBRANCH   8  24
TORSDOF 5
ENDMDL
MODEL 9
REMARK VINA RESULT:    -4.893      2.606      7.150
REMARK INTER + INTRA:          -6.019
REMARK INTER:                  -5.751
REMARK INTRA:                  -0.269
REMARK UNBOUND:                -0.269
REMARK SMILES O=c1cc(-c2ccc(O)c(O)c2)oc2cc(O)cc(O)c12
REMARK SMILES IDX 4 1 3 2 2 3 1 4 21 5 19 6 18 7 16 8 15 9 14 10 13 11 5 12
REMARK SMILES IDX 6 13 7 14 8 15 12 16 10 17 9 18 11 20 20 22 17 24
REMARK H PARENT 9 19 11 21 20 23 17 25
REMARK Flexibility Score: inf
ROOT
ATOM      1  C   UNL     1      15.085  51.656  31.493  1.00  0.00     0.138 A 
ATOM      2  C   UNL     1      15.423  52.703  30.625  1.00  0.00     0.100 A 
ATOM      3  C   UNL     1      15.378  54.021  31.083  1.00  0.00     0.197 A 
ATOM      4  O   UNL     1      15.634  54.941  30.264  1.00  0.00    -0.289 OA
ATOM      5  C   UNL     1      15.028  54.287  32.429  1.00  0.00     0.107 A 
ATOM      6  C   UNL     1      14.981  55.588  33.016  1.00  0.00     0.134 A 
ATOM      7  C   UNL     1      14.523  55.736  34.331  1.00  0.00     0.093 A 
ATOM      8  C   UNL     1      14.165  54.624  35.099  1.00  0.00     0.123 A 
ATOM      9  C   UNL     1      14.256  53.347  34.551  1.00  0.00     0.094 A 
ATOM     10  C   UNL     1      14.675  53.170  33.232  1.00  0.00     0.146 A 
ATOM     11  O   UNL     1      14.728  51.934  32.744  1.00  0.00    -0.456 OA
ENDROOT
BRANCH   1  12
ATOM     12  C   UNL     1      15.119  50.235  31.061  1.00  0.00     0.021 A 
ATOM     13  C   UNL     1      13.947  49.464  31.133  1.00  0.00     0.016 A 
ATOM     14  C   UNL     1      13.949  48.128  30.726  1.00  0.00     0.051 A 
ATOM     15  C   UNL     1      15.117  47.541  30.231  1.00  0.00     0.157 A 
ATOM     16  C   UNL     1      16.290  49.645  30.549  1.00  0.00     0.062 A 
ATOM     17  C   UNL     1      16.293  48.303  30.138  1.00  0.00     0.158 A 
BRANCH  15  18
ATOM     18  O   UNL     1      15.090  46.205  29.834  1.00  0.00    -0.504 OA
ATOM     19  H   UNL     1      15.828  45.794  29.275  1.00  0.00     0.293 HD
ENDBRANCH  15  18
BRANCH  17  20
ATOM     20  O   UNL     1      17.460  47.728  29.635  1.00  0.00    -0.504 OA
ATOM     21  H   UNL     1      17.442  46.861  29.111  1.00  0.00     0.293 HD
ENDBRANCH  17  20
ENDBRANCH   1  12
BRANCH   6  22
ATOM     22  O   UNL     1      15.390  56.756  32.366  1.00  0.00    -0.507 OA
ATOM     23  H   UNL     1      16.129  57.367  32.679  1.00  0.00     0.293 HD
ENDBRANCH   6  22
BRANCH   8  24
ATOM     24  O   UNL     1      13.726  54.780  36.411  1.00  0.00    -0.508 OA
ATOM     25  H   UNL     1      12.740  54.767  36.646  1.00  0.00     0.293 HD
ENDBRANCH   8  24
TORSDOF 5
ENDMDL
