MODEL 1
REMARK VINA RESULT:    -0.123      0.000      0.000
REMARK INTER + INTRA:          -1.227
REMARK INTER:                  -0.310
REMARK INTRA:                  -0.918
REMARK UNBOUND:                -0.918
REMARK SMILES CCCCCCCCCCCCCCCCCCCCCCCCCCCC(=O)[O-]
REMARK SMILES IDX 15 1 16 2 17 3 18 4 19 5 20 6 21 7 22 8 23 9 24 10 25 11
REMARK SMILES IDX 26 12 27 13 28 14 29 15 30 16 14 17 13 18 12 19 11 20 10 21
REMARK SMILES IDX 9 22 8 23 7 24 6 25 5 26 4 27 3 28 2 29 1 30
REMARK H PARENT
REMARK Flexibility Score: inf
ROOT
ATOM      1  C   UNL     1      -3.364  20.158  17.184  1.00  0.00     0.000 C 
ENDROOT
BRANCH   1   2
ATOM      2  C   UNL     1      -3.930  19.876  18.585  1.00  0.00     0.000 C 
BRANCH   2   3
ATOM      3  C   UNL     1      -5.407  20.279  18.719  1.00  0.00     0.000 C 
BRANCH   3   4
ATOM      4  C   UNL     1      -5.794  20.657  20.161  1.00  0.00     0.000 C 
BRANCH   4   5
ATOM      5  C   UNL     1      -7.180  20.157  20.618  1.00  0.00     0.000 C 
BRANCH   5   6
ATOM      6  C   UNL     1      -8.049  21.196  21.351  1.00  0.00     0.000 C 
BRANCH   6   7
ATOM      7  C   UNL     1      -8.749  22.173  20.390  1.00  0.00     0.000 C 
BRANCH   7   8
ATOM      8  C   UNL     1      -7.846  22.615  19.228  1.00  0.00     0.000 C 
BRANCH   8   9
ATOM      9  C   UNL     1      -8.494  22.394  17.849  1.00  0.00     0.000 C 
BRANCH   9  10
ATOM     10  C   UNL     1      -9.041  20.967  17.664  1.00  0.00     0.000 C 
BRANCH  10  11
ATOM     11  C   UNL     1      -9.059  20.454  16.211  1.00  0.00     0.000 C 
BRANCH  11  12
ATOM     12  C   UNL     1      -7.662  20.077  15.690  1.00  0.00     0.006 C 
BRANCH  12  13
ATOM     13  C   UNL     1      -6.875  21.303  15.203  1.00  0.00     0.053 C 
BRANCH  13  14
ATOM     14  C   UNL     1      -5.769  20.922  14.267  1.00  0.00     0.041 C 
ATOM     15  O   UNL     1      -6.025  20.296  13.205  1.00  0.00    -0.550 OA
ATOM     16  O   UNL     1      -4.453  21.247  14.574  1.00  0.00    -0.550 OA
ENDBRANCH  13  14
ENDBRANCH  12  13
ENDBRANCH  11  12
ENDBRANCH  10  11
ENDBRANCH   9  10
ENDBRANCH   8   9
ENDBRANCH   7   8
ENDBRANCH   6   7
ENDBRANCH   5   6
ENDBRANCH   4   5
ENDBRANCH   3   4
ENDBRANCH   2   3
ENDBRANCH   1   2
BRANCH   1  17
ATOM     17  C   UNL     1      -1.848  19.887  17.067  1.00  0.00     0.000 C 
BRANCH  17  18
ATOM     18  C   UNL     1      -1.026  21.188  17.034  1.00  0.00     0.000 C 
BRANCH  18  19
ATOM     19  C   UNL     1       0.185  21.092  16.082  1.00  0.00     0.000 C 
BRANCH  19  20
ATOM     20  C   UNL     1       1.236  20.055  16.516  1.00  0.00     0.000 C 
BRANCH  20  21
ATOM     21  C   UNL     1       2.358  19.877  15.480  1.00  0.00     0.000 C 
BRANCH  21  22
ATOM     22  C   UNL     1       3.576  20.780  15.744  1.00  0.00    -0.000 C 
BRANCH  22  23
ATOM     23  C   UNL     1       4.946  20.089  15.628  1.00  0.00    -0.000 C 
BRANCH  23  24
ATOM     24  C   UNL     1       5.880  20.766  14.614  1.00  0.00    -0.000 C 
BRANCH  24  25
ATOM     25  C   UNL     1       7.296  20.929  15.189  1.00  0.00    -0.000 C 
BRANCH  25  26
ATOM     26  C   UNL     1       8.284  19.877  14.655  1.00  0.00    -0.000 C 
BRANCH  26  27
ATOM     27  C   UNL     1       9.713  20.395  14.400  1.00  0.00    -0.000 C 
BRANCH  27  28
ATOM     28  C   UNL     1       9.799  21.726  13.629  1.00  0.00    -0.000 C 
BRANCH  28  29
ATOM     29  C   UNL     1      10.227  21.593  12.157  1.00  0.00    -0.003 C 
ATOM     30  C   UNL     1      10.705  20.186  11.801  1.00  0.00     0.004 C 
ENDBRANCH  28  29
ENDBRANCH  27  28
ENDBRANCH  26  27
ENDBRANCH  25  26
ENDBRANCH  24  25
ENDBRANCH  23  24
ENDBRANCH  22  23
ENDBRANCH  21  22
ENDBRANCH  20  21
ENDBRANCH  19  20
ENDBRANCH  18  19
ENDBRANCH  17  18
ENDBRANCH   1  17
TORSDOF 26
ENDMDL
MODEL 2
REMARK VINA RESULT:     0.826      4.441     15.011
REMARK INTER + INTRA:           1.163
REMARK INTER:                   2.086
REMARK INTRA:                  -0.922
REMARK UNBOUND:                -0.918
REMARK SMILES CCCCCCCCCCCCCCCCCCCCCCCCCCCC(=O)[O-]
REMARK SMILES IDX 15 1 16 2 17 3 18 4 19 5 20 6 21 7 22 8 23 9 24 10 25 11
REMARK SMILES IDX 26 12 27 13 28 14 29 15 30 16 14 17 13 18 12 19 11 20 10 21
REMARK SMILES IDX 9 22 8 23 7 24 6 25 5 26 4 27 3 28 2 29 1 30
REMARK H PARENT
REMARK Flexibility Score: inf
ROOT
ATOM      1  C   UNL     1       1.619  20.441  16.785  1.00  0.00     0.000 C 
ENDROOT
BRANCH   1   2
ATOM      2  C   UNL     1       2.610  20.740  15.647  1.00  0.00     0.000 C 
BRANCH   2   3
ATOM      3  C   UNL     1       3.881  19.880  15.728  1.00  0.00     0.000 C 
BRANCH   3   4
ATOM      4  C   UNL     1       5.162  20.681  15.435  1.00  0.00     0.000 C 
BRANCH   4   5
ATOM      5  C   UNL     1       5.768  20.456  14.034  1.00  0.00     0.000 C 
BRANCH   5   6
ATOM      6  C   UNL     1       7.230  19.972  14.016  1.00  0.00     0.000 C 
BRANCH   6   7
ATOM      7  C   UNL     1       8.234  21.087  14.359  1.00  0.00     0.000 C 
BRANCH   7   8
ATOM      8  C   UNL     1       9.676  20.570  14.489  1.00  0.00     0.000 C 
BRANCH   8   9
ATOM      9  C   UNL     1      10.222  19.987  13.173  1.00  0.00     0.000 C 
BRANCH   9  10
ATOM     10  C   UNL     1       9.551  20.587  11.924  1.00  0.00     0.000 C 
BRANCH  10  11
ATOM     11  C   UNL     1      10.316  20.377  10.604  1.00  0.00     0.000 C 
BRANCH  11  12
ATOM     12  C   UNL     1      11.121  21.614  10.171  1.00  0.00     0.006 C 
BRANCH  12  13
ATOM     13  C   UNL     1      11.103  22.718  11.238  1.00  0.00     0.053 C 
BRANCH  13  14
ATOM     14  C   UNL     1      10.789  24.059  10.649  1.00  0.00     0.041 C 
ATOM     15  O   UNL     1      10.389  24.998  11.387  1.00  0.00    -0.550 OA
ATOM     16  O   UNL     1      10.927  24.270   9.282  1.00  0.00    -0.550 OA
ENDBRANCH  13  14
ENDBRANCH  12  13
ENDBRANCH  11  12
ENDBRANCH  10  11
ENDBRANCH   9  10
ENDBRANCH   8   9
ENDBRANCH   7   8
ENDBRANCH   6   7
ENDBRANCH   5   6
ENDBRANCH   4   5
ENDBRANCH   3   4
ENDBRANCH   2   3
ENDBRANCH   1   2
BRANCH   1  17
ATOM     17  C   UNL     1       0.267  19.881  16.291  1.00  0.00     0.000 C 
BRANCH  17  18
ATOM     18  C   UNL     1      -0.929  20.675  16.845  1.00  0.00     0.000 C 
BRANCH  18  19
ATOM     19  C   UNL     1      -2.213  20.453  16.020  1.00  0.00     0.000 C 
BRANCH  19  20
ATOM     20  C   UNL     1      -2.847  21.752  15.494  1.00  0.00     0.000 C 
BRANCH  20  21
ATOM     21  C   UNL     1      -4.324  21.578  15.105  1.00  0.00     0.000 C 
BRANCH  21  22
ATOM     22  C   UNL     1      -4.839  20.142  15.311  1.00  0.00    -0.000 C 
BRANCH  22  23
ATOM     23  C   UNL     1      -6.168  20.023  16.080  1.00  0.00    -0.000 C 
BRANCH  23  24
ATOM     24  C   UNL     1      -7.176  21.122  15.715  1.00  0.00    -0.000 C 
BRANCH  24  25
ATOM     25  C   UNL     1      -8.334  21.169  16.726  1.00  0.00    -0.000 C 
BRANCH  25  26
ATOM     26  C   UNL     1      -8.037  20.377  18.012  1.00  0.00    -0.000 C 
BRANCH  26  27
ATOM     27  C   UNL     1      -8.333  21.130  19.324  1.00  0.00    -0.000 C 
BRANCH  27  28
ATOM     28  C   UNL     1      -7.343  20.857  20.472  1.00  0.00    -0.000 C 
BRANCH  28  29
ATOM     29  C   UNL     1      -7.835  21.284  21.866  1.00  0.00    -0.003 C 
ATOM     30  C   UNL     1      -7.207  20.467  22.995  1.00  0.00     0.004 C 
ENDBRANCH  28  29
ENDBRANCH  27  28
ENDBRANCH  26  27
ENDBRANCH  25  26
ENDBRANCH  24  25
ENDBRANCH  23  24
ENDBRANCH  22  23
ENDBRANCH  21  22
ENDBRANCH  20  21
ENDBRANCH  19  20
ENDBRANCH  18  19
ENDBRANCH  17  18
ENDBRANCH   1  17
TORSDOF 26
ENDMDL
MODEL 3
REMARK VINA RESULT:     0.874      4.355     14.330
REMARK INTER + INTRA:           1.284
REMARK INTER:                   1.821
REMARK INTRA:                  -0.537
REMARK UNBOUND:                -0.918
REMARK SMILES CCCCCCCCCCCCCCCCCCCCCCCCCCCC(=O)[O-]
REMARK SMILES IDX 15 1 16 2 17 3 18 4 19 5 20 6 21 7 22 8 23 9 24 10 25 11
REMARK SMILES IDX 26 12 27 13 28 14 29 15 30 16 14 17 13 18 12 19 11 20 10 21
REMARK SMILES IDX 9 22 8 23 7 24 6 25 5 26 4 27 3 28 2 29 1 30
REMARK H PARENT
REMARK Flexibility Score: inf
ROOT
ATOM      1  C   UNL     1      -1.477  20.700  16.375  1.00  0.00     0.000 C 
ENDROOT
BRANCH   1   2
ATOM      2  C   UNL     1      -0.287  19.890  16.913  1.00  0.00     0.000 C 
BRANCH   2   3
ATOM      3  C   UNL     1       1.054  20.622  16.742  1.00  0.00     0.000 C 
BRANCH   3   4
ATOM      4  C   UNL     1       1.994  19.920  15.745  1.00  0.00     0.000 C 
BRANCH   4   5
ATOM      5  C   UNL     1       3.446  20.442  15.738  1.00  0.00     0.000 C 
BRANCH   5   6
ATOM      6  C   UNL     1       4.237  20.177  14.443  1.00  0.00     0.000 C 
BRANCH   6   7
ATOM      7  C   UNL     1       5.598  20.894  14.416  1.00  0.00     0.000 C 
BRANCH   7   8
ATOM      8  C   UNL     1       6.258  20.970  15.802  1.00  0.00     0.000 C 
BRANCH   8   9
ATOM      9  C   UNL     1       7.319  19.876  16.019  1.00  0.00     0.000 C 
BRANCH   9  10
ATOM     10  C   UNL     1       8.584  20.087  15.167  1.00  0.00     0.000 C 
BRANCH  10  11
ATOM     11  C   UNL     1       8.394  19.897  13.651  1.00  0.00     0.000 C 
BRANCH  11  12
ATOM     12  C   UNL     1       9.718  19.932  12.869  1.00  0.00     0.006 C 
BRANCH  12  13
ATOM     13  C   UNL     1      10.621  21.092  13.311  1.00  0.00     0.053 C 
BRANCH  13  14
ATOM     14  C   UNL     1      10.648  22.197  12.300  1.00  0.00     0.041 C 
ATOM     15  O   UNL     1      10.524  23.395  12.668  1.00  0.00    -0.550 OA
ATOM     16  O   UNL     1      10.798  21.904  10.950  1.00  0.00    -0.550 OA
ENDBRANCH  13  14
ENDBRANCH  12  13
ENDBRANCH  11  12
ENDBRANCH  10  11
ENDBRANCH   9  10
ENDBRANCH   8   9
ENDBRANCH   7   8
ENDBRANCH   6   7
ENDBRANCH   5   6
ENDBRANCH   4   5
ENDBRANCH   3   4
ENDBRANCH   2   3
ENDBRANCH   1   2
BRANCH   1  17
ATOM     17  C   UNL     1      -2.808  19.917  16.385  1.00  0.00     0.000 C 
BRANCH  17  18
ATOM     18  C   UNL     1      -3.874  20.570  15.487  1.00  0.00     0.000 C 
BRANCH  18  19
ATOM     19  C   UNL     1      -5.204  20.809  16.233  1.00  0.00     0.000 C 
BRANCH  19  20
ATOM     20  C   UNL     1      -6.317  21.395  15.349  1.00  0.00     0.000 C 
BRANCH  20  21
ATOM     21  C   UNL     1      -6.854  20.384  14.322  1.00  0.00     0.000 C 
BRANCH  21  22
ATOM     22  C   UNL     1      -8.373  20.160  14.431  1.00  0.00    -0.000 C 
BRANCH  22  23
ATOM     23  C   UNL     1      -9.054  20.836  15.635  1.00  0.00    -0.000 C 
BRANCH  23  24
ATOM     24  C   UNL     1      -8.989  19.994  16.917  1.00  0.00    -0.000 C 
BRANCH  24  25
ATOM     25  C   UNL     1      -8.081  20.654  17.968  1.00  0.00    -0.000 C 
BRANCH  25  26
ATOM     26  C   UNL     1      -8.036  19.876  19.295  1.00  0.00    -0.000 C 
BRANCH  26  27
ATOM     27  C   UNL     1      -9.084  20.308  20.339  1.00  0.00    -0.000 C 
BRANCH  27  28
ATOM     28  C   UNL     1      -8.535  20.532  21.762  1.00  0.00    -0.000 C 
BRANCH  28  29
ATOM     29  C   UNL     1      -7.018  20.320  21.910  1.00  0.00    -0.003 C 
ATOM     30  C   UNL     1      -6.570  20.224  23.368  1.00  0.00     0.004 C 
ENDBRANCH  28  29
ENDBRANCH  27  28
ENDBRANCH  26  27
ENDBRANCH  25  26
ENDBRANCH  24  25
ENDBRANCH  23  24
ENDBRANCH  22  23
ENDBRANCH  21  22
ENDBRANCH  20  21
ENDBRANCH  19  20
ENDBRANCH  18  19
ENDBRANCH  17  18
ENDBRANCH   1  17
TORSDOF 26
ENDMDL
MODEL 4
REMARK VINA RESULT:     2.344      4.281     14.477
REMARK INTER + INTRA:           4.989
REMARK INTER:                   4.776
REMARK INTRA:                   0.213
REMARK UNBOUND:                -0.918
REMARK SMILES CCCCCCCCCCCCCCCCCCCCCCCCCCCC(=O)[O-]
REMARK SMILES IDX 15 1 16 2 17 3 18 4 19 5 20 6 21 7 22 8 23 9 24 10 25 11
REMARK SMILES IDX 26 12 27 13 28 14 29 15 30 16 14 17 13 18 12 19 11 20 10 21
REMARK SMILES IDX 9 22 8 23 7 24 6 25 5 26 4 27 3 28 2 29 1 30
REMARK H PARENT
REMARK Flexibility Score: inf
ROOT
ATOM      1  C   UNL     1       0.385  21.206  15.173  1.00  0.00     0.000 C 
ENDROOT
BRANCH   1   2
ATOM      2  C   UNL     1       0.539  20.539  16.550  1.00  0.00     0.000 C 
BRANCH   2   3
ATOM      3  C   UNL     1       1.924  19.902  16.748  1.00  0.00     0.000 C 
BRANCH   3   4
ATOM      4  C   UNL     1       2.764  19.890  15.458  1.00  0.00     0.000 C 
BRANCH   4   5
ATOM      5  C   UNL     1       4.079  20.695  15.527  1.00  0.00     0.000 C 
BRANCH   5   6
ATOM      6  C   UNL     1       5.367  19.876  15.320  1.00  0.00     0.000 C 
BRANCH   6   7
ATOM      7  C   UNL     1       6.615  20.758  15.145  1.00  0.00     0.000 C 
BRANCH   7   8
ATOM      8  C   UNL     1       7.700  20.471  16.196  1.00  0.00     0.000 C 
BRANCH   8   9
ATOM      9  C   UNL     1       9.126  20.659  15.650  1.00  0.00     0.000 C 
BRANCH   9  10
ATOM     10  C   UNL     1       9.330  20.018  14.264  1.00  0.00     0.000 C 
BRANCH  10  11
ATOM     11  C   UNL     1       8.987  20.924  13.066  1.00  0.00     0.000 C 
BRANCH  11  12
ATOM     12  C   UNL     1       9.876  22.176  12.986  1.00  0.00     0.006 C 
BRANCH  12  13
ATOM     13  C   UNL     1      11.068  21.981  12.037  1.00  0.00     0.053 C 
BRANCH  13  14
ATOM     14  C   UNL     1      10.672  22.146  10.601  1.00  0.00     0.041 C 
ATOM     15  O   UNL     1      10.098  21.207   9.990  1.00  0.00    -0.550 OA
ATOM     16  O   UNL     1      10.948  23.333   9.934  1.00  0.00    -0.550 OA
ENDBRANCH  13  14
ENDBRANCH  12  13
ENDBRANCH  11  12
ENDBRANCH  10  11
ENDBRANCH   9  10
ENDBRANCH   8   9
ENDBRANCH   7   8
ENDBRANCH   6   7
ENDBRANCH   5   6
ENDBRANCH   4   5
ENDBRANCH   3   4
ENDBRANCH   2   3
ENDBRANCH   1   2
BRANCH   1  17
ATOM     17  C   UNL     1      -0.817  22.172  15.089  1.00  0.00     0.000 C 
BRANCH  17  18
ATOM     18  C   UNL     1      -2.147  21.475  15.426  1.00  0.00     0.000 C 
BRANCH  18  19
ATOM     19  C   UNL     1      -2.115  20.787  16.807  1.00  0.00     0.000 C 
BRANCH  19  20
ATOM     20  C   UNL     1      -3.364  19.941  17.110  1.00  0.00     0.000 C 
BRANCH  20  21
ATOM     21  C   UNL     1      -4.674  20.689  16.813  1.00  0.00     0.000 C 
BRANCH  21  22
ATOM     22  C   UNL     1      -5.930  19.875  17.175  1.00  0.00    -0.000 C 
BRANCH  22  23
ATOM     23  C   UNL     1      -7.167  20.149  16.299  1.00  0.00    -0.000 C 
BRANCH  23  24
ATOM     24  C   UNL     1      -7.575  21.629  16.278  1.00  0.00    -0.000 C 
BRANCH  24  25
ATOM     25  C   UNL     1      -7.643  22.205  17.702  1.00  0.00    -0.000 C 
BRANCH  25  26
ATOM     26  C   UNL     1      -8.944  21.833  18.436  1.00  0.00    -0.000 C 
BRANCH  26  27
ATOM     27  C   UNL     1      -9.104  20.336  18.761  1.00  0.00    -0.000 C 
BRANCH  27  28
ATOM     28  C   UNL     1      -9.028  19.980  20.259  1.00  0.00    -0.000 C 
BRANCH  28  29
ATOM     29  C   UNL     1      -8.225  20.972  21.119  1.00  0.00    -0.003 C 
ATOM     30  C   UNL     1      -7.937  20.444  22.524  1.00  0.00     0.004 C 
ENDBRANCH  28  29
ENDBRANCH  27  28
ENDBRANCH  26  27
ENDBRANCH  25  26
ENDBRANCH  24  25
ENDBRANCH  23  24
ENDBRANCH  22  23
ENDBRANCH  21  22
ENDBRANCH  20  21
ENDBRANCH  19  20
ENDBRANCH  18  19
ENDBRANCH  17  18
ENDBRANCH   1  17
TORSDOF 26
ENDMDL
