MODEL 1
REMARK VINA RESULT:    -7.475      0.000      0.000
REMARK INTER + INTRA:          -7.829
REMARK INTER:                  -8.131
REMARK INTRA:                   0.302
REMARK UNBOUND:                 0.302
REMARK SMILES CC1(C)CC[C@@]2(C(=O)[O-])CC[C@]3(C)C(=CC[C@@H]4[C@@]5(C)CC[C@@H](O)C(C)(C)[C@H]5CC[C@@]43C)[C@@H]2C1
REMARK SMILES IDX 6 1 5 2 10 3 32 4 4 5 11 6 14 7 33 8 2 9 12 10 15 11 1 12
REMARK SMILES IDX 3 13 13 14 30 15 16 16 17 17 29 18 31 19 18 20 28 21 27 22
REMARK SMILES IDX 20 23 19 24 24 25 21 26 22 27 25 28 26 29 7 30 8 31 9 32
REMARK SMILES IDX 23 33
REMARK H PARENT 23 34
REMARK Flexibility Score: inf
ROOT
ATOM      1  C   UNL     1      90.072  84.085  80.759  1.00  0.00     0.017 C 
ATOM      2  C   UNL     1      89.543  83.079  79.698  1.00  0.00     0.014 C 
ATOM      3  C   UNL     1      89.779  83.510  82.190  1.00  0.00     0.014 C 
ATOM      4  C   UNL     1      91.609  84.255  80.546  1.00  0.00     0.028 C 
ATOM      5  C   UNL     1      89.848  83.523  78.258  1.00  0.00     0.007 C 
ATOM      6  C   UNL     1      90.992  83.479  83.150  1.00  0.00     0.013 C 
ATOM      7  C   UNL     1      92.221  85.106  81.672  1.00  0.00    -0.064 C 
ATOM      8  C   UNL     1      91.959  84.687  79.093  1.00  0.00     0.015 C 
ATOM      9  C   UNL     1      91.360  83.754  78.004  1.00  0.00    -0.035 C 
ATOM     10  C   UNL     1      91.887  84.768  83.120  1.00  0.00    -0.006 C 
ATOM     11  C   UNL     1      93.150  86.048  81.426  1.00  0.00    -0.027 C 
ATOM     12  C   UNL     1      92.117  82.405  77.956  1.00  0.00     0.011 C 
ATOM     13  C   UNL     1      91.526  84.433  76.627  1.00  0.00     0.011 C 
ATOM     14  C   UNL     1      91.017  85.937  83.685  1.00  0.00     0.017 C 
ATOM     15  C   UNL     1      93.260  84.604  83.950  1.00  0.00    -0.020 C 
ATOM     16  C   UNL     1      94.108  86.571  82.461  1.00  0.00     0.032 C 
ATOM     17  C   UNL     1      94.058  85.974  83.919  1.00  0.00     0.006 C 
ATOM     18  C   UNL     1      94.187  83.530  83.313  1.00  0.00     0.008 C 
ATOM     19  C   UNL     1      92.912  84.146  85.402  1.00  0.00     0.012 C 
ATOM     20  C   UNL     1      95.517  85.967  84.591  1.00  0.00    -0.025 C 
ATOM     21  C   UNL     1      95.553  83.412  83.999  1.00  0.00     0.005 C 
ATOM     22  C   UNL     1      96.380  84.735  84.065  1.00  0.00     0.003 C 
ATOM     23  C   UNL     1      95.418  86.005  86.166  1.00  0.00     0.010 C 
ATOM     24  C   UNL     1      96.238  87.308  84.204  1.00  0.00     0.012 C 
ATOM     25  C   UNL     1      97.798  84.550  84.806  1.00  0.00    -0.006 C 
ATOM     26  C   UNL     1      96.378  85.053  86.891  1.00  0.00     0.033 C 
ATOM     27  C   UNL     1      97.776  85.119  86.277  1.00  0.00     0.120 C 
ATOM     28  C   UNL     1      98.261  83.061  84.831  1.00  0.00     0.014 C 
ATOM     29  C   UNL     1      98.903  85.294  84.008  1.00  0.00     0.014 C 
ENDROOT
BRANCH   1  30
ATOM     30  C   UNL     1      89.310  85.401  80.600  1.00  0.00     0.048 C 
ATOM     31  O   UNL     1      89.909  86.491  80.393  1.00  0.00    -0.550 OA
ATOM     32  O   UNL     1      87.925  85.418  80.731  1.00  0.00    -0.550 OA
ENDBRANCH   1  30
BRANCH  27  33
ATOM     33  O   UNL     1      98.668  84.437  87.125  1.00  0.00    -0.393 OA
ATOM     34  H   UNL     1      98.727  83.503  86.794  1.00  0.00     0.210 HD
ENDBRANCH  27  33
TORSDOF 2
ENDMDL
MODEL 2
REMARK VINA RESULT:    -6.967      3.638      7.324
REMARK INTER + INTRA:          -7.276
REMARK INTER:                  -7.597
REMARK INTRA:                   0.322
REMARK UNBOUND:                 0.302
REMARK SMILES CC1(C)CC[C@@]2(C(=O)[O-])CC[C@]3(C)C(=CC[C@@H]4[C@@]5(C)CC[C@@H](O)C(C)(C)[C@H]5CC[C@@]43C)[C@@H]2C1
REMARK SMILES IDX 6 1 5 2 10 3 32 4 4 5 11 6 14 7 33 8 2 9 12 10 15 11 1 12
REMARK SMILES IDX 3 13 13 14 30 15 16 16 17 17 29 18 31 19 18 20 28 21 27 22
REMARK SMILES IDX 20 23 19 24 24 25 21 26 22 27 25 28 26 29 7 30 8 31 9 32
REMARK SMILES IDX 23 33
REMARK H PARENT 23 34
REMARK Flexibility Score: inf
ROOT
ATOM      1  C   UNL     1      93.835  83.827  78.381  1.00  0.00     0.017 C 
ATOM      2  C   UNL     1      95.139  82.995  78.533  1.00  0.00     0.014 C 
ATOM      3  C   UNL     1      92.678  82.874  77.918  1.00  0.00     0.014 C 
ATOM      4  C   UNL     1      93.496  84.459  79.768  1.00  0.00     0.028 C 
ATOM      5  C   UNL     1      96.318  83.832  79.053  1.00  0.00     0.007 C 
ATOM      6  C   UNL     1      91.381  82.952  78.759  1.00  0.00     0.013 C 
ATOM      7  C   UNL     1      92.125  85.155  79.724  1.00  0.00    -0.064 C 
ATOM      8  C   UNL     1      94.674  85.301  80.336  1.00  0.00     0.015 C 
ATOM      9  C   UNL     1      96.019  84.523  80.407  1.00  0.00    -0.035 C 
ATOM     10  C   UNL     1      90.933  84.407  79.140  1.00  0.00    -0.006 C 
ATOM     11  C   UNL     1      91.914  86.347  80.313  1.00  0.00    -0.027 C 
ATOM     12  C   UNL     1      95.994  83.486  81.556  1.00  0.00     0.011 C 
ATOM     13  C   UNL     1      97.153  85.527  80.707  1.00  0.00     0.011 C 
ATOM     14  C   UNL     1      90.536  85.123  77.809  1.00  0.00     0.017 C 
ATOM     15  C   UNL     1      89.723  84.436  80.205  1.00  0.00    -0.020 C 
ATOM     16  C   UNL     1      90.557  86.854  80.718  1.00  0.00     0.032 C 
ATOM     17  C   UNL     1      89.296  85.940  80.473  1.00  0.00     0.006 C 
ATOM     18  C   UNL     1      90.154  83.842  81.576  1.00  0.00     0.008 C 
ATOM     19  C   UNL     1      88.547  83.571  79.648  1.00  0.00     0.012 C 
ATOM     20  C   UNL     1      88.182  86.177  81.606  1.00  0.00    -0.025 C 
ATOM     21  C   UNL     1      89.073  83.946  82.659  1.00  0.00     0.005 C 
ATOM     22  C   UNL     1      88.553  85.391  82.941  1.00  0.00     0.003 C 
ATOM     23  C   UNL     1      86.742  85.814  81.073  1.00  0.00     0.010 C 
ATOM     24  C   UNL     1      88.118  87.716  81.912  1.00  0.00     0.012 C 
ATOM     25  C   UNL     1      87.413  85.435  84.079  1.00  0.00    -0.006 C 
ATOM     26  C   UNL     1      85.875  85.019  82.059  1.00  0.00     0.033 C 
ATOM     27  C   UNL     1      85.971  85.611  83.465  1.00  0.00     0.120 C 
ATOM     28  C   UNL     1      87.439  84.168  84.990  1.00  0.00     0.014 C 
ATOM     29  C   UNL     1      87.685  86.621  85.043  1.00  0.00     0.014 C 
ENDROOT
BRANCH   1  30
ATOM     30  C   UNL     1      94.058  84.882  77.295  1.00  0.00     0.048 C 
ATOM     31  O   UNL     1      93.968  84.599  76.071  1.00  0.00    -0.550 OA
ATOM     32  O   UNL     1      94.415  86.177  77.655  1.00  0.00    -0.550 OA
ENDBRANCH   1  30
BRANCH  27  33
ATOM     33  O   UNL     1      84.976  85.022  84.266  1.00  0.00    -0.393 OA
ATOM     34  H   UNL     1      84.306  84.623  83.651  1.00  0.00     0.210 HD
ENDBRANCH  27  33
TORSDOF 2
ENDMDL
MODEL 3
REMARK VINA RESULT:    -6.939      1.682      2.160
REMARK INTER + INTRA:          -7.245
REMARK INTER:                  -7.552
REMARK INTRA:                   0.307
REMARK UNBOUND:                 0.302
REMARK SMILES CC1(C)CC[C@@]2(C(=O)[O-])CC[C@]3(C)C(=CC[C@@H]4[C@@]5(C)CC[C@@H](O)C(C)(C)[C@H]5CC[C@@]43C)[C@@H]2C1
REMARK SMILES IDX 6 1 5 2 10 3 32 4 4 5 11 6 14 7 33 8 2 9 12 10 15 11 1 12
REMARK SMILES IDX 3 13 13 14 30 15 16 16 17 17 29 18 31 19 18 20 28 21 27 22
REMARK SMILES IDX 20 23 19 24 24 25 21 26 22 27 25 28 26 29 7 30 8 31 9 32
REMARK SMILES IDX 23 33
REMARK H PARENT 23 34
REMARK Flexibility Score: inf
ROOT
ATOM      1  C   UNL     1      91.116  84.552  80.968  1.00  0.00     0.017 C 
ATOM      2  C   UNL     1      90.206  83.557  80.194  1.00  0.00     0.014 C 
ATOM      3  C   UNL     1      91.223  84.080  82.461  1.00  0.00     0.014 C 
ATOM      4  C   UNL     1      92.525  84.549  80.295  1.00  0.00     0.028 C 
ATOM      5  C   UNL     1      90.097  83.896  78.699  1.00  0.00     0.007 C 
ATOM      6  C   UNL     1      92.663  83.968  83.017  1.00  0.00     0.013 C 
ATOM      7  C   UNL     1      93.519  85.384  81.119  1.00  0.00    -0.064 C 
ATOM      8  C   UNL     1      92.453  84.871  78.775  1.00  0.00     0.015 C 
ATOM      9  C   UNL     1      91.474  83.955  77.989  1.00  0.00    -0.035 C 
ATOM     10  C   UNL     1      93.613  85.154  82.623  1.00  0.00    -0.006 C 
ATOM     11  C   UNL     1      94.407  86.210  80.536  1.00  0.00    -0.027 C 
ATOM     12  C   UNL     1      92.063  82.533  77.823  1.00  0.00     0.011 C 
ATOM     13  C   UNL     1      91.272  84.546  76.577  1.00  0.00     0.011 C 
ATOM     14  C   UNL     1      93.059  86.433  83.328  1.00  0.00     0.017 C 
ATOM     15  C   UNL     1      95.153  84.886  83.017  1.00  0.00    -0.020 C 
ATOM     16  C   UNL     1      95.675  86.679  81.195  1.00  0.00     0.032 C 
ATOM     17  C   UNL     1      96.019  86.161  82.645  1.00  0.00     0.006 C 
ATOM     18  C   UNL     1      95.749  83.692  82.218  1.00  0.00     0.008 C 
ATOM     19  C   UNL     1      95.225  84.538  84.538  1.00  0.00     0.012 C 
ATOM     20  C   UNL     1      97.608  86.034  82.851  1.00  0.00    -0.025 C 
ATOM     21  C   UNL     1      97.243  83.464  82.474  1.00  0.00     0.005 C 
ATOM     22  C   UNL     1      98.161  84.695  82.189  1.00  0.00     0.003 C 
ATOM     23  C   UNL     1      97.994  86.158  84.376  1.00  0.00     0.010 C 
ATOM     24  C   UNL     1      98.288  87.271  82.164  1.00  0.00     0.012 C 
ATOM     25  C   UNL     1      99.716  84.398  82.487  1.00  0.00    -0.006 C 
ATOM     26  C   UNL     1      99.043  85.146  84.854  1.00  0.00     0.033 C 
ATOM     27  C   UNL     1     100.190  85.036  83.849  1.00  0.00     0.120 C 
ATOM     28  C   UNL     1     100.036  82.871  82.488  1.00  0.00     0.014 C 
ATOM     29  C   UNL     1     100.586  84.983  81.342  1.00  0.00     0.014 C 
ENDROOT
BRANCH   1  30
ATOM     30  C   UNL     1      90.457  85.932  80.941  1.00  0.00     0.048 C 
ATOM     31  O   UNL     1      91.065  86.946  80.506  1.00  0.00    -0.550 OA
ATOM     32  O   UNL     1      89.173  86.094  81.450  1.00  0.00    -0.550 OA
ENDBRANCH   1  30
BRANCH  27  33
ATOM     33  O   UNL     1     101.235  84.306  84.444  1.00  0.00    -0.393 OA
ATOM     34  H   UNL     1     100.967  83.350  84.431  1.00  0.00     0.210 HD
ENDBRANCH  27  33
TORSDOF 2
ENDMDL
MODEL 4
REMARK VINA RESULT:    -6.876      2.119      2.856
REMARK INTER + INTRA:          -7.177
REMARK INTER:                  -7.456
REMARK INTRA:                   0.279
REMARK UNBOUND:                 0.302
REMARK SMILES CC1(C)CC[C@@]2(C(=O)[O-])CC[C@]3(C)C(=CC[C@@H]4[C@@]5(C)CC[C@@H](O)C(C)(C)[C@H]5CC[C@@]43C)[C@@H]2C1
REMARK SMILES IDX 6 1 5 2 10 3 32 4 4 5 11 6 14 7 33 8 2 9 12 10 15 11 1 12
REMARK SMILES IDX 3 13 13 14 30 15 16 16 17 17 29 18 31 19 18 20 28 21 27 22
REMARK SMILES IDX 20 23 19 24 24 25 21 26 22 27 25 28 26 29 7 30 8 31 9 32
REMARK SMILES IDX 23 33
REMARK H PARENT 23 34
REMARK Flexibility Score: inf
ROOT
ATOM      1  C   UNL     1      90.783  84.359  82.529  1.00  0.00     0.017 C 
ATOM      2  C   UNL     1      89.690  83.462  81.883  1.00  0.00     0.014 C 
ATOM      3  C   UNL     1      91.380  83.611  83.773  1.00  0.00     0.014 C 
ATOM      4  C   UNL     1      91.895  84.615  81.464  1.00  0.00     0.028 C 
ATOM      5  C   UNL     1      89.092  84.081  80.610  1.00  0.00     0.007 C 
ATOM      6  C   UNL     1      92.924  83.517  83.810  1.00  0.00     0.013 C 
ATOM      7  C   UNL     1      93.087  85.354  82.094  1.00  0.00    -0.064 C 
ATOM      8  C   UNL     1      91.326  85.226  80.152  1.00  0.00     0.015 C 
ATOM      9  C   UNL     1      90.161  84.402  79.534  1.00  0.00    -0.035 C 
ATOM     10  C   UNL     1      93.671  84.837  83.404  1.00  0.00    -0.006 C 
ATOM     11  C   UNL     1      93.721  86.355  81.456  1.00  0.00    -0.027 C 
ATOM     12  C   UNL     1      90.691  83.099  78.887  1.00  0.00     0.011 C 
ATOM     13  C   UNL     1      89.499  85.242  78.421  1.00  0.00     0.011 C 
ATOM     14  C   UNL     1      93.353  85.896  84.508  1.00  0.00     0.017 C 
ATOM     15  C   UNL     1      95.260  84.634  83.226  1.00  0.00    -0.020 C 
ATOM     16  C   UNL     1      95.126  86.793  81.768  1.00  0.00     0.032 C 
ATOM     17  C   UNL     1      95.933  86.029  82.887  1.00  0.00     0.006 C 
ATOM     18  C   UNL     1      95.585  83.680  82.041  1.00  0.00     0.008 C 
ATOM     19  C   UNL     1      95.831  83.997  84.533  1.00  0.00     0.012 C 
ATOM     20  C   UNL     1      97.504  86.004  82.551  1.00  0.00    -0.025 C 
ATOM     21  C   UNL     1      97.086  83.539  81.759  1.00  0.00     0.005 C 
ATOM     22  C   UNL     1      97.837  84.878  81.474  1.00  0.00     0.003 C 
ATOM     23  C   UNL     1      98.364  85.855  83.865  1.00  0.00     0.010 C 
ATOM     24  C   UNL     1      97.900  87.409  81.971  1.00  0.00     0.012 C 
ATOM     25  C   UNL     1      99.409  84.667  81.196  1.00  0.00    -0.006 C 
ATOM     26  C   UNL     1      99.531  84.865  83.758  1.00  0.00     0.033 C 
ATOM     27  C   UNL     1     100.289  85.059  82.445  1.00  0.00     0.120 C 
ATOM     28  C   UNL     1      99.741  83.204  80.765  1.00  0.00     0.014 C 
ATOM     29  C   UNL     1      99.848  85.543  79.991  1.00  0.00     0.014 C 
ENDROOT
BRANCH   1  30
ATOM     30  C   UNL     1      90.125  85.653  83.011  1.00  0.00     0.048 C 
ATOM     31  O   UNL     1      90.343  86.756  82.443  1.00  0.00    -0.550 OA
ATOM     32  O   UNL     1      89.300  85.632  84.131  1.00  0.00    -0.550 OA
ENDBRANCH   1  30
BRANCH  27  33
ATOM     33  O   UNL     1     101.485  84.321  82.507  1.00  0.00    -0.393 OA
ATOM     34  H   UNL     1     101.493  83.713  81.722  1.00  0.00     0.210 HD
ENDBRANCH  27  33
TORSDOF 2
ENDMDL
MODEL 5
REMARK VINA RESULT:    -6.758      3.091      5.779
REMARK INTER + INTRA:          -7.048
REMARK INTER:                  -7.322
REMARK INTRA:                   0.273
REMARK UNBOUND:                 0.302
REMARK SMILES CC1(C)CC[C@@]2(C(=O)[O-])CC[C@]3(C)C(=CC[C@@H]4[C@@]5(C)CC[C@@H](O)C(C)(C)[C@H]5CC[C@@]43C)[C@@H]2C1
REMARK SMILES IDX 6 1 5 2 10 3 32 4 4 5 11 6 14 7 33 8 2 9 12 10 15 11 1 12
REMARK SMILES IDX 3 13 13 14 30 15 16 16 17 17 29 18 31 19 18 20 28 21 27 22
REMARK SMILES IDX 20 23 19 24 24 25 21 26 22 27 25 28 26 29 7 30 8 31 9 32
REMARK SMILES IDX 23 33
REMARK H PARENT 23 34
REMARK Flexibility Score: inf
ROOT
ATOM      1  C   UNL     1      92.293  85.841  84.070  1.00  0.00     0.017 C 
ATOM      2  C   UNL     1      91.311  87.037  83.925  1.00  0.00     0.014 C 
ATOM      3  C   UNL     1      92.203  84.954  82.779  1.00  0.00     0.014 C 
ATOM      4  C   UNL     1      93.736  86.414  84.236  1.00  0.00     0.028 C 
ATOM      5  C   UNL     1      91.378  88.006  85.116  1.00  0.00     0.007 C 
ATOM      6  C   UNL     1      93.558  84.624  82.107  1.00  0.00     0.013 C 
ATOM      7  C   UNL     1      94.774  85.279  84.213  1.00  0.00    -0.064 C 
ATOM      8  C   UNL     1      93.841  87.414  85.423  1.00  0.00     0.015 C 
ATOM      9  C   UNL     1      92.802  88.569  85.358  1.00  0.00    -0.035 C 
ATOM     10  C   UNL     1      94.707  84.235  83.104  1.00  0.00    -0.006 C 
ATOM     11  C   UNL     1      95.822  85.258  85.057  1.00  0.00    -0.027 C 
ATOM     12  C   UNL     1      93.180  89.588  84.256  1.00  0.00     0.011 C 
ATOM     13  C   UNL     1      92.811  89.316  86.709  1.00  0.00     0.011 C 
ATOM     14  C   UNL     1      94.297  82.879  83.762  1.00  0.00     0.017 C 
ATOM     15  C   UNL     1      96.150  84.131  82.394  1.00  0.00    -0.020 C 
ATOM     16  C   UNL     1      97.088  84.485  84.802  1.00  0.00     0.032 C 
ATOM     17  C   UNL     1      97.228  83.668  83.461  1.00  0.00     0.006 C 
ATOM     18  C   UNL     1      96.621  85.511  81.852  1.00  0.00     0.008 C 
ATOM     19  C   UNL     1      96.042  83.146  81.187  1.00  0.00     0.012 C 
ATOM     20  C   UNL     1      98.756  83.628  82.966  1.00  0.00    -0.025 C 
ATOM     21  C   UNL     1      98.038  85.490  81.264  1.00  0.00     0.005 C 
ATOM     22  C   UNL     1      99.152  84.987  82.235  1.00  0.00     0.003 C 
ATOM     23  C   UNL     1      99.029  82.359  82.068  1.00  0.00     0.010 C 
ATOM     24  C   UNL     1      99.671  83.430  84.226  1.00  0.00     0.012 C 
ATOM     25  C   UNL     1     100.614  84.977  81.558  1.00  0.00    -0.006 C 
ATOM     26  C   UNL     1      99.869  82.630  80.813  1.00  0.00     0.033 C 
ATOM     27  C   UNL     1     101.064  83.524  81.143  1.00  0.00     0.120 C 
ATOM     28  C   UNL     1     100.696  85.921  80.319  1.00  0.00     0.014 C 
ATOM     29  C   UNL     1     101.655  85.547  82.559  1.00  0.00     0.014 C 
ENDROOT
BRANCH   1  30
ATOM     30  C   UNL     1      91.856  84.998  85.269  1.00  0.00     0.048 C 
ATOM     31  O   UNL     1      92.559  84.918  86.312  1.00  0.00    -0.550 OA
ATOM     32  O   UNL     1      90.679  84.259  85.202  1.00  0.00    -0.550 OA
ENDBRANCH   1  30
BRANCH  27  33
ATOM     33  O   UNL     1     101.934  83.531  80.037  1.00  0.00    -0.393 OA
ATOM     34  H   UNL     1     102.598  82.808  80.184  1.00  0.00     0.210 HD
ENDBRANCH  27  33
TORSDOF 2
ENDMDL
MODEL 6
REMARK VINA RESULT:    -6.586      3.516      7.557
REMARK INTER + INTRA:          -6.861
REMARK INTER:                  -7.137
REMARK INTRA:                   0.276
REMARK UNBOUND:                 0.302
REMARK SMILES CC1(C)CC[C@@]2(C(=O)[O-])CC[C@]3(C)C(=CC[C@@H]4[C@@]5(C)CC[C@@H](O)C(C)(C)[C@H]5CC[C@@]43C)[C@@H]2C1
REMARK SMILES IDX 6 1 5 2 10 3 32 4 4 5 11 6 14 7 33 8 2 9 12 10 15 11 1 12
REMARK SMILES IDX 3 13 13 14 30 15 16 16 17 17 29 18 31 19 18 20 28 21 27 22
REMARK SMILES IDX 20 23 19 24 24 25 21 26 22 27 25 28 26 29 7 30 8 31 9 32
REMARK SMILES IDX 23 33
REMARK H PARENT 23 34
REMARK Flexibility Score: inf
ROOT
ATOM      1  C   UNL     1      96.791  86.485  79.827  1.00  0.00     0.017 C 
ATOM      2  C   UNL     1      97.706  87.713  79.557  1.00  0.00     0.014 C 
ATOM      3  C   UNL     1      96.679  86.269  81.377  1.00  0.00     0.014 C 
ATOM      4  C   UNL     1      95.385  86.781  79.216  1.00  0.00     0.028 C 
ATOM      5  C   UNL     1      97.821  88.048  78.061  1.00  0.00     0.007 C 
ATOM      6  C   UNL     1      95.237  86.137  81.923  1.00  0.00     0.013 C 
ATOM      7  C   UNL     1      94.386  85.676  79.598  1.00  0.00    -0.064 C 
ATOM      8  C   UNL     1      95.462  87.143  77.705  1.00  0.00     0.015 C 
ATOM      9  C   UNL     1      96.447  88.305  77.391  1.00  0.00    -0.035 C 
ATOM     10  C   UNL     1      94.286  85.239  81.055  1.00  0.00    -0.006 C 
ATOM     11  C   UNL     1      93.499  85.184  78.714  1.00  0.00    -0.027 C 
ATOM     12  C   UNL     1      95.861  89.662  77.851  1.00  0.00     0.011 C 
ATOM     13  C   UNL     1      96.653  88.377  75.863  1.00  0.00     0.011 C 
ATOM     14  C   UNL     1      94.835  83.779  81.144  1.00  0.00     0.017 C 
ATOM     15  C   UNL     1      92.745  85.317  81.521  1.00  0.00    -0.020 C 
ATOM     16  C   UNL     1      92.227  84.482  79.104  1.00  0.00     0.032 C 
ATOM     17  C   UNL     1      91.878  84.328  80.635  1.00  0.00     0.006 C 
ATOM     18  C   UNL     1      92.155  86.740  81.311  1.00  0.00     0.008 C 
ATOM     19  C   UNL     1      92.667  84.978  83.044  1.00  0.00     0.012 C 
ATOM     20  C   UNL     1      90.289  84.360  80.871  1.00  0.00    -0.025 C 
ATOM     21  C   UNL     1      90.660  86.841  81.636  1.00  0.00     0.005 C 
ATOM     22  C   UNL     1      89.741  85.856  80.847  1.00  0.00     0.003 C 
ATOM     23  C   UNL     1      89.896  83.595  82.194  1.00  0.00     0.010 C 
ATOM     24  C   UNL     1      89.609  83.540  79.717  1.00  0.00     0.012 C 
ATOM     25  C   UNL     1      88.185  86.001  81.239  1.00  0.00    -0.006 C 
ATOM     26  C   UNL     1      88.847  84.306  83.058  1.00  0.00     0.033 C 
ATOM     27  C   UNL     1      87.705  84.841  82.194  1.00  0.00     0.120 C 
ATOM     28  C   UNL     1      87.869  87.381  81.895  1.00  0.00     0.014 C 
ATOM     29  C   UNL     1      87.319  85.968  79.951  1.00  0.00     0.014 C 
ENDROOT
BRANCH   1  30
ATOM     30  C   UNL     1      97.448  85.248  79.211  1.00  0.00     0.048 C 
ATOM     31  O   UNL     1      96.992  84.708  78.167  1.00  0.00    -0.550 OA
ATOM     32  O   UNL     1      98.547  84.667  79.835  1.00  0.00    -0.550 OA
ENDBRANCH   1  30
BRANCH  27  33
ATOM     33  O   UNL     1      86.658  85.249  83.041  1.00  0.00    -0.393 OA
ATOM     34  H   UNL     1      86.235  86.042  82.620  1.00  0.00     0.210 HD
ENDBRANCH  27  33
TORSDOF 2
ENDMDL
MODEL 7
REMARK VINA RESULT:    -6.548      5.791      9.963
REMARK INTER + INTRA:          -6.820
REMARK INTER:                  -7.119
REMARK INTRA:                   0.300
REMARK UNBOUND:                 0.302
REMARK SMILES CC1(C)CC[C@@]2(C(=O)[O-])CC[C@]3(C)C(=CC[C@@H]4[C@@]5(C)CC[C@@H](O)C(C)(C)[C@H]5CC[C@@]43C)[C@@H]2C1
REMARK SMILES IDX 6 1 5 2 10 3 32 4 4 5 11 6 14 7 33 8 2 9 12 10 15 11 1 12
REMARK SMILES IDX 3 13 13 14 30 15 16 16 17 17 29 18 31 19 18 20 28 21 27 22
REMARK SMILES IDX 20 23 19 24 24 25 21 26 22 27 25 28 26 29 7 30 8 31 9 32
REMARK SMILES IDX 23 33
REMARK H PARENT 23 34
REMARK Flexibility Score: inf
ROOT
ATOM      1  C   UNL     1     102.116  90.549  80.589  1.00  0.00     0.017 C 
ATOM      2  C   UNL     1     102.158  91.703  79.548  1.00  0.00     0.014 C 
ATOM      3  C   UNL     1     101.131  90.946  81.744  1.00  0.00     0.014 C 
ATOM      4  C   UNL     1     101.615  89.259  79.866  1.00  0.00     0.028 C 
ATOM      5  C   UNL     1     103.046  91.377  78.337  1.00  0.00     0.007 C 
ATOM      6  C   UNL     1     100.058  89.886  82.090  1.00  0.00     0.013 C 
ATOM      7  C   UNL     1     101.390  88.124  80.880  1.00  0.00    -0.064 C 
ATOM      8  C   UNL     1     102.481  88.906  78.623  1.00  0.00     0.015 C 
ATOM      9  C   UNL     1     102.623  90.076  77.609  1.00  0.00    -0.035 C 
ATOM     10  C   UNL     1     100.588  88.409  82.144  1.00  0.00    -0.006 C 
ATOM     11  C   UNL     1     101.757  86.856  80.619  1.00  0.00    -0.027 C 
ATOM     12  C   UNL     1     101.303  90.292  76.829  1.00  0.00     0.011 C 
ATOM     13  C   UNL     1     103.718  89.710  76.584  1.00  0.00     0.011 C 
ATOM     14  C   UNL     1     101.574  88.324  83.353  1.00  0.00     0.017 C 
ATOM     15  C   UNL     1      99.408  87.319  82.272  1.00  0.00    -0.020 C 
ATOM     16  C   UNL     1     101.172  85.655  81.312  1.00  0.00     0.032 C 
ATOM     17  C   UNL     1     100.041  85.870  82.390  1.00  0.00     0.006 C 
ATOM     18  C   UNL     1      98.499  87.309  81.010  1.00  0.00     0.008 C 
ATOM     19  C   UNL     1      98.522  87.686  83.506  1.00  0.00     0.012 C 
ATOM     20  C   UNL     1      99.012  84.636  82.401  1.00  0.00    -0.025 C 
ATOM     21  C   UNL     1      97.425  86.215  81.033  1.00  0.00     0.005 C 
ATOM     22  C   UNL     1      97.965  84.760  81.207  1.00  0.00     0.003 C 
ATOM     23  C   UNL     1      98.310  84.495  83.807  1.00  0.00     0.010 C 
ATOM     24  C   UNL     1      99.838  83.312  82.231  1.00  0.00     0.012 C 
ATOM     25  C   UNL     1      96.791  83.657  81.234  1.00  0.00    -0.006 C 
ATOM     26  C   UNL     1      96.803  84.216  83.745  1.00  0.00     0.033 C 
ATOM     27  C   UNL     1      96.490  83.149  82.697  1.00  0.00     0.120 C 
ATOM     28  C   UNL     1      95.473  84.181  80.584  1.00  0.00     0.014 C 
ATOM     29  C   UNL     1      97.202  82.437  80.366  1.00  0.00     0.014 C 
ENDROOT
BRANCH   1  30
ATOM     30  C   UNL     1     103.516  90.382  81.182  1.00  0.00     0.048 C 
ATOM     31  O   UNL     1     104.125  89.279  81.139  1.00  0.00    -0.550 OA
ATOM     32  O   UNL     1     104.125  91.453  81.828  1.00  0.00    -0.550 OA
ENDBRANCH   1  30
BRANCH  27  33
ATOM     33  O   UNL     1      95.151  82.746  82.856  1.00  0.00    -0.393 OA
ATOM     34  H   UNL     1      94.991  82.008  82.211  1.00  0.00     0.210 HD
ENDBRANCH  27  33
TORSDOF 2
ENDMDL
MODEL 8
REMARK VINA RESULT:    -6.464      3.089      8.951
REMARK INTER + INTRA:          -6.729
REMARK INTER:                  -7.043
REMARK INTRA:                   0.314
REMARK UNBOUND:                 0.302
REMARK SMILES CC1(C)CC[C@@]2(C(=O)[O-])CC[C@]3(C)C(=CC[C@@H]4[C@@]5(C)CC[C@@H](O)C(C)(C)[C@H]5CC[C@@]43C)[C@@H]2C1
REMARK SMILES IDX 6 1 5 2 10 3 32 4 4 5 11 6 14 7 33 8 2 9 12 10 15 11 1 12
REMARK SMILES IDX 3 13 13 14 30 15 16 16 17 17 29 18 31 19 18 20 28 21 27 22
REMARK SMILES IDX 20 23 19 24 24 25 21 26 22 27 25 28 26 29 7 30 8 31 9 32
REMARK SMILES IDX 23 33
REMARK H PARENT 23 34
REMARK Flexibility Score: inf
ROOT
ATOM      1  C   UNL     1      99.915  84.407  83.227  1.00  0.00     0.017 C 
ATOM      2  C   UNL     1     100.309  83.603  84.498  1.00  0.00     0.014 C 
ATOM      3  C   UNL     1     100.239  83.540  81.960  1.00  0.00     0.014 C 
ATOM      4  C   UNL     1      98.386  84.715  83.299  1.00  0.00     0.028 C 
ATOM      5  C   UNL     1      99.963  84.345  85.799  1.00  0.00     0.007 C 
ATOM      6  C   UNL     1      99.080  83.394  80.945  1.00  0.00     0.013 C 
ATOM      7  C   UNL     1      97.902  85.360  81.990  1.00  0.00    -0.064 C 
ATOM      8  C   UNL     1      97.993  85.450  84.612  1.00  0.00     0.015 C 
ATOM      9  C   UNL     1      98.462  84.718  85.901  1.00  0.00    -0.035 C 
ATOM     10  C   UNL     1      98.286  84.718  80.661  1.00  0.00    -0.006 C 
ATOM     11  C   UNL     1      97.035  86.389  81.983  1.00  0.00    -0.027 C 
ATOM     12  C   UNL     1      97.603  83.457  86.161  1.00  0.00     0.011 C 
ATOM     13  C   UNL     1      98.274  85.668  87.103  1.00  0.00     0.011 C 
ATOM     14  C   UNL     1      99.270  85.692  79.938  1.00  0.00     0.017 C 
ATOM     15  C   UNL     1      96.950  84.479  79.790  1.00  0.00    -0.020 C 
ATOM     16  C   UNL     1      96.175  86.754  80.804  1.00  0.00     0.032 C 
ATOM     17  C   UNL     1      96.257  85.875  79.497  1.00  0.00     0.006 C 
ATOM     18  C   UNL     1      95.911  83.616  80.562  1.00  0.00     0.008 C 
ATOM     19  C   UNL     1      97.338  83.718  78.482  1.00  0.00     0.012 C 
ATOM     20  C   UNL     1      94.840  85.827  78.743  1.00  0.00    -0.025 C 
ATOM     21  C   UNL     1      94.579  83.450  79.822  1.00  0.00     0.005 C 
ATOM     22  C   UNL     1      93.859  84.783  79.442  1.00  0.00     0.003 C 
ATOM     23  C   UNL     1      95.025  85.542  77.202  1.00  0.00     0.010 C 
ATOM     24  C   UNL     1      94.203  87.261  78.811  1.00  0.00     0.012 C 
ATOM     25  C   UNL     1      92.473  84.544  78.658  1.00  0.00    -0.006 C 
ATOM     26  C   UNL     1      94.035  84.527  76.615  1.00  0.00     0.033 C 
ATOM     27  C   UNL     1      92.616  84.804  77.109  1.00  0.00     0.120 C 
ATOM     28  C   UNL     1      91.900  83.113  78.895  1.00  0.00     0.014 C 
ATOM     29  C   UNL     1      91.386  85.502  79.218  1.00  0.00     0.014 C 
ENDROOT
BRANCH   1  30
ATOM     30  C   UNL     1     100.766  85.678  83.176  1.00  0.00     0.048 C 
ATOM     31  O   UNL     1     102.006  85.635  82.957  1.00  0.00    -0.550 OA
ATOM     32  O   UNL     1     100.176  86.914  83.421  1.00  0.00    -0.550 OA
ENDBRANCH   1  30
BRANCH  27  33
ATOM     33  O   UNL     1      91.721  84.025  76.354  1.00  0.00    -0.393 OA
ATOM     34  H   UNL     1      90.929  84.593  76.163  1.00  0.00     0.210 HD
ENDBRANCH  27  33
TORSDOF 2
ENDMDL
MODEL 9
REMARK VINA RESULT:    -6.429      4.043      6.244
REMARK INTER + INTRA:          -6.690
REMARK INTER:                  -7.048
REMARK INTRA:                   0.358
REMARK UNBOUND:                 0.302
REMARK SMILES CC1(C)CC[C@@]2(C(=O)[O-])CC[C@]3(C)C(=CC[C@@H]4[C@@]5(C)CC[C@@H](O)C(C)(C)[C@H]5CC[C@@]43C)[C@@H]2C1
REMARK SMILES IDX 6 1 5 2 10 3 32 4 4 5 11 6 14 7 33 8 2 9 12 10 15 11 1 12
REMARK SMILES IDX 3 13 13 14 30 15 16 16 17 17 29 18 31 19 18 20 28 21 27 22
REMARK SMILES IDX 20 23 19 24 24 25 21 26 22 27 25 28 26 29 7 30 8 31 9 32
REMARK SMILES IDX 23 33
REMARK H PARENT 23 34
REMARK Flexibility Score: inf
ROOT
ATOM      1  C   UNL     1      96.679  88.552  78.249  1.00  0.00     0.017 C 
ATOM      2  C   UNL     1      96.641  90.061  77.877  1.00  0.00     0.014 C 
ATOM      3  C   UNL     1      98.174  88.074  78.266  1.00  0.00     0.014 C 
ATOM      4  C   UNL     1      96.039  88.384  79.663  1.00  0.00     0.028 C 
ATOM      5  C   UNL     1      95.219  90.642  77.903  1.00  0.00     0.007 C 
ATOM      6  C   UNL     1      98.612  87.321  79.546  1.00  0.00     0.013 C 
ATOM      7  C   UNL     1      96.200  86.938  80.161  1.00  0.00    -0.064 C 
ATOM      8  C   UNL     1      94.602  88.977  79.735  1.00  0.00     0.015 C 
ATOM      9  C   UNL     1      94.515  90.459  79.272  1.00  0.00    -0.035 C 
ATOM     10  C   UNL     1      97.572  86.276  80.081  1.00  0.00    -0.006 C 
ATOM     11  C   UNL     1      95.206  86.289  80.794  1.00  0.00    -0.027 C 
ATOM     12  C   UNL     1      95.131  91.403  80.333  1.00  0.00     0.011 C 
ATOM     13  C   UNL     1      93.028  90.839  79.114  1.00  0.00     0.011 C 
ATOM     14  C   UNL     1      97.480  85.138  79.014  1.00  0.00     0.017 C 
ATOM     15  C   UNL     1      97.955  85.689  81.533  1.00  0.00    -0.020 C 
ATOM     16  C   UNL     1      95.418  85.105  81.698  1.00  0.00     0.032 C 
ATOM     17  C   UNL     1      96.888  84.596  81.957  1.00  0.00     0.006 C 
ATOM     18  C   UNL     1      97.919  86.797  82.625  1.00  0.00     0.008 C 
ATOM     19  C   UNL     1      99.407  85.116  81.471  1.00  0.00     0.012 C 
ATOM     20  C   UNL     1      97.036  83.986  83.436  1.00  0.00    -0.025 C 
ATOM     21  C   UNL     1      98.170  86.272  84.043  1.00  0.00     0.005 C 
ATOM     22  C   UNL     1      97.196  85.146  84.516  1.00  0.00     0.003 C 
ATOM     23  C   UNL     1      98.210  82.934  83.502  1.00  0.00     0.010 C 
ATOM     24  C   UNL     1      95.740  83.158  83.753  1.00  0.00     0.012 C 
ATOM     25  C   UNL     1      97.516  84.628  86.007  1.00  0.00    -0.006 C 
ATOM     26  C   UNL     1      99.106  83.051  84.741  1.00  0.00     0.033 C 
ATOM     27  C   UNL     1      98.265  83.240  86.004  1.00  0.00     0.120 C 
ATOM     28  C   UNL     1      98.345  85.664  86.827  1.00  0.00     0.014 C 
ATOM     29  C   UNL     1      96.190  84.468  86.799  1.00  0.00     0.014 C 
ENDROOT
BRANCH   1  30
ATOM     30  C   UNL     1      95.931  87.768  77.170  1.00  0.00     0.048 C 
ATOM     31  O   UNL     1      95.071  86.895  77.464  1.00  0.00    -0.550 OA
ATOM     32  O   UNL     1      96.230  87.982  75.829  1.00  0.00    -0.550 OA
ENDBRANCH   1  30
BRANCH  27  33
ATOM     33  O   UNL     1      99.102  83.083  87.124  1.00  0.00    -0.393 OA
ATOM     34  H   UNL     1      99.537  83.961  87.287  1.00  0.00     0.210 HD
ENDBRANCH  27  33
TORSDOF 2
ENDMDL
