MODEL 1
REMARK VINA RESULT:    -3.264      0.000      0.000
REMARK INTER + INTRA:         -10.411
REMARK INTER:                  -7.081
REMARK INTRA:                  -3.330
REMARK UNBOUND:                -3.330
REMARK SMILES CCCCCCCCCCCCCCCCCCCCCC(=O)[O-]
REMARK SMILES IDX 12 1 11 2 10 3 9 4 8 5 7 6 6 7 5 8 4 9 3 10 2 11 1 12 13 13
REMARK SMILES IDX 14 14 15 15 16 16 17 17 18 18 19 19 20 20 21 21 22 22 23 23
REMARK SMILES IDX 24 24
REMARK H PARENT
REMARK Flexibility Score: inf
ROOT
ATOM      1  C   UNL     1      59.774  28.214  48.980  1.00  0.00     0.000 C 
ENDROOT
BRANCH   1   2
ATOM      2  C   UNL     1      58.663  29.277  49.005  1.00  0.00     0.000 C 
BRANCH   2   3
ATOM      3  C   UNL     1      57.867  29.287  50.323  1.00  0.00     0.000 C 
BRANCH   3   4
ATOM      4  C   UNL     1      58.691  29.604  51.584  1.00  0.00    -0.000 C 
BRANCH   4   5
ATOM      5  C   UNL     1      58.156  28.907  52.844  1.00  0.00    -0.000 C 
BRANCH   5   6
ATOM      6  C   UNL     1      57.870  27.422  52.574  1.00  0.00    -0.000 C 
BRANCH   6   7
ATOM      7  C   UNL     1      56.498  26.980  53.125  1.00  0.00    -0.000 C 
BRANCH   7   8
ATOM      8  C   UNL     1      55.721  26.051  52.177  1.00  0.00    -0.000 C 
BRANCH   8   9
ATOM      9  C   UNL     1      56.252  26.081  50.738  1.00  0.00    -0.000 C 
BRANCH   9  10
ATOM     10  C   UNL     1      55.141  26.455  49.749  1.00  0.00    -0.000 C 
BRANCH  10  11
ATOM     11  C   UNL     1      54.023  27.237  50.448  1.00  0.00    -0.003 C 
ATOM     12  C   UNL     1      54.078  28.719  50.084  1.00  0.00     0.004 C 
ENDBRANCH  10  11
ENDBRANCH   9  10
ENDBRANCH   8   9
ENDBRANCH   7   8
ENDBRANCH   6   7
ENDBRANCH   5   6
ENDBRANCH   4   5
ENDBRANCH   3   4
ENDBRANCH   2   3
ENDBRANCH   1   2
BRANCH   1  13
ATOM     13  C   UNL     1      59.246  26.804  49.297  1.00  0.00     0.000 C 
BRANCH  13  14
ATOM     14  C   UNL     1      60.278  25.937  50.039  1.00  0.00     0.000 C 
BRANCH  14  15
ATOM     15  C   UNL     1      61.345  26.775  50.763  1.00  0.00     0.000 C 
BRANCH  15  16
ATOM     16  C   UNL     1      62.762  26.524  50.217  1.00  0.00     0.000 C 
BRANCH  16  17
ATOM     17  C   UNL     1      63.627  27.794  50.219  1.00  0.00     0.000 C 
BRANCH  17  18
ATOM     18  C   UNL     1      62.865  29.028  50.726  1.00  0.00     0.000 C 
BRANCH  18  19
ATOM     19  C   UNL     1      62.847  30.136  49.667  1.00  0.00     0.000 C 
BRANCH  19  20
ATOM     20  C   UNL     1      61.742  31.163  49.959  1.00  0.00     0.006 C 
BRANCH  20  21
ATOM     21  C   UNL     1      62.311  32.546  50.301  1.00  0.00     0.053 C 
BRANCH  21  22
ATOM     22  C   UNL     1      62.606  33.344  49.068  1.00  0.00     0.041 C 
ATOM     23  O   UNL     1      61.664  33.812  48.377  1.00  0.00    -0.550 OA
ATOM     24  O   UNL     1      63.918  33.533  48.658  1.00  0.00    -0.550 OA
ENDBRANCH  21  22
ENDBRANCH  20  21
ENDBRANCH  19  20
ENDBRANCH  18  19
ENDBRANCH  17  18
ENDBRANCH  16  17
ENDBRANCH  15  16
ENDBRANCH  14  15
ENDBRANCH  13  14
ENDBRANCH   1  13
TORSDOF 20
ENDMDL
MODEL 2
REMARK VINA RESULT:    -3.235      9.906     12.369
REMARK INTER + INTRA:         -10.348
REMARK INTER:                  -7.069
REMARK INTRA:                  -3.279
REMARK UNBOUND:                -3.330
REMARK SMILES CCCCCCCCCCCCCCCCCCCCCC(=O)[O-]
REMARK SMILES IDX 12 1 11 2 10 3 9 4 8 5 7 6 6 7 5 8 4 9 3 10 2 11 1 12 13 13
REMARK SMILES IDX 14 14 15 15 16 16 17 17 18 18 19 19 20 20 21 21 22 22 23 23
REMARK SMILES IDX 24 24
REMARK H PARENT
REMARK Flexibility Score: inf
ROOT
ATOM      1  C   UNL     1      63.551  31.613  58.096  1.00  0.00     0.000 C 
ENDROOT
BRANCH   1   2
ATOM      2  C   UNL     1      63.571  33.067  58.596  1.00  0.00     0.000 C 
BRANCH   2   3
ATOM      3  C   UNL     1      64.471  33.267  59.829  1.00  0.00     0.000 C 
BRANCH   3   4
ATOM      4  C   UNL     1      63.777  33.888  61.055  1.00  0.00    -0.000 C 
BRANCH   4   5
ATOM      5  C   UNL     1      64.361  35.252  61.451  1.00  0.00    -0.000 C 
BRANCH   5   6
ATOM      6  C   UNL     1      63.270  36.333  61.475  1.00  0.00    -0.000 C 
BRANCH   6   7
ATOM      7  C   UNL     1      61.965  35.864  60.799  1.00  0.00    -0.000 C 
BRANCH   7   8
ATOM      8  C   UNL     1      60.865  36.938  60.766  1.00  0.00    -0.000 C 
BRANCH   8   9
ATOM      9  C   UNL     1      59.850  36.724  59.635  1.00  0.00    -0.000 C 
BRANCH   9  10
ATOM     10  C   UNL     1      60.184  35.464  58.827  1.00  0.00    -0.000 C 
BRANCH  10  11
ATOM     11  C   UNL     1      59.361  35.406  57.534  1.00  0.00    -0.003 C 
ATOM     12  C   UNL     1      57.889  35.136  57.831  1.00  0.00     0.004 C 
ENDBRANCH  10  11
ENDBRANCH   9  10
ENDBRANCH   8   9
ENDBRANCH   7   8
ENDBRANCH   6   7
ENDBRANCH   5   6
ENDBRANCH   4   5
ENDBRANCH   3   4
ENDBRANCH   2   3
ENDBRANCH   1   2
BRANCH   1  13
ATOM     13  C   UNL     1      62.134  31.016  58.080  1.00  0.00     0.000 C 
BRANCH  13  14
ATOM     14  C   UNL     1      61.039  32.078  58.283  1.00  0.00     0.000 C 
BRANCH  14  15
ATOM     15  C   UNL     1      60.122  31.764  59.477  1.00  0.00     0.000 C 
BRANCH  15  16
ATOM     16  C   UNL     1      60.741  32.184  60.822  1.00  0.00     0.000 C 
BRANCH  16  17
ATOM     17  C   UNL     1      60.998  30.987  61.752  1.00  0.00     0.000 C 
BRANCH  17  18
ATOM     18  C   UNL     1      62.462  30.523  61.726  1.00  0.00     0.000 C 
BRANCH  18  19
ATOM     19  C   UNL     1      62.556  29.019  61.444  1.00  0.00     0.000 C 
BRANCH  19  20
ATOM     20  C   UNL     1      61.325  28.524  60.669  1.00  0.00     0.006 C 
BRANCH  20  21
ATOM     21  C   UNL     1      60.600  27.385  61.398  1.00  0.00     0.053 C 
BRANCH  21  22
ATOM     22  C   UNL     1      59.163  27.290  60.986  1.00  0.00     0.041 C 
ATOM     23  O   UNL     1      58.796  26.401  60.175  1.00  0.00    -0.550 OA
ATOM     24  O   UNL     1      58.239  28.209  61.462  1.00  0.00    -0.550 OA
ENDBRANCH  21  22
ENDBRANCH  20  21
ENDBRANCH  19  20
ENDBRANCH  18  19
ENDBRANCH  17  18
ENDBRANCH  16  17
ENDBRANCH  15  16
ENDBRANCH  14  15
ENDBRANCH  13  14
ENDBRANCH   1  13
TORSDOF 20
ENDMDL
MODEL 3
REMARK VINA RESULT:    -3.220     10.025     12.231
REMARK INTER + INTRA:         -10.316
REMARK INTER:                  -6.984
REMARK INTRA:                  -3.332
REMARK UNBOUND:                -3.330
REMARK SMILES CCCCCCCCCCCCCCCCCCCCCC(=O)[O-]
REMARK SMILES IDX 12 1 11 2 10 3 9 4 8 5 7 6 6 7 5 8 4 9 3 10 2 11 1 12 13 13
REMARK SMILES IDX 14 14 15 15 16 16 17 17 18 18 19 19 20 20 21 21 22 22 23 23
REMARK SMILES IDX 24 24
REMARK H PARENT
REMARK Flexibility Score: inf
ROOT
ATOM      1  C   UNL     1      62.979  33.487  57.884  1.00  0.00     0.000 C 
ENDROOT
BRANCH   1   2
ATOM      2  C   UNL     1      63.883  32.562  58.717  1.00  0.00     0.000 C 
BRANCH   2   3
ATOM      3  C   UNL     1      64.381  33.219  60.017  1.00  0.00     0.000 C 
BRANCH   3   4
ATOM      4  C   UNL     1      64.235  34.751  60.077  1.00  0.00    -0.000 C 
BRANCH   4   5
ATOM      5  C   UNL     1      63.800  35.261  61.458  1.00  0.00    -0.000 C 
BRANCH   5   6
ATOM      6  C   UNL     1      62.682  36.307  61.333  1.00  0.00    -0.000 C 
BRANCH   6   7
ATOM      7  C   UNL     1      61.432  35.747  60.623  1.00  0.00    -0.000 C 
BRANCH   7   8
ATOM      8  C   UNL     1      60.998  36.566  59.396  1.00  0.00    -0.000 C 
BRANCH   8   9
ATOM      9  C   UNL     1      59.978  35.833  58.515  1.00  0.00    -0.000 C 
BRANCH   9  10
ATOM     10  C   UNL     1      58.680  36.638  58.388  1.00  0.00    -0.000 C 
BRANCH  10  11
ATOM     11  C   UNL     1      57.550  35.773  57.816  1.00  0.00    -0.003 C 
ATOM     12  C   UNL     1      58.075  34.415  57.356  1.00  0.00     0.004 C 
ENDBRANCH  10  11
ENDBRANCH   9  10
ENDBRANCH   8   9
ENDBRANCH   7   8
ENDBRANCH   6   7
ENDBRANCH   5   6
ENDBRANCH   4   5
ENDBRANCH   3   4
ENDBRANCH   2   3
ENDBRANCH   1   2
BRANCH   1  13
ATOM     13  C   UNL     1      61.629  32.836  57.540  1.00  0.00     0.000 C 
BRANCH  13  14
ATOM     14  C   UNL     1      61.216  31.753  58.553  1.00  0.00     0.000 C 
BRANCH  14  15
ATOM     15  C   UNL     1      60.331  32.307  59.683  1.00  0.00     0.000 C 
BRANCH  15  16
ATOM     16  C   UNL     1      60.965  32.119  61.073  1.00  0.00     0.000 C 
BRANCH  16  17
ATOM     17  C   UNL     1      61.399  30.667  61.330  1.00  0.00     0.000 C 
BRANCH  17  18
ATOM     18  C   UNL     1      62.875  30.556  61.745  1.00  0.00     0.000 C 
BRANCH  18  19
ATOM     19  C   UNL     1      63.511  29.285  61.172  1.00  0.00     0.000 C 
BRANCH  19  20
ATOM     20  C   UNL     1      65.034  29.442  61.037  1.00  0.00     0.006 C 
BRANCH  20  21
ATOM     21  C   UNL     1      65.714  28.142  60.587  1.00  0.00     0.053 C 
BRANCH  21  22
ATOM     22  C   UNL     1      67.137  28.072  61.047  1.00  0.00     0.041 C 
ATOM     23  O   UNL     1      67.915  27.209  60.565  1.00  0.00    -0.550 OA
ATOM     24  O   UNL     1      67.591  28.929  62.039  1.00  0.00    -0.550 OA
ENDBRANCH  21  22
ENDBRANCH  20  21
ENDBRANCH  19  20
ENDBRANCH  18  19
ENDBRANCH  17  18
ENDBRANCH  16  17
ENDBRANCH  15  16
ENDBRANCH  14  15
ENDBRANCH  13  14
ENDBRANCH   1  13
TORSDOF 20
ENDMDL
MODEL 4
REMARK VINA RESULT:    -3.173      9.897     12.193
REMARK INTER + INTRA:         -10.213
REMARK INTER:                  -6.549
REMARK INTRA:                  -3.664
REMARK UNBOUND:                -3.330
REMARK SMILES CCCCCCCCCCCCCCCCCCCCCC(=O)[O-]
REMARK SMILES IDX 12 1 11 2 10 3 9 4 8 5 7 6 6 7 5 8 4 9 3 10 2 11 1 12 13 13
REMARK SMILES IDX 14 14 15 15 16 16 17 17 18 18 19 19 20 20 21 21 22 22 23 23
REMARK SMILES IDX 24 24
REMARK H PARENT
REMARK Flexibility Score: inf
ROOT
ATOM      1  C   UNL     1      60.904  31.114  61.748  1.00  0.00     0.000 C 
ENDROOT
BRANCH   1   2
ATOM      2  C   UNL     1      60.749  32.412  60.937  1.00  0.00     0.000 C 
BRANCH   2   3
ATOM      3  C   UNL     1      60.570  32.161  59.428  1.00  0.00     0.000 C 
BRANCH   3   4
ATOM      4  C   UNL     1      60.543  33.427  58.551  1.00  0.00    -0.000 C 
BRANCH   4   5
ATOM      5  C   UNL     1      61.924  33.805  57.997  1.00  0.00    -0.000 C 
BRANCH   5   6
ATOM      6  C   UNL     1      62.945  32.685  58.247  1.00  0.00    -0.000 C 
BRANCH   6   7
ATOM      7  C   UNL     1      64.265  33.216  58.843  1.00  0.00    -0.000 C 
BRANCH   7   8
ATOM      8  C   UNL     1      64.233  33.374  60.373  1.00  0.00    -0.000 C 
BRANCH   8   9
ATOM      9  C   UNL     1      64.288  34.839  60.826  1.00  0.00    -0.000 C 
BRANCH   9  10
ATOM     10  C   UNL     1      62.913  35.320  61.305  1.00  0.00    -0.000 C 
BRANCH  10  11
ATOM     11  C   UNL     1      62.402  36.477  60.437  1.00  0.00    -0.003 C 
ATOM     12  C   UNL     1      60.887  36.623  60.551  1.00  0.00     0.004 C 
ENDBRANCH  10  11
ENDBRANCH   9  10
ENDBRANCH   8   9
ENDBRANCH   7   8
ENDBRANCH   6   7
ENDBRANCH   5   6
ENDBRANCH   4   5
ENDBRANCH   3   4
ENDBRANCH   2   3
ENDBRANCH   1   2
BRANCH   1  13
ATOM     13  C   UNL     1      62.352  30.594  61.755  1.00  0.00     0.000 C 
BRANCH  13  14
ATOM     14  C   UNL     1      62.445  29.091  61.437  1.00  0.00     0.000 C 
BRANCH  14  15
ATOM     15  C   UNL     1      61.954  28.754  60.019  1.00  0.00     0.000 C 
BRANCH  15  16
ATOM     16  C   UNL     1      62.908  29.270  58.928  1.00  0.00     0.000 C 
BRANCH  16  17
ATOM     17  C   UNL     1      63.694  28.136  58.249  1.00  0.00     0.000 C 
BRANCH  17  18
ATOM     18  C   UNL     1      65.187  28.153  58.610  1.00  0.00     0.000 C 
BRANCH  18  19
ATOM     19  C   UNL     1      65.458  27.316  59.865  1.00  0.00     0.000 C 
BRANCH  19  20
ATOM     20  C   UNL     1      65.935  28.201  61.027  1.00  0.00     0.006 C 
BRANCH  20  21
ATOM     21  C   UNL     1      66.450  29.564  60.546  1.00  0.00     0.053 C 
BRANCH  21  22
ATOM     22  C   UNL     1      67.939  29.668  60.664  1.00  0.00     0.041 C 
ATOM     23  O   UNL     1      68.632  29.980  59.661  1.00  0.00    -0.550 OA
ATOM     24  O   UNL     1      68.564  29.375  61.867  1.00  0.00    -0.550 OA
ENDBRANCH  21  22
ENDBRANCH  20  21
ENDBRANCH  19  20
ENDBRANCH  18  19
ENDBRANCH  17  18
ENDBRANCH  16  17
ENDBRANCH  15  16
ENDBRANCH  14  15
ENDBRANCH  13  14
ENDBRANCH   1  13
TORSDOF 20
ENDMDL
MODEL 5
REMARK VINA RESULT:    -3.161      2.913      6.750
REMARK INTER + INTRA:         -10.187
REMARK INTER:                  -6.292
REMARK INTRA:                  -3.895
REMARK UNBOUND:                -3.330
REMARK SMILES CCCCCCCCCCCCCCCCCCCCCC(=O)[O-]
REMARK SMILES IDX 12 1 11 2 10 3 9 4 8 5 7 6 6 7 5 8 4 9 3 10 2 11 1 12 13 13
REMARK SMILES IDX 14 14 15 15 16 16 17 17 18 18 19 19 20 20 21 21 22 22 23 23
REMARK SMILES IDX 24 24
REMARK H PARENT
REMARK Flexibility Score: inf
ROOT
ATOM      1  C   UNL     1      56.960  26.640  52.435  1.00  0.00     0.000 C 
ENDROOT
BRANCH   1   2
ATOM      2  C   UNL     1      58.375  26.075  52.646  1.00  0.00     0.000 C 
BRANCH   2   3
ATOM      3  C   UNL     1      58.483  24.578  52.301  1.00  0.00     0.000 C 
BRANCH   3   4
ATOM      4  C   UNL     1      59.588  24.215  51.292  1.00  0.00    -0.000 C 
BRANCH   4   5
ATOM      5  C   UNL     1      59.646  25.173  50.092  1.00  0.00    -0.000 C 
BRANCH   5   6
ATOM      6  C   UNL     1      60.961  25.966  50.082  1.00  0.00    -0.000 C 
BRANCH   6   7
ATOM      7  C   UNL     1      60.780  27.393  49.525  1.00  0.00    -0.000 C 
BRANCH   7   8
ATOM      8  C   UNL     1      59.320  27.753  49.206  1.00  0.00    -0.000 C 
BRANCH   8   9
ATOM      9  C   UNL     1      59.029  29.254  49.331  1.00  0.00    -0.000 C 
BRANCH   9  10
ATOM     10  C   UNL     1      58.121  29.541  50.532  1.00  0.00    -0.000 C 
BRANCH  10  11
ATOM     11  C   UNL     1      58.944  29.709  51.816  1.00  0.00    -0.003 C 
ATOM     12  C   UNL     1      60.225  30.493  51.550  1.00  0.00     0.004 C 
ENDBRANCH  10  11
ENDBRANCH   9  10
ENDBRANCH   8   9
ENDBRANCH   7   8
ENDBRANCH   6   7
ENDBRANCH   5   6
ENDBRANCH   4   5
ENDBRANCH   3   4
ENDBRANCH   2   3
ENDBRANCH   1   2
BRANCH   1  13
ATOM     13  C   UNL     1      56.145  25.822  51.419  1.00  0.00     0.000 C 
BRANCH  13  14
ATOM     14  C   UNL     1      55.958  26.555  50.079  1.00  0.00     0.000 C 
BRANCH  14  15
ATOM     15  C   UNL     1      54.515  26.472  49.555  1.00  0.00     0.000 C 
BRANCH  15  16
ATOM     16  C   UNL     1      53.712  27.755  49.835  1.00  0.00     0.000 C 
BRANCH  16  17
ATOM     17  C   UNL     1      54.617  28.976  50.066  1.00  0.00     0.000 C 
BRANCH  17  18
ATOM     18  C   UNL     1      54.235  29.763  51.330  1.00  0.00     0.000 C 
BRANCH  18  19
ATOM     19  C   UNL     1      54.007  28.818  52.515  1.00  0.00     0.000 C 
BRANCH  19  20
ATOM     20  C   UNL     1      54.381  29.496  53.843  1.00  0.00     0.006 C 
BRANCH  20  21
ATOM     21  C   UNL     1      55.884  29.792  53.940  1.00  0.00     0.053 C 
BRANCH  21  22
ATOM     22  C   UNL     1      56.149  31.243  54.194  1.00  0.00     0.041 C 
ATOM     23  O   UNL     1      55.828  31.761  55.296  1.00  0.00    -0.550 OA
ATOM     24  O   UNL     1      56.706  32.034  53.200  1.00  0.00    -0.550 OA
ENDBRANCH  21  22
ENDBRANCH  20  21
ENDBRANCH  19  20
ENDBRANCH  18  19
ENDBRANCH  17  18
ENDBRANCH  16  17
ENDBRANCH  15  16
ENDBRANCH  14  15
ENDBRANCH  13  14
ENDBRANCH   1  13
TORSDOF 20
ENDMDL
MODEL 6
REMARK VINA RESULT:    -3.139      9.631     12.134
REMARK INTER + INTRA:         -10.139
REMARK INTER:                  -5.977
REMARK INTRA:                  -4.162
REMARK UNBOUND:                -3.330
REMARK SMILES CCCCCCCCCCCCCCCCCCCCCC(=O)[O-]
REMARK SMILES IDX 12 1 11 2 10 3 9 4 8 5 7 6 6 7 5 8 4 9 3 10 2 11 1 12 13 13
REMARK SMILES IDX 14 14 15 15 16 16 17 17 18 18 19 19 20 20 21 21 22 22 23 23
REMARK SMILES IDX 24 24
REMARK H PARENT
REMARK Flexibility Score: inf
ROOT
ATOM      1  C   UNL     1      60.919  33.223  59.279  1.00  0.00     0.000 C 
ENDROOT
BRANCH   1   2
ATOM      2  C   UNL     1      60.654  34.714  59.010  1.00  0.00     0.000 C 
BRANCH   2   3
ATOM      3  C   UNL     1      60.843  35.594  60.260  1.00  0.00     0.000 C 
BRANCH   3   4
ATOM      4  C   UNL     1      62.107  36.473  60.259  1.00  0.00    -0.000 C 
BRANCH   4   5
ATOM      5  C   UNL     1      62.983  36.268  61.503  1.00  0.00    -0.000 C 
BRANCH   5   6
ATOM      6  C   UNL     1      64.049  35.190  61.256  1.00  0.00    -0.000 C 
BRANCH   6   7
ATOM      7  C   UNL     1      64.509  35.148  59.783  1.00  0.00    -0.000 C 
BRANCH   7   8
ATOM      8  C   UNL     1      64.559  33.730  59.191  1.00  0.00    -0.000 C 
BRANCH   8   9
ATOM      9  C   UNL     1      64.205  33.690  57.698  1.00  0.00    -0.000 C 
BRANCH   9  10
ATOM     10  C   UNL     1      63.840  35.086  57.181  1.00  0.00    -0.000 C 
BRANCH  10  11
ATOM     11  C   UNL     1      62.787  35.003  56.070  1.00  0.00    -0.003 C 
ATOM     12  C   UNL     1      62.316  33.566  55.864  1.00  0.00     0.004 C 
ENDBRANCH  10  11
ENDBRANCH   9  10
ENDBRANCH   8   9
ENDBRANCH   7   8
ENDBRANCH   6   7
ENDBRANCH   5   6
ENDBRANCH   4   5
ENDBRANCH   3   4
ENDBRANCH   2   3
ENDBRANCH   1   2
BRANCH   1  13
ATOM     13  C   UNL     1      61.080  32.915  60.777  1.00  0.00     0.000 C 
BRANCH  13  14
ATOM     14  C   UNL     1      62.211  31.910  61.059  1.00  0.00     0.000 C 
BRANCH  14  15
ATOM     15  C   UNL     1      61.723  30.667  61.821  1.00  0.00     0.000 C 
BRANCH  15  16
ATOM     16  C   UNL     1      62.081  29.356  61.101  1.00  0.00     0.000 C 
BRANCH  16  17
ATOM     17  C   UNL     1      61.674  29.369  59.618  1.00  0.00     0.000 C 
BRANCH  17  18
ATOM     18  C   UNL     1      62.836  29.002  58.683  1.00  0.00     0.000 C 
BRANCH  18  19
ATOM     19  C   UNL     1      63.794  30.186  58.507  1.00  0.00     0.000 C 
BRANCH  19  20
ATOM     20  C   UNL     1      65.245  29.771  58.797  1.00  0.00     0.006 C 
BRANCH  20  21
ATOM     21  C   UNL     1      65.663  30.094  60.238  1.00  0.00     0.053 C 
BRANCH  21  22
ATOM     22  C   UNL     1      66.037  28.858  60.997  1.00  0.00     0.041 C 
ATOM     23  O   UNL     1      65.316  27.829  60.923  1.00  0.00    -0.550 OA
ATOM     24  O   UNL     1      67.153  28.857  61.821  1.00  0.00    -0.550 OA
ENDBRANCH  21  22
ENDBRANCH  20  21
ENDBRANCH  19  20
ENDBRANCH  18  19
ENDBRANCH  17  18
ENDBRANCH  16  17
ENDBRANCH  15  16
ENDBRANCH  14  15
ENDBRANCH  13  14
ENDBRANCH   1  13
TORSDOF 20
ENDMDL
MODEL 7
REMARK VINA RESULT:    -3.111      3.816      6.146
REMARK INTER + INTRA:         -10.077
REMARK INTER:                  -6.512
REMARK INTRA:                  -3.566
REMARK UNBOUND:                -3.330
REMARK SMILES CCCCCCCCCCCCCCCCCCCCCC(=O)[O-]
REMARK SMILES IDX 12 1 11 2 10 3 9 4 8 5 7 6 6 7 5 8 4 9 3 10 2 11 1 12 13 13
REMARK SMILES IDX 14 14 15 15 16 16 17 17 18 18 19 19 20 20 21 21 22 22 23 23
REMARK SMILES IDX 24 24
REMARK H PARENT
REMARK Flexibility Score: inf
ROOT
ATOM      1  C   UNL     1      56.691  29.096  51.797  1.00  0.00     0.000 C 
ENDROOT
BRANCH   1   2
ATOM      2  C   UNL     1      55.992  28.910  50.440  1.00  0.00     0.000 C 
BRANCH   2   3
ATOM      3  C   UNL     1      54.468  29.116  50.514  1.00  0.00     0.000 C 
BRANCH   3   4
ATOM      4  C   UNL     1      53.627  28.064  49.768  1.00  0.00    -0.000 C 
BRANCH   4   5
ATOM      5  C   UNL     1      54.371  26.737  49.557  1.00  0.00    -0.000 C 
BRANCH   5   6
ATOM      6  C   UNL     1      53.407  25.544  49.642  1.00  0.00    -0.000 C 
BRANCH   6   7
ATOM      7  C   UNL     1      53.156  25.097  51.097  1.00  0.00    -0.000 C 
BRANCH   7   8
ATOM      8  C   UNL     1      54.308  25.439  52.057  1.00  0.00    -0.000 C 
BRANCH   8   9
ATOM      9  C   UNL     1      53.822  25.864  53.450  1.00  0.00    -0.000 C 
BRANCH   9  10
ATOM     10  C   UNL     1      54.308  27.276  53.795  1.00  0.00    -0.000 C 
BRANCH  10  11
ATOM     11  C   UNL     1      55.323  27.243  54.944  1.00  0.00    -0.003 C 
ATOM     12  C   UNL     1      56.607  26.533  54.524  1.00  0.00     0.004 C 
ENDBRANCH  10  11
ENDBRANCH   9  10
ENDBRANCH   8   9
ENDBRANCH   7   8
ENDBRANCH   6   7
ENDBRANCH   5   6
ENDBRANCH   4   5
ENDBRANCH   3   4
ENDBRANCH   2   3
ENDBRANCH   1   2
BRANCH   1  13
ATOM     13  C   UNL     1      57.929  30.003  51.702  1.00  0.00     0.000 C 
BRANCH  13  14
ATOM     14  C   UNL     1      59.220  29.217  51.411  1.00  0.00     0.000 C 
BRANCH  14  15
ATOM     15  C   UNL     1      59.760  29.469  49.994  1.00  0.00     0.000 C 
BRANCH  15  16
ATOM     16  C   UNL     1      59.375  28.351  49.009  1.00  0.00     0.000 C 
BRANCH  16  17
ATOM     17  C   UNL     1      59.429  26.956  49.653  1.00  0.00     0.000 C 
BRANCH  17  18
ATOM     18  C   UNL     1      58.062  26.255  49.660  1.00  0.00     0.000 C 
BRANCH  18  19
ATOM     19  C   UNL     1      57.782  25.613  51.023  1.00  0.00     0.000 C 
BRANCH  19  20
ATOM     20  C   UNL     1      59.090  25.263  51.749  1.00  0.00     0.006 C 
BRANCH  20  21
ATOM     21  C   UNL     1      59.200  23.763  52.056  1.00  0.00     0.053 C 
BRANCH  21  22
ATOM     22  C   UNL     1      60.168  23.079  51.141  1.00  0.00     0.041 C 
ATOM     23  O   UNL     1      60.875  22.129  51.566  1.00  0.00    -0.550 OA
ATOM     24  O   UNL     1      60.322  23.520  49.835  1.00  0.00    -0.550 OA
ENDBRANCH  21  22
ENDBRANCH  20  21
ENDBRANCH  19  20
ENDBRANCH  18  19
ENDBRANCH  17  18
ENDBRANCH  16  17
ENDBRANCH  15  16
ENDBRANCH  14  15
ENDBRANCH  13  14
ENDBRANCH   1  13
TORSDOF 20
ENDMDL
MODEL 8
REMARK VINA RESULT:    -3.077      9.652     12.115
REMARK INTER + INTRA:         -10.004
REMARK INTER:                  -6.346
REMARK INTRA:                  -3.657
REMARK UNBOUND:                -3.330
REMARK SMILES CCCCCCCCCCCCCCCCCCCCCC(=O)[O-]
REMARK SMILES IDX 12 1 11 2 10 3 9 4 8 5 7 6 6 7 5 8 4 9 3 10 2 11 1 12 13 13
REMARK SMILES IDX 14 14 15 15 16 16 17 17 18 18 19 19 20 20 21 21 22 22 23 23
REMARK SMILES IDX 24 24
REMARK H PARENT
REMARK Flexibility Score: inf
ROOT
ATOM      1  C   UNL     1      65.048  34.726  58.324  1.00  0.00     0.000 C 
ENDROOT
BRANCH   1   2
ATOM      2  C   UNL     1      64.544  36.067  58.884  1.00  0.00     0.000 C 
BRANCH   2   3
ATOM      3  C   UNL     1      65.277  36.497  60.167  1.00  0.00     0.000 C 
BRANCH   3   4
ATOM      4  C   UNL     1      64.622  36.039  61.483  1.00  0.00    -0.000 C 
BRANCH   4   5
ATOM      5  C   UNL     1      63.133  35.697  61.326  1.00  0.00    -0.000 C 
BRANCH   5   6
ATOM      6  C   UNL     1      62.269  36.966  61.361  1.00  0.00    -0.000 C 
BRANCH   6   7
ATOM      7  C   UNL     1      60.916  36.774  60.643  1.00  0.00    -0.000 C 
BRANCH   7   8
ATOM      8  C   UNL     1      60.844  35.496  59.790  1.00  0.00    -0.000 C 
BRANCH   8   9
ATOM      9  C   UNL     1      60.273  35.743  58.387  1.00  0.00    -0.000 C 
BRANCH   9  10
ATOM     10  C   UNL     1      60.306  34.461  57.546  1.00  0.00    -0.000 C 
BRANCH  10  11
ATOM     11  C   UNL     1      59.133  33.539  57.904  1.00  0.00    -0.003 C 
ATOM     12  C   UNL     1      59.631  32.194  58.425  1.00  0.00     0.004 C 
ENDBRANCH  10  11
ENDBRANCH   9  10
ENDBRANCH   8   9
ENDBRANCH   7   8
ENDBRANCH   6   7
ENDBRANCH   5   6
ENDBRANCH   4   5
ENDBRANCH   3   4
ENDBRANCH   2   3
ENDBRANCH   1   2
BRANCH   1  13
ATOM     13  C   UNL     1      63.927  33.907  57.660  1.00  0.00     0.000 C 
BRANCH  13  14
ATOM     14  C   UNL     1      63.401  32.778  58.564  1.00  0.00     0.000 C 
BRANCH  14  15
ATOM     15  C   UNL     1      64.421  32.353  59.634  1.00  0.00     0.000 C 
BRANCH  15  16
ATOM     16  C   UNL     1      63.763  32.079  60.998  1.00  0.00     0.000 C 
BRANCH  16  17
ATOM     17  C   UNL     1      62.244  32.310  60.976  1.00  0.00     0.000 C 
BRANCH  17  18
ATOM     18  C   UNL     1      61.451  31.077  61.436  1.00  0.00     0.000 C 
BRANCH  18  19
ATOM     19  C   UNL     1      62.395  29.946  61.860  1.00  0.00     0.000 C 
BRANCH  19  20
ATOM     20  C   UNL     1      61.840  28.576  61.440  1.00  0.00     0.006 C 
BRANCH  20  21
ATOM     21  C   UNL     1      61.485  28.526  59.948  1.00  0.00     0.053 C 
BRANCH  21  22
ATOM     22  C   UNL     1      62.702  28.639  59.084  1.00  0.00     0.041 C 
ATOM     23  O   UNL     1      62.698  29.400  58.082  1.00  0.00    -0.550 OA
ATOM     24  O   UNL     1      63.824  27.870  59.357  1.00  0.00    -0.550 OA
ENDBRANCH  21  22
ENDBRANCH  20  21
ENDBRANCH  19  20
ENDBRANCH  18  19
ENDBRANCH  17  18
ENDBRANCH  16  17
ENDBRANCH  15  16
ENDBRANCH  14  15
ENDBRANCH  13  14
ENDBRANCH   1  13
TORSDOF 20
ENDMDL
MODEL 9
REMARK VINA RESULT:    -2.649      9.765     12.460
REMARK INTER + INTRA:          -9.075
REMARK INTER:                  -5.272
REMARK INTRA:                  -3.803
REMARK UNBOUND:                -3.330
REMARK SMILES CCCCCCCCCCCCCCCCCCCCCC(=O)[O-]
REMARK SMILES IDX 12 1 11 2 10 3 9 4 8 5 7 6 6 7 5 8 4 9 3 10 2 11 1 12 13 13
REMARK SMILES IDX 14 14 15 15 16 16 17 17 18 18 19 19 20 20 21 21 22 22 23 23
REMARK SMILES IDX 24 24
REMARK H PARENT
REMARK Flexibility Score: inf
ROOT
ATOM      1  C   UNL     1      63.920  31.461  57.465  1.00  0.00     0.000 C 
ENDROOT
BRANCH   1   2
ATOM      2  C   UNL     1      63.941  32.875  56.860  1.00  0.00     0.000 C 
BRANCH   2   3
ATOM      3  C   UNL     1      64.973  33.801  57.529  1.00  0.00     0.000 C 
BRANCH   3   4
ATOM      4  C   UNL     1      64.544  35.273  57.664  1.00  0.00    -0.000 C 
BRANCH   4   5
ATOM      5  C   UNL     1      63.109  35.528  57.180  1.00  0.00    -0.000 C 
BRANCH   5   6
ATOM      6  C   UNL     1      62.668  36.966  57.495  1.00  0.00    -0.000 C 
BRANCH   6   7
ATOM      7  C   UNL     1      62.186  37.125  58.952  1.00  0.00    -0.000 C 
BRANCH   7   8
ATOM      8  C   UNL     1      61.271  35.985  59.430  1.00  0.00    -0.000 C 
BRANCH   8   9
ATOM      9  C   UNL     1      61.818  35.252  60.662  1.00  0.00    -0.000 C 
BRANCH   9  10
ATOM     10  C   UNL     1      62.963  36.041  61.309  1.00  0.00    -0.000 C 
BRANCH  10  11
ATOM     11  C   UNL     1      64.230  35.184  61.413  1.00  0.00    -0.003 C 
ATOM     12  C   UNL     1      63.957  33.743  60.992  1.00  0.00     0.004 C 
ENDBRANCH  10  11
ENDBRANCH   9  10
ENDBRANCH   8   9
ENDBRANCH   7   8
ENDBRANCH   6   7
ENDBRANCH   5   6
ENDBRANCH   4   5
ENDBRANCH   3   4
ENDBRANCH   2   3
ENDBRANCH   1   2
BRANCH   1  13
ATOM     13  C   UNL     1      62.555  31.105  58.080  1.00  0.00     0.000 C 
BRANCH  13  14
ATOM     14  C   UNL     1      61.695  32.347  58.374  1.00  0.00     0.000 C 
BRANCH  14  15
ATOM     15  C   UNL     1      60.527  32.046  59.329  1.00  0.00     0.000 C 
BRANCH  15  16
ATOM     16  C   UNL     1      61.005  31.621  60.728  1.00  0.00     0.000 C 
BRANCH  16  17
ATOM     17  C   UNL     1      60.731  30.136  61.019  1.00  0.00     0.000 C 
BRANCH  17  18
ATOM     18  C   UNL     1      61.876  29.464  61.792  1.00  0.00     0.000 C 
BRANCH  18  19
ATOM     19  C   UNL     1      63.212  30.157  61.506  1.00  0.00     0.000 C 
BRANCH  19  20
ATOM     20  C   UNL     1      64.255  29.154  60.989  1.00  0.00     0.006 C 
BRANCH  20  21
ATOM     21  C   UNL     1      65.534  29.847  60.498  1.00  0.00     0.053 C 
BRANCH  21  22
ATOM     22  C   UNL     1      66.761  29.070  60.862  1.00  0.00     0.041 C 
ATOM     23  O   UNL     1      67.736  29.648  61.408  1.00  0.00    -0.550 OA
ATOM     24  O   UNL     1      66.846  27.719  60.557  1.00  0.00    -0.550 OA
ENDBRANCH  21  22
ENDBRANCH  20  21
ENDBRANCH  19  20
ENDBRANCH  18  19
ENDBRANCH  17  18
ENDBRANCH  16  17
ENDBRANCH  15  16
ENDBRANCH  14  15
ENDBRANCH  13  14
ENDBRANCH   1  13
TORSDOF 20
ENDMDL
