MODEL 1
REMARK VINA RESULT:    -6.011      0.000      0.000
REMARK INTER + INTRA:          -7.591
REMARK INTER:                  -7.241
REMARK INTRA:                  -0.351
REMARK UNBOUND:                -0.351
REMARK SMILES Oc1cc(O)c2cc(O)c(-c3ccc(O)c(O)c3)[o+]c2c1
REMARK SMILES IDX 10 1 19 2 20 3 21 4 2 5 3 6 4 7 6 8 7 9 8 10 11 11 12 12
REMARK SMILES IDX 13 13 14 14 18 15 16 16 15 17 17 19 9 21 1 23 5 25
REMARK H PARENT 15 18 17 20 9 22 1 24 5 26
REMARK Flexibility Score: inf
ROOT
ATOM      1  C   UNL     1       5.600  21.528  -8.321  1.00  0.00     0.402 A 
ATOM      2  O   UNL     1       4.590  20.729  -7.984  1.00  0.00    -0.202 OA
ATOM      3  C   UNL     1       4.661  19.402  -8.033  1.00  0.00     0.368 A 
ATOM      4  C   UNL     1       3.547  18.648  -7.656  1.00  0.00     0.162 A 
ATOM      5  C   UNL     1       3.595  17.252  -7.695  1.00  0.00     0.128 A 
ATOM      6  C   UNL     1       4.762  16.608  -8.111  1.00  0.00     0.093 A 
ATOM      7  C   UNL     1       5.892  17.340  -8.495  1.00  0.00     0.136 A 
ATOM      8  C   UNL     1       5.847  18.758  -8.460  1.00  0.00     0.125 A 
ATOM      9  C   UNL     1       6.926  19.574  -8.837  1.00  0.00     0.078 A 
ATOM     10  C   UNL     1       6.806  20.966  -8.781  1.00  0.00     0.223 A 
ENDROOT
BRANCH   1  11
ATOM     11  C   UNL     1       5.401  22.990  -8.214  1.00  0.00     0.087 A 
ATOM     12  C   UNL     1       5.790  23.700  -7.065  1.00  0.00     0.022 A 
ATOM     13  C   UNL     1       5.571  25.078  -6.977  1.00  0.00     0.051 A 
ATOM     14  C   UNL     1       4.949  25.763  -8.029  1.00  0.00     0.157 A 
ATOM     15  C   UNL     1       4.759  23.678  -9.257  1.00  0.00     0.068 A 
ATOM     16  C   UNL     1       4.538  25.059  -9.173  1.00  0.00     0.158 A 
BRANCH  14  17
ATOM     17  O   UNL     1       4.734  27.138  -7.940  1.00  0.00    -0.504 OA
ATOM     18  H   UNL     1       3.826  27.519  -7.703  1.00  0.00     0.293 HD
ENDBRANCH  14  17
BRANCH  16  19
ATOM     19  O   UNL     1       3.910  25.710 -10.234  1.00  0.00    -0.504 OA
ATOM     20  H   UNL     1       4.426  26.265 -10.905  1.00  0.00     0.293 HD
ENDBRANCH  16  19
ENDBRANCH   1  11
BRANCH  10  21
ATOM     21  O   UNL     1       7.860  21.777  -9.203  1.00  0.00    -0.500 OA
ATOM     22  H   UNL     1       8.609  21.417  -9.782  1.00  0.00     0.294 HD
ENDBRANCH  10  21
BRANCH   5  23
ATOM     23  O   UNL     1       2.487  16.493  -7.321  1.00  0.00    -0.507 OA
ATOM     24  H   UNL     1       2.589  15.623  -6.811  1.00  0.00     0.293 HD
ENDBRANCH   5  23
BRANCH   7  25
ATOM     25  O   UNL     1       7.020  16.620  -8.895  1.00  0.00    -0.507 OA
ATOM     26  H   UNL     1       7.183  16.291  -9.836  1.00  0.00     0.293 HD
ENDBRANCH   7  25
TORSDOF 6
ENDMDL
MODEL 2
REMARK VINA RESULT:    -5.858      2.968      4.389
REMARK INTER + INTRA:          -7.408
REMARK INTER:                  -7.066
REMARK INTRA:                  -0.342
REMARK UNBOUND:                -0.351
REMARK SMILES Oc1cc(O)c2cc(O)c(-c3ccc(O)c(O)c3)[o+]c2c1
REMARK SMILES IDX 10 1 19 2 20 3 21 4 2 5 3 6 4 7 6 8 7 9 8 10 11 11 12 12
REMARK SMILES IDX 13 13 14 14 18 15 16 16 15 17 17 19 9 21 1 23 5 25
REMARK H PARENT 15 18 17 20 9 22 1 24 5 26
REMARK Flexibility Score: inf
ROOT
ATOM      1  C   UNL     1       5.454  23.594 -10.049  1.00  0.00     0.402 A 
ATOM      2  O   UNL     1       6.004  22.518  -9.490  1.00  0.00    -0.202 OA
ATOM      3  C   UNL     1       5.323  21.653  -8.745  1.00  0.00     0.368 A 
ATOM      4  C   UNL     1       5.989  20.551  -8.204  1.00  0.00     0.162 A 
ATOM      5  C   UNL     1       5.296  19.624  -7.419  1.00  0.00     0.128 A 
ATOM      6  C   UNL     1       3.932  19.800  -7.176  1.00  0.00     0.093 A 
ATOM      7  C   UNL     1       3.242  20.897  -7.707  1.00  0.00     0.136 A 
ATOM      8  C   UNL     1       3.941  21.842  -8.502  1.00  0.00     0.125 A 
ATOM      9  C   UNL     1       3.334  22.977  -9.065  1.00  0.00     0.078 A 
ATOM     10  C   UNL     1       4.090  23.868  -9.833  1.00  0.00     0.223 A 
ENDROOT
BRANCH   1  11
ATOM     11  C   UNL     1       6.316  24.477 -10.866  1.00  0.00     0.087 A 
ATOM     12  C   UNL     1       7.079  25.502 -10.279  1.00  0.00     0.022 A 
ATOM     13  C   UNL     1       7.868  26.338 -11.073  1.00  0.00     0.051 A 
ATOM     14  C   UNL     1       7.897  26.172 -12.464  1.00  0.00     0.157 A 
ATOM     15  C   UNL     1       6.332  24.328 -12.262  1.00  0.00     0.068 A 
ATOM     16  C   UNL     1       7.122  25.163 -13.061  1.00  0.00     0.158 A 
BRANCH  14  17
ATOM     17  O   UNL     1       8.687  27.006 -13.253  1.00  0.00    -0.504 OA
ATOM     18  H   UNL     1       9.256  27.740 -12.847  1.00  0.00     0.293 HD
ENDBRANCH  14  17
BRANCH  16  19
ATOM     19  O   UNL     1       7.123  24.976 -14.443  1.00  0.00    -0.504 OA
ATOM     20  H   UNL     1       6.959  24.070 -14.863  1.00  0.00     0.293 HD
ENDBRANCH  16  19
ENDBRANCH   1  11
BRANCH  10  21
ATOM     21  O   UNL     1       3.499  25.021 -10.350  1.00  0.00    -0.500 OA
ATOM     22  H   UNL     1       2.755  25.503  -9.861  1.00  0.00     0.294 HD
ENDBRANCH  10  21
BRANCH   5  23
ATOM     23  O   UNL     1       5.954  18.523  -6.875  1.00  0.00    -0.507 OA
ATOM     24  H   UNL     1       6.782  18.631  -6.302  1.00  0.00     0.293 HD
ENDBRANCH   5  23
BRANCH   7  25
ATOM     25  O   UNL     1       1.878  20.999  -7.420  1.00  0.00    -0.507 OA
ATOM     26  H   UNL     1       1.502  21.229  -6.512  1.00  0.00     0.293 HD
ENDBRANCH   7  25
TORSDOF 6
ENDMDL
MODEL 3
REMARK VINA RESULT:    -5.657      6.821      9.942
REMARK INTER + INTRA:          -7.165
REMARK INTER:                  -6.847
REMARK INTRA:                  -0.318
REMARK UNBOUND:                -0.351
REMARK SMILES Oc1cc(O)c2cc(O)c(-c3ccc(O)c(O)c3)[o+]c2c1
REMARK SMILES IDX 10 1 19 2 20 3 21 4 2 5 3 6 4 7 6 8 7 9 8 10 11 11 12 12
REMARK SMILES IDX 13 13 14 14 18 15 16 16 15 17 17 19 9 21 1 23 5 25
REMARK H PARENT 15 18 17 20 9 22 1 24 5 26
REMARK Flexibility Score: inf
ROOT
ATOM      1  C   UNL     1       3.935  21.168 -15.581  1.00  0.00     0.402 A 
ATOM      2  O   UNL     1       4.856  21.596 -14.721  1.00  0.00    -0.202 OA
ATOM      3  C   UNL     1       5.281  22.854 -14.673  1.00  0.00     0.368 A 
ATOM      4  C   UNL     1       6.250  23.209 -13.731  1.00  0.00     0.162 A 
ATOM      5  C   UNL     1       6.713  24.526 -13.657  1.00  0.00     0.128 A 
ATOM      6  C   UNL     1       6.204  25.491 -14.528  1.00  0.00     0.093 A 
ATOM      7  C   UNL     1       5.233  25.162 -15.481  1.00  0.00     0.136 A 
ATOM      8  C   UNL     1       4.762  23.826 -15.562  1.00  0.00     0.125 A 
ATOM      9  C   UNL     1       3.799  23.402 -16.493  1.00  0.00     0.078 A 
ATOM     10  C   UNL     1       3.388  22.065 -16.516  1.00  0.00     0.223 A 
ENDROOT
BRANCH   1  11
ATOM     11  C   UNL     1       3.537  19.743 -15.529  1.00  0.00     0.087 A 
ATOM     12  C   UNL     1       2.317  19.344 -14.956  1.00  0.00     0.022 A 
ATOM     13  C   UNL     1       1.973  17.991 -14.897  1.00  0.00     0.051 A 
ATOM     14  C   UNL     1       2.847  17.017 -15.396  1.00  0.00     0.157 A 
ATOM     15  C   UNL     1       4.419  18.761 -16.008  1.00  0.00     0.068 A 
ATOM     16  C   UNL     1       4.078  17.404 -15.951  1.00  0.00     0.158 A 
BRANCH  14  17
ATOM     17  O   UNL     1       2.500  15.668 -15.338  1.00  0.00    -0.504 OA
ATOM     18  H   UNL     1       1.547  15.371 -15.162  1.00  0.00     0.293 HD
ENDBRANCH  14  17
BRANCH  16  19
ATOM     19  O   UNL     1       4.973  16.459 -16.450  1.00  0.00    -0.504 OA
ATOM     20  H   UNL     1       5.121  15.566 -15.996  1.00  0.00     0.293 HD
ENDBRANCH  16  19
ENDBRANCH   1  11
BRANCH  10  21
ATOM     21  O   UNL     1       2.469  21.634 -17.474  1.00  0.00    -0.500 OA
ATOM     22  H   UNL     1       2.329  20.651 -17.672  1.00  0.00     0.294 HD
ENDBRANCH  10  21
BRANCH   5  23
ATOM     23  O   UNL     1       7.680  24.887 -12.720  1.00  0.00    -0.507 OA
ATOM     24  H   UNL     1       8.602  25.196 -13.004  1.00  0.00     0.293 HD
ENDBRANCH   5  23
BRANCH   7  25
ATOM     25  O   UNL     1       4.773  26.187 -16.312  1.00  0.00    -0.507 OA
ATOM     26  H   UNL     1       4.640  27.144 -16.018  1.00  0.00     0.293 HD
ENDBRANCH   7  25
TORSDOF 6
ENDMDL
MODEL 4
REMARK VINA RESULT:    -5.599      6.624      9.875
REMARK INTER + INTRA:          -7.096
REMARK INTER:                  -6.795
REMARK INTRA:                  -0.301
REMARK UNBOUND:                -0.351
REMARK SMILES Oc1cc(O)c2cc(O)c(-c3ccc(O)c(O)c3)[o+]c2c1
REMARK SMILES IDX 10 1 19 2 20 3 21 4 2 5 3 6 4 7 6 8 7 9 8 10 11 11 12 12
REMARK SMILES IDX 13 13 14 14 18 15 16 16 15 17 17 19 9 21 1 23 5 25
REMARK H PARENT 15 18 17 20 9 22 1 24 5 26
REMARK Flexibility Score: inf
ROOT
ATOM      1  C   UNL     1       4.041  22.235 -15.410  1.00  0.00     0.402 A 
ATOM      2  O   UNL     1       5.035  22.600 -14.603  1.00  0.00    -0.202 OA
ATOM      3  C   UNL     1       5.549  23.825 -14.584  1.00  0.00     0.368 A 
ATOM      4  C   UNL     1       6.590  24.112 -13.697  1.00  0.00     0.162 A 
ATOM      5  C   UNL     1       7.146  25.394 -13.655  1.00  0.00     0.128 A 
ATOM      6  C   UNL     1       6.659  26.391 -14.501  1.00  0.00     0.093 A 
ATOM      7  C   UNL     1       5.617  26.130 -15.399  1.00  0.00     0.136 A 
ATOM      8  C   UNL     1       5.050  24.829 -15.448  1.00  0.00     0.125 A 
ATOM      9  C   UNL     1       4.012  24.473 -16.323  1.00  0.00     0.078 A 
ATOM     10  C   UNL     1       3.507  23.168 -16.318  1.00  0.00     0.223 A 
ENDROOT
BRANCH   1  11
ATOM     11  C   UNL     1       3.549  20.842 -15.330  1.00  0.00     0.087 A 
ATOM     12  C   UNL     1       2.309  20.536 -14.741  1.00  0.00     0.022 A 
ATOM     13  C   UNL     1       1.875  19.211 -14.655  1.00  0.00     0.051 A 
ATOM     14  C   UNL     1       2.677  18.171 -15.143  1.00  0.00     0.157 A 
ATOM     15  C   UNL     1       4.358  19.795 -15.798  1.00  0.00     0.068 A 
ATOM     16  C   UNL     1       3.926  18.465 -15.715  1.00  0.00     0.158 A 
BRANCH  14  17
ATOM     17  O   UNL     1       2.240  16.850 -15.059  1.00  0.00    -0.504 OA
ATOM     18  H   UNL     1       2.177  16.258 -15.879  1.00  0.00     0.293 HD
ENDBRANCH  14  17
BRANCH  16  19
ATOM     19  O   UNL     1       4.752  17.453 -16.204  1.00  0.00    -0.504 OA
ATOM     20  H   UNL     1       4.392  16.542 -16.460  1.00  0.00     0.293 HD
ENDBRANCH  16  19
ENDBRANCH   1  11
BRANCH  10  21
ATOM     21  O   UNL     1       2.511  22.801 -17.223  1.00  0.00    -0.500 OA
ATOM     22  H   UNL     1       2.437  23.229 -18.137  1.00  0.00     0.294 HD
ENDBRANCH  10  21
BRANCH   5  23
ATOM     23  O   UNL     1       8.185  25.687 -12.773  1.00  0.00    -0.507 OA
ATOM     24  H   UNL     1       8.321  25.158 -11.920  1.00  0.00     0.293 HD
ENDBRANCH   5  23
BRANCH   7  25
ATOM     25  O   UNL     1       5.185  27.183 -16.208  1.00  0.00    -0.507 OA
ATOM     26  H   UNL     1       5.772  27.675 -16.867  1.00  0.00     0.293 HD
ENDBRANCH   7  25
TORSDOF 6
ENDMDL
MODEL 5
REMARK VINA RESULT:    -5.595      2.754      7.200
REMARK INTER + INTRA:          -7.090
REMARK INTER:                  -6.804
REMARK INTRA:                  -0.286
REMARK UNBOUND:                -0.351
REMARK SMILES Oc1cc(O)c2cc(O)c(-c3ccc(O)c(O)c3)[o+]c2c1
REMARK SMILES IDX 10 1 19 2 20 3 21 4 2 5 3 6 4 7 6 8 7 9 8 10 11 11 12 12
REMARK SMILES IDX 13 13 14 14 18 15 16 16 15 17 17 19 9 21 1 23 5 25
REMARK H PARENT 15 18 17 20 9 22 1 24 5 26
REMARK Flexibility Score: inf
ROOT
ATOM      1  C   UNL     1       6.434  22.446  -9.151  1.00  0.00     0.402 A 
ATOM      2  O   UNL     1       6.580  22.654 -10.457  1.00  0.00    -0.202 OA
ATOM      3  C   UNL     1       6.856  23.844 -10.981  1.00  0.00     0.368 A 
ATOM      4  C   UNL     1       6.994  23.961 -12.367  1.00  0.00     0.162 A 
ATOM      5  C   UNL     1       7.287  25.200 -12.943  1.00  0.00     0.128 A 
ATOM      6  C   UNL     1       7.444  26.325 -12.132  1.00  0.00     0.093 A 
ATOM      7  C   UNL     1       7.310  26.235 -10.741  1.00  0.00     0.136 A 
ATOM      8  C   UNL     1       7.010  24.979 -10.150  1.00  0.00     0.125 A 
ATOM      9  C   UNL     1       6.847  24.796  -8.768  1.00  0.00     0.078 A 
ATOM     10  C   UNL     1       6.545  23.529  -8.259  1.00  0.00     0.223 A 
ENDROOT
BRANCH   1  11
ATOM     11  C   UNL     1       6.137  21.072  -8.689  1.00  0.00     0.087 A 
ATOM     12  C   UNL     1       7.127  20.074  -8.675  1.00  0.00     0.022 A 
ATOM     13  C   UNL     1       6.818  18.777  -8.258  1.00  0.00     0.051 A 
ATOM     14  C   UNL     1       5.513  18.454  -7.861  1.00  0.00     0.157 A 
ATOM     15  C   UNL     1       4.826  20.737  -8.311  1.00  0.00     0.068 A 
ATOM     16  C   UNL     1       4.512  19.439  -7.891  1.00  0.00     0.158 A 
BRANCH  14  17
ATOM     17  O   UNL     1       5.208  17.160  -7.442  1.00  0.00    -0.504 OA
ATOM     18  H   UNL     1       4.301  16.744  -7.619  1.00  0.00     0.293 HD
ENDBRANCH  14  17
BRANCH  16  19
ATOM     19  O   UNL     1       3.203  19.149  -7.510  1.00  0.00    -0.504 OA
ATOM     20  H   UNL     1       2.972  18.331  -6.960  1.00  0.00     0.293 HD
ENDBRANCH  16  19
ENDBRANCH   1  11
BRANCH  10  21
ATOM     21  O   UNL     1       6.334  23.357  -6.891  1.00  0.00    -0.500 OA
ATOM     22  H   UNL     1       6.180  22.442  -6.486  1.00  0.00     0.294 HD
ENDBRANCH  10  21
BRANCH   5  23
ATOM     23  O   UNL     1       7.425  25.325 -14.325  1.00  0.00    -0.507 OA
ATOM     24  H   UNL     1       8.250  24.988 -14.807  1.00  0.00     0.293 HD
ENDBRANCH   5  23
BRANCH   7  25
ATOM     25  O   UNL     1       7.486  27.406 -10.000  1.00  0.00    -0.507 OA
ATOM     26  H   UNL     1       7.372  28.339 -10.370  1.00  0.00     0.293 HD
ENDBRANCH   7  25
TORSDOF 6
ENDMDL
MODEL 6
REMARK VINA RESULT:    -5.539      6.099      7.509
REMARK INTER + INTRA:          -7.023
REMARK INTER:                  -6.671
REMARK INTRA:                  -0.352
REMARK UNBOUND:                -0.351
REMARK SMILES Oc1cc(O)c2cc(O)c(-c3ccc(O)c(O)c3)[o+]c2c1
REMARK SMILES IDX 10 1 19 2 20 3 21 4 2 5 3 6 4 7 6 8 7 9 8 10 11 11 12 12
REMARK SMILES IDX 13 13 14 14 18 15 16 16 15 17 17 19 9 21 1 23 5 25
REMARK H PARENT 15 18 17 20 9 22 1 24 5 26
REMARK Flexibility Score: inf
ROOT
ATOM      1  C   UNL     1       6.573  25.157 -13.193  1.00  0.00     0.402 A 
ATOM      2  O   UNL     1       5.734  25.348 -14.209  1.00  0.00    -0.202 OA
ATOM      3  C   UNL     1       5.188  24.353 -14.900  1.00  0.00     0.368 A 
ATOM      4  C   UNL     1       4.315  24.654 -15.949  1.00  0.00     0.162 A 
ATOM      5  C   UNL     1       3.723  23.627 -16.691  1.00  0.00     0.128 A 
ATOM      6  C   UNL     1       4.005  22.295 -16.381  1.00  0.00     0.093 A 
ATOM      7  C   UNL     1       4.876  21.967 -15.335  1.00  0.00     0.136 A 
ATOM      8  C   UNL     1       5.481  23.006 -14.581  1.00  0.00     0.125 A 
ATOM      9  C   UNL     1       6.376  22.772 -13.524  1.00  0.00     0.078 A 
ATOM     10  C   UNL     1       6.937  23.848 -12.829  1.00  0.00     0.223 A 
ENDROOT
BRANCH   1  11
ATOM     11  C   UNL     1       7.109  26.348 -12.495  1.00  0.00     0.087 A 
ATOM     12  C   UNL     1       6.513  26.837 -11.319  1.00  0.00     0.022 A 
ATOM     13  C   UNL     1       7.022  27.976 -10.690  1.00  0.00     0.051 A 
ATOM     14  C   UNL     1       8.123  28.651 -11.232  1.00  0.00     0.157 A 
ATOM     15  C   UNL     1       8.199  27.040 -13.046  1.00  0.00     0.068 A 
ATOM     16  C   UNL     1       8.713  28.181 -12.418  1.00  0.00     0.158 A 
BRANCH  14  17
ATOM     17  O   UNL     1       8.630  29.785 -10.601  1.00  0.00    -0.504 OA
ATOM     18  H   UNL     1       8.139  30.233  -9.836  1.00  0.00     0.293 HD
ENDBRANCH  14  17
BRANCH  16  19
ATOM     19  O   UNL     1       9.806  28.834 -12.987  1.00  0.00    -0.504 OA
ATOM     20  H   UNL     1      10.320  29.552 -12.494  1.00  0.00     0.293 HD
ENDBRANCH  16  19
ENDBRANCH   1  11
BRANCH  10  21
ATOM     21  O   UNL     1       7.864  23.616 -11.812  1.00  0.00    -0.500 OA
ATOM     22  H   UNL     1       8.058  24.309 -11.100  1.00  0.00     0.294 HD
ENDBRANCH  10  21
BRANCH   5  23
ATOM     23  O   UNL     1       2.853  23.920 -17.739  1.00  0.00    -0.507 OA
ATOM     24  H   UNL     1       2.343  24.795 -17.775  1.00  0.00     0.293 HD
ENDBRANCH   5  23
BRANCH   7  25
ATOM     25  O   UNL     1       5.102  20.610 -15.087  1.00  0.00    -0.507 OA
ATOM     26  H   UNL     1       4.628  19.857 -15.564  1.00  0.00     0.293 HD
ENDBRANCH   7  25
TORSDOF 6
ENDMDL
MODEL 7
REMARK VINA RESULT:    -5.478      6.179      8.623
REMARK INTER + INTRA:          -6.949
REMARK INTER:                  -6.622
REMARK INTRA:                  -0.327
REMARK UNBOUND:                -0.351
REMARK SMILES Oc1cc(O)c2cc(O)c(-c3ccc(O)c(O)c3)[o+]c2c1
REMARK SMILES IDX 10 1 19 2 20 3 21 4 2 5 3 6 4 7 6 8 7 9 8 10 11 11 12 12
REMARK SMILES IDX 13 13 14 14 18 15 16 16 15 17 17 19 9 21 1 23 5 25
REMARK H PARENT 15 18 17 20 9 22 1 24 5 26
REMARK Flexibility Score: inf
ROOT
ATOM      1  C   UNL     1       7.615  28.330 -12.759  1.00  0.00     0.402 A 
ATOM      2  O   UNL     1       6.444  27.931 -12.266  1.00  0.00    -0.202 OA
ATOM      3  C   UNL     1       6.235  26.713 -11.778  1.00  0.00     0.368 A 
ATOM      4  C   UNL     1       4.970  26.389 -11.279  1.00  0.00     0.162 A 
ATOM      5  C   UNL     1       4.723  25.116 -10.756  1.00  0.00     0.128 A 
ATOM      6  C   UNL     1       5.745  24.165 -10.731  1.00  0.00     0.093 A 
ATOM      7  C   UNL     1       7.021  24.464 -11.224  1.00  0.00     0.136 A 
ATOM      8  C   UNL     1       7.276  25.754 -11.759  1.00  0.00     0.125 A 
ATOM      9  C   UNL     1       8.519  26.139 -12.286  1.00  0.00     0.078 A 
ATOM     10  C   UNL     1       8.694  27.428 -12.801  1.00  0.00     0.223 A 
ENDROOT
BRANCH   1  11
ATOM     11  C   UNL     1       7.725  29.716 -13.266  1.00  0.00     0.087 A 
ATOM     12  C   UNL     1       7.292  30.059 -14.559  1.00  0.00     0.022 A 
ATOM     13  C   UNL     1       7.428  31.370 -15.025  1.00  0.00     0.051 A 
ATOM     14  C   UNL     1       8.009  32.352 -14.213  1.00  0.00     0.157 A 
ATOM     15  C   UNL     1       8.326  30.699 -12.465  1.00  0.00     0.068 A 
ATOM     16  C   UNL     1       8.464  32.014 -12.928  1.00  0.00     0.158 A 
BRANCH  14  17
ATOM     17  O   UNL     1       8.141  33.659 -14.680  1.00  0.00    -0.504 OA
ATOM     18  H   UNL     1       9.049  34.091 -14.801  1.00  0.00     0.293 HD
ENDBRANCH  14  17
BRANCH  16  19
ATOM     19  O   UNL     1       9.053  32.966 -12.097  1.00  0.00    -0.504 OA
ATOM     20  H   UNL     1       9.108  33.944 -12.355  1.00  0.00     0.293 HD
ENDBRANCH  16  19
ENDBRANCH   1  11
BRANCH  10  21
ATOM     21  O   UNL     1       9.914  27.794 -13.370  1.00  0.00    -0.500 OA
ATOM     22  H   UNL     1      10.249  28.748 -13.343  1.00  0.00     0.294 HD
ENDBRANCH  10  21
BRANCH   5  23
ATOM     23  O   UNL     1       3.464  24.786 -10.258  1.00  0.00    -0.507 OA
ATOM     24  H   UNL     1       3.162  25.090  -9.340  1.00  0.00     0.293 HD
ENDBRANCH   5  23
BRANCH   7  25
ATOM     25  O   UNL     1       7.988  23.459 -11.159  1.00  0.00    -0.507 OA
ATOM     26  H   UNL     1       8.410  23.019 -11.965  1.00  0.00     0.293 HD
ENDBRANCH   7  25
TORSDOF 6
ENDMDL
MODEL 8
REMARK VINA RESULT:    -5.337      8.496     11.281
REMARK INTER + INTRA:          -6.780
REMARK INTER:                  -6.452
REMARK INTRA:                  -0.328
REMARK UNBOUND:                -0.351
REMARK SMILES Oc1cc(O)c2cc(O)c(-c3ccc(O)c(O)c3)[o+]c2c1
REMARK SMILES IDX 10 1 19 2 20 3 21 4 2 5 3 6 4 7 6 8 7 9 8 10 11 11 12 12
REMARK SMILES IDX 13 13 14 14 18 15 16 16 15 17 17 19 9 21 1 23 5 25
REMARK H PARENT 15 18 17 20 9 22 1 24 5 26
REMARK Flexibility Score: inf
ROOT
ATOM      1  C   UNL     1       3.149  21.051 -16.558  1.00  0.00     0.402 A 
ATOM      2  O   UNL     1       2.841  21.282 -17.832  1.00  0.00    -0.202 OA
ATOM      3  C   UNL     1       2.895  22.487 -18.389  1.00  0.00     0.368 A 
ATOM      4  C   UNL     1       2.555  22.629 -19.737  1.00  0.00     0.162 A 
ATOM      5  C   UNL     1       2.607  23.885 -20.349  1.00  0.00     0.128 A 
ATOM      6  C   UNL     1       3.001  25.002 -19.610  1.00  0.00     0.093 A 
ATOM      7  C   UNL     1       3.346  24.887 -18.258  1.00  0.00     0.136 A 
ATOM      8  C   UNL     1       3.293  23.615 -17.631  1.00  0.00     0.125 A 
ATOM      9  C   UNL     1       3.610  23.406 -16.279  1.00  0.00     0.078 A 
ATOM     10  C   UNL     1       3.528  22.123 -15.730  1.00  0.00     0.223 A 
ENDROOT
BRANCH   1  11
ATOM     11  C   UNL     1       3.058  19.661 -16.057  1.00  0.00     0.087 A 
ATOM     12  C   UNL     1       1.930  19.211 -15.348  1.00  0.00     0.022 A 
ATOM     13  C   UNL     1       1.876  17.901 -14.864  1.00  0.00     0.051 A 
ATOM     14  C   UNL     1       2.951  17.026 -15.069  1.00  0.00     0.157 A 
ATOM     15  C   UNL     1       4.141  18.787 -16.242  1.00  0.00     0.068 A 
ATOM     16  C   UNL     1       4.091  17.473 -15.759  1.00  0.00     0.158 A 
BRANCH  14  17
ATOM     17  O   UNL     1       2.894  15.719 -14.588  1.00  0.00    -0.504 OA
ATOM     18  H   UNL     1       3.273  15.469 -13.682  1.00  0.00     0.293 HD
ENDBRANCH  14  17
BRANCH  16  19
ATOM     19  O   UNL     1       5.181  16.631 -15.974  1.00  0.00    -0.504 OA
ATOM     20  H   UNL     1       5.909  16.854 -16.641  1.00  0.00     0.293 HD
ENDBRANCH  16  19
ENDBRANCH   1  11
BRANCH  10  21
ATOM     21  O   UNL     1       3.794  21.924 -14.375  1.00  0.00    -0.500 OA
ATOM     22  H   UNL     1       3.693  21.016 -13.939  1.00  0.00     0.294 HD
ENDBRANCH  10  21
BRANCH   5  23
ATOM     23  O   UNL     1       2.268  24.034 -21.692  1.00  0.00    -0.507 OA
ATOM     24  H   UNL     1       1.974  23.245 -22.255  1.00  0.00     0.293 HD
ENDBRANCH   5  23
BRANCH   7  25
ATOM     25  O   UNL     1       3.734  26.052 -17.591  1.00  0.00    -0.507 OA
ATOM     26  H   UNL     1       3.121  26.833 -17.404  1.00  0.00     0.293 HD
ENDBRANCH   7  25
TORSDOF 6
ENDMDL
MODEL 9
REMARK VINA RESULT:    -5.300      5.245      7.381
REMARK INTER + INTRA:          -6.735
REMARK INTER:                  -6.444
REMARK INTRA:                  -0.291
REMARK UNBOUND:                -0.351
REMARK SMILES Oc1cc(O)c2cc(O)c(-c3ccc(O)c(O)c3)[o+]c2c1
REMARK SMILES IDX 10 1 19 2 20 3 21 4 2 5 3 6 4 7 6 8 7 9 8 10 11 11 12 12
REMARK SMILES IDX 13 13 14 14 18 15 16 16 15 17 17 19 9 21 1 23 5 25
REMARK H PARENT 15 18 17 20 9 22 1 24 5 26
REMARK Flexibility Score: inf
ROOT
ATOM      1  C   UNL     1       7.052  26.672 -12.662  1.00  0.00     0.402 A 
ATOM      2  O   UNL     1       7.061  26.476 -11.345  1.00  0.00    -0.202 OA
ATOM      3  C   UNL     1       7.228  25.283 -10.785  1.00  0.00     0.368 A 
ATOM      4  C   UNL     1       7.226  25.179  -9.392  1.00  0.00     0.162 A 
ATOM      5  C   UNL     1       7.403  23.936  -8.778  1.00  0.00     0.128 A 
ATOM      6  C   UNL     1       7.584  22.793  -9.559  1.00  0.00     0.093 A 
ATOM      7  C   UNL     1       7.590  22.870 -10.957  1.00  0.00     0.136 A 
ATOM      8  C   UNL     1       7.408  24.130 -11.586  1.00  0.00     0.125 A 
ATOM      9  C   UNL     1       7.388  24.300 -12.980  1.00  0.00     0.078 A 
ATOM     10  C   UNL     1       7.198  25.573 -13.528  1.00  0.00     0.223 A 
ENDROOT
BRANCH   1  11
ATOM     11  C   UNL     1       6.866  28.053 -13.163  1.00  0.00     0.087 A 
ATOM     12  C   UNL     1       5.641  28.474 -13.709  1.00  0.00     0.022 A 
ATOM     13  C   UNL     1       5.496  29.775 -14.198  1.00  0.00     0.051 A 
ATOM     14  C   UNL     1       6.575  30.669 -14.161  1.00  0.00     0.157 A 
ATOM     15  C   UNL     1       7.950  28.945 -13.147  1.00  0.00     0.068 A 
ATOM     16  C   UNL     1       7.809  30.250 -13.635  1.00  0.00     0.158 A 
BRANCH  14  17
ATOM     17  O   UNL     1       6.426  31.967 -14.646  1.00  0.00    -0.504 OA
ATOM     18  H   UNL     1       5.608  32.525 -14.431  1.00  0.00     0.293 HD
ENDBRANCH  14  17
BRANCH  16  19
ATOM     19  O   UNL     1       8.903  31.112 -13.590  1.00  0.00    -0.504 OA
ATOM     20  H   UNL     1       9.003  31.889 -14.232  1.00  0.00     0.293 HD
ENDBRANCH  16  19
ENDBRANCH   1  11
BRANCH  10  21
ATOM     21  O   UNL     1       7.128  25.735 -14.912  1.00  0.00    -0.500 OA
ATOM     22  H   UNL     1       7.501  25.042 -15.549  1.00  0.00     0.294 HD
ENDBRANCH  10  21
BRANCH   5  23
ATOM     23  O   UNL     1       7.400  23.825  -7.388  1.00  0.00    -0.507 OA
ATOM     24  H   UNL     1       8.118  24.260  -6.821  1.00  0.00     0.293 HD
ENDBRANCH   5  23
BRANCH   7  25
ATOM     25  O   UNL     1       7.781  21.682 -11.667  1.00  0.00    -0.507 OA
ATOM     26  H   UNL     1       8.646  21.160 -11.684  1.00  0.00     0.293 HD
ENDBRANCH   7  25
TORSDOF 6
ENDMDL
