MODEL 1
REMARK VINA RESULT:     1.350      0.000      0.000
REMARK INTER + INTRA:           1.462
REMARK INTER:                   2.613
REMARK INTRA:                  -1.151
REMARK UNBOUND:                -1.151
REMARK SMILES CCCCCCCCCCCCCCCCCC(=O)[O-]
REMARK SMILES IDX 10 1 11 2 12 3 13 4 14 5 15 6 16 7 17 8 18 9 19 10 20 11
REMARK SMILES IDX 9 12 8 13 7 14 6 15 5 16 4 17 3 18 2 19 1 20
REMARK H PARENT
REMARK Flexibility Score: inf
ROOT
ATOM      1  C   UNL     1     103.516 103.872 102.440  1.00  0.00     0.000 C 
ENDROOT
BRANCH   1   2
ATOM      2  C   UNL     1     104.751 104.789 102.368  1.00  0.00     0.000 C 
BRANCH   2   3
ATOM      3  C   UNL     1     104.451 106.299 102.395  1.00  0.00     0.000 C 
BRANCH   3   4
ATOM      4  C   UNL     1     104.517 106.949 101.003  1.00  0.00     0.000 C 
BRANCH   4   5
ATOM      5  C   UNL     1     104.721 105.924  99.870  1.00  0.00     0.000 C 
BRANCH   5   6
ATOM      6  C   UNL     1     104.520 106.472  98.446  1.00  0.00     0.000 C 
BRANCH   6   7
ATOM      7  C   UNL     1     104.091 105.392  97.442  1.00  0.00     0.006 C 
BRANCH   7   8
ATOM      8  C   UNL     1     104.601 104.012  97.868  1.00  0.00     0.053 C 
BRANCH   8   9
ATOM      9  C   UNL     1     103.505 102.998  97.779  1.00  0.00     0.041 C 
ATOM     10  O   UNL     1     102.302 103.368  97.736  1.00  0.00    -0.550 OA
ATOM     11  O   UNL     1     103.809 101.642  97.787  1.00  0.00    -0.550 OA
ENDBRANCH   8   9
ENDBRANCH   7   8
ENDBRANCH   6   7
ENDBRANCH   5   6
ENDBRANCH   4   5
ENDBRANCH   3   4
ENDBRANCH   2   3
ENDBRANCH   1   2
BRANCH   1  12
ATOM     12  C   UNL     1     103.855 102.387 102.243  1.00  0.00     0.000 C 
BRANCH  12  13
ATOM     13  C   UNL     1     103.244 101.531 103.362  1.00  0.00    -0.000 C 
BRANCH  13  14
ATOM     14  C   UNL     1     103.321 102.212 104.738  1.00  0.00    -0.000 C 
BRANCH  14  15
ATOM     15  C   UNL     1     103.313 101.204 105.901  1.00  0.00    -0.000 C 
BRANCH  15  16
ATOM     16  C   UNL     1     103.660 101.856 107.249  1.00  0.00    -0.000 C 
BRANCH  16  17
ATOM     17  C   UNL     1     103.218 103.327 107.327  1.00  0.00    -0.000 C 
BRANCH  17  18
ATOM     18  C   UNL     1     104.406 104.280 107.579  1.00  0.00    -0.000 C 
BRANCH  18  19
ATOM     19  C   UNL     1     104.407 105.516 106.664  1.00  0.00    -0.003 C 
ATOM     20  C   UNL     1     104.431 106.833 107.438  1.00  0.00     0.004 C 
ENDBRANCH  18  19
ENDBRANCH  17  18
ENDBRANCH  16  17
ENDBRANCH  15  16
ENDBRANCH  14  15
ENDBRANCH  13  14
ENDBRANCH  12  13
ENDBRANCH   1  12
TORSDOF 16
ENDMDL
MODEL 2
REMARK VINA RESULT:     1.420      3.378      8.342
REMARK INTER + INTRA:           1.598
REMARK INTER:                   2.833
REMARK INTRA:                  -1.235
REMARK UNBOUND:                -1.151
REMARK SMILES CCCCCCCCCCCCCCCCCC(=O)[O-]
REMARK SMILES IDX 10 1 11 2 12 3 13 4 14 5 15 6 16 7 17 8 18 9 19 10 20 11
REMARK SMILES IDX 9 12 8 13 7 14 6 15 5 16 4 17 3 18 2 19 1 20
REMARK H PARENT
REMARK Flexibility Score: inf
ROOT
ATOM      1  C   UNL     1     104.653 104.246 102.253  1.00  0.00     0.000 C 
ENDROOT
BRANCH   1   2
ATOM      2  C   UNL     1     103.380 103.386 102.371  1.00  0.00     0.000 C 
BRANCH   2   3
ATOM      3  C   UNL     1     103.621 101.877 102.567  1.00  0.00     0.000 C 
BRANCH   3   4
ATOM      4  C   UNL     1     103.241 101.387 103.974  1.00  0.00     0.000 C 
BRANCH   4   5
ATOM      5  C   UNL     1     103.368 102.484 105.048  1.00  0.00     0.000 C 
BRANCH   5   6
ATOM      6  C   UNL     1     103.332 101.983 106.503  1.00  0.00     0.000 C 
BRANCH   6   7
ATOM      7  C   UNL     1     103.705 103.070 107.522  1.00  0.00     0.006 C 
BRANCH   7   8
ATOM      8  C   UNL     1     103.448 104.468 106.951  1.00  0.00     0.053 C 
BRANCH   8   9
ATOM      9  C   UNL     1     104.594 105.379 107.260  1.00  0.00     0.041 C 
ATOM     10  O   UNL     1     105.769 104.927 107.300  1.00  0.00    -0.550 OA
ATOM     11  O   UNL     1     104.361 106.719 107.546  1.00  0.00    -0.550 OA
ENDBRANCH   8   9
ENDBRANCH   7   8
ENDBRANCH   6   7
ENDBRANCH   5   6
ENDBRANCH   4   5
ENDBRANCH   3   4
ENDBRANCH   2   3
ENDBRANCH   1   2
BRANCH   1  12
ATOM     12  C   UNL     1     104.447 105.694 102.721  1.00  0.00     0.000 C 
BRANCH  12  13
ATOM     13  C   UNL     1     104.361 106.651 101.524  1.00  0.00    -0.000 C 
BRANCH  13  14
ATOM     14  C   UNL     1     104.632 105.949 100.183  1.00  0.00    -0.000 C 
BRANCH  14  15
ATOM     15  C   UNL     1     104.695 106.932  99.001  1.00  0.00    -0.000 C 
BRANCH  15  16
ATOM     16  C   UNL     1     104.304 106.276  97.667  1.00  0.00    -0.000 C 
BRANCH  16  17
ATOM     17  C   UNL     1     104.678 104.784  97.608  1.00  0.00    -0.000 C 
BRANCH  17  18
ATOM     18  C   UNL     1     103.454 103.888  97.327  1.00  0.00    -0.000 C 
BRANCH  18  19
ATOM     19  C   UNL     1     103.337 102.689  98.284  1.00  0.00    -0.003 C 
ATOM     20  C   UNL     1     103.825 101.381  97.667  1.00  0.00     0.004 C 
ENDBRANCH  18  19
ENDBRANCH  17  18
ENDBRANCH  16  17
ENDBRANCH  15  16
ENDBRANCH  14  15
ENDBRANCH  13  14
ENDBRANCH  12  13
ENDBRANCH   1  12
TORSDOF 16
ENDMDL
MODEL 3
REMARK VINA RESULT:     1.448      3.127      6.139
REMARK INTER + INTRA:           1.652
REMARK INTER:                   2.910
REMARK INTRA:                  -1.258
REMARK UNBOUND:                -1.151
REMARK SMILES CCCCCCCCCCCCCCCCCC(=O)[O-]
REMARK SMILES IDX 10 1 11 2 12 3 13 4 14 5 15 6 16 7 17 8 18 9 19 10 20 11
REMARK SMILES IDX 9 12 8 13 7 14 6 15 5 16 4 17 3 18 2 19 1 20
REMARK H PARENT
REMARK Flexibility Score: inf
ROOT
ATOM      1  C   UNL     1     104.591 104.364 107.314  1.00  0.00     0.000 C 
ENDROOT
BRANCH   1   2
ATOM      2  C   UNL     1     103.359 103.455 107.152  1.00  0.00     0.000 C 
BRANCH   2   3
ATOM      3  C   UNL     1     103.660 101.946 107.071  1.00  0.00     0.000 C 
BRANCH   3   4
ATOM      4  C   UNL     1     103.322 101.340 105.699  1.00  0.00     0.000 C 
BRANCH   4   5
ATOM      5  C   UNL     1     103.273 102.391 104.573  1.00  0.00     0.000 C 
BRANCH   5   6
ATOM      6  C   UNL     1     103.578 101.855 103.163  1.00  0.00     0.000 C 
BRANCH   6   7
ATOM      7  C   UNL     1     103.746 102.969 102.120  1.00  0.00     0.006 C 
BRANCH   7   8
ATOM      8  C   UNL     1     103.396 104.336 102.716  1.00  0.00     0.053 C 
BRANCH   8   9
ATOM      9  C   UNL     1     104.540 105.286 102.555  1.00  0.00     0.041 C 
ATOM     10  O   UNL     1     105.713 104.848 102.412  1.00  0.00    -0.550 OA
ATOM     11  O   UNL     1     104.319 106.657 102.606  1.00  0.00    -0.550 OA
ENDBRANCH   8   9
ENDBRANCH   7   8
ENDBRANCH   6   7
ENDBRANCH   5   6
ENDBRANCH   4   5
ENDBRANCH   3   4
ENDBRANCH   2   3
ENDBRANCH   1   2
BRANCH   1  12
ATOM     12  C   UNL     1     104.324 105.820 106.904  1.00  0.00     0.000 C 
BRANCH  12  13
ATOM     13  C   UNL     1     104.661 106.785 108.050  1.00  0.00    -0.000 C 
BRANCH  13  14
ATOM     14  C   UNL     1     104.696 106.087 109.419  1.00  0.00    -0.000 C 
BRANCH  14  15
ATOM     15  C   UNL     1     104.696 107.083 110.592  1.00  0.00    -0.000 C 
BRANCH  15  16
ATOM     16  C   UNL     1     104.396 106.407 111.940  1.00  0.00    -0.000 C 
BRANCH  16  17
ATOM     17  C   UNL     1     104.742 104.908 111.941  1.00  0.00    -0.000 C 
BRANCH  17  18
ATOM     18  C   UNL     1     103.552 104.036 112.393  1.00  0.00    -0.000 C 
BRANCH  18  19
ATOM     19  C   UNL     1     103.279 102.839 111.465  1.00  0.00    -0.003 C 
ATOM     20  C   UNL     1     103.672 101.500 112.086  1.00  0.00     0.004 C 
ENDBRANCH  18  19
ENDBRANCH  17  18
ENDBRANCH  16  17
ENDBRANCH  15  16
ENDBRANCH  14  15
ENDBRANCH  13  14
ENDBRANCH  12  13
ENDBRANCH   1  12
TORSDOF 16
ENDMDL
MODEL 4
REMARK VINA RESULT:     1.487      3.207      7.401
REMARK INTER + INTRA:           1.728
REMARK INTER:                   2.914
REMARK INTRA:                  -1.186
REMARK UNBOUND:                -1.151
REMARK SMILES CCCCCCCCCCCCCCCCCC(=O)[O-]
REMARK SMILES IDX 10 1 11 2 12 3 13 4 14 5 15 6 16 7 17 8 18 9 19 10 20 11
REMARK SMILES IDX 9 12 8 13 7 14 6 15 5 16 4 17 3 18 2 19 1 20
REMARK H PARENT
REMARK Flexibility Score: inf
ROOT
ATOM      1  C   UNL     1     103.332 103.849 102.274  1.00  0.00     0.000 C 
ENDROOT
BRANCH   1   2
ATOM      2  C   UNL     1     104.592 104.732 102.326  1.00  0.00     0.000 C 
BRANCH   2   3
ATOM      3  C   UNL     1     104.330 106.244 102.462  1.00  0.00     0.000 C 
BRANCH   3   4
ATOM      4  C   UNL     1     104.699 106.795 103.850  1.00  0.00     0.000 C 
BRANCH   4   5
ATOM      5  C   UNL     1     104.747 105.703 104.936  1.00  0.00     0.000 C 
BRANCH   5   6
ATOM      6  C   UNL     1     104.723 106.220 106.386  1.00  0.00     0.000 C 
BRANCH   6   7
ATOM      7  C   UNL     1     104.086 105.226 107.368  1.00  0.00     0.006 C 
BRANCH   7   8
ATOM      8  C   UNL     1     104.550 103.795 107.078  1.00  0.00     0.053 C 
BRANCH   8   9
ATOM      9  C   UNL     1     103.423 102.830 107.270  1.00  0.00     0.041 C 
ATOM     10  O   UNL     1     103.657 101.598 107.393  1.00  0.00    -0.550 OA
ATOM     11  O   UNL     1     102.110 103.285 107.272  1.00  0.00    -0.550 OA
ENDBRANCH   8   9
ENDBRANCH   7   8
ENDBRANCH   6   7
ENDBRANCH   5   6
ENDBRANCH   4   5
ENDBRANCH   3   4
ENDBRANCH   2   3
ENDBRANCH   1   2
BRANCH   1  12
ATOM     12  C   UNL     1     103.601 102.391 102.677  1.00  0.00     0.000 C 
BRANCH  12  13
ATOM     13  C   UNL     1     103.577 101.469 101.450  1.00  0.00    -0.000 C 
BRANCH  13  14
ATOM     14  C   UNL     1     103.311 102.231 100.142  1.00  0.00    -0.000 C 
BRANCH  14  15
ATOM     15  C   UNL     1     103.333 101.315  98.905  1.00  0.00    -0.000 C 
BRANCH  15  16
ATOM     16  C   UNL     1     103.670 102.076  97.613  1.00  0.00    -0.000 C 
BRANCH  16  17
ATOM     17  C   UNL     1     103.315 103.571  97.696  1.00  0.00    -0.000 C 
BRANCH  17  18
ATOM     18  C   UNL     1     104.520 104.474  97.359  1.00  0.00    -0.000 C 
BRANCH  18  19
ATOM     19  C   UNL     1     104.654 105.694  98.288  1.00  0.00    -0.003 C 
ATOM     20  C   UNL     1     104.228 107.001  97.623  1.00  0.00     0.004 C 
ENDBRANCH  18  19
ENDBRANCH  17  18
ENDBRANCH  16  17
ENDBRANCH  15  16
ENDBRANCH  14  15
ENDBRANCH  13  14
ENDBRANCH  12  13
ENDBRANCH   1  12
TORSDOF 16
ENDMDL
MODEL 5
REMARK VINA RESULT:     1.499      5.183      9.625
REMARK INTER + INTRA:           1.751
REMARK INTER:                   2.900
REMARK INTRA:                  -1.150
REMARK UNBOUND:                -1.151
REMARK SMILES CCCCCCCCCCCCCCCCCC(=O)[O-]
REMARK SMILES IDX 10 1 11 2 12 3 13 4 14 5 15 6 16 7 17 8 18 9 19 10 20 11
REMARK SMILES IDX 9 12 8 13 7 14 6 15 5 16 4 17 3 18 2 19 1 20
REMARK H PARENT
REMARK Flexibility Score: inf
ROOT
ATOM      1  C   UNL     1     104.697 104.582 107.159  1.00  0.00     0.000 C 
ENDROOT
BRANCH   1   2
ATOM      2  C   UNL     1     103.433 103.702 107.147  1.00  0.00     0.000 C 
BRANCH   2   3
ATOM      3  C   UNL     1     103.689 102.184 107.196  1.00  0.00     0.000 C 
BRANCH   3   4
ATOM      4  C   UNL     1     103.357 101.563 108.563  1.00  0.00     0.000 C 
BRANCH   4   5
ATOM      5  C   UNL     1     103.256 102.609 109.690  1.00  0.00     0.000 C 
BRANCH   5   6
ATOM      6  C   UNL     1     103.405 102.052 111.116  1.00  0.00     0.000 C 
BRANCH   6   7
ATOM      7  C   UNL     1     103.692 103.142 112.160  1.00  0.00     0.006 C 
BRANCH   7   8
ATOM      8  C   UNL     1     103.487 104.538 111.566  1.00  0.00     0.053 C 
BRANCH   8   9
ATOM      9  C   UNL     1     104.601 105.449 111.973  1.00  0.00     0.041 C 
ATOM     10  O   UNL     1     104.366 106.657 112.243  1.00  0.00    -0.550 OA
ATOM     11  O   UNL     1     105.907 104.976 112.013  1.00  0.00    -0.550 OA
ENDBRANCH   8   9
ENDBRANCH   7   8
ENDBRANCH   6   7
ENDBRANCH   5   6
ENDBRANCH   4   5
ENDBRANCH   3   4
ENDBRANCH   2   3
ENDBRANCH   1   2
BRANCH   1  12
ATOM     12  C   UNL     1     104.398 106.061 107.447  1.00  0.00     0.000 C 
BRANCH  12  13
ATOM     13  C   UNL     1     104.573 106.914 106.182  1.00  0.00    -0.000 C 
BRANCH  13  14
ATOM     14  C   UNL     1     104.671 106.064 104.905  1.00  0.00    -0.000 C 
BRANCH  14  15
ATOM     15  C   UNL     1     104.753 106.919 103.628  1.00  0.00    -0.000 C 
BRANCH  15  16
ATOM     16  C   UNL     1     104.245 106.172 102.384  1.00  0.00    -0.000 C 
BRANCH  16  17
ATOM     17  C   UNL     1     104.742 104.717 102.322  1.00  0.00    -0.000 C 
BRANCH  17  18
ATOM     18  C   UNL     1     103.599 103.725 102.021  1.00  0.00    -0.000 C 
BRANCH  18  19
ATOM     19  C   UNL     1     103.500 102.574 103.038  1.00  0.00    -0.003 C 
ATOM     20  C   UNL     1     103.494 101.195 102.383  1.00  0.00     0.004 C 
ENDBRANCH  18  19
ENDBRANCH  17  18
ENDBRANCH  16  17
ENDBRANCH  15  16
ENDBRANCH  14  15
ENDBRANCH  13  14
ENDBRANCH  12  13
ENDBRANCH   1  12
TORSDOF 16
ENDMDL
MODEL 6
REMARK VINA RESULT:     1.509      4.995      8.845
REMARK INTER + INTRA:           1.769
REMARK INTER:                   2.880
REMARK INTRA:                  -1.111
REMARK UNBOUND:                -1.151
REMARK SMILES CCCCCCCCCCCCCCCCCC(=O)[O-]
REMARK SMILES IDX 10 1 11 2 12 3 13 4 14 5 15 6 16 7 17 8 18 9 19 10 20 11
REMARK SMILES IDX 9 12 8 13 7 14 6 15 5 16 4 17 3 18 2 19 1 20
REMARK H PARENT
REMARK Flexibility Score: inf
ROOT
ATOM      1  C   UNL     1     103.271 103.657 107.106  1.00  0.00     0.000 C 
ENDROOT
BRANCH   1   2
ATOM      2  C   UNL     1     104.507 104.570 107.011  1.00  0.00     0.000 C 
BRANCH   2   3
ATOM      3  C   UNL     1     104.225 106.078 107.156  1.00  0.00     0.000 C 
BRANCH   3   4
ATOM      4  C   UNL     1     104.750 106.662 108.478  1.00  0.00     0.000 C 
BRANCH   4   5
ATOM      5  C   UNL     1     104.744 105.639 109.631  1.00  0.00     0.000 C 
BRANCH   5   6
ATOM      6  C   UNL     1     104.657 106.245 111.043  1.00  0.00     0.000 C 
BRANCH   6   7
ATOM      7  C   UNL     1     104.195 105.234 112.103  1.00  0.00     0.006 C 
BRANCH   7   8
ATOM      8  C   UNL     1     104.552 103.803 111.689  1.00  0.00     0.053 C 
BRANCH   8   9
ATOM      9  C   UNL     1     103.419 102.873 111.988  1.00  0.00     0.041 C 
ATOM     10  O   UNL     1     103.639 101.650 112.190  1.00  0.00    -0.550 OA
ATOM     11  O   UNL     1     102.113 103.349 112.001  1.00  0.00    -0.550 OA
ENDBRANCH   8   9
ENDBRANCH   7   8
ENDBRANCH   6   7
ENDBRANCH   5   6
ENDBRANCH   4   5
ENDBRANCH   3   4
ENDBRANCH   2   3
ENDBRANCH   1   2
BRANCH   1  12
ATOM     12  C   UNL     1     103.625 102.189 107.384  1.00  0.00     0.000 C 
BRANCH  12  13
ATOM     13  C   UNL     1     103.432 101.330 106.126  1.00  0.00    -0.000 C 
BRANCH  13  14
ATOM     14  C   UNL     1     103.273 102.175 104.851  1.00  0.00    -0.000 C 
BRANCH  14  15
ATOM     15  C   UNL     1     103.292 101.324 103.569  1.00  0.00    -0.000 C 
BRANCH  15  16
ATOM     16  C   UNL     1     103.710 102.132 102.331  1.00  0.00    -0.000 C 
BRANCH  16  17
ATOM     17  C   UNL     1     103.330 103.619 102.437  1.00  0.00    -0.000 C 
BRANCH  17  18
ATOM     18  C   UNL     1     104.491 104.548 102.024  1.00  0.00    -0.000 C 
BRANCH  18  19
ATOM     19  C   UNL     1     104.700 105.735 102.980  1.00  0.00    -0.003 C 
ATOM     20  C   UNL     1     104.366 107.082 102.342  1.00  0.00     0.004 C 
ENDBRANCH  18  19
ENDBRANCH  17  18
ENDBRANCH  16  17
ENDBRANCH  15  16
ENDBRANCH  14  15
ENDBRANCH  13  14
ENDBRANCH  12  13
ENDBRANCH   1  12
TORSDOF 16
ENDMDL
MODEL 7
REMARK VINA RESULT:     1.580      1.610      3.907
REMARK INTER + INTRA:           1.908
REMARK INTER:                   3.138
REMARK INTRA:                  -1.231
REMARK UNBOUND:                -1.151
REMARK SMILES CCCCCCCCCCCCCCCCCC(=O)[O-]
REMARK SMILES IDX 10 1 11 2 12 3 13 4 14 5 15 6 16 7 17 8 18 9 19 10 20 11
REMARK SMILES IDX 9 12 8 13 7 14 6 15 5 16 4 17 3 18 2 19 1 20
REMARK H PARENT
REMARK Flexibility Score: inf
ROOT
ATOM      1  C   UNL     1     104.797 104.260 102.656  1.00  0.00     0.000 C 
ENDROOT
BRANCH   1   2
ATOM      2  C   UNL     1     103.507 103.477 102.348  1.00  0.00     0.000 C 
BRANCH   2   3
ATOM      3  C   UNL     1     103.660 101.944 102.315  1.00  0.00     0.000 C 
BRANCH   3   4
ATOM      4  C   UNL     1     103.292 101.335 100.952  1.00  0.00     0.000 C 
BRANCH   4   5
ATOM      5  C   UNL     1     103.241 102.379  99.820  1.00  0.00     0.000 C 
BRANCH   5   6
ATOM      6  C   UNL     1     103.508 101.828  98.408  1.00  0.00     0.000 C 
BRANCH   6   7
ATOM      7  C   UNL     1     103.922 102.917  97.407  1.00  0.00     0.006 C 
BRANCH   7   8
ATOM      8  C   UNL     1     103.420 104.293  97.854  1.00  0.00     0.053 C 
BRANCH   8   9
ATOM      9  C   UNL     1     104.529 105.296  97.805  1.00  0.00     0.041 C 
ATOM     10  O   UNL     1     105.729 104.913  97.772  1.00  0.00    -0.550 OA
ATOM     11  O   UNL     1     104.241 106.655  97.839  1.00  0.00    -0.550 OA
ENDBRANCH   8   9
ENDBRANCH   7   8
ENDBRANCH   6   7
ENDBRANCH   5   6
ENDBRANCH   4   5
ENDBRANCH   3   4
ENDBRANCH   2   3
ENDBRANCH   1   2
BRANCH   1  12
ATOM     12  C   UNL     1     104.734 105.727 102.205  1.00  0.00     0.000 C 
BRANCH  12  13
ATOM     13  C   UNL     1     104.364 106.646 103.378  1.00  0.00    -0.000 C 
BRANCH  13  14
ATOM     14  C   UNL     1     104.689 106.021 104.745  1.00  0.00    -0.000 C 
BRANCH  14  15
ATOM     15  C   UNL     1     104.713 107.059 105.881  1.00  0.00    -0.000 C 
BRANCH  15  16
ATOM     16  C   UNL     1     104.401 106.439 107.252  1.00  0.00    -0.000 C 
BRANCH  16  17
ATOM     17  C   UNL     1     104.764 104.946 107.325  1.00  0.00    -0.000 C 
BRANCH  17  18
ATOM     18  C   UNL     1     103.514 104.048 107.435  1.00  0.00    -0.000 C 
BRANCH  18  19
ATOM     19  C   UNL     1     103.598 102.769 106.584  1.00  0.00    -0.003 C 
ATOM     20  C   UNL     1     103.597 101.492 107.421  1.00  0.00     0.004 C 
ENDBRANCH  18  19
ENDBRANCH  17  18
ENDBRANCH  16  17
ENDBRANCH  15  16
ENDBRANCH  14  15
ENDBRANCH  13  14
ENDBRANCH  12  13
ENDBRANCH   1  12
TORSDOF 16
ENDMDL
MODEL 8
REMARK VINA RESULT:     1.624      3.018      4.822
REMARK INTER + INTRA:           1.992
REMARK INTER:                   3.005
REMARK INTRA:                  -1.013
REMARK UNBOUND:                -1.151
REMARK SMILES CCCCCCCCCCCCCCCCCC(=O)[O-]
REMARK SMILES IDX 10 1 11 2 12 3 13 4 14 5 15 6 16 7 17 8 18 9 19 10 20 11
REMARK SMILES IDX 9 12 8 13 7 14 6 15 5 16 4 17 3 18 2 19 1 20
REMARK H PARENT
REMARK Flexibility Score: inf
ROOT
ATOM      1  C   UNL     1     103.337 103.738 107.161  1.00  0.00     0.000 C 
ENDROOT
BRANCH   1   2
ATOM      2  C   UNL     1     104.565 104.660 107.280  1.00  0.00     0.000 C 
BRANCH   2   3
ATOM      3  C   UNL     1     104.265 106.169 107.200  1.00  0.00     0.000 C 
BRANCH   3   4
ATOM      4  C   UNL     1     104.603 106.775 105.828  1.00  0.00     0.000 C 
BRANCH   4   5
ATOM      5  C   UNL     1     104.651 105.724 104.701  1.00  0.00     0.000 C 
BRANCH   5   6
ATOM      6  C   UNL     1     104.645 106.295 103.272  1.00  0.00     0.000 C 
BRANCH   6   7
ATOM      7  C   UNL     1     103.946 105.374 102.260  1.00  0.00     0.006 C 
BRANCH   7   8
ATOM      8  C   UNL     1     104.544 103.964 102.297  1.00  0.00     0.053 C 
BRANCH   8   9
ATOM      9  C   UNL     1     103.470 102.946 102.512  1.00  0.00     0.041 C 
ATOM     10  O   UNL     1     103.767 101.727 102.633  1.00  0.00    -0.550 OA
ATOM     11  O   UNL     1     102.137 103.335 102.536  1.00  0.00    -0.550 OA
ENDBRANCH   8   9
ENDBRANCH   7   8
ENDBRANCH   6   7
ENDBRANCH   5   6
ENDBRANCH   4   5
ENDBRANCH   3   4
ENDBRANCH   2   3
ENDBRANCH   1   2
BRANCH   1  12
ATOM     12  C   UNL     1     103.709 102.266 106.930  1.00  0.00     0.000 C 
BRANCH  12  13
ATOM     13  C   UNL     1     103.263 101.395 108.114  1.00  0.00    -0.000 C 
BRANCH  13  14
ATOM     14  C   UNL     1     103.314 102.146 109.454  1.00  0.00    -0.000 C 
BRANCH  14  15
ATOM     15  C   UNL     1     103.406 101.198 110.663  1.00  0.00    -0.000 C 
BRANCH  15  16
ATOM     16  C   UNL     1     103.591 101.951 111.990  1.00  0.00    -0.000 C 
BRANCH  16  17
ATOM     17  C   UNL     1     103.191 103.433 111.892  1.00  0.00    -0.000 C 
BRANCH  17  18
ATOM     18  C   UNL     1     104.231 104.362 112.552  1.00  0.00    -0.000 C 
BRANCH  18  19
ATOM     19  C   UNL     1     104.786 105.437 111.602  1.00  0.00    -0.003 C 
ATOM     20  C   UNL     1     104.403 106.857 112.016  1.00  0.00     0.004 C 
ENDBRANCH  18  19
ENDBRANCH  17  18
ENDBRANCH  16  17
ENDBRANCH  15  16
ENDBRANCH  14  15
ENDBRANCH  13  14
ENDBRANCH  12  13
ENDBRANCH   1  12
TORSDOF 16
ENDMDL
MODEL 9
REMARK VINA RESULT:     3.334      1.527      2.445
REMARK INTER + INTRA:           5.303
REMARK INTER:                   5.859
REMARK INTRA:                  -0.556
REMARK UNBOUND:                -1.151
REMARK SMILES CCCCCCCCCCCCCCCCCC(=O)[O-]
REMARK SMILES IDX 10 1 11 2 12 3 13 4 14 5 15 6 16 7 17 8 18 9 19 10 20 11
REMARK SMILES IDX 9 12 8 13 7 14 6 15 5 16 4 17 3 18 2 19 1 20
REMARK H PARENT
REMARK Flexibility Score: inf
ROOT
ATOM      1  C   UNL     1     103.407 102.254 103.336  1.00  0.00     0.000 C 
ENDROOT
BRANCH   1   2
ATOM      2  C   UNL     1     103.659 103.294 102.228  1.00  0.00     0.000 C 
BRANCH   2   3
ATOM      3  C   UNL     1     104.373 104.581 102.683  1.00  0.00     0.000 C 
BRANCH   3   4
ATOM      4  C   UNL     1     104.545 105.605 101.548  1.00  0.00     0.000 C 
BRANCH   4   5
ATOM      5  C   UNL     1     104.364 104.987 100.148  1.00  0.00     0.000 C 
BRANCH   5   6
ATOM      6  C   UNL     1     104.689 105.924  98.972  1.00  0.00     0.000 C 
BRANCH   6   7
ATOM      7  C   UNL     1     104.163 105.404  97.626  1.00  0.00     0.006 C 
BRANCH   7   8
ATOM      8  C   UNL     1     104.643 103.973  97.365  1.00  0.00     0.053 C 
BRANCH   8   9
ATOM      9  C   UNL     1     103.554 102.992  97.667  1.00  0.00     0.041 C 
ATOM     10  O   UNL     1     103.819 101.766  97.783  1.00  0.00    -0.550 OA
ATOM     11  O   UNL     1     102.238 103.426  97.777  1.00  0.00    -0.550 OA
ENDBRANCH   8   9
ENDBRANCH   7   8
ENDBRANCH   6   7
ENDBRANCH   5   6
ENDBRANCH   4   5
ENDBRANCH   3   4
ENDBRANCH   2   3
ENDBRANCH   1   2
BRANCH   1  12
ATOM     12  C   UNL     1     103.185 102.888 104.717  1.00  0.00     0.000 C 
BRANCH  12  13
ATOM     13  C   UNL     1     103.446 101.870 105.837  1.00  0.00    -0.000 C 
BRANCH  13  14
ATOM     14  C   UNL     1     103.722 102.540 107.193  1.00  0.00    -0.000 C 
BRANCH  14  15
ATOM     15  C   UNL     1     103.267 104.009 107.232  1.00  0.00    -0.000 C 
BRANCH  15  16
ATOM     16  C   UNL     1     104.428 104.992 107.014  1.00  0.00    -0.000 C 
BRANCH  16  17
ATOM     17  C   UNL     1     104.673 105.900 108.233  1.00  0.00    -0.000 C 
BRANCH  17  18
ATOM     18  C   UNL     1     104.651 105.112 109.559  1.00  0.00    -0.000 C 
BRANCH  18  19
ATOM     19  C   UNL     1     104.861 105.993 110.802  1.00  0.00    -0.003 C 
ATOM     20  C   UNL     1     104.299 105.371 112.079  1.00  0.00     0.004 C 
ENDBRANCH  18  19
ENDBRANCH  17  18
ENDBRANCH  16  17
ENDBRANCH  15  16
ENDBRANCH  14  15
ENDBRANCH  13  14
ENDBRANCH  12  13
ENDBRANCH   1  12
TORSDOF 16
ENDMDL
