MODEL 1
REMARK VINA RESULT:    -5.627      0.000      0.000
REMARK INTER + INTRA:          -6.735
REMARK INTER:                  -6.449
REMARK INTRA:                  -0.286
REMARK UNBOUND:                -0.286
REMARK SMILES O=C([O-])C=Cc1ccc(O)cc1
REMARK SMILES IDX 6 1 7 2 12 3 8 4 11 5 9 6 5 7 4 8 2 9 1 10 3 11 10 12
REMARK H PARENT 10 13
REMARK Flexibility Score: inf
ROOT
ATOM      1  C   UNL     1      16.663  43.383   6.182  1.00  0.00    -0.025 A 
ATOM      2  C   UNL     1      16.012  42.310   6.814  1.00  0.00     0.012 A 
ATOM      3  C   UNL     1      17.012  44.514   6.935  1.00  0.00     0.012 A 
ATOM      4  C   UNL     1      15.668  42.393   8.167  1.00  0.00     0.047 A 
ATOM      5  C   UNL     1      16.667  44.595   8.288  1.00  0.00     0.047 A 
ATOM      6  C   UNL     1      15.990  43.535   8.906  1.00  0.00     0.115 A 
ENDROOT
BRANCH   1   7
ATOM      7  C   UNL     1      17.085  43.298   4.769  1.00  0.00     0.010 C 
ATOM      8  C   UNL     1      16.299  43.535   3.706  1.00  0.00     0.025 C 
BRANCH   8   9
ATOM      9  C   UNL     1      14.934  44.093   3.751  1.00  0.00     0.064 C 
ATOM     10  O   UNL     1      14.729  45.335   3.735  1.00  0.00    -0.545 OA
ATOM     11  O   UNL     1      13.848  43.227   3.743  1.00  0.00    -0.545 OA
ENDBRANCH   8   9
ENDBRANCH   1   7
BRANCH   6  12
ATOM     12  O   UNL     1      15.640  43.605  10.253  1.00  0.00    -0.508 OA
ATOM     13  H   UNL     1      15.922  42.890  10.911  1.00  0.00     0.293 HD
ENDBRANCH   6  12
TORSDOF 3
ENDMDL
MODEL 2
REMARK VINA RESULT:    -5.582      0.336      1.430
REMARK INTER + INTRA:          -6.683
REMARK INTER:                  -6.400
REMARK INTRA:                  -0.283
REMARK UNBOUND:                -0.286
REMARK SMILES O=C([O-])C=Cc1ccc(O)cc1
REMARK SMILES IDX 6 1 7 2 12 3 8 4 11 5 9 6 5 7 4 8 2 9 1 10 3 11 10 12
REMARK H PARENT 10 13
REMARK Flexibility Score: inf
ROOT
ATOM      1  C   UNL     1      16.576  43.462   6.044  1.00  0.00    -0.025 A 
ATOM      2  C   UNL     1      16.731  44.669   6.748  1.00  0.00     0.012 A 
ATOM      3  C   UNL     1      16.067  42.339   6.712  1.00  0.00     0.012 A 
ATOM      4  C   UNL     1      16.432  44.732   8.112  1.00  0.00     0.047 A 
ATOM      5  C   UNL     1      15.768  42.405   8.076  1.00  0.00     0.047 A 
ATOM      6  C   UNL     1      15.954  43.602   8.781  1.00  0.00     0.115 A 
ENDROOT
BRANCH   1   7
ATOM      7  C   UNL     1      16.833  43.384   4.591  1.00  0.00     0.010 C 
ATOM      8  C   UNL     1      15.911  43.541   3.627  1.00  0.00     0.025 C 
BRANCH   8   9
ATOM      9  C   UNL     1      14.521  43.994   3.831  1.00  0.00     0.064 C 
ATOM     10  O   UNL     1      14.196  45.203   3.703  1.00  0.00    -0.545 OA
ATOM     11  O   UNL     1      13.536  43.053   4.102  1.00  0.00    -0.545 OA
ENDBRANCH   8   9
ENDBRANCH   1   7
BRANCH   6  12
ATOM     12  O   UNL     1      15.661  43.678  10.141  1.00  0.00    -0.508 OA
ATOM     13  H   UNL     1      15.250  42.898  10.638  1.00  0.00     0.293 HD
ENDBRANCH   6  12
TORSDOF 3
ENDMDL
MODEL 3
REMARK VINA RESULT:    -5.311      1.754      2.272
REMARK INTER + INTRA:          -6.373
REMARK INTER:                  -6.109
REMARK INTRA:                  -0.264
REMARK UNBOUND:                -0.286
REMARK SMILES O=C([O-])C=Cc1ccc(O)cc1
REMARK SMILES IDX 6 1 7 2 12 3 8 4 11 5 9 6 5 7 4 8 2 9 1 10 3 11 10 12
REMARK H PARENT 10 13
REMARK Flexibility Score: inf
ROOT
ATOM      1  C   UNL     1      15.760  43.362   5.435  1.00  0.00    -0.025 A 
ATOM      2  C   UNL     1      15.320  42.633   6.553  1.00  0.00     0.012 A 
ATOM      3  C   UNL     1      17.051  43.912   5.439  1.00  0.00     0.012 A 
ATOM      4  C   UNL     1      16.141  42.504   7.678  1.00  0.00     0.047 A 
ATOM      5  C   UNL     1      17.869  43.782   6.565  1.00  0.00     0.047 A 
ATOM      6  C   UNL     1      17.414  43.080   7.690  1.00  0.00     0.115 A 
ENDROOT
BRANCH   1   7
ATOM      7  C   UNL     1      14.934  43.466   4.215  1.00  0.00     0.010 C 
ATOM      8  C   UNL     1      13.864  44.264   4.065  1.00  0.00     0.025 C 
BRANCH   8   9
ATOM      9  C   UNL     1      13.426  45.306   5.014  1.00  0.00     0.064 C 
ATOM     10  O   UNL     1      12.436  45.134   5.772  1.00  0.00    -0.545 OA
ATOM     11  O   UNL     1      14.166  46.477   5.122  1.00  0.00    -0.545 OA
ENDBRANCH   8   9
ENDBRANCH   1   7
BRANCH   6  12
ATOM     12  O   UNL     1      18.221  42.945   8.817  1.00  0.00    -0.508 OA
ATOM     13  H   UNL     1      18.123  43.561   9.615  1.00  0.00     0.293 HD
ENDBRANCH   6  12
TORSDOF 3
ENDMDL
MODEL 4
REMARK VINA RESULT:    -5.301      2.638      4.958
REMARK INTER + INTRA:          -6.362
REMARK INTER:                  -6.113
REMARK INTRA:                  -0.249
REMARK UNBOUND:                -0.286
REMARK SMILES O=C([O-])C=Cc1ccc(O)cc1
REMARK SMILES IDX 6 1 7 2 12 3 8 4 11 5 9 6 5 7 4 8 2 9 1 10 3 11 10 12
REMARK H PARENT 10 13
REMARK Flexibility Score: inf
ROOT
ATOM      1  C   UNL     1      14.225  43.110   5.516  1.00  0.00    -0.025 A 
ATOM      2  C   UNL     1      12.999  42.436   5.654  1.00  0.00     0.012 A 
ATOM      3  C   UNL     1      14.600  43.600   4.256  1.00  0.00     0.012 A 
ATOM      4  C   UNL     1      12.189  42.210   4.537  1.00  0.00     0.047 A 
ATOM      5  C   UNL     1      13.789  43.373   3.141  1.00  0.00     0.047 A 
ATOM      6  C   UNL     1      12.582  42.673   3.278  1.00  0.00     0.115 A 
ENDROOT
BRANCH   1   7
ATOM      7  C   UNL     1      15.071  43.409   6.689  1.00  0.00     0.010 C 
ATOM      8  C   UNL     1      14.978  44.506   7.458  1.00  0.00     0.025 C 
BRANCH   8   9
ATOM      9  C   UNL     1      13.909  45.521   7.384  1.00  0.00     0.064 C 
ATOM     10  O   UNL     1      13.872  46.375   6.460  1.00  0.00    -0.545 OA
ATOM     11  O   UNL     1      12.881  45.489   8.318  1.00  0.00    -0.545 OA
ENDBRANCH   8   9
ENDBRANCH   1   7
BRANCH   6  12
ATOM     12  O   UNL     1      11.767  42.440   2.173  1.00  0.00    -0.508 OA
ATOM     13  H   UNL     1      10.927  42.982   2.011  1.00  0.00     0.293 HD
ENDBRANCH   6  12
TORSDOF 3
ENDMDL
MODEL 5
REMARK VINA RESULT:    -5.294      1.695      2.368
REMARK INTER + INTRA:          -6.354
REMARK INTER:                  -6.093
REMARK INTRA:                  -0.261
REMARK UNBOUND:                -0.286
REMARK SMILES O=C([O-])C=Cc1ccc(O)cc1
REMARK SMILES IDX 6 1 7 2 12 3 8 4 11 5 9 6 5 7 4 8 2 9 1 10 3 11 10 12
REMARK H PARENT 10 13
REMARK Flexibility Score: inf
ROOT
ATOM      1  C   UNL     1      14.679  45.158   6.315  1.00  0.00    -0.025 A 
ATOM      2  C   UNL     1      15.971  45.263   6.858  1.00  0.00     0.012 A 
ATOM      3  C   UNL     1      13.682  44.490   7.043  1.00  0.00     0.012 A 
ATOM      4  C   UNL     1      16.272  44.662   8.084  1.00  0.00     0.047 A 
ATOM      5  C   UNL     1      13.985  43.890   8.268  1.00  0.00     0.047 A 
ATOM      6  C   UNL     1      15.284  43.971   8.790  1.00  0.00     0.115 A 
ENDROOT
BRANCH   1   7
ATOM      7  C   UNL     1      14.322  45.830   5.049  1.00  0.00     0.010 C 
ATOM      8  C   UNL     1      14.408  45.283   3.826  1.00  0.00     0.025 C 
BRANCH   8   9
ATOM      9  C   UNL     1      14.699  43.865   3.535  1.00  0.00     0.064 C 
ATOM     10  O   UNL     1      15.867  43.403   3.610  1.00  0.00    -0.545 OA
ATOM     11  O   UNL     1      13.648  43.007   3.238  1.00  0.00    -0.545 OA
ENDBRANCH   8   9
ENDBRANCH   1   7
BRANCH   6  12
ATOM     12  O   UNL     1      15.597  43.375  10.010  1.00  0.00    -0.508 OA
ATOM     13  H   UNL     1      16.340  43.733  10.598  1.00  0.00     0.293 HD
ENDBRANCH   6  12
TORSDOF 3
ENDMDL
MODEL 6
REMARK VINA RESULT:    -5.260      1.702      2.058
REMARK INTER + INTRA:          -6.314
REMARK INTER:                  -6.021
REMARK INTRA:                  -0.293
REMARK UNBOUND:                -0.286
REMARK SMILES O=C([O-])C=Cc1ccc(O)cc1
REMARK SMILES IDX 6 1 7 2 12 3 8 4 11 5 9 6 5 7 4 8 2 9 1 10 3 11 10 12
REMARK H PARENT 10 13
REMARK Flexibility Score: inf
ROOT
ATOM      1  C   UNL     1      14.791  44.279   6.845  1.00  0.00    -0.025 A 
ATOM      2  C   UNL     1      15.087  42.913   6.997  1.00  0.00     0.012 A 
ATOM      3  C   UNL     1      15.721  45.235   7.281  1.00  0.00     0.012 A 
ATOM      4  C   UNL     1      16.272  42.515   7.623  1.00  0.00     0.047 A 
ATOM      5  C   UNL     1      16.905  44.834   7.906  1.00  0.00     0.047 A 
ATOM      6  C   UNL     1      17.182  43.471   8.083  1.00  0.00     0.115 A 
ENDROOT
BRANCH   1   7
ATOM      7  C   UNL     1      13.573  44.725   6.139  1.00  0.00     0.010 C 
ATOM      8  C   UNL     1      13.484  44.976   4.822  1.00  0.00     0.025 C 
BRANCH   8   9
ATOM      9  C   UNL     1      14.526  44.686   3.818  1.00  0.00     0.064 C 
ATOM     10  O   UNL     1      15.434  45.515   3.549  1.00  0.00    -0.545 OA
ATOM     11  O   UNL     1      14.544  43.440   3.203  1.00  0.00    -0.545 OA
ENDBRANCH   8   9
ENDBRANCH   1   7
BRANCH   6  12
ATOM     12  O   UNL     1      18.357  43.061   8.707  1.00  0.00    -0.508 OA
ATOM     13  H   UNL     1      18.745  42.138   8.551  1.00  0.00     0.293 HD
ENDBRANCH   6  12
TORSDOF 3
ENDMDL
MODEL 7
REMARK VINA RESULT:    -5.257      2.199      3.203
REMARK INTER + INTRA:          -6.311
REMARK INTER:                  -6.027
REMARK INTRA:                  -0.284
REMARK UNBOUND:                -0.286
REMARK SMILES O=C([O-])C=Cc1ccc(O)cc1
REMARK SMILES IDX 6 1 7 2 12 3 8 4 11 5 9 6 5 7 4 8 2 9 1 10 3 11 10 12
REMARK H PARENT 10 13
REMARK Flexibility Score: inf
ROOT
ATOM      1  C   UNL     1      15.136  44.851   4.823  1.00  0.00    -0.025 A 
ATOM      2  C   UNL     1      15.282  45.366   6.123  1.00  0.00     0.012 A 
ATOM      3  C   UNL     1      16.037  43.877   4.366  1.00  0.00     0.012 A 
ATOM      4  C   UNL     1      16.344  44.949   6.931  1.00  0.00     0.047 A 
ATOM      5  C   UNL     1      17.098  43.462   5.176  1.00  0.00     0.047 A 
ATOM      6  C   UNL     1      17.257  44.001   6.460  1.00  0.00     0.115 A 
ENDROOT
BRANCH   1   7
ATOM      7  C   UNL     1      13.992  45.234   3.971  1.00  0.00     0.010 C 
ATOM      8  C   UNL     1      12.803  44.610   3.936  1.00  0.00     0.025 C 
BRANCH   8   9
ATOM      9  C   UNL     1      12.361  43.548   4.861  1.00  0.00     0.064 C 
ATOM     10  O   UNL     1      11.640  43.803   5.862  1.00  0.00    -0.545 OA
ATOM     11  O   UNL     1      12.691  42.228   4.583  1.00  0.00    -0.545 OA
ENDBRANCH   8   9
ENDBRANCH   1   7
BRANCH   6  12
ATOM     12  O   UNL     1      18.311  43.595   7.275  1.00  0.00    -0.508 OA
ATOM     13  H   UNL     1      18.207  43.525   8.280  1.00  0.00     0.293 HD
ENDBRANCH   6  12
TORSDOF 3
ENDMDL
MODEL 8
REMARK VINA RESULT:    -5.214      2.230      4.696
REMARK INTER + INTRA:          -6.261
REMARK INTER:                  -6.001
REMARK INTRA:                  -0.261
REMARK UNBOUND:                -0.286
REMARK SMILES O=C([O-])C=Cc1ccc(O)cc1
REMARK SMILES IDX 6 1 7 2 12 3 8 4 11 5 9 6 5 7 4 8 2 9 1 10 3 11 10 12
REMARK H PARENT 10 13
REMARK Flexibility Score: inf
ROOT
ATOM      1  C   UNL     1      14.618  44.460   5.654  1.00  0.00    -0.025 A 
ATOM      2  C   UNL     1      13.648  43.546   6.100  1.00  0.00     0.012 A 
ATOM      3  C   UNL     1      14.915  44.532   4.285  1.00  0.00     0.012 A 
ATOM      4  C   UNL     1      13.025  42.682   5.194  1.00  0.00     0.047 A 
ATOM      5  C   UNL     1      14.291  43.667   3.381  1.00  0.00     0.047 A 
ATOM      6  C   UNL     1      13.346  42.736   3.835  1.00  0.00     0.115 A 
ENDROOT
BRANCH   1   7
ATOM      7  C   UNL     1      15.250  45.420   6.582  1.00  0.00     0.010 C 
ATOM      8  C   UNL     1      16.347  45.182   7.321  1.00  0.00     0.025 C 
BRANCH   8   9
ATOM      9  C   UNL     1      17.220  43.998   7.210  1.00  0.00     0.064 C 
ATOM     10  O   UNL     1      17.968  43.820   6.213  1.00  0.00    -0.545 OA
ATOM     11  O   UNL     1      17.267  43.092   8.262  1.00  0.00    -0.545 OA
ENDBRANCH   8   9
ENDBRANCH   1   7
BRANCH   6  12
ATOM     12  O   UNL     1      12.720  41.869   2.943  1.00  0.00    -0.508 OA
ATOM     13  H   UNL     1      13.057  40.925   2.797  1.00  0.00     0.293 HD
ENDBRANCH   6  12
TORSDOF 3
ENDMDL
MODEL 9
REMARK VINA RESULT:    -5.119      1.739      2.324
REMARK INTER + INTRA:          -6.153
REMARK INTER:                  -5.864
REMARK INTRA:                  -0.288
REMARK UNBOUND:                -0.286
REMARK SMILES O=C([O-])C=Cc1ccc(O)cc1
REMARK SMILES IDX 6 1 7 2 12 3 8 4 11 5 9 6 5 7 4 8 2 9 1 10 3 11 10 12
REMARK H PARENT 10 13
REMARK Flexibility Score: inf
ROOT
ATOM      1  C   UNL     1      14.114  43.071   6.127  1.00  0.00    -0.025 A 
ATOM      2  C   UNL     1      15.439  42.705   6.418  1.00  0.00     0.012 A 
ATOM      3  C   UNL     1      13.317  43.627   7.139  1.00  0.00     0.012 A 
ATOM      4  C   UNL     1      15.940  42.846   7.716  1.00  0.00     0.047 A 
ATOM      5  C   UNL     1      13.820  43.767   8.435  1.00  0.00     0.047 A 
ATOM      6  C   UNL     1      15.132  43.373   8.729  1.00  0.00     0.115 A 
ENDROOT
BRANCH   1   7
ATOM      7  C   UNL     1      13.580  42.983   4.752  1.00  0.00     0.010 C 
ATOM      8  C   UNL     1      13.547  43.990   3.864  1.00  0.00     0.025 C 
BRANCH   8   9
ATOM      9  C   UNL     1      14.194  45.306   4.029  1.00  0.00     0.064 C 
ATOM     10  O   UNL     1      13.586  46.280   4.545  1.00  0.00    -0.545 OA
ATOM     11  O   UNL     1      15.528  45.454   3.669  1.00  0.00    -0.545 OA
ENDBRANCH   8   9
ENDBRANCH   1   7
BRANCH   6  12
ATOM     12  O   UNL     1      15.643  43.506  10.018  1.00  0.00    -0.508 OA
ATOM     13  H   UNL     1      15.724  44.412  10.464  1.00  0.00     0.293 HD
ENDBRANCH   6  12
TORSDOF 3
ENDMDL
