MODEL 1
REMARK VINA RESULT:    -4.037      0.000      0.000
REMARK INTER + INTRA:         -10.583
REMARK INTER:                  -7.814
REMARK INTRA:                  -2.769
REMARK UNBOUND:                -2.769
REMARK SMILES CCCCCCCCCCCCCCCCCC(=O)[O-]
REMARK SMILES IDX 10 1 11 2 12 3 13 4 14 5 15 6 16 7 17 8 18 9 19 10 20 11
REMARK SMILES IDX 9 12 8 13 7 14 6 15 5 16 4 17 3 18 2 19 1 20
REMARK H PARENT
REMARK Flexibility Score: inf
ROOT
ATOM      1  C   UNL     1      28.895  30.385 -13.011  1.00  0.00     0.000 C 
ENDROOT
BRANCH   1   2
ATOM      2  C   UNL     1      29.148  30.044 -11.531  1.00  0.00     0.000 C 
BRANCH   2   3
ATOM      3  C   UNL     1      28.036  30.479 -10.554  1.00  0.00     0.000 C 
BRANCH   3   4
ATOM      4  C   UNL     1      27.258  29.329  -9.889  1.00  0.00     0.000 C 
BRANCH   4   5
ATOM      5  C   UNL     1      25.784  29.278 -10.321  1.00  0.00     0.000 C 
BRANCH   5   6
ATOM      6  C   UNL     1      25.511  28.180 -11.361  1.00  0.00     0.000 C 
BRANCH   6   7
ATOM      7  C   UNL     1      26.647  27.150 -11.448  1.00  0.00     0.006 C 
BRANCH   7   8
ATOM      8  C   UNL     1      27.047  26.898 -12.905  1.00  0.00     0.053 C 
BRANCH   8   9
ATOM      9  C   UNL     1      26.659  25.515 -13.324  1.00  0.00     0.041 C 
ATOM     10  O   UNL     1      26.354  25.278 -14.523  1.00  0.00    -0.550 OA
ATOM     11  O   UNL     1      26.681  24.477 -12.400  1.00  0.00    -0.550 OA
ENDBRANCH   8   9
ENDBRANCH   7   8
ENDBRANCH   6   7
ENDBRANCH   5   6
ENDBRANCH   4   5
ENDBRANCH   3   4
ENDBRANCH   2   3
ENDBRANCH   1   2
BRANCH   1  12
ATOM     12  C   UNL     1      27.401  30.546 -13.339  1.00  0.00     0.000 C 
BRANCH  12  13
ATOM     13  C   UNL     1      27.103  30.411 -14.844  1.00  0.00    -0.000 C 
BRANCH  13  14
ATOM     14  C   UNL     1      26.032  29.365 -15.212  1.00  0.00    -0.000 C 
BRANCH  14  15
ATOM     15  C   UNL     1      24.624  29.932 -15.468  1.00  0.00    -0.000 C 
BRANCH  15  16
ATOM     16  C   UNL     1      23.703  29.820 -14.244  1.00  0.00    -0.000 C 
BRANCH  16  17
ATOM     17  C   UNL     1      23.042  31.171 -13.931  1.00  0.00    -0.000 C 
BRANCH  17  18
ATOM     18  C   UNL     1      24.063  32.313 -13.797  1.00  0.00    -0.000 C 
BRANCH  18  19
ATOM     19  C   UNL     1      24.452  32.590 -12.338  1.00  0.00    -0.003 C 
ATOM     20  C   UNL     1      23.440  31.973 -11.375  1.00  0.00     0.004 C 
ENDBRANCH  18  19
ENDBRANCH  17  18
ENDBRANCH  16  17
ENDBRANCH  15  16
ENDBRANCH  14  15
ENDBRANCH  13  14
ENDBRANCH  12  13
ENDBRANCH   1  12
TORSDOF 16
ENDMDL
MODEL 2
REMARK VINA RESULT:    -3.899      0.914      1.905
REMARK INTER + INTRA:         -10.315
REMARK INTER:                  -7.574
REMARK INTRA:                  -2.741
REMARK UNBOUND:                -2.769
REMARK SMILES CCCCCCCCCCCCCCCCCC(=O)[O-]
REMARK SMILES IDX 10 1 11 2 12 3 13 4 14 5 15 6 16 7 17 8 18 9 19 10 20 11
REMARK SMILES IDX 9 12 8 13 7 14 6 15 5 16 4 17 3 18 2 19 1 20
REMARK H PARENT
REMARK Flexibility Score: inf
ROOT
ATOM      1  C   UNL     1      28.055  30.452 -10.584  1.00  0.00     0.000 C 
ENDROOT
BRANCH   1   2
ATOM      2  C   UNL     1      27.760  29.360  -9.540  1.00  0.00     0.000 C 
BRANCH   2   3
ATOM      3  C   UNL     1      26.327  28.787  -9.571  1.00  0.00     0.000 C 
BRANCH   3   4
ATOM      4  C   UNL     1      25.438  29.300 -10.717  1.00  0.00     0.000 C 
BRANCH   4   5
ATOM      5  C   UNL     1      24.978  28.179 -11.664  1.00  0.00     0.000 C 
BRANCH   5   6
ATOM      6  C   UNL     1      25.823  26.903 -11.523  1.00  0.00     0.000 C 
BRANCH   6   7
ATOM      7  C   UNL     1      27.035  26.887 -12.468  1.00  0.00     0.006 C 
BRANCH   7   8
ATOM      8  C   UNL     1      26.690  26.185 -13.785  1.00  0.00     0.053 C 
BRANCH   8   9
ATOM      9  C   UNL     1      26.882  24.707 -13.658  1.00  0.00     0.041 C 
ATOM     10  O   UNL     1      26.367  23.925 -14.501  1.00  0.00    -0.550 OA
ATOM     11  O   UNL     1      27.671  24.194 -12.635  1.00  0.00    -0.550 OA
ENDBRANCH   8   9
ENDBRANCH   7   8
ENDBRANCH   6   7
ENDBRANCH   5   6
ENDBRANCH   4   5
ENDBRANCH   3   4
ENDBRANCH   2   3
ENDBRANCH   1   2
BRANCH   1  12
ATOM     12  C   UNL     1      29.240  30.097 -11.499  1.00  0.00     0.000 C 
BRANCH  12  13
ATOM     13  C   UNL     1      28.867  30.114 -12.992  1.00  0.00    -0.000 C 
BRANCH  13  14
ATOM     14  C   UNL     1      27.476  30.693 -13.318  1.00  0.00    -0.000 C 
BRANCH  14  15
ATOM     15  C   UNL     1      26.695  29.943 -14.411  1.00  0.00    -0.000 C 
BRANCH  15  16
ATOM     16  C   UNL     1      25.297  30.530 -14.656  1.00  0.00    -0.000 C 
BRANCH  16  17
ATOM     17  C   UNL     1      25.334  32.065 -14.619  1.00  0.00    -0.000 C 
BRANCH  17  18
ATOM     18  C   UNL     1      24.144  32.668 -13.854  1.00  0.00    -0.000 C 
BRANCH  18  19
ATOM     19  C   UNL     1      24.199  32.371 -12.348  1.00  0.00    -0.003 C 
ATOM     20  C   UNL     1      22.946  31.630 -11.890  1.00  0.00     0.004 C 
ENDBRANCH  18  19
ENDBRANCH  17  18
ENDBRANCH  16  17
ENDBRANCH  15  16
ENDBRANCH  14  15
ENDBRANCH  13  14
ENDBRANCH  12  13
ENDBRANCH   1  12
TORSDOF 16
ENDMDL
MODEL 3
REMARK VINA RESULT:    -3.786      2.934      6.160
REMARK INTER + INTRA:         -10.097
REMARK INTER:                  -7.477
REMARK INTRA:                  -2.620
REMARK UNBOUND:                -2.769
REMARK SMILES CCCCCCCCCCCCCCCCCC(=O)[O-]
REMARK SMILES IDX 10 1 11 2 12 3 13 4 14 5 15 6 16 7 17 8 18 9 19 10 20 11
REMARK SMILES IDX 9 12 8 13 7 14 6 15 5 16 4 17 3 18 2 19 1 20
REMARK H PARENT
REMARK Flexibility Score: inf
ROOT
ATOM      1  C   UNL     1      25.786  29.366 -14.962  1.00  0.00     0.000 C 
ENDROOT
BRANCH   1   2
ATOM      2  C   UNL     1      27.102  30.163 -14.977  1.00  0.00     0.000 C 
BRANCH   2   3
ATOM      3  C   UNL     1      27.718  30.446 -13.590  1.00  0.00     0.000 C 
BRANCH   3   4
ATOM      4  C   UNL     1      27.675  29.270 -12.598  1.00  0.00     0.000 C 
BRANCH   4   5
ATOM      5  C   UNL     1      26.606  29.449 -11.507  1.00  0.00     0.000 C 
BRANCH   5   6
ATOM      6  C   UNL     1      26.131  30.905 -11.379  1.00  0.00     0.000 C 
BRANCH   6   7
ATOM      7  C   UNL     1      24.670  31.093 -11.819  1.00  0.00     0.006 C 
BRANCH   7   8
ATOM      8  C   UNL     1      24.438  32.510 -12.353  1.00  0.00     0.053 C 
BRANCH   8   9
ATOM      9  C   UNL     1      24.126  32.474 -13.815  1.00  0.00     0.041 C 
ATOM     10  O   UNL     1      23.025  32.013 -14.217  1.00  0.00    -0.550 OA
ATOM     11  O   UNL     1      25.031  32.996 -14.732  1.00  0.00    -0.550 OA
ENDBRANCH   8   9
ENDBRANCH   7   8
ENDBRANCH   6   7
ENDBRANCH   5   6
ENDBRANCH   4   5
ENDBRANCH   3   4
ENDBRANCH   2   3
ENDBRANCH   1   2
BRANCH   1  12
ATOM     12  C   UNL     1      25.883  28.040 -15.737  1.00  0.00     0.000 C 
BRANCH  12  13
ATOM     13  C   UNL     1      26.027  26.818 -14.812  1.00  0.00    -0.000 C 
BRANCH  13  14
ATOM     14  C   UNL     1      25.036  26.764 -13.632  1.00  0.00    -0.000 C 
BRANCH  14  15
ATOM     15  C   UNL     1      25.543  26.019 -12.385  1.00  0.00    -0.000 C 
BRANCH  15  16
ATOM     16  C   UNL     1      27.010  25.581 -12.507  1.00  0.00    -0.000 C 
BRANCH  16  17
ATOM     17  C   UNL     1      27.140  24.057 -12.367  1.00  0.00    -0.000 C 
BRANCH  17  18
ATOM     18  C   UNL     1      27.055  23.329 -13.719  1.00  0.00    -0.000 C 
BRANCH  18  19
ATOM     19  C   UNL     1      25.747  22.542 -13.885  1.00  0.00    -0.003 C 
ATOM     20  C   UNL     1      24.809  23.239 -14.867  1.00  0.00     0.004 C 
ENDBRANCH  18  19
ENDBRANCH  17  18
ENDBRANCH  16  17
ENDBRANCH  15  16
ENDBRANCH  14  15
ENDBRANCH  13  14
ENDBRANCH  12  13
ENDBRANCH   1  12
TORSDOF 16
ENDMDL
MODEL 4
REMARK VINA RESULT:    -3.773      2.451      5.589
REMARK INTER + INTRA:         -10.071
REMARK INTER:                  -7.535
REMARK INTRA:                  -2.536
REMARK UNBOUND:                -2.769
REMARK SMILES CCCCCCCCCCCCCCCCCC(=O)[O-]
REMARK SMILES IDX 10 1 11 2 12 3 13 4 14 5 15 6 16 7 17 8 18 9 19 10 20 11
REMARK SMILES IDX 9 12 8 13 7 14 6 15 5 16 4 17 3 18 2 19 1 20
REMARK H PARENT
REMARK Flexibility Score: inf
ROOT
ATOM      1  C   UNL     1      27.635  30.642 -13.294  1.00  0.00     0.000 C 
ENDROOT
BRANCH   1   2
ATOM      2  C   UNL     1      27.372  30.328 -14.778  1.00  0.00     0.000 C 
BRANCH   2   3
ATOM      3  C   UNL     1      25.957  29.803 -15.101  1.00  0.00     0.000 C 
BRANCH   3   4
ATOM      4  C   UNL     1      24.849  30.260 -14.135  1.00  0.00     0.000 C 
BRANCH   4   5
ATOM      5  C   UNL     1      24.368  31.693 -14.414  1.00  0.00     0.000 C 
BRANCH   5   6
ATOM      6  C   UNL     1      24.317  32.558 -13.145  1.00  0.00     0.000 C 
BRANCH   6   7
ATOM      7  C   UNL     1      24.399  31.724 -11.856  1.00  0.00     0.006 C 
BRANCH   7   8
ATOM      8  C   UNL     1      23.115  31.866 -11.032  1.00  0.00     0.053 C 
BRANCH   8   9
ATOM      9  C   UNL     1      22.745  30.558 -10.409  1.00  0.00     0.041 C 
ATOM     10  O   UNL     1      23.362  30.142  -9.393  1.00  0.00    -0.550 OA
ATOM     11  O   UNL     1      21.686  29.818 -10.922  1.00  0.00    -0.550 OA
ENDBRANCH   8   9
ENDBRANCH   7   8
ENDBRANCH   6   7
ENDBRANCH   5   6
ENDBRANCH   4   5
ENDBRANCH   3   4
ENDBRANCH   2   3
ENDBRANCH   1   2
BRANCH   1  12
ATOM     12  C   UNL     1      29.043  30.226 -12.837  1.00  0.00     0.000 C 
BRANCH  12  13
ATOM     13  C   UNL     1      29.209  30.259 -11.306  1.00  0.00    -0.000 C 
BRANCH  13  14
ATOM     14  C   UNL     1      27.893  30.273 -10.502  1.00  0.00    -0.000 C 
BRANCH  14  15
ATOM     15  C   UNL     1      27.369  28.888 -10.082  1.00  0.00    -0.000 C 
BRANCH  15  16
ATOM     16  C   UNL     1      26.094  28.479 -10.833  1.00  0.00    -0.000 C 
BRANCH  16  17
ATOM     17  C   UNL     1      26.266  27.101 -11.492  1.00  0.00    -0.000 C 
BRANCH  17  18
ATOM     18  C   UNL     1      27.077  27.166 -12.797  1.00  0.00    -0.000 C 
BRANCH  18  19
ATOM     19  C   UNL     1      26.927  25.897 -13.649  1.00  0.00    -0.003 C 
ATOM     20  C   UNL     1      25.850  26.076 -14.715  1.00  0.00     0.004 C 
ENDBRANCH  18  19
ENDBRANCH  17  18
ENDBRANCH  16  17
ENDBRANCH  15  16
ENDBRANCH  14  15
ENDBRANCH  13  14
ENDBRANCH  12  13
ENDBRANCH   1  12
TORSDOF 16
ENDMDL
MODEL 5
REMARK VINA RESULT:    -3.764      2.585      5.769
REMARK INTER + INTRA:         -10.054
REMARK INTER:                  -7.471
REMARK INTRA:                  -2.583
REMARK UNBOUND:                -2.769
REMARK SMILES CCCCCCCCCCCCCCCCCC(=O)[O-]
REMARK SMILES IDX 10 1 11 2 12 3 13 4 14 5 15 6 16 7 17 8 18 9 19 10 20 11
REMARK SMILES IDX 9 12 8 13 7 14 6 15 5 16 4 17 3 18 2 19 1 20
REMARK H PARENT
REMARK Flexibility Score: inf
ROOT
ATOM      1  C   UNL     1      25.930  27.421 -12.197  1.00  0.00     0.000 C 
ENDROOT
BRANCH   1   2
ATOM      2  C   UNL     1      26.364  27.288 -10.726  1.00  0.00     0.000 C 
BRANCH   2   3
ATOM      3  C   UNL     1      26.299  28.588  -9.898  1.00  0.00     0.000 C 
BRANCH   3   4
ATOM      4  C   UNL     1      27.660  29.228  -9.570  1.00  0.00     0.000 C 
BRANCH   4   5
ATOM      5  C   UNL     1      27.998  30.414 -10.489  1.00  0.00     0.000 C 
BRANCH   5   6
ATOM      6  C   UNL     1      29.057  30.061 -11.545  1.00  0.00     0.000 C 
BRANCH   6   7
ATOM      7  C   UNL     1      28.578  30.334 -12.979  1.00  0.00     0.006 C 
BRANCH   7   8
ATOM      8  C   UNL     1      27.062  30.553 -13.017  1.00  0.00     0.053 C 
BRANCH   8   9
ATOM      9  C   UNL     1      26.587  30.692 -14.429  1.00  0.00     0.041 C 
ATOM     10  O   UNL     1      25.859  31.666 -14.760  1.00  0.00    -0.550 OA
ATOM     11  O   UNL     1      26.988  29.773 -15.391  1.00  0.00    -0.550 OA
ENDBRANCH   8   9
ENDBRANCH   7   8
ENDBRANCH   6   7
ENDBRANCH   5   6
ENDBRANCH   4   5
ENDBRANCH   3   4
ENDBRANCH   2   3
ENDBRANCH   1   2
BRANCH   1  12
ATOM     12  C   UNL     1      26.988  26.896 -13.181  1.00  0.00     0.000 C 
BRANCH  12  13
ATOM     13  C   UNL     1      26.370  26.291 -14.456  1.00  0.00    -0.000 C 
BRANCH  13  14
ATOM     14  C   UNL     1      24.833  26.169 -14.449  1.00  0.00    -0.000 C 
BRANCH  14  15
ATOM     15  C   UNL     1      24.291  24.737 -14.301  1.00  0.00    -0.000 C 
BRANCH  15  16
ATOM     16  C   UNL     1      25.192  23.686 -14.966  1.00  0.00    -0.000 C 
BRANCH  16  17
ATOM     17  C   UNL     1      25.743  22.700 -13.925  1.00  0.00    -0.000 C 
BRANCH  17  18
ATOM     18  C   UNL     1      25.557  23.196 -12.482  1.00  0.00    -0.000 C 
BRANCH  18  19
ATOM     19  C   UNL     1      26.890  23.519 -11.791  1.00  0.00    -0.003 C 
ATOM     20  C   UNL     1      28.067  23.276 -12.732  1.00  0.00     0.004 C 
ENDBRANCH  18  19
ENDBRANCH  17  18
ENDBRANCH  16  17
ENDBRANCH  15  16
ENDBRANCH  14  15
ENDBRANCH  13  14
ENDBRANCH  12  13
ENDBRANCH   1  12
TORSDOF 16
ENDMDL
MODEL 6
REMARK VINA RESULT:    -3.734      1.559      3.136
REMARK INTER + INTRA:          -9.995
REMARK INTER:                  -7.409
REMARK INTRA:                  -2.586
REMARK UNBOUND:                -2.769
REMARK SMILES CCCCCCCCCCCCCCCCCC(=O)[O-]
REMARK SMILES IDX 10 1 11 2 12 3 13 4 14 5 15 6 16 7 17 8 18 9 19 10 20 11
REMARK SMILES IDX 9 12 8 13 7 14 6 15 5 16 4 17 3 18 2 19 1 20
REMARK H PARENT
REMARK Flexibility Score: inf
ROOT
ATOM      1  C   UNL     1      27.397  29.567  -9.750  1.00  0.00     0.000 C 
ENDROOT
BRANCH   1   2
ATOM      2  C   UNL     1      27.045  28.240 -10.446  1.00  0.00     0.000 C 
BRANCH   2   3
ATOM      3  C   UNL     1      25.637  28.177 -11.074  1.00  0.00     0.000 C 
BRANCH   3   4
ATOM      4  C   UNL     1      25.535  27.370 -12.381  1.00  0.00     0.000 C 
BRANCH   4   5
ATOM      5  C   UNL     1      26.823  26.597 -12.707  1.00  0.00     0.000 C 
BRANCH   5   6
ATOM      6  C   UNL     1      26.738  25.841 -14.042  1.00  0.00     0.000 C 
BRANCH   6   7
ATOM      7  C   UNL     1      26.685  24.316 -13.859  1.00  0.00     0.006 C 
BRANCH   7   8
ATOM      8  C   UNL     1      27.804  23.839 -12.928  1.00  0.00     0.053 C 
BRANCH   8   9
ATOM      9  C   UNL     1      27.252  22.959 -11.852  1.00  0.00     0.041 C 
ATOM     10  O   UNL     1      27.548  21.735 -11.820  1.00  0.00    -0.550 OA
ATOM     11  O   UNL     1      26.448  23.499 -10.856  1.00  0.00    -0.550 OA
ENDBRANCH   8   9
ENDBRANCH   7   8
ENDBRANCH   6   7
ENDBRANCH   5   6
ENDBRANCH   4   5
ENDBRANCH   3   4
ENDBRANCH   2   3
ENDBRANCH   1   2
BRANCH   1  12
ATOM     12  C   UNL     1      28.180  30.529 -10.659  1.00  0.00     0.000 C 
BRANCH  12  13
ATOM     13  C   UNL     1      28.845  29.815 -11.851  1.00  0.00    -0.000 C 
BRANCH  13  14
ATOM     14  C   UNL     1      28.642  30.493 -13.221  1.00  0.00    -0.000 C 
BRANCH  14  15
ATOM     15  C   UNL     1      27.392  30.041 -13.996  1.00  0.00    -0.000 C 
BRANCH  15  16
ATOM     16  C   UNL     1      26.388  31.179 -14.228  1.00  0.00    -0.000 C 
BRANCH  16  17
ATOM     17  C   UNL     1      25.091  30.933 -13.442  1.00  0.00    -0.000 C 
BRANCH  17  18
ATOM     18  C   UNL     1      25.067  31.672 -12.094  1.00  0.00    -0.000 C 
BRANCH  18  19
ATOM     19  C   UNL     1      23.647  31.823 -11.529  1.00  0.00    -0.003 C 
ATOM     20  C   UNL     1      22.821  30.563 -11.777  1.00  0.00     0.004 C 
ENDBRANCH  18  19
ENDBRANCH  17  18
ENDBRANCH  16  17
ENDBRANCH  15  16
ENDBRANCH  14  15
ENDBRANCH  13  14
ENDBRANCH  12  13
ENDBRANCH   1  12
TORSDOF 16
ENDMDL
MODEL 7
REMARK VINA RESULT:    -3.698      2.459      3.622
REMARK INTER + INTRA:          -9.926
REMARK INTER:                  -7.334
REMARK INTRA:                  -2.592
REMARK UNBOUND:                -2.769
REMARK SMILES CCCCCCCCCCCCCCCCCC(=O)[O-]
REMARK SMILES IDX 10 1 11 2 12 3 13 4 14 5 15 6 16 7 17 8 18 9 19 10 20 11
REMARK SMILES IDX 9 12 8 13 7 14 6 15 5 16 4 17 3 18 2 19 1 20
REMARK H PARENT
REMARK Flexibility Score: inf
ROOT
ATOM      1  C   UNL     1      26.175  29.608 -15.081  1.00  0.00     0.000 C 
ENDROOT
BRANCH   1   2
ATOM      2  C   UNL     1      27.547  30.241 -14.791  1.00  0.00     0.000 C 
BRANCH   2   3
ATOM      3  C   UNL     1      27.832  30.549 -13.306  1.00  0.00     0.000 C 
BRANCH   3   4
ATOM      4  C   UNL     1      29.252  30.202 -12.823  1.00  0.00     0.000 C 
BRANCH   4   5
ATOM      5  C   UNL     1      29.364  30.146 -11.290  1.00  0.00     0.000 C 
BRANCH   5   6
ATOM      6  C   UNL     1      28.002  30.288 -10.593  1.00  0.00     0.000 C 
BRANCH   6   7
ATOM      7  C   UNL     1      27.434  28.940 -10.121  1.00  0.00     0.006 C 
BRANCH   7   8
ATOM      8  C   UNL     1      27.253  28.926  -8.600  1.00  0.00     0.053 C 
BRANCH   8   9
ATOM      9  C   UNL     1      25.986  28.222  -8.230  1.00  0.00     0.041 C 
ATOM     10  O   UNL     1      26.023  27.180  -7.524  1.00  0.00    -0.550 OA
ATOM     11  O   UNL     1      24.760  28.744  -8.623  1.00  0.00    -0.550 OA
ENDBRANCH   8   9
ENDBRANCH   7   8
ENDBRANCH   6   7
ENDBRANCH   5   6
ENDBRANCH   4   5
ENDBRANCH   3   4
ENDBRANCH   2   3
ENDBRANCH   1   2
BRANCH   1  12
ATOM     12  C   UNL     1      25.749  28.590 -14.010  1.00  0.00     0.000 C 
BRANCH  12  13
ATOM     13  C   UNL     1      24.310  28.080 -14.209  1.00  0.00    -0.000 C 
BRANCH  13  14
ATOM     14  C   UNL     1      23.522  28.759 -15.347  1.00  0.00    -0.000 C 
BRANCH  14  15
ATOM     15  C   UNL     1      22.409  29.718 -14.889  1.00  0.00    -0.000 C 
BRANCH  15  16
ATOM     16  C   UNL     1      22.806  31.196 -15.012  1.00  0.00    -0.000 C 
BRANCH  16  17
ATOM     17  C   UNL     1      22.903  31.853 -13.626  1.00  0.00    -0.000 C 
BRANCH  17  18
ATOM     18  C   UNL     1      24.306  32.410 -13.332  1.00  0.00    -0.000 C 
BRANCH  18  19
ATOM     19  C   UNL     1      24.850  31.950 -11.971  1.00  0.00    -0.003 C 
ATOM     20  C   UNL     1      24.057  30.760 -11.438  1.00  0.00     0.004 C 
ENDBRANCH  18  19
ENDBRANCH  17  18
ENDBRANCH  16  17
ENDBRANCH  15  16
ENDBRANCH  14  15
ENDBRANCH  13  14
ENDBRANCH  12  13
ENDBRANCH   1  12
TORSDOF 16
ENDMDL
MODEL 8
REMARK VINA RESULT:    -3.672      1.134      1.593
REMARK INTER + INTRA:          -9.875
REMARK INTER:                  -7.262
REMARK INTRA:                  -2.613
REMARK UNBOUND:                -2.769
REMARK SMILES CCCCCCCCCCCCCCCCCC(=O)[O-]
REMARK SMILES IDX 10 1 11 2 12 3 13 4 14 5 15 6 16 7 17 8 18 9 19 10 20 11
REMARK SMILES IDX 9 12 8 13 7 14 6 15 5 16 4 17 3 18 2 19 1 20
REMARK H PARENT
REMARK Flexibility Score: inf
ROOT
ATOM      1  C   UNL     1      27.469  30.641 -13.488  1.00  0.00     0.000 C 
ENDROOT
BRANCH   1   2
ATOM      2  C   UNL     1      28.911  30.265 -13.103  1.00  0.00     0.000 C 
BRANCH   2   3
ATOM      3  C   UNL     1      29.170  30.100 -11.590  1.00  0.00     0.000 C 
BRANCH   3   4
ATOM      4  C   UNL     1      27.934  30.276 -10.689  1.00  0.00     0.000 C 
BRANCH   4   5
ATOM      5  C   UNL     1      27.693  29.071  -9.765  1.00  0.00     0.000 C 
BRANCH   5   6
ATOM      6  C   UNL     1      26.436  28.275 -10.148  1.00  0.00     0.000 C 
BRANCH   6   7
ATOM      7  C   UNL     1      26.531  27.652 -11.549  1.00  0.00     0.006 C 
BRANCH   7   8
ATOM      8  C   UNL     1      26.363  26.131 -11.483  1.00  0.00     0.053 C 
BRANCH   8   9
ATOM      9  C   UNL     1      25.183  25.698 -12.295  1.00  0.00     0.041 C 
ATOM     10  O   UNL     1      25.153  24.547 -12.806  1.00  0.00    -0.550 OA
ATOM     11  O   UNL     1      24.095  26.548 -12.448  1.00  0.00    -0.550 OA
ENDBRANCH   8   9
ENDBRANCH   7   8
ENDBRANCH   6   7
ENDBRANCH   5   6
ENDBRANCH   4   5
ENDBRANCH   3   4
ENDBRANCH   2   3
ENDBRANCH   1   2
BRANCH   1  12
ATOM     12  C   UNL     1      27.099  30.202 -14.914  1.00  0.00     0.000 C 
BRANCH  12  13
ATOM     13  C   UNL     1      26.291  28.891 -14.945  1.00  0.00    -0.000 C 
BRANCH  13  14
ATOM     14  C   UNL     1      24.759  29.061 -14.922  1.00  0.00    -0.000 C 
BRANCH  14  15
ATOM     15  C   UNL     1      24.246  30.431 -15.399  1.00  0.00    -0.000 C 
BRANCH  15  16
ATOM     16  C   UNL     1      22.803  30.715 -14.958  1.00  0.00    -0.000 C 
BRANCH  16  17
ATOM     17  C   UNL     1      22.771  31.753 -13.825  1.00  0.00    -0.000 C 
BRANCH  17  18
ATOM     18  C   UNL     1      24.140  32.410 -13.586  1.00  0.00    -0.000 C 
BRANCH  18  19
ATOM     19  C   UNL     1      24.579  32.341 -12.115  1.00  0.00    -0.003 C 
ATOM     20  C   UNL     1      24.343  30.948 -11.538  1.00  0.00     0.004 C 
ENDBRANCH  18  19
ENDBRANCH  17  18
ENDBRANCH  16  17
ENDBRANCH  15  16
ENDBRANCH  14  15
ENDBRANCH  13  14
ENDBRANCH  12  13
ENDBRANCH   1  12
TORSDOF 16
ENDMDL
MODEL 9
REMARK VINA RESULT:    -3.617      2.736      5.520
REMARK INTER + INTRA:          -9.769
REMARK INTER:                  -6.762
REMARK INTRA:                  -3.007
REMARK UNBOUND:                -2.769
REMARK SMILES CCCCCCCCCCCCCCCCCC(=O)[O-]
REMARK SMILES IDX 10 1 11 2 12 3 13 4 14 5 15 6 16 7 17 8 18 9 19 10 20 11
REMARK SMILES IDX 9 12 8 13 7 14 6 15 5 16 4 17 3 18 2 19 1 20
REMARK H PARENT
REMARK Flexibility Score: inf
ROOT
ATOM      1  C   UNL     1      29.306  30.119 -11.286  1.00  0.00     0.000 C 
ENDROOT
BRANCH   1   2
ATOM      2  C   UNL     1      29.137  30.052 -12.814  1.00  0.00     0.000 C 
BRANCH   2   3
ATOM      3  C   UNL     1      27.921  30.817 -13.378  1.00  0.00     0.000 C 
BRANCH   3   4
ATOM      4  C   UNL     1      27.212  30.141 -14.566  1.00  0.00     0.000 C 
BRANCH   4   5
ATOM      5  C   UNL     1      25.753  30.598 -14.727  1.00  0.00     0.000 C 
BRANCH   5   6
ATOM      6  C   UNL     1      25.368  31.710 -13.738  1.00  0.00     0.000 C 
BRANCH   6   7
ATOM      7  C   UNL     1      24.072  31.401 -12.973  1.00  0.00     0.006 C 
BRANCH   7   8
ATOM      8  C   UNL     1      23.209  30.396 -13.743  1.00  0.00     0.053 C 
BRANCH   8   9
ATOM      9  C   UNL     1      22.147  31.105 -14.521  1.00  0.00     0.041 C 
ATOM     10  O   UNL     1      22.366  31.468 -15.708  1.00  0.00    -0.550 OA
ATOM     11  O   UNL     1      20.897  31.322 -13.954  1.00  0.00    -0.550 OA
ENDBRANCH   8   9
ENDBRANCH   7   8
ENDBRANCH   6   7
ENDBRANCH   5   6
ENDBRANCH   4   5
ENDBRANCH   3   4
ENDBRANCH   2   3
ENDBRANCH   1   2
BRANCH   1  12
ATOM     12  C   UNL     1      27.997  30.463 -10.555  1.00  0.00     0.000 C 
BRANCH  12  13
ATOM     13  C   UNL     1      27.215  29.213 -10.111  1.00  0.00    -0.000 C 
BRANCH  13  14
ATOM     14  C   UNL     1      25.799  29.076 -10.707  1.00  0.00    -0.000 C 
BRANCH  14  15
ATOM     15  C   UNL     1      25.680  28.099 -11.890  1.00  0.00    -0.000 C 
BRANCH  15  16
ATOM     16  C   UNL     1      26.929  27.225 -12.072  1.00  0.00    -0.000 C 
BRANCH  16  17
ATOM     17  C   UNL     1      26.903  26.509 -13.431  1.00  0.00    -0.000 C 
BRANCH  17  18
ATOM     18  C   UNL     1      25.687  26.904 -14.285  1.00  0.00    -0.000 C 
BRANCH  18  19
ATOM     19  C   UNL     1      24.905  25.686 -14.799  1.00  0.00    -0.003 C 
ATOM     20  C   UNL     1      25.778  24.434 -14.797  1.00  0.00     0.004 C 
ENDBRANCH  18  19
ENDBRANCH  17  18
ENDBRANCH  16  17
ENDBRANCH  15  16
ENDBRANCH  14  15
ENDBRANCH  13  14
ENDBRANCH  12  13
ENDBRANCH   1  12
TORSDOF 16
ENDMDL
