MODEL 1
REMARK VINA RESULT:    -5.490      0.000      0.000
REMARK INTER + INTRA:          -5.650
REMARK INTER:                  -5.650
REMARK INTRA:                   0.000
REMARK UNBOUND:                 0.000
REMARK SMILES O=c1ccc2ccc(O)cc2o1
REMARK SMILES IDX 6 1 7 2 8 3 10 4 11 5 5 6 4 7 3 8 2 9 1 10 12 11 9 12
REMARK H PARENT 9 13
REMARK Flexibility Score: inf
ROOT
ATOM      1  C   UNL     1       6.619   2.110   9.565  1.00  0.00     0.016 A 
ATOM      2  C   UNL     1       7.401   1.096  10.127  1.00  0.00     0.047 A 
ATOM      3  C   UNL     1       8.362   1.402  11.101  1.00  0.00     0.119 A 
ATOM      4  C   UNL     1       8.540   2.727  11.516  1.00  0.00     0.094 A 
ATOM      5  C   UNL     1       7.762   3.748  10.960  1.00  0.00     0.142 A 
ATOM      6  C   UNL     1       6.795   3.439   9.978  1.00  0.00     0.018 A 
ATOM      7  C   UNL     1       6.033   4.480   9.441  1.00  0.00     0.019 A 
ATOM      8  C   UNL     1       6.247   5.784   9.886  1.00  0.00     0.094 A 
ATOM      9  C   UNL     1       7.222   6.016  10.861  1.00  0.00     0.336 A 
ATOM     10  O   UNL     1       7.430   7.187  11.275  1.00  0.00    -0.246 OA
ATOM     11  O   UNL     1       7.934   5.007  11.356  1.00  0.00    -0.423 OA
ENDROOT
BRANCH   3  12
ATOM     12  O   UNL     1       9.145   0.396  11.665  1.00  0.00    -0.508 OA
ATOM     13  H   UNL     1       9.191   0.261  12.669  1.00  0.00     0.293 HD
ENDBRANCH   3  12
TORSDOF 1
ENDMDL
MODEL 2
REMARK VINA RESULT:    -5.397      1.637      4.749
REMARK INTER + INTRA:          -5.555
REMARK INTER:                  -5.555
REMARK INTRA:                   0.000
REMARK UNBOUND:                 0.000
REMARK SMILES O=c1ccc2ccc(O)cc2o1
REMARK SMILES IDX 6 1 7 2 8 3 10 4 11 5 5 6 4 7 3 8 2 9 1 10 12 11 9 12
REMARK H PARENT 9 13
REMARK Flexibility Score: inf
ROOT
ATOM      1  C   UNL     1       8.252   5.146  11.506  1.00  0.00     0.016 A 
ATOM      2  C   UNL     1       7.591   6.322  11.135  1.00  0.00     0.047 A 
ATOM      3  C   UNL     1       6.538   6.280  10.210  1.00  0.00     0.119 A 
ATOM      4  C   UNL     1       6.144   5.057   9.655  1.00  0.00     0.094 A 
ATOM      5  C   UNL     1       6.799   3.876  10.018  1.00  0.00     0.142 A 
ATOM      6  C   UNL     1       7.860   3.919  10.950  1.00  0.00     0.018 A 
ATOM      7  C   UNL     1       8.495   2.723  11.294  1.00  0.00     0.019 A 
ATOM      8  C   UNL     1       8.066   1.530  10.714  1.00  0.00     0.094 A 
ATOM      9  C   UNL     1       7.009   1.562   9.799  1.00  0.00     0.336 A 
ATOM     10  O   UNL     1       6.609   0.495   9.264  1.00  0.00    -0.246 OA
ATOM     11  O   UNL     1       6.421   2.715   9.488  1.00  0.00    -0.423 OA
ENDROOT
BRANCH   3  12
ATOM     12  O   UNL     1       5.875   7.448   9.838  1.00  0.00    -0.508 OA
ATOM     13  H   UNL     1       6.344   8.347   9.840  1.00  0.00     0.293 HD
ENDBRANCH   3  12
TORSDOF 1
ENDMDL
MODEL 3
REMARK VINA RESULT:    -5.262      0.791      4.220
REMARK INTER + INTRA:          -5.415
REMARK INTER:                  -5.415
REMARK INTRA:                   0.000
REMARK UNBOUND:                 0.000
REMARK SMILES O=c1ccc2ccc(O)cc2o1
REMARK SMILES IDX 6 1 7 2 8 3 10 4 11 5 5 6 4 7 3 8 2 9 1 10 12 11 9 12
REMARK H PARENT 9 13
REMARK Flexibility Score: inf
ROOT
ATOM      1  C   UNL     1       6.035   4.429   9.529  1.00  0.00     0.016 A 
ATOM      2  C   UNL     1       6.241   5.739   9.974  1.00  0.00     0.047 A 
ATOM      3  C   UNL     1       7.242   6.017  10.915  1.00  0.00     0.119 A 
ATOM      4  C   UNL     1       8.041   4.981  11.413  1.00  0.00     0.094 A 
ATOM      5  C   UNL     1       7.842   3.667  10.974  1.00  0.00     0.142 A 
ATOM      6  C   UNL     1       6.833   3.389  10.026  1.00  0.00     0.018 A 
ATOM      7  C   UNL     1       6.658   2.067   9.607  1.00  0.00     0.019 A 
ATOM      8  C   UNL     1       7.479   1.069  10.131  1.00  0.00     0.094 A 
ATOM      9  C   UNL     1       8.458   1.418  11.067  1.00  0.00     0.336 A 
ATOM     10  O   UNL     1       9.208   0.531  11.552  1.00  0.00    -0.246 OA
ATOM     11  O   UNL     1       8.604   2.685  11.450  1.00  0.00    -0.423 OA
ENDROOT
BRANCH   3  12
ATOM     12  O   UNL     1       7.453   7.320  11.362  1.00  0.00    -0.508 OA
ATOM     13  H   UNL     1       6.968   8.107  10.946  1.00  0.00     0.293 HD
ENDBRANCH   3  12
TORSDOF 1
ENDMDL
MODEL 4
REMARK VINA RESULT:    -4.875      8.076      9.743
REMARK INTER + INTRA:          -5.017
REMARK INTER:                  -5.017
REMARK INTRA:                   0.000
REMARK UNBOUND:                 0.000
REMARK SMILES O=c1ccc2ccc(O)cc2o1
REMARK SMILES IDX 6 1 7 2 8 3 10 4 11 5 5 6 4 7 3 8 2 9 1 10 12 11 9 12
REMARK H PARENT 9 13
REMARK Flexibility Score: inf
ROOT
ATOM      1  C   UNL     1       8.725  -2.870  17.827  1.00  0.00     0.016 A 
ATOM      2  C   UNL     1       8.319  -2.957  16.491  1.00  0.00     0.047 A 
ATOM      3  C   UNL     1       9.095  -2.378  15.477  1.00  0.00     0.119 A 
ATOM      4  C   UNL     1      10.282  -1.710  15.801  1.00  0.00     0.094 A 
ATOM      5  C   UNL     1      10.696  -1.617  17.134  1.00  0.00     0.142 A 
ATOM      6  C   UNL     1       9.914  -2.201  18.154  1.00  0.00     0.018 A 
ATOM      7  C   UNL     1      10.353  -2.092  19.477  1.00  0.00     0.019 A 
ATOM      8  C   UNL     1      11.542  -1.417  19.749  1.00  0.00     0.094 A 
ATOM      9  C   UNL     1      12.266  -0.864  18.688  1.00  0.00     0.336 A 
ATOM     10  O   UNL     1      13.342  -0.250  18.914  1.00  0.00    -0.246 OA
ATOM     11  O   UNL     1      11.825  -0.982  17.437  1.00  0.00    -0.423 OA
ENDROOT
BRANCH   3  12
ATOM     12  O   UNL     1       8.697  -2.462  14.145  1.00  0.00    -0.508 OA
ATOM     13  H   UNL     1       9.280  -2.108  13.394  1.00  0.00     0.293 HD
ENDBRANCH   3  12
TORSDOF 1
ENDMDL
MODEL 5
REMARK VINA RESULT:    -4.811      8.180     10.502
REMARK INTER + INTRA:          -4.952
REMARK INTER:                  -4.952
REMARK INTRA:                   0.000
REMARK UNBOUND:                 0.000
REMARK SMILES O=c1ccc2ccc(O)cc2o1
REMARK SMILES IDX 6 1 7 2 8 3 10 4 11 5 5 6 4 7 3 8 2 9 1 10 12 11 9 12
REMARK H PARENT 9 13
REMARK Flexibility Score: inf
ROOT
ATOM      1  C   UNL     1      10.831  -2.136  18.260  1.00  0.00     0.016 A 
ATOM      2  C   UNL     1      11.105  -1.711  16.956  1.00  0.00     0.047 A 
ATOM      3  C   UNL     1      10.122  -1.806  15.960  1.00  0.00     0.119 A 
ATOM      4  C   UNL     1       8.861  -2.327  16.270  1.00  0.00     0.094 A 
ATOM      5  C   UNL     1       8.577  -2.755  17.571  1.00  0.00     0.142 A 
ATOM      6  C   UNL     1       9.567  -2.659  18.574  1.00  0.00     0.018 A 
ATOM      7  C   UNL     1       9.254  -3.094  19.865  1.00  0.00     0.019 A 
ATOM      8  C   UNL     1       7.983  -3.606  20.124  1.00  0.00     0.094 A 
ATOM      9  C   UNL     1       7.053  -3.671  19.083  1.00  0.00     0.336 A 
ATOM     10  O   UNL     1       5.900  -4.130  19.298  1.00  0.00    -0.246 OA
ATOM     11  O   UNL     1       7.376  -3.250  17.862  1.00  0.00    -0.423 OA
ENDROOT
BRANCH   3  12
ATOM     12  O   UNL     1      10.389  -1.385  14.659  1.00  0.00    -0.508 OA
ATOM     13  H   UNL     1      10.257  -0.420  14.377  1.00  0.00     0.293 HD
ENDBRANCH   3  12
TORSDOF 1
ENDMDL
MODEL 6
REMARK VINA RESULT:    -4.696      7.557      9.393
REMARK INTER + INTRA:          -4.833
REMARK INTER:                  -4.833
REMARK INTRA:                   0.000
REMARK UNBOUND:                 0.000
REMARK SMILES O=c1ccc2ccc(O)cc2o1
REMARK SMILES IDX 6 1 7 2 8 3 10 4 11 5 5 6 4 7 3 8 2 9 1 10 12 11 9 12
REMARK H PARENT 9 13
REMARK Flexibility Score: inf
ROOT
ATOM      1  C   UNL     1       8.810  -2.824  18.574  1.00  0.00     0.016 A 
ATOM      2  C   UNL     1       9.580  -2.172  19.543  1.00  0.00     0.047 A 
ATOM      3  C   UNL     1      10.619  -1.312  19.159  1.00  0.00     0.119 A 
ATOM      4  C   UNL     1      10.888  -1.103  17.802  1.00  0.00     0.094 A 
ATOM      5  C   UNL     1      10.124  -1.751  16.825  1.00  0.00     0.142 A 
ATOM      6  C   UNL     1       9.078  -2.617  17.213  1.00  0.00     0.018 A 
ATOM      7  C   UNL     1       8.331  -3.250  16.214  1.00  0.00     0.019 A 
ATOM      8  C   UNL     1       8.638  -3.009  14.875  1.00  0.00     0.094 A 
ATOM      9  C   UNL     1       9.688  -2.139  14.566  1.00  0.00     0.336 A 
ATOM     10  O   UNL     1       9.980  -1.910  13.363  1.00  0.00    -0.246 OA
ATOM     11  O   UNL     1      10.383  -1.549  15.535  1.00  0.00    -0.423 OA
ENDROOT
BRANCH   3  12
ATOM     12  O   UNL     1      11.389  -0.660  20.120  1.00  0.00    -0.508 OA
ATOM     13  H   UNL     1      11.780  -1.156  20.912  1.00  0.00     0.293 HD
ENDBRANCH   3  12
TORSDOF 1
ENDMDL
MODEL 7
REMARK VINA RESULT:    -4.587      8.430     10.658
REMARK INTER + INTRA:          -4.721
REMARK INTER:                  -4.721
REMARK INTRA:                   0.000
REMARK UNBOUND:                 0.000
REMARK SMILES O=c1ccc2ccc(O)cc2o1
REMARK SMILES IDX 6 1 7 2 8 3 10 4 11 5 5 6 4 7 3 8 2 9 1 10 12 11 9 12
REMARK H PARENT 9 13
REMARK Flexibility Score: inf
ROOT
ATOM      1  C   UNL     1       9.788  -2.797  18.239  1.00  0.00     0.016 A 
ATOM      2  C   UNL     1       8.798  -1.910  17.804  1.00  0.00     0.047 A 
ATOM      3  C   UNL     1       9.093  -0.549  17.633  1.00  0.00     0.119 A 
ATOM      4  C   UNL     1      10.384  -0.076  17.897  1.00  0.00     0.094 A 
ATOM      5  C   UNL     1      11.381  -0.955  18.333  1.00  0.00     0.142 A 
ATOM      6  C   UNL     1      11.082  -2.325  18.505  1.00  0.00     0.018 A 
ATOM      7  C   UNL     1      12.098  -3.180  18.941  1.00  0.00     0.019 A 
ATOM      8  C   UNL     1      13.368  -2.661  19.191  1.00  0.00     0.094 A 
ATOM      9  C   UNL     1      13.591  -1.294  18.999  1.00  0.00     0.336 A 
ATOM     10  O   UNL     1      14.731  -0.807  19.220  1.00  0.00    -0.246 OA
ATOM     11  O   UNL     1      12.606  -0.501  18.583  1.00  0.00    -0.423 OA
ENDROOT
BRANCH   3  12
ATOM     12  O   UNL     1       8.112   0.340  17.200  1.00  0.00    -0.508 OA
ATOM     13  H   UNL     1       7.443   0.746  17.845  1.00  0.00     0.293 HD
ENDBRANCH   3  12
TORSDOF 1
ENDMDL
MODEL 8
REMARK VINA RESULT:    -4.550     17.042     18.093
REMARK INTER + INTRA:          -4.683
REMARK INTER:                  -4.683
REMARK INTRA:                   0.000
REMARK UNBOUND:                 0.000
REMARK SMILES O=c1ccc2ccc(O)cc2o1
REMARK SMILES IDX 6 1 7 2 8 3 10 4 11 5 5 6 4 7 3 8 2 9 1 10 12 11 9 12
REMARK H PARENT 9 13
REMARK Flexibility Score: inf
ROOT
ATOM      1  C   UNL     1      18.731  -7.227  17.625  1.00  0.00     0.016 A 
ATOM      2  C   UNL     1      18.620  -8.470  18.256  1.00  0.00     0.047 A 
ATOM      3  C   UNL     1      19.245  -8.695  19.491  1.00  0.00     0.119 A 
ATOM      4  C   UNL     1      19.984  -7.672  20.097  1.00  0.00     0.094 A 
ATOM      5  C   UNL     1      20.102  -6.425  19.474  1.00  0.00     0.142 A 
ATOM      6  C   UNL     1      19.471  -6.200  18.230  1.00  0.00     0.018 A 
ATOM      7  C   UNL     1      19.606  -4.944  17.631  1.00  0.00     0.019 A 
ATOM      8  C   UNL     1      20.353  -3.957  18.274  1.00  0.00     0.094 A 
ATOM      9  C   UNL     1      20.949  -4.251  19.504  1.00  0.00     0.336 A 
ATOM     10  O   UNL     1      21.627  -3.373  20.099  1.00  0.00    -0.246 OA
ATOM     11  O   UNL     1      20.805  -5.455  20.053  1.00  0.00    -0.423 OA
ENDROOT
BRANCH   3  12
ATOM     12  O   UNL     1      19.138  -9.931  20.125  1.00  0.00    -0.508 OA
ATOM     13  H   UNL     1      19.617 -10.751  19.771  1.00  0.00     0.293 HD
ENDBRANCH   3  12
TORSDOF 1
ENDMDL
MODEL 9
REMARK VINA RESULT:    -4.532      8.769     10.489
REMARK INTER + INTRA:          -4.665
REMARK INTER:                  -4.665
REMARK INTRA:                   0.000
REMARK UNBOUND:                 0.000
REMARK SMILES O=c1ccc2ccc(O)cc2o1
REMARK SMILES IDX 6 1 7 2 8 3 10 4 11 5 5 6 4 7 3 8 2 9 1 10 12 11 9 12
REMARK H PARENT 9 13
REMARK Flexibility Score: inf
ROOT
ATOM      1  C   UNL     1      13.780  -0.379  19.354  1.00  0.00     0.016 A 
ATOM      2  C   UNL     1      14.033  -1.745  19.517  1.00  0.00     0.047 A 
ATOM      3  C   UNL     1      13.004  -2.682  19.343  1.00  0.00     0.119 A 
ATOM      4  C   UNL     1      11.717  -2.250  19.003  1.00  0.00     0.094 A 
ATOM      5  C   UNL     1      11.453  -0.886  18.838  1.00  0.00     0.142 A 
ATOM      6  C   UNL     1      12.490   0.056  19.014  1.00  0.00     0.018 A 
ATOM      7  C   UNL     1      12.196   1.412  18.842  1.00  0.00     0.019 A 
ATOM      8  C   UNL     1      10.898   1.793  18.504  1.00  0.00     0.094 A 
ATOM      9  C   UNL     1       9.922   0.805  18.346  1.00  0.00     0.336 A 
ATOM     10  O   UNL     1       8.744   1.129  18.041  1.00  0.00    -0.246 OA
ATOM     11  O   UNL     1      10.227  -0.480  18.515  1.00  0.00    -0.423 OA
ENDROOT
BRANCH   3  12
ATOM     12  O   UNL     1      13.251  -4.043  19.503  1.00  0.00    -0.508 OA
ATOM     13  H   UNL     1      13.416  -4.447  20.418  1.00  0.00     0.293 HD
ENDBRANCH   3  12
TORSDOF 1
ENDMDL
