MODEL 1
REMARK VINA RESULT:    -4.652      0.000      0.000
REMARK INTER + INTRA:         -17.163
REMARK INTER:                 -11.723
REMARK INTRA:                  -5.440
REMARK UNBOUND:                -5.440
REMARK SMILES CCCCCCCCCCCCCCCCCCCCCCCCCCCC(=O)[O-]
REMARK SMILES IDX 15 1 16 2 17 3 18 4 19 5 20 6 21 7 22 8 23 9 24 10 25 11
REMARK SMILES IDX 26 12 27 13 28 14 29 15 30 16 14 17 13 18 12 19 11 20 10 21
REMARK SMILES IDX 9 22 8 23 7 24 6 25 5 26 4 27 3 28 2 29 1 30
REMARK H PARENT
REMARK Flexibility Score: inf
ROOT
ATOM      1  C   UNL     1      39.751  62.127   8.032  1.00  0.00     0.000 C 
ENDROOT
BRANCH   1   2
ATOM      2  C   UNL     1      40.241  63.393   8.749  1.00  0.00     0.000 C 
BRANCH   2   3
ATOM      3  C   UNL     1      39.466  64.652   8.331  1.00  0.00     0.000 C 
BRANCH   3   4
ATOM      4  C   UNL     1      39.082  64.643   6.840  1.00  0.00     0.000 C 
BRANCH   4   5
ATOM      5  C   UNL     1      40.187  65.216   5.939  1.00  0.00     0.000 C 
BRANCH   5   6
ATOM      6  C   UNL     1      40.841  64.142   5.049  1.00  0.00     0.000 C 
BRANCH   6   7
ATOM      7  C   UNL     1      42.287  63.831   5.472  1.00  0.00     0.000 C 
BRANCH   7   8
ATOM      8  C   UNL     1      42.880  62.635   4.709  1.00  0.00     0.000 C 
BRANCH   8   9
ATOM      9  C   UNL     1      42.702  61.335   5.501  1.00  0.00     0.000 C 
BRANCH   9  10
ATOM     10  C   UNL     1      41.924  60.296   4.686  1.00  0.00     0.000 C 
BRANCH  10  11
ATOM     11  C   UNL     1      40.437  60.658   4.612  1.00  0.00     0.000 C 
BRANCH  11  12
ATOM     12  C   UNL     1      39.858  60.328   3.229  1.00  0.00     0.006 C 
BRANCH  12  13
ATOM     13  C   UNL     1      40.604  61.049   2.098  1.00  0.00     0.053 C 
BRANCH  13  14
ATOM     14  C   UNL     1      41.353  60.087   1.226  1.00  0.00     0.041 C 
ATOM     15  O   UNL     1      40.726  59.257   0.516  1.00  0.00    -0.550 OA
ATOM     16  O   UNL     1      42.739  60.146   1.155  1.00  0.00    -0.550 OA
ENDBRANCH  13  14
ENDBRANCH  12  13
ENDBRANCH  11  12
ENDBRANCH  10  11
ENDBRANCH   9  10
ENDBRANCH   8   9
ENDBRANCH   7   8
ENDBRANCH   6   7
ENDBRANCH   5   6
ENDBRANCH   4   5
ENDBRANCH   3   4
ENDBRANCH   2   3
ENDBRANCH   1   2
BRANCH   1  17
ATOM     17  C   UNL     1      40.640  60.924   8.380  1.00  0.00     0.000 C 
BRANCH  17  18
ATOM     18  C   UNL     1      39.922  59.576   8.199  1.00  0.00     0.000 C 
BRANCH  18  19
ATOM     19  C   UNL     1      40.822  58.337   8.355  1.00  0.00     0.000 C 
BRANCH  19  20
ATOM     20  C   UNL     1      42.295  58.622   8.022  1.00  0.00     0.000 C 
BRANCH  20  21
ATOM     21  C   UNL     1      42.880  57.521   7.123  1.00  0.00     0.000 C 
BRANCH  21  22
ATOM     22  C   UNL     1      42.149  56.174   7.272  1.00  0.00    -0.000 C 
BRANCH  22  23
ATOM     23  C   UNL     1      42.058  55.347   5.970  1.00  0.00    -0.000 C 
BRANCH  23  24
ATOM     24  C   UNL     1      43.103  55.733   4.909  1.00  0.00    -0.000 C 
BRANCH  24  25
ATOM     25  C   UNL     1      42.501  55.899   3.506  1.00  0.00    -0.000 C 
BRANCH  25  26
ATOM     26  C   UNL     1      41.422  56.995   3.438  1.00  0.00    -0.000 C 
BRANCH  26  27
ATOM     27  C   UNL     1      40.059  56.496   2.916  1.00  0.00    -0.000 C 
BRANCH  27  28
ATOM     28  C   UNL     1      39.064  56.215   4.052  1.00  0.00    -0.000 C 
BRANCH  28  29
ATOM     29  C   UNL     1      39.252  57.209   5.204  1.00  0.00    -0.003 C 
ATOM     30  C   UNL     1      37.908  57.699   5.735  1.00  0.00     0.004 C 
ENDBRANCH  28  29
ENDBRANCH  27  28
ENDBRANCH  26  27
ENDBRANCH  25  26
ENDBRANCH  24  25
ENDBRANCH  23  24
ENDBRANCH  22  23
ENDBRANCH  21  22
ENDBRANCH  20  21
ENDBRANCH  19  20
ENDBRANCH  18  19
ENDBRANCH  17  18
ENDBRANCH   1  17
TORSDOF 26
ENDMDL
MODEL 2
REMARK VINA RESULT:    -4.547      2.736      6.160
REMARK INTER + INTRA:         -16.898
REMARK INTER:                 -11.299
REMARK INTRA:                  -5.598
REMARK UNBOUND:                -5.440
REMARK SMILES CCCCCCCCCCCCCCCCCCCCCCCCCCCC(=O)[O-]
REMARK SMILES IDX 15 1 16 2 17 3 18 4 19 5 20 6 21 7 22 8 23 9 24 10 25 11
REMARK SMILES IDX 26 12 27 13 28 14 29 15 30 16 14 17 13 18 12 19 11 20 10 21
REMARK SMILES IDX 9 22 8 23 7 24 6 25 5 26 4 27 3 28 2 29 1 30
REMARK H PARENT
REMARK Flexibility Score: inf
ROOT
ATOM      1  C   UNL     1      39.744  57.627   4.772  1.00  0.00     0.000 C 
ENDROOT
BRANCH   1   2
ATOM      2  C   UNL     1      41.219  57.201   4.779  1.00  0.00     0.000 C 
BRANCH   2   3
ATOM      3  C   UNL     1      41.466  55.920   5.590  1.00  0.00     0.000 C 
BRANCH   3   4
ATOM      4  C   UNL     1      41.948  56.209   7.023  1.00  0.00     0.000 C 
BRANCH   4   5
ATOM      5  C   UNL     1      42.946  57.376   7.089  1.00  0.00     0.000 C 
BRANCH   5   6
ATOM      6  C   UNL     1      42.419  58.558   7.924  1.00  0.00     0.000 C 
BRANCH   6   7
ATOM      7  C   UNL     1      40.994  58.316   8.449  1.00  0.00     0.000 C 
BRANCH   7   8
ATOM      8  C   UNL     1      40.141  59.595   8.449  1.00  0.00     0.000 C 
BRANCH   8   9
ATOM      9  C   UNL     1      41.013  60.838   8.236  1.00  0.00     0.000 C 
BRANCH   9  10
ATOM     10  C   UNL     1      40.170  62.117   8.287  1.00  0.00     0.000 C 
BRANCH  10  11
ATOM     11  C   UNL     1      41.062  63.358   8.412  1.00  0.00     0.000 C 
BRANCH  11  12
ATOM     12  C   UNL     1      40.309  64.623   7.976  1.00  0.00     0.006 C 
BRANCH  12  13
ATOM     13  C   UNL     1      40.080  64.671   6.460  1.00  0.00     0.053 C 
BRANCH  13  14
ATOM     14  C   UNL     1      38.973  65.614   6.096  1.00  0.00     0.041 C 
ATOM     15  O   UNL     1      38.964  66.173   4.966  1.00  0.00    -0.550 OA
ATOM     16  O   UNL     1      37.924  65.830   6.980  1.00  0.00    -0.550 OA
ENDBRANCH  13  14
ENDBRANCH  12  13
ENDBRANCH  11  12
ENDBRANCH  10  11
ENDBRANCH   9  10
ENDBRANCH   8   9
ENDBRANCH   7   8
ENDBRANCH   6   7
ENDBRANCH   5   6
ENDBRANCH   4   5
ENDBRANCH   3   4
ENDBRANCH   2   3
ENDBRANCH   1   2
BRANCH   1  17
ATOM     17  C   UNL     1      39.614  59.150   4.913  1.00  0.00     0.000 C 
BRANCH  17  18
ATOM     18  C   UNL     1      40.940  59.890   4.669  1.00  0.00     0.000 C 
BRANCH  18  19
ATOM     19  C   UNL     1      40.821  61.422   4.590  1.00  0.00     0.000 C 
BRANCH  19  20
ATOM     20  C   UNL     1      42.185  62.131   4.599  1.00  0.00     0.000 C 
BRANCH  20  21
ATOM     21  C   UNL     1      43.257  61.253   5.265  1.00  0.00     0.000 C 
BRANCH  21  22
ATOM     22  C   UNL     1      44.678  61.551   4.754  1.00  0.00    -0.000 C 
BRANCH  22  23
ATOM     23  C   UNL     1      45.542  60.296   4.496  1.00  0.00    -0.000 C 
BRANCH  23  24
ATOM     24  C   UNL     1      44.766  58.971   4.594  1.00  0.00    -0.000 C 
BRANCH  24  25
ATOM     25  C   UNL     1      45.038  58.027   3.414  1.00  0.00    -0.000 C 
BRANCH  25  26
ATOM     26  C   UNL     1      43.867  57.954   2.417  1.00  0.00    -0.000 C 
BRANCH  26  27
ATOM     27  C   UNL     1      43.905  59.048   1.330  1.00  0.00    -0.000 C 
BRANCH  27  28
ATOM     28  C   UNL     1      42.825  60.120   1.540  1.00  0.00    -0.000 C 
BRANCH  28  29
ATOM     29  C   UNL     1      41.505  59.707   0.878  1.00  0.00    -0.003 C 
ATOM     30  C   UNL     1      41.670  59.551  -0.631  1.00  0.00     0.004 C 
ENDBRANCH  28  29
ENDBRANCH  27  28
ENDBRANCH  26  27
ENDBRANCH  25  26
ENDBRANCH  24  25
ENDBRANCH  23  24
ENDBRANCH  22  23
ENDBRANCH  21  22
ENDBRANCH  20  21
ENDBRANCH  19  20
ENDBRANCH  18  19
ENDBRANCH  17  18
ENDBRANCH   1  17
TORSDOF 26
ENDMDL
MODEL 3
REMARK VINA RESULT:    -4.526      1.604      5.158
REMARK INTER + INTRA:         -16.844
REMARK INTER:                 -11.404
REMARK INTRA:                  -5.440
REMARK UNBOUND:                -5.440
REMARK SMILES CCCCCCCCCCCCCCCCCCCCCCCCCCCC(=O)[O-]
REMARK SMILES IDX 15 1 16 2 17 3 18 4 19 5 20 6 21 7 22 8 23 9 24 10 25 11
REMARK SMILES IDX 26 12 27 13 28 14 29 15 30 16 14 17 13 18 12 19 11 20 10 21
REMARK SMILES IDX 9 22 8 23 7 24 6 25 5 26 4 27 3 28 2 29 1 30
REMARK H PARENT
REMARK Flexibility Score: inf
ROOT
ATOM      1  C   UNL     1      39.650  61.993   7.798  1.00  0.00     0.000 C 
ENDROOT
BRANCH   1   2
ATOM      2  C   UNL     1      40.471  60.835   8.385  1.00  0.00     0.000 C 
BRANCH   2   3
ATOM      3  C   UNL     1      41.921  60.816   7.877  1.00  0.00     0.000 C 
BRANCH   3   4
ATOM      4  C   UNL     1      42.397  59.402   7.497  1.00  0.00     0.000 C 
BRANCH   4   5
ATOM      5  C   UNL     1      41.595  58.297   8.201  1.00  0.00     0.000 C 
BRANCH   5   6
ATOM      6  C   UNL     1      41.809  56.912   7.561  1.00  0.00     0.000 C 
BRANCH   6   7
ATOM      7  C   UNL     1      42.700  56.976   6.309  1.00  0.00     0.000 C 
BRANCH   7   8
ATOM      8  C   UNL     1      42.817  55.618   5.599  1.00  0.00     0.000 C 
BRANCH   8   9
ATOM      9  C   UNL     1      42.979  55.801   4.086  1.00  0.00     0.000 C 
BRANCH   9  10
ATOM     10  C   UNL     1      43.508  57.202   3.754  1.00  0.00     0.000 C 
BRANCH  10  11
ATOM     11  C   UNL     1      42.859  57.745   2.477  1.00  0.00     0.000 C 
BRANCH  11  12
ATOM     12  C   UNL     1      43.867  58.557   1.650  1.00  0.00     0.006 C 
BRANCH  12  13
ATOM     13  C   UNL     1      44.428  59.755   2.428  1.00  0.00     0.053 C 
BRANCH  13  14
ATOM     14  C   UNL     1      44.747  60.905   1.521  1.00  0.00     0.041 C 
ATOM     15  O   UNL     1      44.872  62.067   1.993  1.00  0.00    -0.550 OA
ATOM     16  O   UNL     1      44.962  60.684   0.167  1.00  0.00    -0.550 OA
ENDBRANCH  13  14
ENDBRANCH  12  13
ENDBRANCH  11  12
ENDBRANCH  10  11
ENDBRANCH   9  10
ENDBRANCH   8   9
ENDBRANCH   7   8
ENDBRANCH   6   7
ENDBRANCH   5   6
ENDBRANCH   4   5
ENDBRANCH   3   4
ENDBRANCH   2   3
ENDBRANCH   1   2
BRANCH   1  17
ATOM     17  C   UNL     1      39.935  63.300   8.552  1.00  0.00     0.000 C 
BRANCH  17  18
ATOM     18  C   UNL     1      39.300  64.530   7.881  1.00  0.00     0.000 C 
BRANCH  18  19
ATOM     19  C   UNL     1      40.048  65.048   6.640  1.00  0.00     0.000 C 
BRANCH  19  20
ATOM     20  C   UNL     1      41.575  64.946   6.774  1.00  0.00     0.000 C 
BRANCH  20  21
ATOM     21  C   UNL     1      42.196  64.297   5.526  1.00  0.00     0.000 C 
BRANCH  21  22
ATOM     22  C   UNL     1      41.234  63.330   4.811  1.00  0.00    -0.000 C 
BRANCH  22  23
ATOM     23  C   UNL     1      41.888  62.015   4.333  1.00  0.00    -0.000 C 
BRANCH  23  24
ATOM     24  C   UNL     1      41.270  61.440   3.047  1.00  0.00    -0.000 C 
BRANCH  24  25
ATOM     25  C   UNL     1      40.056  60.539   3.316  1.00  0.00    -0.000 C 
BRANCH  25  26
ATOM     26  C   UNL     1      40.236  59.636   4.550  1.00  0.00    -0.000 C 
BRANCH  26  27
ATOM     27  C   UNL     1      39.758  58.185   4.336  1.00  0.00    -0.000 C 
BRANCH  27  28
ATOM     28  C   UNL     1      38.932  57.659   5.518  1.00  0.00    -0.000 C 
BRANCH  28  29
ATOM     29  C   UNL     1      38.255  58.811   6.270  1.00  0.00    -0.003 C 
ATOM     30  C   UNL     1      37.868  58.393   7.686  1.00  0.00     0.004 C 
ENDBRANCH  28  29
ENDBRANCH  27  28
ENDBRANCH  26  27
ENDBRANCH  25  26
ENDBRANCH  24  25
ENDBRANCH  23  24
ENDBRANCH  22  23
ENDBRANCH  21  22
ENDBRANCH  20  21
ENDBRANCH  19  20
ENDBRANCH  18  19
ENDBRANCH  17  18
ENDBRANCH   1  17
TORSDOF 26
ENDMDL
MODEL 4
REMARK VINA RESULT:    -4.513      1.472      3.527
REMARK INTER + INTRA:         -16.811
REMARK INTER:                 -11.079
REMARK INTRA:                  -5.732
REMARK UNBOUND:                -5.440
REMARK SMILES CCCCCCCCCCCCCCCCCCCCCCCCCCCC(=O)[O-]
REMARK SMILES IDX 15 1 16 2 17 3 18 4 19 5 20 6 21 7 22 8 23 9 24 10 25 11
REMARK SMILES IDX 26 12 27 13 28 14 29 15 30 16 14 17 13 18 12 19 11 20 10 21
REMARK SMILES IDX 9 22 8 23 7 24 6 25 5 26 4 27 3 28 2 29 1 30
REMARK H PARENT
REMARK Flexibility Score: inf
ROOT
ATOM      1  C   UNL     1      40.878  64.252   5.262  1.00  0.00     0.000 C 
ENDROOT
BRANCH   1   2
ATOM      2  C   UNL     1      41.985  64.828   6.158  1.00  0.00     0.000 C 
BRANCH   2   3
ATOM      3  C   UNL     1      41.577  64.895   7.638  1.00  0.00     0.000 C 
BRANCH   3   4
ATOM      4  C   UNL     1      40.061  64.729   7.843  1.00  0.00     0.000 C 
BRANCH   4   5
ATOM      5  C   UNL     1      39.708  63.500   8.695  1.00  0.00     0.000 C 
BRANCH   5   6
ATOM      6  C   UNL     1      40.735  62.362   8.545  1.00  0.00     0.000 C 
BRANCH   6   7
ATOM      7  C   UNL     1      40.067  60.987   8.379  1.00  0.00     0.000 C 
BRANCH   7   8
ATOM      8  C   UNL     1      39.332  60.847   7.036  1.00  0.00     0.000 C 
BRANCH   8   9
ATOM      9  C   UNL     1      38.517  59.549   6.989  1.00  0.00     0.000 C 
BRANCH   9  10
ATOM     10  C   UNL     1      38.621  58.884   5.612  1.00  0.00     0.000 C 
BRANCH  10  11
ATOM     11  C   UNL     1      39.676  59.579   4.744  1.00  0.00     0.000 C 
BRANCH  11  12
ATOM     12  C   UNL     1      39.360  59.409   3.251  1.00  0.00     0.006 C 
BRANCH  12  13
ATOM     13  C   UNL     1      40.355  60.160   2.356  1.00  0.00     0.053 C 
BRANCH  13  14
ATOM     14  C   UNL     1      40.851  59.299   1.234  1.00  0.00     0.041 C 
ATOM     15  O   UNL     1      40.476  58.100   1.144  1.00  0.00    -0.550 OA
ATOM     16  O   UNL     1      41.682  59.837   0.259  1.00  0.00    -0.550 OA
ENDBRANCH  13  14
ENDBRANCH  12  13
ENDBRANCH  11  12
ENDBRANCH  10  11
ENDBRANCH   9  10
ENDBRANCH   8   9
ENDBRANCH   7   8
ENDBRANCH   6   7
ENDBRANCH   5   6
ENDBRANCH   4   5
ENDBRANCH   3   4
ENDBRANCH   2   3
ENDBRANCH   1   2
BRANCH   1  17
ATOM     17  C   UNL     1      41.305  62.904   4.665  1.00  0.00     0.000 C 
BRANCH  17  18
ATOM     18  C   UNL     1      42.728  62.489   5.076  1.00  0.00     0.000 C 
BRANCH  18  19
ATOM     19  C   UNL     1      42.822  61.139   5.809  1.00  0.00     0.000 C 
BRANCH  19  20
ATOM     20  C   UNL     1      43.806  60.164   5.144  1.00  0.00     0.000 C 
BRANCH  20  21
ATOM     21  C   UNL     1      43.697  60.231   3.612  1.00  0.00     0.000 C 
BRANCH  21  22
ATOM     22  C   UNL     1      44.808  59.441   2.896  1.00  0.00    -0.000 C 
BRANCH  22  23
ATOM     23  C   UNL     1      44.823  57.928   3.212  1.00  0.00    -0.000 C 
BRANCH  23  24
ATOM     24  C   UNL     1      43.485  57.219   2.941  1.00  0.00    -0.000 C 
BRANCH  24  25
ATOM     25  C   UNL     1      43.060  56.282   4.082  1.00  0.00    -0.000 C 
BRANCH  25  26
ATOM     26  C   UNL     1      41.563  56.389   4.425  1.00  0.00    -0.000 C 
BRANCH  26  27
ATOM     27  C   UNL     1      41.264  56.322   5.937  1.00  0.00    -0.000 C 
BRANCH  27  28
ATOM     28  C   UNL     1      42.467  56.746   6.792  1.00  0.00    -0.000 C 
BRANCH  28  29
ATOM     29  C   UNL     1      42.104  57.927   7.701  1.00  0.00    -0.003 C 
ATOM     30  C   UNL     1      41.074  57.519   8.750  1.00  0.00     0.004 C 
ENDBRANCH  28  29
ENDBRANCH  27  28
ENDBRANCH  26  27
ENDBRANCH  25  26
ENDBRANCH  24  25
ENDBRANCH  23  24
ENDBRANCH  22  23
ENDBRANCH  21  22
ENDBRANCH  20  21
ENDBRANCH  19  20
ENDBRANCH  18  19
ENDBRANCH  17  18
ENDBRANCH   1  17
TORSDOF 26
ENDMDL
MODEL 5
REMARK VINA RESULT:    -4.503      1.468      4.997
REMARK INTER + INTRA:         -16.787
REMARK INTER:                 -11.002
REMARK INTRA:                  -5.785
REMARK UNBOUND:                -5.440
REMARK SMILES CCCCCCCCCCCCCCCCCCCCCCCCCCCC(=O)[O-]
REMARK SMILES IDX 15 1 16 2 17 3 18 4 19 5 20 6 21 7 22 8 23 9 24 10 25 11
REMARK SMILES IDX 26 12 27 13 28 14 29 15 30 16 14 17 13 18 12 19 11 20 10 21
REMARK SMILES IDX 9 22 8 23 7 24 6 25 5 26 4 27 3 28 2 29 1 30
REMARK H PARENT
REMARK Flexibility Score: inf
ROOT
ATOM      1  C   UNL     1      41.564  61.619   8.268  1.00  0.00     0.000 C 
ENDROOT
BRANCH   1   2
ATOM      2  C   UNL     1      41.638  60.109   7.998  1.00  0.00     0.000 C 
BRANCH   2   3
ATOM      3  C   UNL     1      40.342  59.373   8.372  1.00  0.00     0.000 C 
BRANCH   3   4
ATOM      4  C   UNL     1      40.553  57.859   8.555  1.00  0.00     0.000 C 
BRANCH   4   5
ATOM      5  C   UNL     1      41.903  57.377   8.003  1.00  0.00     0.000 C 
BRANCH   5   6
ATOM      6  C   UNL     1      41.768  56.115   7.130  1.00  0.00     0.000 C 
BRANCH   6   7
ATOM      7  C   UNL     1      42.834  56.052   6.023  1.00  0.00     0.000 C 
BRANCH   7   8
ATOM      8  C   UNL     1      43.822  57.228   6.087  1.00  0.00     0.000 C 
BRANCH   8   9
ATOM      9  C   UNL     1      43.846  57.998   4.762  1.00  0.00     0.000 C 
BRANCH   9  10
ATOM     10  C   UNL     1      43.869  59.512   5.005  1.00  0.00     0.000 C 
BRANCH  10  11
ATOM     11  C   UNL     1      44.096  60.275   3.695  1.00  0.00     0.000 C 
BRANCH  11  12
ATOM     12  C   UNL     1      43.594  59.464   2.492  1.00  0.00     0.006 C 
BRANCH  12  13
ATOM     13  C   UNL     1      43.416  60.332   1.239  1.00  0.00     0.053 C 
BRANCH  13  14
ATOM     14  C   UNL     1      42.537  59.666   0.223  1.00  0.00     0.041 C 
ATOM     15  O   UNL     1      41.398  59.241   0.554  1.00  0.00    -0.550 OA
ATOM     16  O   UNL     1      42.953  59.566  -1.098  1.00  0.00    -0.550 OA
ENDBRANCH  13  14
ENDBRANCH  12  13
ENDBRANCH  11  12
ENDBRANCH  10  11
ENDBRANCH   9  10
ENDBRANCH   8   9
ENDBRANCH   7   8
ENDBRANCH   6   7
ENDBRANCH   5   6
ENDBRANCH   4   5
ENDBRANCH   3   4
ENDBRANCH   2   3
ENDBRANCH   1   2
BRANCH   1  17
ATOM     17  C   UNL     1      40.104  62.083   8.379  1.00  0.00     0.000 C 
BRANCH  17  18
ATOM     18  C   UNL     1      39.938  63.597   8.165  1.00  0.00     0.000 C 
BRANCH  18  19
ATOM     19  C   UNL     1      41.255  64.375   7.998  1.00  0.00     0.000 C 
BRANCH  19  20
ATOM     20  C   UNL     1      41.374  65.064   6.630  1.00  0.00     0.000 C 
BRANCH  20  21
ATOM     21  C   UNL     1      40.730  64.211   5.525  1.00  0.00     0.000 C 
BRANCH  21  22
ATOM     22  C   UNL     1      41.719  63.226   4.875  1.00  0.00    -0.000 C 
BRANCH  22  23
ATOM     23  C   UNL     1      41.056  62.136   4.004  1.00  0.00    -0.000 C 
BRANCH  23  24
ATOM     24  C   UNL     1      40.336  61.041   4.811  1.00  0.00    -0.000 C 
BRANCH  24  25
ATOM     25  C   UNL     1      40.282  59.693   4.078  1.00  0.00    -0.000 C 
BRANCH  25  26
ATOM     26  C   UNL     1      39.733  58.552   4.953  1.00  0.00    -0.000 C 
BRANCH  26  27
ATOM     27  C   UNL     1      39.623  57.200   4.218  1.00  0.00    -0.000 C 
BRANCH  27  28
ATOM     28  C   UNL     1      40.719  57.018   3.158  1.00  0.00    -0.000 C 
BRANCH  28  29
ATOM     29  C   UNL     1      40.970  55.532   2.878  1.00  0.00    -0.003 C 
ATOM     30  C   UNL     1      40.180  54.648   3.839  1.00  0.00     0.004 C 
ENDBRANCH  28  29
ENDBRANCH  27  28
ENDBRANCH  26  27
ENDBRANCH  25  26
ENDBRANCH  24  25
ENDBRANCH  23  24
ENDBRANCH  22  23
ENDBRANCH  21  22
ENDBRANCH  20  21
ENDBRANCH  19  20
ENDBRANCH  18  19
ENDBRANCH  17  18
ENDBRANCH   1  17
TORSDOF 26
ENDMDL
MODEL 6
REMARK VINA RESULT:    -4.484      1.136      4.999
REMARK INTER + INTRA:         -16.739
REMARK INTER:                 -10.491
REMARK INTRA:                  -6.248
REMARK UNBOUND:                -5.440
REMARK SMILES CCCCCCCCCCCCCCCCCCCCCCCCCCCC(=O)[O-]
REMARK SMILES IDX 15 1 16 2 17 3 18 4 19 5 20 6 21 7 22 8 23 9 24 10 25 11
REMARK SMILES IDX 26 12 27 13 28 14 29 15 30 16 14 17 13 18 12 19 11 20 10 21
REMARK SMILES IDX 9 22 8 23 7 24 6 25 5 26 4 27 3 28 2 29 1 30
REMARK H PARENT
REMARK Flexibility Score: inf
ROOT
ATOM      1  C   UNL     1      39.278  61.707   7.255  1.00  0.00     0.000 C 
ENDROOT
BRANCH   1   2
ATOM      2  C   UNL     1      39.380  60.320   7.905  1.00  0.00     0.000 C 
BRANCH   2   3
ATOM      3  C   UNL     1      40.788  60.014   8.439  1.00  0.00     0.000 C 
BRANCH   3   4
ATOM      4  C   UNL     1      41.158  58.525   8.316  1.00  0.00     0.000 C 
BRANCH   4   5
ATOM      5  C   UNL     1      42.647  58.307   8.003  1.00  0.00     0.000 C 
BRANCH   5   6
ATOM      6  C   UNL     1      42.882  57.128   7.041  1.00  0.00     0.000 C 
BRANCH   6   7
ATOM      7  C   UNL     1      41.596  56.333   6.761  1.00  0.00     0.000 C 
BRANCH   7   8
ATOM      8  C   UNL     1      41.661  55.550   5.439  1.00  0.00     0.000 C 
BRANCH   8   9
ATOM      9  C   UNL     1      42.803  56.062   4.554  1.00  0.00     0.000 C 
BRANCH   9  10
ATOM     10  C   UNL     1      42.537  55.749   3.077  1.00  0.00     0.000 C 
BRANCH  10  11
ATOM     11  C   UNL     1      41.041  55.534   2.822  1.00  0.00     0.000 C 
BRANCH  11  12
ATOM     12  C   UNL     1      40.428  56.736   2.090  1.00  0.00     0.006 C 
BRANCH  12  13
ATOM     13  C   UNL     1      41.478  57.540   1.310  1.00  0.00     0.053 C 
BRANCH  13  14
ATOM     14  C   UNL     1      40.846  58.607   0.468  1.00  0.00     0.041 C 
ATOM     15  O   UNL     1      41.333  59.769   0.449  1.00  0.00    -0.550 OA
ATOM     16  O   UNL     1      39.756  58.303  -0.338  1.00  0.00    -0.550 OA
ENDBRANCH  13  14
ENDBRANCH  12  13
ENDBRANCH  11  12
ENDBRANCH  10  11
ENDBRANCH   9  10
ENDBRANCH   8   9
ENDBRANCH   7   8
ENDBRANCH   6   7
ENDBRANCH   5   6
ENDBRANCH   4   5
ENDBRANCH   3   4
ENDBRANCH   2   3
ENDBRANCH   1   2
BRANCH   1  17
ATOM     17  C   UNL     1      39.829  62.791   8.192  1.00  0.00     0.000 C 
BRANCH  17  18
ATOM     18  C   UNL     1      39.969  64.162   7.507  1.00  0.00     0.000 C 
BRANCH  18  19
ATOM     19  C   UNL     1      41.360  64.807   7.629  1.00  0.00     0.000 C 
BRANCH  19  20
ATOM     20  C   UNL     1      42.187  64.696   6.338  1.00  0.00     0.000 C 
BRANCH  20  21
ATOM     21  C   UNL     1      41.395  63.972   5.238  1.00  0.00     0.000 C 
BRANCH  21  22
ATOM     22  C   UNL     1      42.140  62.750   4.668  1.00  0.00    -0.000 C 
BRANCH  22  23
ATOM     23  C   UNL     1      42.601  61.729   5.732  1.00  0.00    -0.000 C 
BRANCH  23  24
ATOM     24  C   UNL     1      43.189  60.434   5.145  1.00  0.00    -0.000 C 
BRANCH  24  25
ATOM     25  C   UNL     1      42.270  59.776   4.105  1.00  0.00    -0.000 C 
BRANCH  25  26
ATOM     26  C   UNL     1      40.923  59.318   4.694  1.00  0.00    -0.000 C 
BRANCH  26  27
ATOM     27  C   UNL     1      39.694  59.913   3.976  1.00  0.00    -0.000 C 
BRANCH  27  28
ATOM     28  C   UNL     1      38.412  59.113   4.249  1.00  0.00    -0.000 C 
BRANCH  28  29
ATOM     29  C   UNL     1      38.642  58.062   5.341  1.00  0.00    -0.003 C 
ATOM     30  C   UNL     1      38.133  56.692   4.904  1.00  0.00     0.004 C 
ENDBRANCH  28  29
ENDBRANCH  27  28
ENDBRANCH  26  27
ENDBRANCH  25  26
ENDBRANCH  24  25
ENDBRANCH  23  24
ENDBRANCH  22  23
ENDBRANCH  21  22
ENDBRANCH  20  21
ENDBRANCH  19  20
ENDBRANCH  18  19
ENDBRANCH  17  18
ENDBRANCH   1  17
TORSDOF 26
ENDMDL
MODEL 7
REMARK VINA RESULT:    -4.482      1.693      2.462
REMARK INTER + INTRA:         -16.734
REMARK INTER:                 -11.374
REMARK INTRA:                  -5.360
REMARK UNBOUND:                -5.440
REMARK SMILES CCCCCCCCCCCCCCCCCCCCCCCCCCCC(=O)[O-]
REMARK SMILES IDX 15 1 16 2 17 3 18 4 19 5 20 6 21 7 22 8 23 9 24 10 25 11
REMARK SMILES IDX 26 12 27 13 28 14 29 15 30 16 14 17 13 18 12 19 11 20 10 21
REMARK SMILES IDX 9 22 8 23 7 24 6 25 5 26 4 27 3 28 2 29 1 30
REMARK H PARENT
REMARK Flexibility Score: inf
ROOT
ATOM      1  C   UNL     1      40.849  62.145   8.429  1.00  0.00     0.000 C 
ENDROOT
BRANCH   1   2
ATOM      2  C   UNL     1      40.540  63.630   8.673  1.00  0.00     0.000 C 
BRANCH   2   3
ATOM      3  C   UNL     1      41.367  64.565   7.779  1.00  0.00     0.000 C 
BRANCH   3   4
ATOM      4  C   UNL     1      40.682  64.854   6.431  1.00  0.00     0.000 C 
BRANCH   4   5
ATOM      5  C   UNL     1      41.256  64.012   5.281  1.00  0.00     0.000 C 
BRANCH   5   6
ATOM      6  C   UNL     1      42.754  64.280   5.042  1.00  0.00     0.000 C 
BRANCH   6   7
ATOM      7  C   UNL     1      43.547  62.987   4.786  1.00  0.00     0.000 C 
BRANCH   7   8
ATOM      8  C   UNL     1      43.088  61.826   5.682  1.00  0.00     0.000 C 
BRANCH   8   9
ATOM      9  C   UNL     1      43.664  60.492   5.192  1.00  0.00     0.000 C 
BRANCH   9  10
ATOM     10  C   UNL     1      43.919  60.525   3.681  1.00  0.00     0.000 C 
BRANCH  10  11
ATOM     11  C   UNL     1      44.795  59.344   3.247  1.00  0.00     0.000 C 
BRANCH  11  12
ATOM     12  C   UNL     1      43.966  58.291   2.497  1.00  0.00     0.006 C 
BRANCH  12  13
ATOM     13  C   UNL     1      43.488  58.793   1.128  1.00  0.00     0.053 C 
BRANCH  13  14
ATOM     14  C   UNL     1      44.627  59.298   0.294  1.00  0.00     0.041 C 
ATOM     15  O   UNL     1      44.624  60.486  -0.127  1.00  0.00    -0.550 OA
ATOM     16  O   UNL     1      45.714  58.476   0.030  1.00  0.00    -0.550 OA
ENDBRANCH  13  14
ENDBRANCH  12  13
ENDBRANCH  11  12
ENDBRANCH  10  11
ENDBRANCH   9  10
ENDBRANCH   8   9
ENDBRANCH   7   8
ENDBRANCH   6   7
ENDBRANCH   5   6
ENDBRANCH   4   5
ENDBRANCH   3   4
ENDBRANCH   2   3
ENDBRANCH   1   2
BRANCH   1  17
ATOM     17  C   UNL     1      39.724  61.478   7.626  1.00  0.00     0.000 C 
BRANCH  17  18
ATOM     18  C   UNL     1      39.539  59.991   7.973  1.00  0.00     0.000 C 
BRANCH  18  19
ATOM     19  C   UNL     1      40.839  59.240   8.313  1.00  0.00     0.000 C 
BRANCH  19  20
ATOM     20  C   UNL     1      40.607  57.752   8.622  1.00  0.00     0.000 C 
BRANCH  20  21
ATOM     21  C   UNL     1      41.662  56.874   7.931  1.00  0.00     0.000 C 
BRANCH  21  22
ATOM     22  C   UNL     1      42.696  57.693   7.136  1.00  0.00    -0.000 C 
BRANCH  22  23
ATOM     23  C   UNL     1      43.505  56.875   6.105  1.00  0.00    -0.000 C 
BRANCH  23  24
ATOM     24  C   UNL     1      42.814  55.575   5.657  1.00  0.00    -0.000 C 
BRANCH  24  25
ATOM     25  C   UNL     1      42.021  55.737   4.352  1.00  0.00    -0.000 C 
BRANCH  25  26
ATOM     26  C   UNL     1      40.501  55.597   4.548  1.00  0.00    -0.000 C 
BRANCH  26  27
ATOM     27  C   UNL     1      39.784  56.933   4.835  1.00  0.00    -0.000 C 
BRANCH  27  28
ATOM     28  C   UNL     1      40.181  58.036   3.842  1.00  0.00    -0.000 C 
BRANCH  28  29
ATOM     29  C   UNL     1      40.418  59.367   4.566  1.00  0.00    -0.003 C 
ATOM     30  C   UNL     1      40.196  60.551   3.631  1.00  0.00     0.004 C 
ENDBRANCH  28  29
ENDBRANCH  27  28
ENDBRANCH  26  27
ENDBRANCH  25  26
ENDBRANCH  24  25
ENDBRANCH  23  24
ENDBRANCH  22  23
ENDBRANCH  21  22
ENDBRANCH  20  21
ENDBRANCH  19  20
ENDBRANCH  18  19
ENDBRANCH  17  18
ENDBRANCH   1  17
TORSDOF 26
ENDMDL
MODEL 8
REMARK VINA RESULT:    -4.477      1.724      2.541
REMARK INTER + INTRA:         -16.722
REMARK INTER:                 -11.540
REMARK INTRA:                  -5.182
REMARK UNBOUND:                -5.440
REMARK SMILES CCCCCCCCCCCCCCCCCCCCCCCCCCCC(=O)[O-]
REMARK SMILES IDX 15 1 16 2 17 3 18 4 19 5 20 6 21 7 22 8 23 9 24 10 25 11
REMARK SMILES IDX 26 12 27 13 28 14 29 15 30 16 14 17 13 18 12 19 11 20 10 21
REMARK SMILES IDX 9 22 8 23 7 24 6 25 5 26 4 27 3 28 2 29 1 30
REMARK H PARENT
REMARK Flexibility Score: inf
ROOT
ATOM      1  C   UNL     1      39.757  62.048   7.976  1.00  0.00     0.000 C 
ENDROOT
BRANCH   1   2
ATOM      2  C   UNL     1      40.288  63.263   8.752  1.00  0.00     0.000 C 
BRANCH   2   3
ATOM      3  C   UNL     1      39.640  64.583   8.307  1.00  0.00     0.000 C 
BRANCH   3   4
ATOM      4  C   UNL     1      39.136  64.535   6.852  1.00  0.00     0.000 C 
BRANCH   4   5
ATOM      5  C   UNL     1      40.148  65.119   5.855  1.00  0.00     0.000 C 
BRANCH   5   6
ATOM      6  C   UNL     1      40.899  64.029   5.067  1.00  0.00     0.000 C 
BRANCH   6   7
ATOM      7  C   UNL     1      42.327  63.806   5.593  1.00  0.00     0.000 C 
BRANCH   7   8
ATOM      8  C   UNL     1      42.740  62.325   5.565  1.00  0.00     0.000 C 
BRANCH   8   9
ATOM      9  C   UNL     1      41.699  61.477   4.825  1.00  0.00     0.000 C 
BRANCH   9  10
ATOM     10  C   UNL     1      42.054  59.988   4.891  1.00  0.00     0.000 C 
BRANCH  10  11
ATOM     11  C   UNL     1      42.813  59.547   3.634  1.00  0.00     0.000 C 
BRANCH  11  12
ATOM     12  C   UNL     1      43.781  58.399   3.950  1.00  0.00     0.006 C 
BRANCH  12  13
ATOM     13  C   UNL     1      44.950  58.333   2.958  1.00  0.00     0.053 C 
BRANCH  13  14
ATOM     14  C   UNL     1      44.812  57.176   2.014  1.00  0.00     0.041 C 
ATOM     15  O   UNL     1      45.792  56.813   1.311  1.00  0.00    -0.550 OA
ATOM     16  O   UNL     1      43.620  56.466   1.954  1.00  0.00    -0.550 OA
ENDBRANCH  13  14
ENDBRANCH  12  13
ENDBRANCH  11  12
ENDBRANCH  10  11
ENDBRANCH   9  10
ENDBRANCH   8   9
ENDBRANCH   7   8
ENDBRANCH   6   7
ENDBRANCH   5   6
ENDBRANCH   4   5
ENDBRANCH   3   4
ENDBRANCH   2   3
ENDBRANCH   1   2
BRANCH   1  17
ATOM     17  C   UNL     1      40.521  60.775   8.366  1.00  0.00     0.000 C 
BRANCH  17  18
ATOM     18  C   UNL     1      39.750  59.486   8.032  1.00  0.00     0.000 C 
BRANCH  18  19
ATOM     19  C   UNL     1      40.581  58.194   8.120  1.00  0.00     0.000 C 
BRANCH  19  20
ATOM     20  C   UNL     1      42.096  58.455   8.127  1.00  0.00     0.000 C 
BRANCH  20  21
ATOM     21  C   UNL     1      42.842  57.397   7.299  1.00  0.00     0.000 C 
BRANCH  21  22
ATOM     22  C   UNL     1      41.996  56.139   7.032  1.00  0.00    -0.000 C 
BRANCH  22  23
ATOM     23  C   UNL     1      42.360  55.386   5.732  1.00  0.00    -0.000 C 
BRANCH  23  24
ATOM     24  C   UNL     1      41.389  55.642   4.567  1.00  0.00    -0.000 C 
BRANCH  24  25
ATOM     25  C   UNL     1      40.051  56.243   5.022  1.00  0.00    -0.000 C 
BRANCH  25  26
ATOM     26  C   UNL     1      39.760  57.616   4.390  1.00  0.00    -0.000 C 
BRANCH  26  27
ATOM     27  C   UNL     1      38.403  58.220   4.808  1.00  0.00    -0.000 C 
BRANCH  27  28
ATOM     28  C   UNL     1      38.285  59.707   4.444  1.00  0.00    -0.000 C 
BRANCH  28  29
ATOM     29  C   UNL     1      38.748  59.957   3.004  1.00  0.00    -0.003 C 
ATOM     30  C   UNL     1      37.687  59.517   1.999  1.00  0.00     0.004 C 
ENDBRANCH  28  29
ENDBRANCH  27  28
ENDBRANCH  26  27
ENDBRANCH  25  26
ENDBRANCH  24  25
ENDBRANCH  23  24
ENDBRANCH  22  23
ENDBRANCH  21  22
ENDBRANCH  20  21
ENDBRANCH  19  20
ENDBRANCH  18  19
ENDBRANCH  17  18
ENDBRANCH   1  17
TORSDOF 26
ENDMDL
MODEL 9
REMARK VINA RESULT:    -4.438      2.062      4.608
REMARK INTER + INTRA:         -16.622
REMARK INTER:                 -11.175
REMARK INTRA:                  -5.448
REMARK UNBOUND:                -5.440
REMARK SMILES CCCCCCCCCCCCCCCCCCCCCCCCCCCC(=O)[O-]
REMARK SMILES IDX 15 1 16 2 17 3 18 4 19 5 20 6 21 7 22 8 23 9 24 10 25 11
REMARK SMILES IDX 26 12 27 13 28 14 29 15 30 16 14 17 13 18 12 19 11 20 10 21
REMARK SMILES IDX 9 22 8 23 7 24 6 25 5 26 4 27 3 28 2 29 1 30
REMARK H PARENT
REMARK Flexibility Score: inf
ROOT
ATOM      1  C   UNL     1      40.751  65.121   5.643  1.00  0.00     0.000 C 
ENDROOT
BRANCH   1   2
ATOM      2  C   UNL     1      42.095  64.388   5.765  1.00  0.00     0.000 C 
BRANCH   2   3
ATOM      3  C   UNL     1      42.024  62.931   5.284  1.00  0.00     0.000 C 
BRANCH   3   4
ATOM      4  C   UNL     1      43.306  62.483   4.559  1.00  0.00     0.000 C 
BRANCH   4   5
ATOM      5  C   UNL     1      44.062  61.380   5.315  1.00  0.00     0.000 C 
BRANCH   5   6
ATOM      6  C   UNL     1      43.739  59.971   4.784  1.00  0.00     0.000 C 
BRANCH   6   7
ATOM      7  C   UNL     1      44.379  59.701   3.412  1.00  0.00     0.000 C 
BRANCH   7   8
ATOM      8  C   UNL     1      43.336  59.384   2.328  1.00  0.00     0.000 C 
BRANCH   8   9
ATOM      9  C   UNL     1      41.937  59.236   2.937  1.00  0.00     0.000 C 
BRANCH   9  10
ATOM     10  C   UNL     1      40.988  60.315   2.403  1.00  0.00     0.000 C 
BRANCH  10  11
ATOM     11  C   UNL     1      39.844  60.578   3.389  1.00  0.00     0.000 C 
BRANCH  11  12
ATOM     12  C   UNL     1      39.997  59.715   4.651  1.00  0.00     0.006 C 
BRANCH  12  13
ATOM     13  C   UNL     1      38.661  59.499   5.374  1.00  0.00     0.053 C 
BRANCH  13  14
ATOM     14  C   UNL     1      38.584  58.141   6.003  1.00  0.00     0.041 C 
ATOM     15  O   UNL     1      38.966  57.125   5.363  1.00  0.00    -0.550 OA
ATOM     16  O   UNL     1      38.147  58.006   7.315  1.00  0.00    -0.550 OA
ENDBRANCH  13  14
ENDBRANCH  12  13
ENDBRANCH  11  12
ENDBRANCH  10  11
ENDBRANCH   9  10
ENDBRANCH   8   9
ENDBRANCH   7   8
ENDBRANCH   6   7
ENDBRANCH   5   6
ENDBRANCH   4   5
ENDBRANCH   3   4
ENDBRANCH   2   3
ENDBRANCH   1   2
BRANCH   1  17
ATOM     17  C   UNL     1      39.689  64.466   6.539  1.00  0.00     0.000 C 
BRANCH  17  18
ATOM     18  C   UNL     1      40.020  64.574   8.038  1.00  0.00     0.000 C 
BRANCH  18  19
ATOM     19  C   UNL     1      40.222  63.227   8.754  1.00  0.00     0.000 C 
BRANCH  19  20
ATOM     20  C   UNL     1      39.576  62.049   8.008  1.00  0.00     0.000 C 
BRANCH  20  21
ATOM     21  C   UNL     1      40.236  60.718   8.402  1.00  0.00     0.000 C 
BRANCH  21  22
ATOM     22  C   UNL     1      41.753  60.700   8.140  1.00  0.00    -0.000 C 
BRANCH  22  23
ATOM     23  C   UNL     1      42.362  59.287   7.999  1.00  0.00    -0.000 C 
BRANCH  23  24
ATOM     24  C   UNL     1      41.434  58.155   8.476  1.00  0.00    -0.000 C 
BRANCH  24  25
ATOM     25  C   UNL     1      41.618  56.855   7.681  1.00  0.00    -0.000 C 
BRANCH  25  26
ATOM     26  C   UNL     1      42.762  56.931   6.654  1.00  0.00    -0.000 C 
BRANCH  26  27
ATOM     27  C   UNL     1      42.938  55.644   5.820  1.00  0.00    -0.000 C 
BRANCH  27  28
ATOM     28  C   UNL     1      42.369  55.783   4.401  1.00  0.00    -0.000 C 
BRANCH  28  29
ATOM     29  C   UNL     1      43.487  55.733   3.354  1.00  0.00    -0.003 C 
ATOM     30  C   UNL     1      42.955  55.275   1.999  1.00  0.00     0.004 C 
ENDBRANCH  28  29
ENDBRANCH  27  28
ENDBRANCH  26  27
ENDBRANCH  25  26
ENDBRANCH  24  25
ENDBRANCH  23  24
ENDBRANCH  22  23
ENDBRANCH  21  22
ENDBRANCH  20  21
ENDBRANCH  19  20
ENDBRANCH  18  19
ENDBRANCH  17  18
ENDBRANCH   1  17
TORSDOF 26
ENDMDL
