MODEL 1
REMARK VINA RESULT:    -5.123      0.000      0.000
REMARK INTER + INTRA:         -10.288
REMARK INTER:                  -9.315
REMARK INTRA:                  -0.972
REMARK UNBOUND:                -0.972
REMARK SMILES CCCCCCCCCCCCCCCC(=O)[O-]
REMARK SMILES IDX 9 1 10 2 11 3 12 4 13 5 14 6 15 7 16 8 17 9 18 10 8 11 7 12
REMARK SMILES IDX 6 13 5 14 4 15 3 16 2 17 1 18
REMARK H PARENT
REMARK Flexibility Score: inf
ROOT
ATOM      1  C   UNL     1       9.614  53.511  23.875  1.00  0.00     0.000 C 
ENDROOT
BRANCH   1   2
ATOM      2  C   UNL     1      10.351  53.597  22.525  1.00  0.00     0.000 C 
BRANCH   2   3
ATOM      3  C   UNL     1      10.281  52.325  21.660  1.00  0.00     0.000 C 
BRANCH   3   4
ATOM      4  C   UNL     1       9.819  51.058  22.406  1.00  0.00     0.000 C 
BRANCH   4   5
ATOM      5  C   UNL     1      10.933  50.012  22.555  1.00  0.00     0.000 C 
BRANCH   5   6
ATOM      6  C   UNL     1      10.349  48.598  22.655  1.00  0.00     0.006 C 
BRANCH   6   7
ATOM      7  C   UNL     1      11.458  47.556  22.834  1.00  0.00     0.053 C 
BRANCH   7   8
ATOM      8  C   UNL     1      12.383  47.958  23.938  1.00  0.00     0.041 C 
ATOM      9  O   UNL     1      13.553  48.342  23.676  1.00  0.00    -0.550 OA
ATOM     10  O   UNL     1      11.936  47.957  25.253  1.00  0.00    -0.550 OA
ENDBRANCH   7   8
ENDBRANCH   6   7
ENDBRANCH   5   6
ENDBRANCH   4   5
ENDBRANCH   3   4
ENDBRANCH   2   3
ENDBRANCH   1   2
BRANCH   1  11
ATOM     11  C   UNL     1       8.196  54.123  23.850  1.00  0.00     0.000 C 
BRANCH  11  12
ATOM     12  C   UNL     1       7.300  53.491  22.771  1.00  0.00    -0.000 C 
BRANCH  12  13
ATOM     13  C   UNL     1       6.473  54.532  21.998  1.00  0.00    -0.000 C 
BRANCH  13  14
ATOM     14  C   UNL     1       7.331  55.637  21.345  1.00  0.00    -0.000 C 
BRANCH  14  15
ATOM     15  C   UNL     1       8.041  55.141  20.072  1.00  0.00    -0.000 C 
BRANCH  15  16
ATOM     16  C   UNL     1       7.336  55.598  18.785  1.00  0.00    -0.000 C 
BRANCH  16  17
ATOM     17  C   UNL     1       6.931  54.422  17.884  1.00  0.00    -0.003 C 
ATOM     18  C   UNL     1       6.547  54.906  16.489  1.00  0.00     0.004 C 
ENDBRANCH  16  17
ENDBRANCH  15  16
ENDBRANCH  14  15
ENDBRANCH  13  14
ENDBRANCH  12  13
ENDBRANCH  11  12
ENDBRANCH   1  11
TORSDOF 14
ENDMDL
MODEL 2
REMARK VINA RESULT:    -5.119      6.613     10.220
REMARK INTER + INTRA:         -10.280
REMARK INTER:                  -9.324
REMARK INTRA:                  -0.956
REMARK UNBOUND:                -0.972
REMARK SMILES CCCCCCCCCCCCCCCC(=O)[O-]
REMARK SMILES IDX 9 1 10 2 11 3 12 4 13 5 14 6 15 7 16 8 17 9 18 10 8 11 7 12
REMARK SMILES IDX 6 13 5 14 4 15 3 16 2 17 1 18
REMARK H PARENT
REMARK Flexibility Score: inf
ROOT
ATOM      1  C   UNL     1       5.961  56.890  20.375  1.00  0.00     0.000 C 
ENDROOT
BRANCH   1   2
ATOM      2  C   UNL     1       4.654  57.283  21.090  1.00  0.00     0.000 C 
BRANCH   2   3
ATOM      3  C   UNL     1       3.800  58.335  20.358  1.00  0.00     0.000 C 
BRANCH   3   4
ATOM      4  C   UNL     1       2.358  58.477  20.882  1.00  0.00     0.000 C 
BRANCH   4   5
ATOM      5  C   UNL     1       2.122  59.796  21.632  1.00  0.00     0.000 C 
BRANCH   5   6
ATOM      6  C   UNL     1       0.991  59.651  22.656  1.00  0.00     0.006 C 
BRANCH   6   7
ATOM      7  C   UNL     1       0.103  58.446  22.330  1.00  0.00     0.053 C 
BRANCH   7   8
ATOM      8  C   UNL     1      -0.299  57.736  23.583  1.00  0.00     0.041 C 
ATOM      9  O   UNL     1      -0.049  58.244  24.708  1.00  0.00    -0.550 OA
ATOM     10  O   UNL     1      -0.995  56.536  23.509  1.00  0.00    -0.550 OA
ENDBRANCH   7   8
ENDBRANCH   6   7
ENDBRANCH   5   6
ENDBRANCH   4   5
ENDBRANCH   3   4
ENDBRANCH   2   3
ENDBRANCH   1   2
BRANCH   1  11
ATOM     11  C   UNL     1       6.982  56.179  21.288  1.00  0.00     0.000 C 
BRANCH  11  12
ATOM     12  C   UNL     1       6.554  54.744  21.643  1.00  0.00    -0.000 C 
BRANCH  12  13
ATOM     13  C   UNL     1       7.611  53.695  21.259  1.00  0.00    -0.000 C 
BRANCH  13  14
ATOM     14  C   UNL     1       8.954  54.310  20.811  1.00  0.00    -0.000 C 
BRANCH  14  15
ATOM     15  C   UNL     1      10.161  53.535  21.371  1.00  0.00    -0.000 C 
BRANCH  15  16
ATOM     16  C   UNL     1       9.936  53.048  22.811  1.00  0.00    -0.000 C 
BRANCH  16  17
ATOM     17  C   UNL     1      10.315  54.105  23.858  1.00  0.00    -0.003 C 
ATOM     18  C   UNL     1       9.192  54.302  24.872  1.00  0.00     0.004 C 
ENDBRANCH  16  17
ENDBRANCH  15  16
ENDBRANCH  14  15
ENDBRANCH  13  14
ENDBRANCH  12  13
ENDBRANCH  11  12
ENDBRANCH   1  11
TORSDOF 14
ENDMDL
MODEL 3
REMARK VINA RESULT:    -5.107      7.164     10.875
REMARK INTER + INTRA:         -10.258
REMARK INTER:                  -9.498
REMARK INTRA:                  -0.760
REMARK UNBOUND:                -0.972
REMARK SMILES CCCCCCCCCCCCCCCC(=O)[O-]
REMARK SMILES IDX 9 1 10 2 11 3 12 4 13 5 14 6 15 7 16 8 17 9 18 10 8 11 7 12
REMARK SMILES IDX 6 13 5 14 4 15 3 16 2 17 1 18
REMARK H PARENT
REMARK Flexibility Score: inf
ROOT
ATOM      1  C   UNL     1       5.736  56.127  21.109  1.00  0.00     0.000 C 
ENDROOT
BRANCH   1   2
ATOM      2  C   UNL     1       4.607  57.131  21.411  1.00  0.00     0.000 C 
BRANCH   2   3
ATOM      3  C   UNL     1       4.261  58.090  20.257  1.00  0.00     0.000 C 
BRANCH   3   4
ATOM      4  C   UNL     1       3.166  59.125  20.581  1.00  0.00     0.000 C 
BRANCH   4   5
ATOM      5  C   UNL     1       1.990  59.079  19.595  1.00  0.00     0.000 C 
BRANCH   5   6
ATOM      6  C   UNL     1       2.395  59.646  18.230  1.00  0.00     0.006 C 
BRANCH   6   7
ATOM      7  C   UNL     1       1.162  59.972  17.381  1.00  0.00     0.053 C 
BRANCH   7   8
ATOM      8  C   UNL     1       1.299  59.388  16.011  1.00  0.00     0.041 C 
ATOM      9  O   UNL     1       0.424  58.598  15.568  1.00  0.00    -0.550 OA
ATOM     10  O   UNL     1       2.369  59.755  15.204  1.00  0.00    -0.550 OA
ENDBRANCH   7   8
ENDBRANCH   6   7
ENDBRANCH   5   6
ENDBRANCH   4   5
ENDBRANCH   3   4
ENDBRANCH   2   3
ENDBRANCH   1   2
BRANCH   1  11
ATOM     11  C   UNL     1       6.681  56.575  19.974  1.00  0.00     0.000 C 
BRANCH  11  12
ATOM     12  C   UNL     1       8.018  55.814  19.986  1.00  0.00    -0.000 C 
BRANCH  12  13
ATOM     13  C   UNL     1       8.179  54.911  21.220  1.00  0.00    -0.000 C 
BRANCH  13  14
ATOM     14  C   UNL     1       9.399  53.968  21.136  1.00  0.00    -0.000 C 
BRANCH  14  15
ATOM     15  C   UNL     1       9.903  53.549  22.529  1.00  0.00    -0.000 C 
BRANCH  15  16
ATOM     16  C   UNL     1       9.806  54.684  23.560  1.00  0.00    -0.000 C 
BRANCH  16  17
ATOM     17  C   UNL     1       9.008  54.281  24.809  1.00  0.00    -0.003 C 
ATOM     18  C   UNL     1       8.051  53.133  24.502  1.00  0.00     0.004 C 
ENDBRANCH  16  17
ENDBRANCH  15  16
ENDBRANCH  14  15
ENDBRANCH  13  14
ENDBRANCH  12  13
ENDBRANCH  11  12
ENDBRANCH   1  11
TORSDOF 14
ENDMDL
MODEL 4
REMARK VINA RESULT:    -5.035      7.348     10.986
REMARK INTER + INTRA:         -10.129
REMARK INTER:                  -9.479
REMARK INTRA:                  -0.649
REMARK UNBOUND:                -0.972
REMARK SMILES CCCCCCCCCCCCCCCC(=O)[O-]
REMARK SMILES IDX 9 1 10 2 11 3 12 4 13 5 14 6 15 7 16 8 17 9 18 10 8 11 7 12
REMARK SMILES IDX 6 13 5 14 4 15 3 16 2 17 1 18
REMARK H PARENT
REMARK Flexibility Score: inf
ROOT
ATOM      1  C   UNL     1       4.997  56.654  21.171  1.00  0.00     0.000 C 
ENDROOT
BRANCH   1   2
ATOM      2  C   UNL     1       4.342  57.843  20.443  1.00  0.00     0.000 C 
BRANCH   2   3
ATOM      3  C   UNL     1       3.228  58.558  21.231  1.00  0.00     0.000 C 
BRANCH   3   4
ATOM      4  C   UNL     1       2.660  59.818  20.552  1.00  0.00     0.000 C 
BRANCH   4   5
ATOM      5  C   UNL     1       1.581  59.500  19.507  1.00  0.00     0.000 C 
BRANCH   5   6
ATOM      6  C   UNL     1       2.153  59.569  18.087  1.00  0.00     0.006 C 
BRANCH   6   7
ATOM      7  C   UNL     1       1.103  60.076  17.094  1.00  0.00     0.053 C 
BRANCH   7   8
ATOM      8  C   UNL     1       1.356  59.515  15.731  1.00  0.00     0.041 C 
ATOM      9  O   UNL     1       2.226  60.034  14.983  1.00  0.00    -0.550 OA
ATOM     10  O   UNL     1       0.666  58.387  15.305  1.00  0.00    -0.550 OA
ENDBRANCH   7   8
ENDBRANCH   6   7
ENDBRANCH   5   6
ENDBRANCH   4   5
ENDBRANCH   3   4
ENDBRANCH   2   3
ENDBRANCH   1   2
BRANCH   1  11
ATOM     11  C   UNL     1       6.539  56.654  21.101  1.00  0.00     0.000 C 
BRANCH  11  12
ATOM     12  C   UNL     1       7.067  56.248  19.714  1.00  0.00    -0.000 C 
BRANCH  12  13
ATOM     13  C   UNL     1       7.038  54.727  19.487  1.00  0.00    -0.000 C 
BRANCH  13  14
ATOM     14  C   UNL     1       7.603  53.917  20.673  1.00  0.00    -0.000 C 
BRANCH  14  15
ATOM     15  C   UNL     1       9.070  54.273  20.970  1.00  0.00    -0.000 C 
BRANCH  15  16
ATOM     16  C   UNL     1       9.797  53.174  21.762  1.00  0.00    -0.000 C 
BRANCH  16  17
ATOM     17  C   UNL     1      10.233  53.643  23.158  1.00  0.00    -0.003 C 
ATOM     18  C   UNL     1       9.577  54.972  23.521  1.00  0.00     0.004 C 
ENDBRANCH  16  17
ENDBRANCH  15  16
ENDBRANCH  14  15
ENDBRANCH  13  14
ENDBRANCH  12  13
ENDBRANCH  11  12
ENDBRANCH   1  11
TORSDOF 14
ENDMDL
MODEL 5
REMARK VINA RESULT:    -5.013      3.804      7.481
REMARK INTER + INTRA:         -10.088
REMARK INTER:                  -8.628
REMARK INTRA:                  -1.460
REMARK UNBOUND:                -0.972
REMARK SMILES CCCCCCCCCCCCCCCC(=O)[O-]
REMARK SMILES IDX 9 1 10 2 11 3 12 4 13 5 14 6 15 7 16 8 17 9 18 10 8 11 7 12
REMARK SMILES IDX 6 13 5 14 4 15 3 16 2 17 1 18
REMARK H PARENT
REMARK Flexibility Score: inf
ROOT
ATOM      1  C   UNL     1       9.413  54.569  24.021  1.00  0.00     0.000 C 
ENDROOT
BRANCH   1   2
ATOM      2  C   UNL     1       8.162  53.802  24.489  1.00  0.00     0.000 C 
BRANCH   2   3
ATOM      3  C   UNL     1       7.119  53.520  23.391  1.00  0.00     0.000 C 
BRANCH   3   4
ATOM      4  C   UNL     1       7.046  54.581  22.278  1.00  0.00     0.000 C 
BRANCH   4   5
ATOM      5  C   UNL     1       6.966  53.969  20.872  1.00  0.00     0.000 C 
BRANCH   5   6
ATOM      6  C   UNL     1       7.885  54.713  19.896  1.00  0.00     0.006 C 
BRANCH   6   7
ATOM      7  C   UNL     1       7.072  55.528  18.886  1.00  0.00     0.053 C 
BRANCH   7   8
ATOM      8  C   UNL     1       6.876  54.753  17.622  1.00  0.00     0.041 C 
ATOM      9  O   UNL     1       6.907  55.338  16.508  1.00  0.00    -0.550 OA
ATOM     10  O   UNL     1       6.709  53.375  17.672  1.00  0.00    -0.550 OA
ENDBRANCH   7   8
ENDBRANCH   6   7
ENDBRANCH   5   6
ENDBRANCH   4   5
ENDBRANCH   3   4
ENDBRANCH   2   3
ENDBRANCH   1   2
BRANCH   1  11
ATOM     11  C   UNL     1      10.560  53.655  23.540  1.00  0.00     0.000 C 
BRANCH  11  12
ATOM     12  C   UNL     1      10.626  53.551  22.006  1.00  0.00    -0.000 C 
BRANCH  12  13
ATOM     13  C   UNL     1      10.031  52.238  21.471  1.00  0.00    -0.000 C 
BRANCH  13  14
ATOM     14  C   UNL     1       9.856  51.155  22.556  1.00  0.00    -0.000 C 
BRANCH  14  15
ATOM     15  C   UNL     1      10.896  50.028  22.422  1.00  0.00    -0.000 C 
BRANCH  15  16
ATOM     16  C   UNL     1      10.324  48.648  22.785  1.00  0.00    -0.000 C 
BRANCH  16  17
ATOM     17  C   UNL     1      11.245  47.856  23.725  1.00  0.00    -0.003 C 
ATOM     18  C   UNL     1      12.703  48.272  23.545  1.00  0.00     0.004 C 
ENDBRANCH  16  17
ENDBRANCH  15  16
ENDBRANCH  14  15
ENDBRANCH  13  14
ENDBRANCH  12  13
ENDBRANCH  11  12
ENDBRANCH   1  11
TORSDOF 14
ENDMDL
MODEL 6
REMARK VINA RESULT:    -4.992      1.133      2.238
REMARK INTER + INTRA:         -10.049
REMARK INTER:                  -9.107
REMARK INTRA:                  -0.943
REMARK UNBOUND:                -0.972
REMARK SMILES CCCCCCCCCCCCCCCC(=O)[O-]
REMARK SMILES IDX 9 1 10 2 11 3 12 4 13 5 14 6 15 7 16 8 17 9 18 10 8 11 7 12
REMARK SMILES IDX 6 13 5 14 4 15 3 16 2 17 1 18
REMARK H PARENT
REMARK Flexibility Score: inf
ROOT
ATOM      1  C   UNL     1      10.152  52.492  21.957  1.00  0.00     0.000 C 
ENDROOT
BRANCH   1   2
ATOM      2  C   UNL     1       9.807  50.992  22.024  1.00  0.00     0.000 C 
BRANCH   2   3
ATOM      3  C   UNL     1      10.847  50.114  22.746  1.00  0.00     0.000 C 
BRANCH   3   4
ATOM      4  C   UNL     1      10.482  48.621  22.838  1.00  0.00     0.000 C 
BRANCH   4   5
ATOM      5  C   UNL     1      11.702  47.698  22.704  1.00  0.00     0.000 C 
BRANCH   5   6
ATOM      6  C   UNL     1      12.656  47.872  23.892  1.00  0.00     0.006 C 
BRANCH   6   7
ATOM      7  C   UNL     1      12.018  47.365  25.189  1.00  0.00     0.053 C 
BRANCH   7   8
ATOM      8  C   UNL     1      12.782  47.859  26.376  1.00  0.00     0.041 C 
ATOM      9  O   UNL     1      12.241  47.881  27.513  1.00  0.00    -0.550 OA
ATOM     10  O   UNL     1      14.108  48.247  26.237  1.00  0.00    -0.550 OA
ENDBRANCH   7   8
ENDBRANCH   6   7
ENDBRANCH   5   6
ENDBRANCH   4   5
ENDBRANCH   3   4
ENDBRANCH   2   3
ENDBRANCH   1   2
BRANCH   1  11
ATOM     11  C   UNL     1       9.974  53.232  23.300  1.00  0.00     0.000 C 
BRANCH  11  12
ATOM     12  C   UNL     1       8.839  54.269  23.256  1.00  0.00    -0.000 C 
BRANCH  12  13
ATOM     13  C   UNL     1       7.511  53.679  22.751  1.00  0.00    -0.000 C 
BRANCH  13  14
ATOM     14  C   UNL     1       6.743  54.620  21.798  1.00  0.00    -0.000 C 
BRANCH  14  15
ATOM     15  C   UNL     1       7.651  55.714  21.208  1.00  0.00    -0.000 C 
BRANCH  15  16
ATOM     16  C   UNL     1       7.935  55.504  19.712  1.00  0.00    -0.000 C 
BRANCH  16  17
ATOM     17  C   UNL     1       6.903  54.588  19.038  1.00  0.00    -0.003 C 
ATOM     18  C   UNL     1       6.971  54.708  17.518  1.00  0.00     0.004 C 
ENDBRANCH  16  17
ENDBRANCH  15  16
ENDBRANCH  14  15
ENDBRANCH  13  14
ENDBRANCH  12  13
ENDBRANCH  11  12
ENDBRANCH   1  11
TORSDOF 14
ENDMDL
MODEL 7
REMARK VINA RESULT:    -4.980      1.764      2.138
REMARK INTER + INTRA:         -10.027
REMARK INTER:                  -9.162
REMARK INTRA:                  -0.866
REMARK UNBOUND:                -0.972
REMARK SMILES CCCCCCCCCCCCCCCC(=O)[O-]
REMARK SMILES IDX 9 1 10 2 11 3 12 4 13 5 14 6 15 7 16 8 17 9 18 10 8 11 7 12
REMARK SMILES IDX 6 13 5 14 4 15 3 16 2 17 1 18
REMARK H PARENT
REMARK Flexibility Score: inf
ROOT
ATOM      1  C   UNL     1       9.924  53.319  21.433  1.00  0.00     0.000 C 
ENDROOT
BRANCH   1   2
ATOM      2  C   UNL     1      10.391  52.247  22.435  1.00  0.00     0.000 C 
BRANCH   2   3
ATOM      3  C   UNL     1      10.116  50.791  22.012  1.00  0.00     0.000 C 
BRANCH   3   4
ATOM      4  C   UNL     1      10.876  49.725  22.823  1.00  0.00     0.000 C 
BRANCH   4   5
ATOM      5  C   UNL     1      10.274  48.321  22.677  1.00  0.00     0.000 C 
BRANCH   5   6
ATOM      6  C   UNL     1       9.861  47.755  24.041  1.00  0.00     0.006 C 
BRANCH   6   7
ATOM      7  C   UNL     1       9.219  46.372  23.892  1.00  0.00     0.053 C 
BRANCH   7   8
ATOM      8  C   UNL     1      10.247  45.297  24.053  1.00  0.00     0.041 C 
ATOM      9  O   UNL     1      10.584  44.590  23.067  1.00  0.00    -0.550 OA
ATOM     10  O   UNL     1      10.868  45.109  25.281  1.00  0.00    -0.550 OA
ENDBRANCH   7   8
ENDBRANCH   6   7
ENDBRANCH   5   6
ENDBRANCH   4   5
ENDBRANCH   3   4
ENDBRANCH   2   3
ENDBRANCH   1   2
BRANCH   1  11
ATOM     11  C   UNL     1       9.081  54.443  22.071  1.00  0.00     0.000 C 
BRANCH  11  12
ATOM     12  C   UNL     1       7.628  54.012  22.335  1.00  0.00    -0.000 C 
BRANCH  12  13
ATOM     13  C   UNL     1       6.665  54.443  21.216  1.00  0.00    -0.000 C 
BRANCH  13  14
ATOM     14  C   UNL     1       6.745  55.948  20.881  1.00  0.00    -0.000 C 
BRANCH  14  15
ATOM     15  C   UNL     1       7.245  56.197  19.447  1.00  0.00    -0.000 C 
BRANCH  15  16
ATOM     16  C   UNL     1       7.484  54.893  18.669  1.00  0.00    -0.000 C 
BRANCH  16  17
ATOM     17  C   UNL     1       6.996  54.976  17.215  1.00  0.00    -0.003 C 
ATOM     18  C   UNL     1       5.942  53.910  16.928  1.00  0.00     0.004 C 
ENDBRANCH  16  17
ENDBRANCH  15  16
ENDBRANCH  14  15
ENDBRANCH  13  14
ENDBRANCH  12  13
ENDBRANCH  11  12
ENDBRANCH   1  11
TORSDOF 14
ENDMDL
MODEL 8
REMARK VINA RESULT:    -4.941      1.666      3.127
REMARK INTER + INTRA:          -9.958
REMARK INTER:                  -9.145
REMARK INTRA:                  -0.813
REMARK UNBOUND:                -0.972
REMARK SMILES CCCCCCCCCCCCCCCC(=O)[O-]
REMARK SMILES IDX 9 1 10 2 11 3 12 4 13 5 14 6 15 7 16 8 17 9 18 10 8 11 7 12
REMARK SMILES IDX 6 13 5 14 4 15 3 16 2 17 1 18
REMARK H PARENT
REMARK Flexibility Score: inf
ROOT
ATOM      1  C   UNL     1       9.759  51.079  22.336  1.00  0.00     0.000 C 
ENDROOT
BRANCH   1   2
ATOM      2  C   UNL     1      10.938  50.145  22.670  1.00  0.00     0.000 C 
BRANCH   2   3
ATOM      3  C   UNL     1      10.571  48.656  22.816  1.00  0.00     0.000 C 
BRANCH   3   4
ATOM      4  C   UNL     1      11.753  47.680  22.671  1.00  0.00     0.000 C 
BRANCH   4   5
ATOM      5  C   UNL     1      12.883  47.956  23.673  1.00  0.00     0.000 C 
BRANCH   5   6
ATOM      6  C   UNL     1      12.437  47.639  25.105  1.00  0.00     0.006 C 
BRANCH   6   7
ATOM      7  C   UNL     1      13.368  48.294  26.130  1.00  0.00     0.053 C 
BRANCH   7   8
ATOM      8  C   UNL     1      13.201  47.657  27.473  1.00  0.00     0.041 C 
ATOM      9  O   UNL     1      12.307  48.064  28.261  1.00  0.00    -0.550 OA
ATOM     10  O   UNL     1      13.999  46.580  27.835  1.00  0.00    -0.550 OA
ENDBRANCH   7   8
ENDBRANCH   6   7
ENDBRANCH   5   6
ENDBRANCH   4   5
ENDBRANCH   3   4
ENDBRANCH   2   3
ENDBRANCH   1   2
BRANCH   1  11
ATOM     11  C   UNL     1      10.191  52.443  21.755  1.00  0.00     0.000 C 
BRANCH  11  12
ATOM     12  C   UNL     1      10.258  53.544  22.827  1.00  0.00    -0.000 C 
BRANCH  12  13
ATOM     13  C   UNL     1       8.889  54.185  23.111  1.00  0.00    -0.000 C 
BRANCH  13  14
ATOM     14  C   UNL     1       8.295  54.929  21.896  1.00  0.00    -0.000 C 
BRANCH  14  15
ATOM     15  C   UNL     1       6.894  54.410  21.528  1.00  0.00    -0.000 C 
BRANCH  15  16
ATOM     16  C   UNL     1       6.778  54.018  20.046  1.00  0.00    -0.000 C 
BRANCH  16  17
ATOM     17  C   UNL     1       7.368  55.081  19.107  1.00  0.00    -0.003 C 
ATOM     18  C   UNL     1       6.971  54.814  17.658  1.00  0.00     0.004 C 
ENDBRANCH  16  17
ENDBRANCH  15  16
ENDBRANCH  14  15
ENDBRANCH  13  14
ENDBRANCH  12  13
ENDBRANCH  11  12
ENDBRANCH   1  11
TORSDOF 14
ENDMDL
MODEL 9
REMARK VINA RESULT:    -4.785      1.695      3.111
REMARK INTER + INTRA:          -9.673
REMARK INTER:                  -8.935
REMARK INTRA:                  -0.737
REMARK UNBOUND:                -0.972
REMARK SMILES CCCCCCCCCCCCCCCC(=O)[O-]
REMARK SMILES IDX 9 1 10 2 11 3 12 4 13 5 14 6 15 7 16 8 17 9 18 10 8 11 7 12
REMARK SMILES IDX 6 13 5 14 4 15 3 16 2 17 1 18
REMARK H PARENT
REMARK Flexibility Score: inf
ROOT
ATOM      1  C   UNL     1      10.229  50.876  21.983  1.00  0.00     0.000 C 
ENDROOT
BRANCH   1   2
ATOM      2  C   UNL     1      10.667  49.826  23.022  1.00  0.00     0.000 C 
BRANCH   2   3
ATOM      3  C   UNL     1      10.598  48.364  22.542  1.00  0.00     0.000 C 
BRANCH   3   4
ATOM      4  C   UNL     1      11.754  47.467  23.026  1.00  0.00     0.000 C 
BRANCH   4   5
ATOM      5  C   UNL     1      11.393  46.647  24.272  1.00  0.00     0.000 C 
BRANCH   5   6
ATOM      6  C   UNL     1      11.849  47.361  25.550  1.00  0.00     0.006 C 
BRANCH   6   7
ATOM      7  C   UNL     1      13.245  47.966  25.375  1.00  0.00     0.053 C 
BRANCH   7   8
ATOM      8  C   UNL     1      13.874  48.229  26.707  1.00  0.00     0.041 C 
ATOM      9  O   UNL     1      13.217  48.045  27.765  1.00  0.00    -0.550 OA
ATOM     10  O   UNL     1      15.201  48.631  26.781  1.00  0.00    -0.550 OA
ENDBRANCH   7   8
ENDBRANCH   6   7
ENDBRANCH   5   6
ENDBRANCH   4   5
ENDBRANCH   3   4
ENDBRANCH   2   3
ENDBRANCH   1   2
BRANCH   1  11
ATOM     11  C   UNL     1       9.580  52.132  22.603  1.00  0.00     0.000 C 
BRANCH  11  12
ATOM     12  C   UNL     1      10.294  53.430  22.187  1.00  0.00    -0.000 C 
BRANCH  12  13
ATOM     13  C   UNL     1       9.497  54.243  21.153  1.00  0.00    -0.000 C 
BRANCH  13  14
ATOM     14  C   UNL     1       8.311  55.019  21.764  1.00  0.00    -0.000 C 
BRANCH  14  15
ATOM     15  C   UNL     1       7.518  55.798  20.698  1.00  0.00    -0.000 C 
BRANCH  15  16
ATOM     16  C   UNL     1       6.199  55.107  20.319  1.00  0.00    -0.000 C 
BRANCH  16  17
ATOM     17  C   UNL     1       6.397  53.976  19.299  1.00  0.00    -0.003 C 
ATOM     18  C   UNL     1       7.026  54.502  18.011  1.00  0.00     0.004 C 
ENDBRANCH  16  17
ENDBRANCH  15  16
ENDBRANCH  14  15
ENDBRANCH  13  14
ENDBRANCH  12  13
ENDBRANCH  11  12
ENDBRANCH   1  11
TORSDOF 14
ENDMDL
