MODEL 1
REMARK VINA RESULT:    -2.770      0.000      0.000
REMARK INTER + INTRA:          -8.421
REMARK INTER:                  -5.361
REMARK INTRA:                  -3.060
REMARK UNBOUND:                -3.060
REMARK SMILES CCCCCCCCCCCCCCCCCC(=O)[O-]
REMARK SMILES IDX 10 1 11 2 12 3 13 4 14 5 15 6 16 7 17 8 18 9 19 10 20 11
REMARK SMILES IDX 9 12 8 13 7 14 6 15 5 16 4 17 3 18 2 19 1 20
REMARK H PARENT
REMARK Flexibility Score: inf
ROOT
ATOM      1  C   UNL     1      25.931  47.065  24.805  1.00  0.00     0.000 C 
ENDROOT
BRANCH   1   2
ATOM      2  C   UNL     1      26.029  45.601  24.349  1.00  0.00     0.000 C 
BRANCH   2   3
ATOM      3  C   UNL     1      27.404  45.251  23.759  1.00  0.00     0.000 C 
BRANCH   3   4
ATOM      4  C   UNL     1      27.277  44.196  22.652  1.00  0.00     0.000 C 
BRANCH   4   5
ATOM      5  C   UNL     1      25.812  44.026  22.220  1.00  0.00     0.000 C 
BRANCH   5   6
ATOM      6  C   UNL     1      25.655  43.831  20.701  1.00  0.00     0.000 C 
BRANCH   6   7
ATOM      7  C   UNL     1      24.236  43.451  20.239  1.00  0.00     0.006 C 
BRANCH   7   8
ATOM      8  C   UNL     1      23.907  43.968  18.833  1.00  0.00     0.053 C 
BRANCH   8   9
ATOM      9  C   UNL     1      23.850  42.836  17.858  1.00  0.00     0.041 C 
ATOM     10  O   UNL     1      23.342  43.008  16.715  1.00  0.00    -0.550 OA
ATOM     11  O   UNL     1      24.312  41.578  18.223  1.00  0.00    -0.550 OA
ENDBRANCH   8   9
ENDBRANCH   7   8
ENDBRANCH   6   7
ENDBRANCH   5   6
ENDBRANCH   4   5
ENDBRANCH   3   4
ENDBRANCH   2   3
ENDBRANCH   1   2
BRANCH   1  12
ATOM     12  C   UNL     1      26.911  47.984  24.055  1.00  0.00     0.000 C 
BRANCH  12  13
ATOM     13  C   UNL     1      26.252  48.695  22.862  1.00  0.00    -0.000 C 
BRANCH  13  14
ATOM     14  C   UNL     1      26.749  48.159  21.507  1.00  0.00    -0.000 C 
BRANCH  14  15
ATOM     15  C   UNL     1      25.648  47.424  20.720  1.00  0.00    -0.000 C 
BRANCH  15  16
ATOM     16  C   UNL     1      24.216  47.944  20.962  1.00  0.00    -0.000 C 
BRANCH  16  17
ATOM     17  C   UNL     1      23.148  46.849  21.143  1.00  0.00    -0.000 C 
BRANCH  17  18
ATOM     18  C   UNL     1      22.973  46.432  22.617  1.00  0.00    -0.000 C 
BRANCH  18  19
ATOM     19  C   UNL     1      22.540  47.606  23.509  1.00  0.00    -0.003 C 
ATOM     20  C   UNL     1      21.805  47.143  24.768  1.00  0.00     0.004 C 
ENDBRANCH  18  19
ENDBRANCH  17  18
ENDBRANCH  16  17
ENDBRANCH  15  16
ENDBRANCH  14  15
ENDBRANCH  13  14
ENDBRANCH  12  13
ENDBRANCH   1  12
TORSDOF 16
ENDMDL
MODEL 2
REMARK VINA RESULT:    -2.748     11.160     12.804
REMARK INTER + INTRA:          -8.379
REMARK INTER:                  -5.439
REMARK INTRA:                  -2.940
REMARK UNBOUND:                -3.060
REMARK SMILES CCCCCCCCCCCCCCCCCC(=O)[O-]
REMARK SMILES IDX 10 1 11 2 12 3 13 4 14 5 15 6 16 7 17 8 18 9 19 10 20 11
REMARK SMILES IDX 9 12 8 13 7 14 6 15 5 16 4 17 3 18 2 19 1 20
REMARK H PARENT
REMARK Flexibility Score: inf
ROOT
ATOM      1  C   UNL     1      13.436  41.247  29.434  1.00  0.00     0.000 C 
ENDROOT
BRANCH   1   2
ATOM      2  C   UNL     1      13.896  40.593  28.121  1.00  0.00     0.000 C 
BRANCH   2   3
ATOM      3  C   UNL     1      13.022  40.989  26.921  1.00  0.00     0.000 C 
BRANCH   3   4
ATOM      4  C   UNL     1      13.718  40.649  25.596  1.00  0.00     0.000 C 
BRANCH   4   5
ATOM      5  C   UNL     1      14.450  41.875  25.029  1.00  0.00     0.000 C 
BRANCH   5   6
ATOM      6  C   UNL     1      13.489  42.958  24.508  1.00  0.00     0.000 C 
BRANCH   6   7
ATOM      7  C   UNL     1      13.498  43.153  22.981  1.00  0.00     0.006 C 
BRANCH   7   8
ATOM      8  C   UNL     1      12.515  42.224  22.255  1.00  0.00     0.053 C 
BRANCH   8   9
ATOM      9  C   UNL     1      13.252  41.139  21.537  1.00  0.00     0.041 C 
ATOM     10  O   UNL     1      13.638  41.314  20.348  1.00  0.00    -0.550 OA
ATOM     11  O   UNL     1      13.471  39.916  22.158  1.00  0.00    -0.550 OA
ENDBRANCH   8   9
ENDBRANCH   7   8
ENDBRANCH   6   7
ENDBRANCH   5   6
ENDBRANCH   4   5
ENDBRANCH   3   4
ENDBRANCH   2   3
ENDBRANCH   1   2
BRANCH   1  12
ATOM     12  C   UNL     1      12.423  42.382  29.206  1.00  0.00     0.000 C 
BRANCH  12  13
ATOM     13  C   UNL     1      12.770  43.646  30.007  1.00  0.00    -0.000 C 
BRANCH  13  14
ATOM     14  C   UNL     1      12.721  44.923  29.146  1.00  0.00    -0.000 C 
BRANCH  14  15
ATOM     15  C   UNL     1      12.997  44.644  27.657  1.00  0.00    -0.000 C 
BRANCH  15  16
ATOM     16  C   UNL     1      14.220  45.380  27.072  1.00  0.00    -0.000 C 
BRANCH  16  17
ATOM     17  C   UNL     1      15.536  45.169  27.843  1.00  0.00    -0.000 C 
BRANCH  17  18
ATOM     18  C   UNL     1      16.017  43.705  27.805  1.00  0.00    -0.000 C 
BRANCH  18  19
ATOM     19  C   UNL     1      16.563  43.233  29.160  1.00  0.00    -0.003 C 
ATOM     20  C   UNL     1      16.432  44.301  30.248  1.00  0.00     0.004 C 
ENDBRANCH  18  19
ENDBRANCH  17  18
ENDBRANCH  16  17
ENDBRANCH  15  16
ENDBRANCH  14  15
ENDBRANCH  13  14
ENDBRANCH  12  13
ENDBRANCH   1  12
TORSDOF 16
ENDMDL
MODEL 3
REMARK VINA RESULT:    -2.706      5.831     11.198
REMARK INTER + INTRA:          -8.298
REMARK INTER:                  -5.648
REMARK INTRA:                  -2.649
REMARK UNBOUND:                -3.060
REMARK SMILES CCCCCCCCCCCCCCCCCC(=O)[O-]
REMARK SMILES IDX 10 1 11 2 12 3 13 4 14 5 15 6 16 7 17 8 18 9 19 10 20 11
REMARK SMILES IDX 9 12 8 13 7 14 6 15 5 16 4 17 3 18 2 19 1 20
REMARK H PARENT
REMARK Flexibility Score: inf
ROOT
ATOM      1  C   UNL     1      23.219  41.918  12.135  1.00  0.00     0.000 C 
ENDROOT
BRANCH   1   2
ATOM      2  C   UNL     1      21.892  41.580  12.831  1.00  0.00     0.000 C 
BRANCH   2   3
ATOM      3  C   UNL     1      21.834  40.129  13.332  1.00  0.00     0.000 C 
BRANCH   3   4
ATOM      4  C   UNL     1      21.794  40.075  14.865  1.00  0.00     0.000 C 
BRANCH   4   5
ATOM      5  C   UNL     1      23.053  39.394  15.423  1.00  0.00     0.000 C 
BRANCH   5   6
ATOM      6  C   UNL     1      23.881  40.319  16.333  1.00  0.00     0.000 C 
BRANCH   6   7
ATOM      7  C   UNL     1      23.070  41.400  17.070  1.00  0.00     0.006 C 
BRANCH   7   8
ATOM      8  C   UNL     1      23.618  42.815  16.845  1.00  0.00     0.053 C 
BRANCH   8   9
ATOM      9  C   UNL     1      23.309  43.690  18.018  1.00  0.00     0.041 C 
ATOM     10  O   UNL     1      23.447  44.942  17.930  1.00  0.00    -0.550 OA
ATOM     11  O   UNL     1      22.918  43.125  19.225  1.00  0.00    -0.550 OA
ENDBRANCH   8   9
ENDBRANCH   7   8
ENDBRANCH   6   7
ENDBRANCH   5   6
ENDBRANCH   4   5
ENDBRANCH   3   4
ENDBRANCH   2   3
ENDBRANCH   1   2
BRANCH   1  12
ATOM     12  C   UNL     1      24.325  42.312  13.130  1.00  0.00     0.000 C 
BRANCH  12  13
ATOM     13  C   UNL     1      25.416  41.236  13.250  1.00  0.00    -0.000 C 
BRANCH  13  14
ATOM     14  C   UNL     1      25.416  40.260  12.058  1.00  0.00    -0.000 C 
BRANCH  14  15
ATOM     15  C   UNL     1      25.232  38.795  12.493  1.00  0.00    -0.000 C 
BRANCH  15  16
ATOM     16  C   UNL     1      24.766  37.837  11.377  1.00  0.00    -0.000 C 
BRANCH  16  17
ATOM     17  C   UNL     1      23.256  37.539  11.364  1.00  0.00    -0.000 C 
BRANCH  17  18
ATOM     18  C   UNL     1      22.950  36.038  11.193  1.00  0.00    -0.000 C 
BRANCH  18  19
ATOM     19  C   UNL     1      22.066  35.489  12.323  1.00  0.00    -0.003 C 
ATOM     20  C   UNL     1      22.054  36.401  13.552  1.00  0.00     0.004 C 
ENDBRANCH  18  19
ENDBRANCH  17  18
ENDBRANCH  16  17
ENDBRANCH  15  16
ENDBRANCH  14  15
ENDBRANCH  13  14
ENDBRANCH  12  13
ENDBRANCH   1  12
TORSDOF 16
ENDMDL
MODEL 4
REMARK VINA RESULT:    -2.650      2.821      6.807
REMARK INTER + INTRA:          -8.189
REMARK INTER:                  -6.075
REMARK INTRA:                  -2.113
REMARK UNBOUND:                -3.060
REMARK SMILES CCCCCCCCCCCCCCCCCC(=O)[O-]
REMARK SMILES IDX 10 1 11 2 12 3 13 4 14 5 15 6 16 7 17 8 18 9 19 10 20 11
REMARK SMILES IDX 9 12 8 13 7 14 6 15 5 16 4 17 3 18 2 19 1 20
REMARK H PARENT
REMARK Flexibility Score: inf
ROOT
ATOM      1  C   UNL     1      25.127  43.495  20.876  1.00  0.00     0.000 C 
ENDROOT
BRANCH   1   2
ATOM      2  C   UNL     1      26.533  43.945  21.302  1.00  0.00     0.000 C 
BRANCH   2   3
ATOM      3  C   UNL     1      26.911  45.327  20.748  1.00  0.00     0.000 C 
BRANCH   3   4
ATOM      4  C   UNL     1      27.552  46.201  21.834  1.00  0.00     0.000 C 
BRANCH   4   5
ATOM      5  C   UNL     1      27.521  45.494  23.198  1.00  0.00     0.000 C 
BRANCH   5   6
ATOM      6  C   UNL     1      27.249  46.458  24.366  1.00  0.00     0.000 C 
BRANCH   6   7
ATOM      7  C   UNL     1      25.761  46.743  24.639  1.00  0.00     0.006 C 
BRANCH   7   8
ATOM      8  C   UNL     1      24.860  45.535  24.355  1.00  0.00     0.053 C 
BRANCH   8   9
ATOM      9  C   UNL     1      23.835  45.876  23.321  1.00  0.00     0.041 C 
ATOM     10  O   UNL     1      24.054  46.802  22.492  1.00  0.00    -0.550 OA
ATOM     11  O   UNL     1      22.618  45.208  23.300  1.00  0.00    -0.550 OA
ENDBRANCH   8   9
ENDBRANCH   7   8
ENDBRANCH   6   7
ENDBRANCH   5   6
ENDBRANCH   4   5
ENDBRANCH   3   4
ENDBRANCH   2   3
ENDBRANCH   1   2
BRANCH   1  12
ATOM     12  C   UNL     1      24.461  44.483  19.901  1.00  0.00     0.000 C 
BRANCH  12  13
ATOM     13  C   UNL     1      23.937  43.790  18.633  1.00  0.00    -0.000 C 
BRANCH  13  14
ATOM     14  C   UNL     1      24.006  42.254  18.727  1.00  0.00    -0.000 C 
BRANCH  14  15
ATOM     15  C   UNL     1      22.618  41.593  18.655  1.00  0.00    -0.000 C 
BRANCH  15  16
ATOM     16  C   UNL     1      22.556  40.297  17.819  1.00  0.00    -0.000 C 
BRANCH  16  17
ATOM     17  C   UNL     1      23.902  39.840  17.228  1.00  0.00    -0.000 C 
BRANCH  17  18
ATOM     18  C   UNL     1      23.938  39.943  15.690  1.00  0.00    -0.000 C 
BRANCH  18  19
ATOM     19  C   UNL     1      24.606  41.239  15.207  1.00  0.00    -0.003 C 
ATOM     20  C   UNL     1      23.587  42.308  14.807  1.00  0.00     0.004 C 
ENDBRANCH  18  19
ENDBRANCH  17  18
ENDBRANCH  16  17
ENDBRANCH  15  16
ENDBRANCH  14  15
ENDBRANCH  13  14
ENDBRANCH  12  13
ENDBRANCH   1  12
TORSDOF 16
ENDMDL
MODEL 5
REMARK VINA RESULT:    -2.648     10.269     13.014
REMARK INTER + INTRA:          -8.186
REMARK INTER:                  -5.574
REMARK INTRA:                  -2.612
REMARK UNBOUND:                -3.060
REMARK SMILES CCCCCCCCCCCCCCCCCC(=O)[O-]
REMARK SMILES IDX 10 1 11 2 12 3 13 4 14 5 15 6 16 7 17 8 18 9 19 10 20 11
REMARK SMILES IDX 9 12 8 13 7 14 6 15 5 16 4 17 3 18 2 19 1 20
REMARK H PARENT
REMARK Flexibility Score: inf
ROOT
ATOM      1  C   UNL     1      14.072  45.601  27.418  1.00  0.00     0.000 C 
ENDROOT
BRANCH   1   2
ATOM      2  C   UNL     1      15.328  45.142  26.660  1.00  0.00     0.000 C 
BRANCH   2   3
ATOM      3  C   UNL     1      15.605  43.640  26.820  1.00  0.00     0.000 C 
BRANCH   3   4
ATOM      4  C   UNL     1      16.509  43.122  25.693  1.00  0.00     0.000 C 
BRANCH   4   5
ATOM      5  C   UNL     1      15.719  42.236  24.718  1.00  0.00     0.000 C 
BRANCH   5   6
ATOM      6  C   UNL     1      14.996  43.046  23.626  1.00  0.00     0.000 C 
BRANCH   6   7
ATOM      7  C   UNL     1      13.471  43.157  23.804  1.00  0.00     0.006 C 
BRANCH   7   8
ATOM      8  C   UNL     1      12.691  42.738  22.551  1.00  0.00     0.053 C 
BRANCH   8   9
ATOM      9  C   UNL     1      12.916  41.289  22.255  1.00  0.00     0.041 C 
ATOM     10  O   UNL     1      12.601  40.411  23.105  1.00  0.00    -0.550 OA
ATOM     11  O   UNL     1      13.517  40.907  21.063  1.00  0.00    -0.550 OA
ENDBRANCH   8   9
ENDBRANCH   7   8
ENDBRANCH   6   7
ENDBRANCH   5   6
ENDBRANCH   4   5
ENDBRANCH   3   4
ENDBRANCH   2   3
ENDBRANCH   1   2
BRANCH   1  12
ATOM     12  C   UNL     1      13.124  44.436  27.752  1.00  0.00     0.000 C 
BRANCH  12  13
ATOM     13  C   UNL     1      12.777  44.373  29.247  1.00  0.00    -0.000 C 
BRANCH  13  14
ATOM     14  C   UNL     1      11.904  43.154  29.600  1.00  0.00    -0.000 C 
BRANCH  14  15
ATOM     15  C   UNL     1      12.496  42.312  30.745  1.00  0.00    -0.000 C 
BRANCH  15  16
ATOM     16  C   UNL     1      13.932  41.801  30.504  1.00  0.00    -0.000 C 
BRANCH  16  17
ATOM     17  C   UNL     1      14.026  40.445  29.780  1.00  0.00    -0.000 C 
BRANCH  17  18
ATOM     18  C   UNL     1      14.750  40.548  28.423  1.00  0.00    -0.000 C 
BRANCH  18  19
ATOM     19  C   UNL     1      13.929  39.943  27.276  1.00  0.00    -0.003 C 
ATOM     20  C   UNL     1      12.874  40.911  26.737  1.00  0.00     0.004 C 
ENDBRANCH  18  19
ENDBRANCH  17  18
ENDBRANCH  16  17
ENDBRANCH  15  16
ENDBRANCH  14  15
ENDBRANCH  13  14
ENDBRANCH  12  13
ENDBRANCH   1  12
TORSDOF 16
ENDMDL
MODEL 6
REMARK VINA RESULT:    -2.640      2.991      5.271
REMARK INTER + INTRA:          -8.169
REMARK INTER:                  -5.315
REMARK INTRA:                  -2.855
REMARK UNBOUND:                -3.060
REMARK SMILES CCCCCCCCCCCCCCCCCC(=O)[O-]
REMARK SMILES IDX 10 1 11 2 12 3 13 4 14 5 15 6 16 7 17 8 18 9 19 10 20 11
REMARK SMILES IDX 9 12 8 13 7 14 6 15 5 16 4 17 3 18 2 19 1 20
REMARK H PARENT
REMARK Flexibility Score: inf
ROOT
ATOM      1  C   UNL     1      26.030  46.027  24.295  1.00  0.00     0.000 C 
ENDROOT
BRANCH   1   2
ATOM      2  C   UNL     1      26.330  47.534  24.265  1.00  0.00     0.000 C 
BRANCH   2   3
ATOM      3  C   UNL     1      25.975  48.186  22.920  1.00  0.00     0.000 C 
BRANCH   3   4
ATOM      4  C   UNL     1      24.756  47.505  22.282  1.00  0.00     0.000 C 
BRANCH   4   5
ATOM      5  C   UNL     1      23.575  48.482  22.174  1.00  0.00     0.000 C 
BRANCH   5   6
ATOM      6  C   UNL     1      22.340  48.016  22.966  1.00  0.00     0.000 C 
BRANCH   6   7
ATOM      7  C   UNL     1      22.467  46.622  23.607  1.00  0.00     0.006 C 
BRANCH   7   8
ATOM      8  C   UNL     1      22.545  46.673  25.138  1.00  0.00     0.053 C 
BRANCH   8   9
ATOM      9  C   UNL     1      22.174  45.349  25.726  1.00  0.00     0.041 C 
ATOM     10  O   UNL     1      22.672  44.982  26.827  1.00  0.00    -0.550 OA
ATOM     11  O   UNL     1      21.319  44.496  25.040  1.00  0.00    -0.550 OA
ENDBRANCH   8   9
ENDBRANCH   7   8
ENDBRANCH   6   7
ENDBRANCH   5   6
ENDBRANCH   4   5
ENDBRANCH   3   4
ENDBRANCH   2   3
ENDBRANCH   1   2
BRANCH   1  12
ATOM     12  C   UNL     1      27.298  45.176  24.483  1.00  0.00     0.000 C 
BRANCH  12  13
ATOM     13  C   UNL     1      27.538  44.215  23.307  1.00  0.00    -0.000 C 
BRANCH  13  14
ATOM     14  C   UNL     1      27.853  44.957  21.994  1.00  0.00    -0.000 C 
BRANCH  14  15
ATOM     15  C   UNL     1      26.827  44.658  20.885  1.00  0.00    -0.000 C 
BRANCH  15  16
ATOM     16  C   UNL     1      25.609  43.823  21.330  1.00  0.00    -0.000 C 
BRANCH  16  17
ATOM     17  C   UNL     1      24.479  43.716  20.290  1.00  0.00    -0.000 C 
BRANCH  17  18
ATOM     18  C   UNL     1      23.177  44.394  20.760  1.00  0.00    -0.000 C 
BRANCH  18  19
ATOM     19  C   UNL     1      22.781  45.580  19.869  1.00  0.00    -0.003 C 
ATOM     20  C   UNL     1      23.856  45.920  18.834  1.00  0.00     0.004 C 
ENDBRANCH  18  19
ENDBRANCH  17  18
ENDBRANCH  16  17
ENDBRANCH  15  16
ENDBRANCH  14  15
ENDBRANCH  13  14
ENDBRANCH  12  13
ENDBRANCH   1  12
TORSDOF 16
ENDMDL
MODEL 7
REMARK VINA RESULT:    -2.618     10.104     12.465
REMARK INTER + INTRA:          -8.126
REMARK INTER:                  -5.862
REMARK INTRA:                  -2.264
REMARK UNBOUND:                -3.060
REMARK SMILES CCCCCCCCCCCCCCCCCC(=O)[O-]
REMARK SMILES IDX 10 1 11 2 12 3 13 4 14 5 15 6 16 7 17 8 18 9 19 10 20 11
REMARK SMILES IDX 9 12 8 13 7 14 6 15 5 16 4 17 3 18 2 19 1 20
REMARK H PARENT
REMARK Flexibility Score: inf
ROOT
ATOM      1  C   UNL     1      19.496  37.846  27.342  1.00  0.00     0.000 C 
ENDROOT
BRANCH   1   2
ATOM      2  C   UNL     1      20.630  38.513  28.137  1.00  0.00     0.000 C 
BRANCH   2   3
ATOM      3  C   UNL     1      20.508  38.287  29.651  1.00  0.00     0.000 C 
BRANCH   3   4
ATOM      4  C   UNL     1      21.233  39.391  30.434  1.00  0.00     0.000 C 
BRANCH   4   5
ATOM      5  C   UNL     1      21.975  40.342  29.482  1.00  0.00     0.000 C 
BRANCH   5   6
ATOM      6  C   UNL     1      22.481  41.616  30.184  1.00  0.00     0.000 C 
BRANCH   6   7
ATOM      7  C   UNL     1      21.604  42.864  29.974  1.00  0.00     0.006 C 
BRANCH   7   8
ATOM      8  C   UNL     1      21.533  43.304  28.506  1.00  0.00     0.053 C 
BRANCH   8   9
ATOM      9  C   UNL     1      22.042  44.701  28.352  1.00  0.00     0.041 C 
ATOM     10  O   UNL     1      22.191  45.199  27.202  1.00  0.00    -0.550 OA
ATOM     11  O   UNL     1      22.401  45.440  29.472  1.00  0.00    -0.550 OA
ENDBRANCH   8   9
ENDBRANCH   7   8
ENDBRANCH   6   7
ENDBRANCH   5   6
ENDBRANCH   4   5
ENDBRANCH   3   4
ENDBRANCH   2   3
ENDBRANCH   1   2
BRANCH   1  12
ATOM     12  C   UNL     1      19.223  36.402  27.801  1.00  0.00     0.000 C 
BRANCH  12  13
ATOM     13  C   UNL     1      19.938  35.363  26.922  1.00  0.00    -0.000 C 
BRANCH  13  14
ATOM     14  C   UNL     1      21.259  34.873  27.543  1.00  0.00    -0.000 C 
BRANCH  14  15
ATOM     15  C   UNL     1      21.043  34.070  28.838  1.00  0.00    -0.000 C 
BRANCH  15  16
ATOM     16  C   UNL     1      21.671  34.690  30.104  1.00  0.00    -0.000 C 
BRANCH  16  17
ATOM     17  C   UNL     1      23.157  35.073  29.971  1.00  0.00    -0.000 C 
BRANCH  17  18
ATOM     18  C   UNL     1      23.514  36.343  30.768  1.00  0.00    -0.000 C 
BRANCH  18  19
ATOM     19  C   UNL     1      24.358  37.329  29.947  1.00  0.00    -0.003 C 
ATOM     20  C   UNL     1      23.917  37.401  28.484  1.00  0.00     0.004 C 
ENDBRANCH  18  19
ENDBRANCH  17  18
ENDBRANCH  16  17
ENDBRANCH  15  16
ENDBRANCH  14  15
ENDBRANCH  13  14
ENDBRANCH  12  13
ENDBRANCH   1  12
TORSDOF 16
ENDMDL
MODEL 8
REMARK VINA RESULT:    -2.581     14.221     17.452
REMARK INTER + INTRA:          -8.055
REMARK INTER:                  -5.127
REMARK INTRA:                  -2.928
REMARK UNBOUND:                -3.060
REMARK SMILES CCCCCCCCCCCCCCCCCC(=O)[O-]
REMARK SMILES IDX 10 1 11 2 12 3 13 4 14 5 15 6 16 7 17 8 18 9 19 10 20 11
REMARK SMILES IDX 9 12 8 13 7 14 6 15 5 16 4 17 3 18 2 19 1 20
REMARK H PARENT
REMARK Flexibility Score: inf
ROOT
ATOM      1  C   UNL     1      11.668  37.869  11.915  1.00  0.00     0.000 C 
ENDROOT
BRANCH   1   2
ATOM      2  C   UNL     1      12.828  37.921  10.909  1.00  0.00     0.000 C 
BRANCH   2   3
ATOM      3  C   UNL     1      14.105  38.533  11.502  1.00  0.00     0.000 C 
BRANCH   3   4
ATOM      4  C   UNL     1      14.882  37.497  12.326  1.00  0.00     0.000 C 
BRANCH   4   5
ATOM      5  C   UNL     1      14.954  37.913  13.804  1.00  0.00     0.000 C 
BRANCH   5   6
ATOM      6  C   UNL     1      14.380  39.318  14.058  1.00  0.00     0.000 C 
BRANCH   6   7
ATOM      7  C   UNL     1      13.135  39.356  14.963  1.00  0.00     0.006 C 
BRANCH   7   8
ATOM      8  C   UNL     1      13.155  38.277  16.053  1.00  0.00     0.053 C 
BRANCH   8   9
ATOM      9  C   UNL     1      13.660  38.843  17.342  1.00  0.00     0.041 C 
ATOM     10  O   UNL     1      13.804  40.090  17.474  1.00  0.00    -0.550 OA
ATOM     11  O   UNL     1      14.018  37.996  18.382  1.00  0.00    -0.550 OA
ENDBRANCH   8   9
ENDBRANCH   7   8
ENDBRANCH   6   7
ENDBRANCH   5   6
ENDBRANCH   4   5
ENDBRANCH   3   4
ENDBRANCH   2   3
ENDBRANCH   1   2
BRANCH   1  12
ATOM     12  C   UNL     1      11.221  36.430  12.229  1.00  0.00     0.000 C 
BRANCH  12  13
ATOM     13  C   UNL     1      11.808  35.909  13.550  1.00  0.00    -0.000 C 
BRANCH  13  14
ATOM     14  C   UNL     1      11.439  34.439  13.821  1.00  0.00    -0.000 C 
BRANCH  14  15
ATOM     15  C   UNL     1      12.292  33.453  13.002  1.00  0.00    -0.000 C 
BRANCH  15  16
ATOM     16  C   UNL     1      13.730  33.926  12.705  1.00  0.00    -0.000 C 
BRANCH  16  17
ATOM     17  C   UNL     1      14.841  33.061  13.330  1.00  0.00    -0.000 C 
BRANCH  17  18
ATOM     18  C   UNL     1      14.836  33.115  14.870  1.00  0.00    -0.000 C 
BRANCH  18  19
ATOM     19  C   UNL     1      14.918  34.552  15.405  1.00  0.00    -0.003 C 
ATOM     20  C   UNL     1      14.000  34.781  16.608  1.00  0.00     0.004 C 
ENDBRANCH  18  19
ENDBRANCH  17  18
ENDBRANCH  16  17
ENDBRANCH  15  16
ENDBRANCH  14  15
ENDBRANCH  13  14
ENDBRANCH  12  13
ENDBRANCH   1  12
TORSDOF 16
ENDMDL
MODEL 9
REMARK VINA RESULT:    -2.577      6.522     11.299
REMARK INTER + INTRA:          -8.048
REMARK INTER:                  -4.959
REMARK INTRA:                  -3.088
REMARK UNBOUND:                -3.060
REMARK SMILES CCCCCCCCCCCCCCCCCC(=O)[O-]
REMARK SMILES IDX 10 1 11 2 12 3 13 4 14 5 15 6 16 7 17 8 18 9 19 10 20 11
REMARK SMILES IDX 9 12 8 13 7 14 6 15 5 16 4 17 3 18 2 19 1 20
REMARK H PARENT
REMARK Flexibility Score: inf
ROOT
ATOM      1  C   UNL     1      21.769  37.155  11.440  1.00  0.00     0.000 C 
ENDROOT
BRANCH   1   2
ATOM      2  C   UNL     1      21.268  38.078  12.562  1.00  0.00     0.000 C 
BRANCH   2   3
ATOM      3  C   UNL     1      21.365  37.432  13.952  1.00  0.00     0.000 C 
BRANCH   3   4
ATOM      4  C   UNL     1      21.070  38.455  15.058  1.00  0.00     0.000 C 
BRANCH   4   5
ATOM      5  C   UNL     1      20.426  39.723  14.476  1.00  0.00     0.000 C 
BRANCH   5   6
ATOM      6  C   UNL     1      20.582  40.949  15.393  1.00  0.00     0.000 C 
BRANCH   6   7
ATOM      7  C   UNL     1      21.750  40.867  16.393  1.00  0.00     0.006 C 
BRANCH   7   8
ATOM      8  C   UNL     1      22.141  42.234  16.968  1.00  0.00     0.053 C 
BRANCH   8   9
ATOM      9  C   UNL     1      23.478  42.161  17.633  1.00  0.00     0.041 C 
ATOM     10  O   UNL     1      23.943  43.168  18.236  1.00  0.00    -0.550 OA
ATOM     11  O   UNL     1      24.236  41.000  17.548  1.00  0.00    -0.550 OA
ENDBRANCH   8   9
ENDBRANCH   7   8
ENDBRANCH   6   7
ENDBRANCH   5   6
ENDBRANCH   4   5
ENDBRANCH   3   4
ENDBRANCH   2   3
ENDBRANCH   1   2
BRANCH   1  12
ATOM     12  C   UNL     1      23.301  37.172  11.301  1.00  0.00     0.000 C 
BRANCH  12  13
ATOM     13  C   UNL     1      23.836  38.549  10.875  1.00  0.00    -0.000 C 
BRANCH  13  14
ATOM     14  C   UNL     1      25.050  38.995  11.712  1.00  0.00    -0.000 C 
BRANCH  14  15
ATOM     15  C   UNL     1      24.930  38.591  13.193  1.00  0.00    -0.000 C 
BRANCH  15  16
ATOM     16  C   UNL     1      24.396  39.695  14.129  1.00  0.00    -0.000 C 
BRANCH  16  17
ATOM     17  C   UNL     1      25.197  41.010  14.106  1.00  0.00    -0.000 C 
BRANCH  17  18
ATOM     18  C   UNL     1      24.306  42.241  13.847  1.00  0.00    -0.000 C 
BRANCH  18  19
ATOM     19  C   UNL     1      23.106  41.915  12.946  1.00  0.00    -0.003 C 
ATOM     20  C   UNL     1      23.313  42.382  11.503  1.00  0.00     0.004 C 
ENDBRANCH  18  19
ENDBRANCH  17  18
ENDBRANCH  16  17
ENDBRANCH  15  16
ENDBRANCH  14  15
ENDBRANCH  13  14
ENDBRANCH  12  13
ENDBRANCH   1  12
TORSDOF 16
ENDMDL
