MODEL 1
REMARK VINA RESULT:    -3.417      0.000      0.000
REMARK INTER + INTRA:         -14.818
REMARK INTER:                  -9.010
REMARK INTRA:                  -5.808
REMARK UNBOUND:                -5.808
REMARK SMILES CCCCCCCCCCCCCCCCCCCCCCCCCCCCCC(=O)[O-]
REMARK SMILES IDX 16 1 17 2 18 3 19 4 20 5 21 6 22 7 23 8 24 9 25 10 26 11
REMARK SMILES IDX 27 12 28 13 29 14 30 15 31 16 32 17 15 18 14 19 13 20 12 21
REMARK SMILES IDX 11 22 10 23 9 24 8 25 7 26 6 27 5 28 4 29 3 30 2 31 1 32
REMARK H PARENT
REMARK Flexibility Score: inf
ROOT
ATOM      1  C   UNL     1      -8.377 -62.093   1.679  1.00  0.00     0.000 C 
ENDROOT
BRANCH   1   2
ATOM      2  C   UNL     1      -8.756 -60.717   2.254  1.00  0.00     0.000 C 
BRANCH   2   3
ATOM      3  C   UNL     1      -8.376 -59.559   1.314  1.00  0.00     0.000 C 
BRANCH   3   4
ATOM      4  C   UNL     1      -7.234 -58.695   1.874  1.00  0.00     0.000 C 
BRANCH   4   5
ATOM      5  C   UNL     1      -5.947 -58.798   1.038  1.00  0.00     0.000 C 
BRANCH   5   6
ATOM      6  C   UNL     1      -6.082 -59.723  -0.191  1.00  0.00     0.000 C 
BRANCH   6   7
ATOM      7  C   UNL     1      -4.752 -60.407  -0.553  1.00  0.00     0.000 C 
BRANCH   7   8
ATOM      8  C   UNL     1      -4.880 -61.945  -0.601  1.00  0.00     0.000 C 
BRANCH   8   9
ATOM      9  C   UNL     1      -6.204 -62.437  -1.212  1.00  0.00     0.000 C 
BRANCH   9  10
ATOM     10  C   UNL     1      -6.445 -63.937  -0.979  1.00  0.00     0.000 C 
BRANCH  10  11
ATOM     11  C   UNL     1      -5.518 -64.538   0.094  1.00  0.00     0.000 C 
BRANCH  11  12
ATOM     12  C   UNL     1      -4.648 -65.723  -0.374  1.00  0.00     0.000 C 
BRANCH  12  13
ATOM     13  C   UNL     1      -4.438 -65.819  -1.895  1.00  0.00     0.006 C 
BRANCH  13  14
ATOM     14  C   UNL     1      -5.012 -67.110  -2.497  1.00  0.00     0.053 C 
BRANCH  14  15
ATOM     15  C   UNL     1      -4.396 -67.389  -3.832  1.00  0.00     0.041 C 
ATOM     16  O   UNL     1      -3.536 -66.601  -4.311  1.00  0.00    -0.550 OA
ATOM     17  O   UNL     1      -4.738 -68.541  -4.529  1.00  0.00    -0.550 OA
ENDBRANCH  14  15
ENDBRANCH  13  14
ENDBRANCH  12  13
ENDBRANCH  11  12
ENDBRANCH  10  11
ENDBRANCH   9  10
ENDBRANCH   8   9
ENDBRANCH   7   8
ENDBRANCH   6   7
ENDBRANCH   5   6
ENDBRANCH   4   5
ENDBRANCH   3   4
ENDBRANCH   2   3
ENDBRANCH   1   2
BRANCH   1  18
ATOM     18  C   UNL     1      -7.438 -62.877   2.609  1.00  0.00     0.000 C 
BRANCH  18  19
ATOM     19  C   UNL     1      -6.164 -62.088   2.962  1.00  0.00     0.000 C 
BRANCH  19  20
ATOM     20  C   UNL     1      -5.808 -62.173   4.456  1.00  0.00     0.000 C 
BRANCH  20  21
ATOM     21  C   UNL     1      -6.976 -61.768   5.372  1.00  0.00     0.000 C 
BRANCH  21  22
ATOM     22  C   UNL     1      -7.336 -62.867   6.384  1.00  0.00     0.000 C 
BRANCH  22  23
ATOM     23  C   UNL     1      -8.780 -63.375   6.218  1.00  0.00     0.000 C 
BRANCH  23  24
ATOM     24  C   UNL     1      -8.850 -64.703   5.446  1.00  0.00    -0.000 C 
BRANCH  24  25
ATOM     25  C   UNL     1      -7.515 -65.468   5.467  1.00  0.00    -0.000 C 
BRANCH  25  26
ATOM     26  C   UNL     1      -7.290 -66.294   4.191  1.00  0.00    -0.000 C 
BRANCH  26  27
ATOM     27  C   UNL     1      -8.549 -66.386   3.313  1.00  0.00    -0.000 C 
BRANCH  27  28
ATOM     28  C   UNL     1      -8.211 -66.457   1.808  1.00  0.00    -0.000 C 
BRANCH  28  29
ATOM     29  C   UNL     1      -9.230 -65.731   0.908  1.00  0.00    -0.000 C 
BRANCH  29  30
ATOM     30  C   UNL     1      -9.153 -66.094  -0.588  1.00  0.00    -0.000 C 
BRANCH  30  31
ATOM     31  C   UNL     1      -8.356 -67.373  -0.902  1.00  0.00    -0.003 C 
ATOM     32  C   UNL     1      -9.251 -68.595  -1.107  1.00  0.00     0.004 C 
ENDBRANCH  30  31
ENDBRANCH  29  30
ENDBRANCH  28  29
ENDBRANCH  27  28
ENDBRANCH  26  27
ENDBRANCH  25  26
ENDBRANCH  24  25
ENDBRANCH  23  24
ENDBRANCH  22  23
ENDBRANCH  21  22
ENDBRANCH  20  21
ENDBRANCH  19  20
ENDBRANCH  18  19
ENDBRANCH   1  18
TORSDOF 28
ENDMDL
MODEL 2
REMARK VINA RESULT:    -3.361      4.317      9.753
REMARK INTER + INTRA:         -14.670
REMARK INTER:                 -10.120
REMARK INTRA:                  -4.550
REMARK UNBOUND:                -5.808
REMARK SMILES CCCCCCCCCCCCCCCCCCCCCCCCCCCCCC(=O)[O-]
REMARK SMILES IDX 16 1 17 2 18 3 19 4 20 5 21 6 22 7 23 8 24 9 25 10 26 11
REMARK SMILES IDX 27 12 28 13 29 14 30 15 31 16 32 17 15 18 14 19 13 20 12 21
REMARK SMILES IDX 11 22 10 23 9 24 8 25 7 26 6 27 5 28 4 29 3 30 2 31 1 32
REMARK H PARENT
REMARK Flexibility Score: inf
ROOT
ATOM      1  C   UNL     1      -4.442 -67.830  -4.126  1.00  0.00     0.000 C 
ENDROOT
BRANCH   1   2
ATOM      2  C   UNL     1      -4.394 -66.631  -3.161  1.00  0.00     0.000 C 
BRANCH   2   3
ATOM      3  C   UNL     1      -5.219 -66.868  -1.884  1.00  0.00     0.000 C 
BRANCH   3   4
ATOM      4  C   UNL     1      -4.844 -65.898  -0.752  1.00  0.00     0.000 C 
BRANCH   4   5
ATOM      5  C   UNL     1      -4.018 -64.699  -1.247  1.00  0.00     0.000 C 
BRANCH   5   6
ATOM      6  C   UNL     1      -4.833 -63.393  -1.361  1.00  0.00     0.000 C 
BRANCH   6   7
ATOM      7  C   UNL     1      -6.120 -63.436  -0.519  1.00  0.00     0.000 C 
BRANCH   7   8
ATOM      8  C   UNL     1      -7.389 -63.267  -1.382  1.00  0.00     0.000 C 
BRANCH   8   9
ATOM      9  C   UNL     1      -8.228 -64.551  -1.508  1.00  0.00     0.000 C 
BRANCH   9  10
ATOM     10  C   UNL     1      -9.035 -64.860  -0.237  1.00  0.00     0.000 C 
BRANCH  10  11
ATOM     11  C   UNL     1      -8.902 -66.324   0.221  1.00  0.00     0.000 C 
BRANCH  11  12
ATOM     12  C   UNL     1      -8.478 -66.521   1.691  1.00  0.00     0.000 C 
BRANCH  12  13
ATOM     13  C   UNL     1      -7.230 -65.730   2.123  1.00  0.00     0.006 C 
BRANCH  13  14
ATOM     14  C   UNL     1      -7.396 -65.052   3.490  1.00  0.00     0.053 C 
BRANCH  14  15
ATOM     15  C   UNL     1      -6.232 -65.362   4.377  1.00  0.00     0.041 C 
ATOM     16  O   UNL     1      -6.057 -66.534   4.807  1.00  0.00    -0.550 OA
ATOM     17  O   UNL     1      -5.315 -64.368   4.696  1.00  0.00    -0.550 OA
ENDBRANCH  14  15
ENDBRANCH  13  14
ENDBRANCH  12  13
ENDBRANCH  11  12
ENDBRANCH  10  11
ENDBRANCH   9  10
ENDBRANCH   8   9
ENDBRANCH   7   8
ENDBRANCH   6   7
ENDBRANCH   5   6
ENDBRANCH   4   5
ENDBRANCH   3   4
ENDBRANCH   2   3
ENDBRANCH   1   2
BRANCH   1  18
ATOM     18  C   UNL     1      -3.612 -67.590  -5.398  1.00  0.00     0.000 C 
BRANCH  18  19
ATOM     19  C   UNL     1      -4.410 -67.871  -6.683  1.00  0.00     0.000 C 
BRANCH  19  20
ATOM     20  C   UNL     1      -4.089 -66.875  -7.811  1.00  0.00     0.000 C 
BRANCH  20  21
ATOM     21  C   UNL     1      -5.351 -66.276  -8.456  1.00  0.00     0.000 C 
BRANCH  21  22
ATOM     22  C   UNL     1      -6.172 -65.432  -7.468  1.00  0.00     0.000 C 
BRANCH  22  23
ATOM     23  C   UNL     1      -5.403 -64.199  -6.961  1.00  0.00     0.000 C 
BRANCH  23  24
ATOM     24  C   UNL     1      -5.164 -64.240  -5.443  1.00  0.00    -0.000 C 
BRANCH  24  25
ATOM     25  C   UNL     1      -3.935 -63.417  -5.017  1.00  0.00    -0.000 C 
BRANCH  25  26
ATOM     26  C   UNL     1      -2.611 -64.130  -5.334  1.00  0.00    -0.000 C 
BRANCH  26  27
ATOM     27  C   UNL     1      -1.851 -63.481  -6.504  1.00  0.00    -0.000 C 
BRANCH  27  28
ATOM     28  C   UNL     1      -1.223 -64.528  -7.448  1.00  0.00    -0.000 C 
BRANCH  28  29
ATOM     29  C   UNL     1       0.300 -64.686  -7.274  1.00  0.00    -0.000 C 
BRANCH  29  30
ATOM     30  C   UNL     1       1.053 -63.391  -6.913  1.00  0.00    -0.000 C 
BRANCH  30  31
ATOM     31  C   UNL     1       1.792 -63.427  -5.563  1.00  0.00    -0.003 C 
ATOM     32  C   UNL     1       1.031 -62.710  -4.449  1.00  0.00     0.004 C 
ENDBRANCH  30  31
ENDBRANCH  29  30
ENDBRANCH  28  29
ENDBRANCH  27  28
ENDBRANCH  26  27
ENDBRANCH  25  26
ENDBRANCH  24  25
ENDBRANCH  23  24
ENDBRANCH  22  23
ENDBRANCH  21  22
ENDBRANCH  20  21
ENDBRANCH  19  20
ENDBRANCH  18  19
ENDBRANCH   1  18
TORSDOF 28
ENDMDL
MODEL 3
REMARK VINA RESULT:    -3.359      5.386     11.483
REMARK INTER + INTRA:         -14.665
REMARK INTER:                  -9.233
REMARK INTRA:                  -5.433
REMARK UNBOUND:                -5.808
REMARK SMILES CCCCCCCCCCCCCCCCCCCCCCCCCCCCCC(=O)[O-]
REMARK SMILES IDX 16 1 17 2 18 3 19 4 20 5 21 6 22 7 23 8 24 9 25 10 26 11
REMARK SMILES IDX 27 12 28 13 29 14 30 15 31 16 32 17 15 18 14 19 13 20 12 21
REMARK SMILES IDX 11 22 10 23 9 24 8 25 7 26 6 27 5 28 4 29 3 30 2 31 1 32
REMARK H PARENT
REMARK Flexibility Score: inf
ROOT
ATOM      1  C   UNL     1      -7.663 -64.816  -9.522  1.00  0.00     0.000 C 
ENDROOT
BRANCH   1   2
ATOM      2  C   UNL     1      -7.654 -64.978  -7.991  1.00  0.00     0.000 C 
BRANCH   2   3
ATOM      3  C   UNL     1      -6.724 -63.968  -7.296  1.00  0.00     0.000 C 
BRANCH   3   4
ATOM      4  C   UNL     1      -5.564 -64.648  -6.551  1.00  0.00     0.000 C 
BRANCH   4   5
ATOM      5  C   UNL     1      -5.030 -65.887  -7.291  1.00  0.00     0.000 C 
BRANCH   5   6
ATOM      6  C   UNL     1      -3.899 -66.616  -6.535  1.00  0.00     0.000 C 
BRANCH   6   7
ATOM      7  C   UNL     1      -4.339 -67.999  -6.022  1.00  0.00     0.000 C 
BRANCH   7   8
ATOM      8  C   UNL     1      -4.447 -68.044  -4.483  1.00  0.00     0.000 C 
BRANCH   8   9
ATOM      9  C   UNL     1      -3.953 -66.762  -3.790  1.00  0.00     0.000 C 
BRANCH   9  10
ATOM     10  C   UNL     1      -4.892 -66.292  -2.668  1.00  0.00     0.000 C 
BRANCH  10  11
ATOM     11  C   UNL     1      -5.052 -64.762  -2.615  1.00  0.00     0.000 C 
BRANCH  11  12
ATOM     12  C   UNL     1      -6.295 -64.253  -1.856  1.00  0.00     0.000 C 
BRANCH  12  13
ATOM     13  C   UNL     1      -6.262 -64.464  -0.332  1.00  0.00     0.006 C 
BRANCH  13  14
ATOM     14  C   UNL     1      -6.995 -65.738   0.111  1.00  0.00     0.053 C 
BRANCH  14  15
ATOM     15  C   UNL     1      -8.415 -65.720  -0.358  1.00  0.00     0.041 C 
ATOM     16  O   UNL     1      -8.864 -66.668  -1.056  1.00  0.00    -0.550 OA
ATOM     17  O   UNL     1      -9.257 -64.678   0.010  1.00  0.00    -0.550 OA
ENDBRANCH  14  15
ENDBRANCH  13  14
ENDBRANCH  12  13
ENDBRANCH  11  12
ENDBRANCH  10  11
ENDBRANCH   9  10
ENDBRANCH   8   9
ENDBRANCH   7   8
ENDBRANCH   6   7
ENDBRANCH   5   6
ENDBRANCH   4   5
ENDBRANCH   3   4
ENDBRANCH   2   3
ENDBRANCH   1   2
BRANCH   1  18
ATOM     18  C   UNL     1      -7.324 -66.127 -10.251  1.00  0.00     0.000 C 
BRANCH  18  19
ATOM     19  C   UNL     1      -7.730 -67.372  -9.442  1.00  0.00     0.000 C 
BRANCH  19  20
ATOM     20  C   UNL     1      -6.616 -68.431  -9.383  1.00  0.00     0.000 C 
BRANCH  20  21
ATOM     21  C   UNL     1      -5.513 -68.196 -10.430  1.00  0.00     0.000 C 
BRANCH  21  22
ATOM     22  C   UNL     1      -4.167 -68.811 -10.014  1.00  0.00     0.000 C 
BRANCH  22  23
ATOM     23  C   UNL     1      -3.036 -68.489 -11.007  1.00  0.00     0.000 C 
BRANCH  23  24
ATOM     24  C   UNL     1      -3.127 -67.055 -11.555  1.00  0.00    -0.000 C 
BRANCH  24  25
ATOM     25  C   UNL     1      -1.987 -66.156 -11.045  1.00  0.00    -0.000 C 
BRANCH  25  26
ATOM     26  C   UNL     1      -2.439 -65.214  -9.918  1.00  0.00    -0.000 C 
BRANCH  26  27
ATOM     27  C   UNL     1      -3.742 -64.467 -10.255  1.00  0.00    -0.000 C 
BRANCH  27  28
ATOM     28  C   UNL     1      -3.858 -63.124  -9.504  1.00  0.00    -0.000 C 
BRANCH  28  29
ATOM     29  C   UNL     1      -2.555 -62.686  -8.808  1.00  0.00    -0.000 C 
BRANCH  29  30
ATOM     30  C   UNL     1      -2.666 -62.484  -7.284  1.00  0.00    -0.000 C 
BRANCH  30  31
ATOM     31  C   UNL     1      -1.945 -63.549  -6.437  1.00  0.00    -0.003 C 
ATOM     32  C   UNL     1      -2.386 -63.543  -4.974  1.00  0.00     0.004 C 
ENDBRANCH  30  31
ENDBRANCH  29  30
ENDBRANCH  28  29
ENDBRANCH  27  28
ENDBRANCH  26  27
ENDBRANCH  25  26
ENDBRANCH  24  25
ENDBRANCH  23  24
ENDBRANCH  22  23
ENDBRANCH  21  22
ENDBRANCH  20  21
ENDBRANCH  19  20
ENDBRANCH  18  19
ENDBRANCH   1  18
TORSDOF 28
ENDMDL
MODEL 4
REMARK VINA RESULT:    -3.287      3.988      8.866
REMARK INTER + INTRA:         -14.475
REMARK INTER:                 -11.252
REMARK INTRA:                  -3.223
REMARK UNBOUND:                -5.808
REMARK SMILES CCCCCCCCCCCCCCCCCCCCCCCCCCCCCC(=O)[O-]
REMARK SMILES IDX 16 1 17 2 18 3 19 4 20 5 21 6 22 7 23 8 24 9 25 10 26 11
REMARK SMILES IDX 27 12 28 13 29 14 30 15 31 16 32 17 15 18 14 19 13 20 12 21
REMARK SMILES IDX 11 22 10 23 9 24 8 25 7 26 6 27 5 28 4 29 3 30 2 31 1 32
REMARK H PARENT
REMARK Flexibility Score: inf
ROOT
ATOM      1  C   UNL     1      -9.086 -66.535   0.537  1.00  0.00     0.000 C 
ENDROOT
BRANCH   1   2
ATOM      2  C   UNL     1      -8.496 -66.742   1.944  1.00  0.00     0.000 C 
BRANCH   2   3
ATOM      3  C   UNL     1      -8.155 -65.415   2.643  1.00  0.00     0.000 C 
BRANCH   3   4
ATOM      4  C   UNL     1      -6.650 -65.265   2.923  1.00  0.00     0.000 C 
BRANCH   4   5
ATOM      5  C   UNL     1      -6.320 -65.298   4.424  1.00  0.00     0.000 C 
BRANCH   5   6
ATOM      6  C   UNL     1      -6.445 -66.702   5.053  1.00  0.00     0.000 C 
BRANCH   6   7
ATOM      7  C   UNL     1      -7.419 -66.722   6.244  1.00  0.00     0.000 C 
BRANCH   7   8
ATOM      8  C   UNL     1      -8.100 -65.353   6.463  1.00  0.00     0.000 C 
BRANCH   8   9
ATOM      9  C   UNL     1      -9.619 -65.372   6.221  1.00  0.00     0.000 C 
BRANCH   9  10
ATOM     10  C   UNL     1     -10.132 -66.749   5.767  1.00  0.00     0.000 C 
BRANCH  10  11
ATOM     11  C   UNL     1     -11.102 -67.394   6.774  1.00  0.00     0.000 C 
BRANCH  11  12
ATOM     12  C   UNL     1     -11.035 -68.932   6.862  1.00  0.00     0.000 C 
BRANCH  12  13
ATOM     13  C   UNL     1      -9.673 -69.549   6.499  1.00  0.00     0.006 C 
BRANCH  13  14
ATOM     14  C   UNL     1      -9.788 -70.988   5.977  1.00  0.00     0.053 C 
BRANCH  14  15
ATOM     15  C   UNL     1      -8.775 -71.244   4.906  1.00  0.00     0.041 C 
ATOM     16  O   UNL     1      -8.081 -70.296   4.451  1.00  0.00    -0.550 OA
ATOM     17  O   UNL     1      -8.566 -72.535   4.440  1.00  0.00    -0.550 OA
ENDBRANCH  14  15
ENDBRANCH  13  14
ENDBRANCH  12  13
ENDBRANCH  11  12
ENDBRANCH  10  11
ENDBRANCH   9  10
ENDBRANCH   8   9
ENDBRANCH   7   8
ENDBRANCH   6   7
ENDBRANCH   5   6
ENDBRANCH   4   5
ENDBRANCH   3   4
ENDBRANCH   2   3
ENDBRANCH   1   2
BRANCH   1  18
ATOM     18  C   UNL     1      -9.253 -65.047   0.187  1.00  0.00     0.000 C 
BRANCH  18  19
ATOM     19  C   UNL     1      -8.550 -64.670  -1.129  1.00  0.00     0.000 C 
BRANCH  19  20
ATOM     20  C   UNL     1      -7.284 -63.826  -0.904  1.00  0.00     0.000 C 
BRANCH  20  21
ATOM     21  C   UNL     1      -6.062 -64.675  -0.513  1.00  0.00     0.000 C 
BRANCH  21  22
ATOM     22  C   UNL     1      -6.056 -66.048  -1.202  1.00  0.00     0.000 C 
BRANCH  22  23
ATOM     23  C   UNL     1      -4.758 -66.311  -1.987  1.00  0.00     0.000 C 
BRANCH  23  24
ATOM     24  C   UNL     1      -4.542 -65.295  -3.121  1.00  0.00    -0.000 C 
BRANCH  24  25
ATOM     25  C   UNL     1      -3.744 -65.886  -4.297  1.00  0.00    -0.000 C 
BRANCH  25  26
ATOM     26  C   UNL     1      -3.989 -67.392  -4.477  1.00  0.00    -0.000 C 
BRANCH  26  27
ATOM     27  C   UNL     1      -4.340 -67.768  -5.927  1.00  0.00    -0.000 C 
BRANCH  27  28
ATOM     28  C   UNL     1      -4.465 -66.530  -6.841  1.00  0.00    -0.000 C 
BRANCH  28  29
ATOM     29  C   UNL     1      -4.595 -66.873  -8.337  1.00  0.00    -0.000 C 
BRANCH  29  30
ATOM     30  C   UNL     1      -4.449 -68.369  -8.678  1.00  0.00    -0.000 C 
BRANCH  30  31
ATOM     31  C   UNL     1      -4.410 -68.688 -10.184  1.00  0.00    -0.003 C 
ATOM     32  C   UNL     1      -3.149 -69.444 -10.599  1.00  0.00     0.004 C 
ENDBRANCH  30  31
ENDBRANCH  29  30
ENDBRANCH  28  29
ENDBRANCH  27  28
ENDBRANCH  26  27
ENDBRANCH  25  26
ENDBRANCH  24  25
ENDBRANCH  23  24
ENDBRANCH  22  23
ENDBRANCH  21  22
ENDBRANCH  20  21
ENDBRANCH  19  20
ENDBRANCH  18  19
ENDBRANCH   1  18
TORSDOF 28
ENDMDL
MODEL 5
REMARK VINA RESULT:    -3.256      3.824      7.059
REMARK INTER + INTRA:         -14.394
REMARK INTER:                  -8.787
REMARK INTRA:                  -5.607
REMARK UNBOUND:                -5.808
REMARK SMILES CCCCCCCCCCCCCCCCCCCCCCCCCCCCCC(=O)[O-]
REMARK SMILES IDX 16 1 17 2 18 3 19 4 20 5 21 6 22 7 23 8 24 9 25 10 26 11
REMARK SMILES IDX 27 12 28 13 29 14 30 15 31 16 32 17 15 18 14 19 13 20 12 21
REMARK SMILES IDX 11 22 10 23 9 24 8 25 7 26 6 27 5 28 4 29 3 30 2 31 1 32
REMARK H PARENT
REMARK Flexibility Score: inf
ROOT
ATOM      1  C   UNL     1      -4.380 -67.098  -3.082  1.00  0.00     0.000 C 
ENDROOT
BRANCH   1   2
ATOM      2  C   UNL     1      -4.077 -66.626  -4.516  1.00  0.00     0.000 C 
BRANCH   2   3
ATOM      3  C   UNL     1      -4.294 -65.113  -4.697  1.00  0.00     0.000 C 
BRANCH   3   4
ATOM      4  C   UNL     1      -2.976 -64.322  -4.684  1.00  0.00     0.000 C 
BRANCH   4   5
ATOM      5  C   UNL     1      -3.139 -62.888  -5.216  1.00  0.00     0.000 C 
BRANCH   5   6
ATOM      6  C   UNL     1      -1.973 -61.952  -4.834  1.00  0.00     0.000 C 
BRANCH   6   7
ATOM      7  C   UNL     1      -0.783 -62.721  -4.234  1.00  0.00     0.000 C 
BRANCH   7   8
ATOM      8  C   UNL     1       0.550 -62.366  -4.928  1.00  0.00     0.000 C 
BRANCH   8   9
ATOM      9  C   UNL     1       1.042 -63.442  -5.911  1.00  0.00     0.000 C 
BRANCH   9  10
ATOM     10  C   UNL     1       0.339 -63.365  -7.277  1.00  0.00     0.000 C 
BRANCH  10  11
ATOM     11  C   UNL     1      -0.581 -64.570  -7.549  1.00  0.00     0.000 C 
BRANCH  11  12
ATOM     12  C   UNL     1      -1.795 -64.282  -8.456  1.00  0.00     0.000 C 
BRANCH  12  13
ATOM     13  C   UNL     1      -2.936 -65.310  -8.367  1.00  0.00     0.006 C 
BRANCH  13  14
ATOM     14  C   UNL     1      -4.325 -64.659  -8.313  1.00  0.00     0.053 C 
BRANCH  14  15
ATOM     15  C   UNL     1      -5.399 -65.700  -8.368  1.00  0.00     0.041 C 
ATOM     16  O   UNL     1      -5.209 -66.834  -7.853  1.00  0.00    -0.550 OA
ATOM     17  O   UNL     1      -6.625 -65.404  -8.951  1.00  0.00    -0.550 OA
ENDBRANCH  14  15
ENDBRANCH  13  14
ENDBRANCH  12  13
ENDBRANCH  11  12
ENDBRANCH  10  11
ENDBRANCH   9  10
ENDBRANCH   8   9
ENDBRANCH   7   8
ENDBRANCH   6   7
ENDBRANCH   5   6
ENDBRANCH   4   5
ENDBRANCH   3   4
ENDBRANCH   2   3
ENDBRANCH   1   2
BRANCH   1  18
ATOM     18  C   UNL     1      -5.035 -65.999  -2.231  1.00  0.00     0.000 C 
BRANCH  18  19
ATOM     19  C   UNL     1      -4.686 -66.124  -0.737  1.00  0.00     0.000 C 
BRANCH  19  20
ATOM     20  C   UNL     1      -4.182 -64.803  -0.133  1.00  0.00     0.000 C 
BRANCH  20  21
ATOM     21  C   UNL     1      -2.979 -64.218  -0.895  1.00  0.00     0.000 C 
BRANCH  21  22
ATOM     22  C   UNL     1      -3.259 -62.810  -1.442  1.00  0.00     0.000 C 
BRANCH  22  23
ATOM     23  C   UNL     1      -4.295 -62.043  -0.601  1.00  0.00     0.000 C 
BRANCH  23  24
ATOM     24  C   UNL     1      -5.477 -61.536  -1.443  1.00  0.00    -0.000 C 
BRANCH  24  25
ATOM     25  C   UNL     1      -5.916 -62.552  -2.514  1.00  0.00    -0.000 C 
BRANCH  25  26
ATOM     26  C   UNL     1      -7.353 -63.050  -2.298  1.00  0.00    -0.000 C 
BRANCH  26  27
ATOM     27  C   UNL     1      -7.544 -63.746  -0.939  1.00  0.00    -0.000 C 
BRANCH  27  28
ATOM     28  C   UNL     1      -8.788 -64.658  -0.917  1.00  0.00    -0.000 C 
BRANCH  28  29
ATOM     29  C   UNL     1      -8.455 -66.161  -0.833  1.00  0.00    -0.000 C 
BRANCH  29  30
ATOM     30  C   UNL     1      -8.523 -66.765   0.583  1.00  0.00    -0.000 C 
BRANCH  30  31
ATOM     31  C   UNL     1      -8.662 -65.735   1.719  1.00  0.00    -0.003 C 
ATOM     32  C   UNL     1      -7.346 -65.480   2.454  1.00  0.00     0.004 C 
ENDBRANCH  30  31
ENDBRANCH  29  30
ENDBRANCH  28  29
ENDBRANCH  27  28
ENDBRANCH  26  27
ENDBRANCH  25  26
ENDBRANCH  24  25
ENDBRANCH  23  24
ENDBRANCH  22  23
ENDBRANCH  21  22
ENDBRANCH  20  21
ENDBRANCH  19  20
ENDBRANCH  18  19
ENDBRANCH   1  18
TORSDOF 28
ENDMDL
MODEL 6
REMARK VINA RESULT:    -3.220      5.278      9.408
REMARK INTER + INTRA:         -14.298
REMARK INTER:                  -9.786
REMARK INTRA:                  -4.512
REMARK UNBOUND:                -5.808
REMARK SMILES CCCCCCCCCCCCCCCCCCCCCCCCCCCCCC(=O)[O-]
REMARK SMILES IDX 16 1 17 2 18 3 19 4 20 5 21 6 22 7 23 8 24 9 25 10 26 11
REMARK SMILES IDX 27 12 28 13 29 14 30 15 31 16 32 17 15 18 14 19 13 20 12 21
REMARK SMILES IDX 11 22 10 23 9 24 8 25 7 26 6 27 5 28 4 29 3 30 2 31 1 32
REMARK H PARENT
REMARK Flexibility Score: inf
ROOT
ATOM      1  C   UNL     1      -6.095 -66.679  -9.891  1.00  0.00     0.000 C 
ENDROOT
BRANCH   1   2
ATOM      2  C   UNL     1      -7.316 -65.851  -9.450  1.00  0.00     0.000 C 
BRANCH   2   3
ATOM      3  C   UNL     1      -7.213 -65.382  -7.988  1.00  0.00     0.000 C 
BRANCH   3   4
ATOM      4  C   UNL     1      -7.510 -63.881  -7.829  1.00  0.00     0.000 C 
BRANCH   4   5
ATOM      5  C   UNL     1      -8.485 -63.353  -8.894  1.00  0.00     0.000 C 
BRANCH   5   6
ATOM      6  C   UNL     1      -7.972 -62.098  -9.633  1.00  0.00     0.000 C 
BRANCH   6   7
ATOM      7  C   UNL     1      -6.436 -62.003  -9.618  1.00  0.00     0.000 C 
BRANCH   7   8
ATOM      8  C   UNL     1      -5.804 -62.568 -10.908  1.00  0.00     0.000 C 
BRANCH   8   9
ATOM      9  C   UNL     1      -4.546 -63.418 -10.660  1.00  0.00     0.000 C 
BRANCH   9  10
ATOM     10  C   UNL     1      -4.098 -63.403  -9.189  1.00  0.00     0.000 C 
BRANCH  10  11
ATOM     11  C   UNL     1      -3.211 -64.605  -8.816  1.00  0.00     0.000 C 
BRANCH  11  12
ATOM     12  C   UNL     1      -1.709 -64.293  -8.655  1.00  0.00     0.000 C 
BRANCH  12  13
ATOM     13  C   UNL     1      -1.099 -64.696  -7.301  1.00  0.00     0.006 C 
BRANCH  13  14
ATOM     14  C   UNL     1      -0.911 -63.504  -6.352  1.00  0.00     0.053 C 
BRANCH  14  15
ATOM     15  C   UNL     1       0.524 -63.081  -6.314  1.00  0.00     0.041 C 
ATOM     16  O   UNL     1       0.831 -61.868  -6.461  1.00  0.00    -0.550 OA
ATOM     17  O   UNL     1       1.520 -64.019  -6.073  1.00  0.00    -0.550 OA
ENDBRANCH  14  15
ENDBRANCH  13  14
ENDBRANCH  12  13
ENDBRANCH  11  12
ENDBRANCH  10  11
ENDBRANCH   9  10
ENDBRANCH   8   9
ENDBRANCH   7   8
ENDBRANCH   6   7
ENDBRANCH   5   6
ENDBRANCH   4   5
ENDBRANCH   3   4
ENDBRANCH   2   3
ENDBRANCH   1   2
BRANCH   1  18
ATOM     18  C   UNL     1      -5.904 -67.941  -9.034  1.00  0.00     0.000 C 
BRANCH  18  19
ATOM     19  C   UNL     1      -4.454 -68.110  -8.549  1.00  0.00     0.000 C 
BRANCH  19  20
ATOM     20  C   UNL     1      -4.361 -68.386  -7.039  1.00  0.00     0.000 C 
BRANCH  20  21
ATOM     21  C   UNL     1      -3.587 -67.295  -6.278  1.00  0.00     0.000 C 
BRANCH  21  22
ATOM     22  C   UNL     1      -4.500 -66.158  -5.792  1.00  0.00     0.000 C 
BRANCH  22  23
ATOM     23  C   UNL     1      -3.810 -65.243  -4.765  1.00  0.00     0.000 C 
BRANCH  23  24
ATOM     24  C   UNL     1      -4.572 -65.179  -3.431  1.00  0.00    -0.000 C 
BRANCH  24  25
ATOM     25  C   UNL     1      -4.601 -66.535  -2.703  1.00  0.00    -0.000 C 
BRANCH  25  26
ATOM     26  C   UNL     1      -5.587 -66.550  -1.525  1.00  0.00    -0.000 C 
BRANCH  26  27
ATOM     27  C   UNL     1      -5.244 -65.505  -0.449  1.00  0.00    -0.000 C 
BRANCH  27  28
ATOM     28  C   UNL     1      -6.400 -64.514  -0.203  1.00  0.00    -0.000 C 
BRANCH  28  29
ATOM     29  C   UNL     1      -7.613 -64.733  -1.128  1.00  0.00    -0.000 C 
BRANCH  29  30
ATOM     30  C   UNL     1      -8.890 -65.227  -0.422  1.00  0.00    -0.000 C 
BRANCH  30  31
ATOM     31  C   UNL     1      -8.776 -66.623   0.218  1.00  0.00    -0.003 C 
ATOM     32  C   UNL     1      -8.547 -66.568   1.728  1.00  0.00     0.004 C 
ENDBRANCH  30  31
ENDBRANCH  29  30
ENDBRANCH  28  29
ENDBRANCH  27  28
ENDBRANCH  26  27
ENDBRANCH  25  26
ENDBRANCH  24  25
ENDBRANCH  23  24
ENDBRANCH  22  23
ENDBRANCH  21  22
ENDBRANCH  20  21
ENDBRANCH  19  20
ENDBRANCH  18  19
ENDBRANCH   1  18
TORSDOF 28
ENDMDL
MODEL 7
REMARK VINA RESULT:    -3.181      3.994      8.383
REMARK INTER + INTRA:         -14.197
REMARK INTER:                  -9.800
REMARK INTRA:                  -4.397
REMARK UNBOUND:                -5.808
REMARK SMILES CCCCCCCCCCCCCCCCCCCCCCCCCCCCCC(=O)[O-]
REMARK SMILES IDX 16 1 17 2 18 3 19 4 20 5 21 6 22 7 23 8 24 9 25 10 26 11
REMARK SMILES IDX 27 12 28 13 29 14 30 15 31 16 32 17 15 18 14 19 13 20 12 21
REMARK SMILES IDX 11 22 10 23 9 24 8 25 7 26 6 27 5 28 4 29 3 30 2 31 1 32
REMARK H PARENT
REMARK Flexibility Score: inf
ROOT
ATOM      1  C   UNL     1      -4.434 -68.025  -4.498  1.00  0.00     0.000 C 
ENDROOT
BRANCH   1   2
ATOM      2  C   UNL     1      -3.925 -67.524  -5.862  1.00  0.00     0.000 C 
BRANCH   2   3
ATOM      3  C   UNL     1      -4.375 -68.423  -7.027  1.00  0.00     0.000 C 
BRANCH   3   4
ATOM      4  C   UNL     1      -4.309 -67.706  -8.385  1.00  0.00     0.000 C 
BRANCH   4   5
ATOM      5  C   UNL     1      -5.626 -67.805  -9.173  1.00  0.00     0.000 C 
BRANCH   5   6
ATOM      6  C   UNL     1      -5.733 -66.783 -10.325  1.00  0.00     0.000 C 
BRANCH   6   7
ATOM      7  C   UNL     1      -6.725 -65.650 -10.007  1.00  0.00     0.000 C 
BRANCH   7   8
ATOM      8  C   UNL     1      -7.473 -65.887  -8.677  1.00  0.00     0.000 C 
BRANCH   8   9
ATOM      9  C   UNL     1      -7.254 -64.775  -7.637  1.00  0.00     0.000 C 
BRANCH   9  10
ATOM     10  C   UNL     1      -5.846 -64.808  -7.019  1.00  0.00     0.000 C 
BRANCH  10  11
ATOM     11  C   UNL     1      -4.961 -63.631  -7.470  1.00  0.00     0.000 C 
BRANCH  11  12
ATOM     12  C   UNL     1      -3.836 -63.994  -8.462  1.00  0.00     0.000 C 
BRANCH  12  13
ATOM     13  C   UNL     1      -2.532 -64.493  -7.816  1.00  0.00     0.006 C 
BRANCH  13  14
ATOM     14  C   UNL     1      -1.338 -63.565  -8.085  1.00  0.00     0.053 C 
BRANCH  14  15
ATOM     15  C   UNL     1      -0.193 -63.904  -7.185  1.00  0.00     0.041 C 
ATOM     16  O   UNL     1       0.375 -65.025  -7.275  1.00  0.00    -0.550 OA
ATOM     17  O   UNL     1       0.277 -62.966  -6.273  1.00  0.00    -0.550 OA
ENDBRANCH  14  15
ENDBRANCH  13  14
ENDBRANCH  12  13
ENDBRANCH  11  12
ENDBRANCH  10  11
ENDBRANCH   9  10
ENDBRANCH   8   9
ENDBRANCH   7   8
ENDBRANCH   6   7
ENDBRANCH   5   6
ENDBRANCH   4   5
ENDBRANCH   3   4
ENDBRANCH   2   3
ENDBRANCH   1   2
BRANCH   1  18
ATOM     18  C   UNL     1      -4.413 -66.924  -3.426  1.00  0.00     0.000 C 
BRANCH  18  19
ATOM     19  C   UNL     1      -3.901 -65.579  -3.973  1.00  0.00     0.000 C 
BRANCH  19  20
ATOM     20  C   UNL     1      -3.562 -64.575  -2.858  1.00  0.00     0.000 C 
BRANCH  20  21
ATOM     21  C   UNL     1      -4.452 -63.321  -2.892  1.00  0.00     0.000 C 
BRANCH  21  22
ATOM     22  C   UNL     1      -5.738 -63.536  -3.705  1.00  0.00     0.000 C 
BRANCH  22  23
ATOM     23  C   UNL     1      -6.995 -63.039  -2.968  1.00  0.00     0.000 C 
BRANCH  23  24
ATOM     24  C   UNL     1      -6.789 -61.661  -2.320  1.00  0.00    -0.000 C 
BRANCH  24  25
ATOM     25  C   UNL     1      -6.883 -61.711  -0.784  1.00  0.00    -0.000 C 
BRANCH  25  26
ATOM     26  C   UNL     1      -7.212 -63.118  -0.261  1.00  0.00    -0.000 C 
BRANCH  26  27
ATOM     27  C   UNL     1      -6.046 -63.750   0.518  1.00  0.00    -0.000 C 
BRANCH  27  28
ATOM     28  C   UNL     1      -5.895 -65.258   0.226  1.00  0.00    -0.000 C 
BRANCH  28  29
ATOM     29  C   UNL     1      -6.952 -65.811  -0.749  1.00  0.00    -0.000 C 
BRANCH  29  30
ATOM     30  C   UNL     1      -8.378 -65.917  -0.172  1.00  0.00    -0.000 C 
BRANCH  30  31
ATOM     31  C   UNL     1      -8.495 -66.758   1.111  1.00  0.00    -0.003 C 
ATOM     32  C   UNL     1      -8.725 -65.908   2.361  1.00  0.00     0.004 C 
ENDBRANCH  30  31
ENDBRANCH  29  30
ENDBRANCH  28  29
ENDBRANCH  27  28
ENDBRANCH  26  27
ENDBRANCH  25  26
ENDBRANCH  24  25
ENDBRANCH  23  24
ENDBRANCH  22  23
ENDBRANCH  21  22
ENDBRANCH  20  21
ENDBRANCH  19  20
ENDBRANCH  18  19
ENDBRANCH   1  18
TORSDOF 28
ENDMDL
MODEL 8
REMARK VINA RESULT:    -3.173      5.815     11.366
REMARK INTER + INTRA:         -14.174
REMARK INTER:                  -9.714
REMARK INTRA:                  -4.460
REMARK UNBOUND:                -5.808
REMARK SMILES CCCCCCCCCCCCCCCCCCCCCCCCCCCCCC(=O)[O-]
REMARK SMILES IDX 16 1 17 2 18 3 19 4 20 5 21 6 22 7 23 8 24 9 25 10 26 11
REMARK SMILES IDX 27 12 28 13 29 14 30 15 31 16 32 17 15 18 14 19 13 20 12 21
REMARK SMILES IDX 11 22 10 23 9 24 8 25 7 26 6 27 5 28 4 29 3 30 2 31 1 32
REMARK H PARENT
REMARK Flexibility Score: inf
ROOT
ATOM      1  C   UNL     1      -7.443 -65.375  -7.876  1.00  0.00     0.000 C 
ENDROOT
BRANCH   1   2
ATOM      2  C   UNL     1      -7.648 -65.992  -9.271  1.00  0.00     0.000 C 
BRANCH   2   3
ATOM      3  C   UNL     1      -6.346 -66.561  -9.863  1.00  0.00     0.000 C 
BRANCH   3   4
ATOM      4  C   UNL     1      -5.802 -67.751  -9.055  1.00  0.00     0.000 C 
BRANCH   4   5
ATOM      5  C   UNL     1      -4.503 -67.413  -8.303  1.00  0.00     0.000 C 
BRANCH   5   6
ATOM      6  C   UNL     1      -4.342 -68.182  -6.974  1.00  0.00     0.000 C 
BRANCH   6   7
ATOM      7  C   UNL     1      -4.144 -67.237  -5.776  1.00  0.00     0.000 C 
BRANCH   7   8
ATOM      8  C   UNL     1      -4.367 -65.757  -6.157  1.00  0.00     0.000 C 
BRANCH   8   9
ATOM      9  C   UNL     1      -4.487 -64.817  -4.945  1.00  0.00     0.000 C 
BRANCH   9  10
ATOM     10  C   UNL     1      -4.005 -65.468  -3.638  1.00  0.00     0.000 C 
BRANCH  10  11
ATOM     11  C   UNL     1      -4.859 -65.075  -2.419  1.00  0.00     0.000 C 
BRANCH  11  12
ATOM     12  C   UNL     1      -5.336 -66.250  -1.540  1.00  0.00     0.000 C 
BRANCH  12  13
ATOM     13  C   UNL     1      -6.310 -65.868  -0.411  1.00  0.00     0.006 C 
BRANCH  13  14
ATOM     14  C   UNL     1      -7.774 -65.835  -0.871  1.00  0.00     0.053 C 
BRANCH  14  15
ATOM     15  C   UNL     1      -8.582 -66.857  -0.136  1.00  0.00     0.041 C 
ATOM     16  O   UNL     1      -8.565 -66.892   1.124  1.00  0.00    -0.550 OA
ATOM     17  O   UNL     1      -9.388 -67.744  -0.838  1.00  0.00    -0.550 OA
ENDBRANCH  14  15
ENDBRANCH  13  14
ENDBRANCH  12  13
ENDBRANCH  11  12
ENDBRANCH  10  11
ENDBRANCH   9  10
ENDBRANCH   8   9
ENDBRANCH   7   8
ENDBRANCH   6   7
ENDBRANCH   5   6
ENDBRANCH   4   5
ENDBRANCH   3   4
ENDBRANCH   2   3
ENDBRANCH   1   2
BRANCH   1  18
ATOM     18  C   UNL     1      -7.439 -63.838  -7.911  1.00  0.00     0.000 C 
BRANCH  18  19
ATOM     19  C   UNL     1      -8.462 -63.269  -8.909  1.00  0.00     0.000 C 
BRANCH  19  20
ATOM     20  C   UNL     1      -7.910 -62.080  -9.713  1.00  0.00     0.000 C 
BRANCH  20  21
ATOM     21  C   UNL     1      -7.110 -62.517 -10.953  1.00  0.00     0.000 C 
BRANCH  21  22
ATOM     22  C   UNL     1      -5.618 -62.166 -10.843  1.00  0.00     0.000 C 
BRANCH  22  23
ATOM     23  C   UNL     1      -4.713 -63.411 -10.876  1.00  0.00     0.000 C 
BRANCH  23  24
ATOM     24  C   UNL     1      -4.231 -63.824  -9.476  1.00  0.00    -0.000 C 
BRANCH  24  25
ATOM     25  C   UNL     1      -3.917 -62.613  -8.580  1.00  0.00    -0.000 C 
BRANCH  25  26
ATOM     26  C   UNL     1      -2.674 -62.836  -7.704  1.00  0.00    -0.000 C 
BRANCH  26  27
ATOM     27  C   UNL     1      -1.763 -63.955  -8.238  1.00  0.00    -0.000 C 
BRANCH  27  28
ATOM     28  C   UNL     1      -0.953 -64.638  -7.116  1.00  0.00    -0.000 C 
BRANCH  28  29
ATOM     29  C   UNL     1       0.571 -64.453  -7.251  1.00  0.00    -0.000 C 
BRANCH  29  30
ATOM     30  C   UNL     1       1.269 -63.865  -6.009  1.00  0.00    -0.000 C 
BRANCH  30  31
ATOM     31  C   UNL     1       0.482 -62.755  -5.291  1.00  0.00    -0.003 C 
ATOM     32  C   UNL     1       0.503 -61.426  -6.046  1.00  0.00     0.004 C 
ENDBRANCH  30  31
ENDBRANCH  29  30
ENDBRANCH  28  29
ENDBRANCH  27  28
ENDBRANCH  26  27
ENDBRANCH  25  26
ENDBRANCH  24  25
ENDBRANCH  23  24
ENDBRANCH  22  23
ENDBRANCH  21  22
ENDBRANCH  20  21
ENDBRANCH  19  20
ENDBRANCH  18  19
ENDBRANCH   1  18
TORSDOF 28
ENDMDL
MODEL 9
REMARK VINA RESULT:    -3.113      4.032      7.768
REMARK INTER + INTRA:         -14.016
REMARK INTER:                  -9.287
REMARK INTRA:                  -4.729
REMARK UNBOUND:                -5.808
REMARK SMILES CCCCCCCCCCCCCCCCCCCCCCCCCCCCCC(=O)[O-]
REMARK SMILES IDX 16 1 17 2 18 3 19 4 20 5 21 6 22 7 23 8 24 9 25 10 26 11
REMARK SMILES IDX 27 12 28 13 29 14 30 15 31 16 32 17 15 18 14 19 13 20 12 21
REMARK SMILES IDX 11 22 10 23 9 24 8 25 7 26 6 27 5 28 4 29 3 30 2 31 1 32
REMARK H PARENT
REMARK Flexibility Score: inf
ROOT
ATOM      1  C   UNL     1      -8.061 -65.297  -0.706  1.00  0.00     0.000 C 
ENDROOT
BRANCH   1   2
ATOM      2  C   UNL     1      -9.000 -65.569   0.484  1.00  0.00     0.000 C 
BRANCH   2   3
ATOM      3  C   UNL     1      -8.531 -66.754   1.347  1.00  0.00     0.000 C 
BRANCH   3   4
ATOM      4  C   UNL     1      -8.552 -66.432   2.850  1.00  0.00     0.000 C 
BRANCH   4   5
ATOM      5  C   UNL     1      -8.143 -67.633   3.720  1.00  0.00     0.000 C 
BRANCH   5   6
ATOM      6  C   UNL     1      -7.567 -67.232   5.095  1.00  0.00     0.000 C 
BRANCH   6   7
ATOM      7  C   UNL     1      -6.217 -66.504   4.970  1.00  0.00     0.000 C 
BRANCH   7   8
ATOM      8  C   UNL     1      -5.135 -67.121   5.881  1.00  0.00     0.000 C 
BRANCH   8   9
ATOM      9  C   UNL     1      -4.661 -68.512   5.425  1.00  0.00     0.000 C 
BRANCH   9  10
ATOM     10  C   UNL     1      -4.763 -69.569   6.538  1.00  0.00     0.000 C 
BRANCH  10  11
ATOM     11  C   UNL     1      -5.220 -70.946   6.021  1.00  0.00     0.000 C 
BRANCH  11  12
ATOM     12  C   UNL     1      -5.968 -70.930   4.672  1.00  0.00     0.000 C 
BRANCH  12  13
ATOM     13  C   UNL     1      -7.491 -71.126   4.766  1.00  0.00     0.006 C 
BRANCH  13  14
ATOM     14  C   UNL     1      -7.988 -72.340   3.969  1.00  0.00     0.053 C 
BRANCH  14  15
ATOM     15  C   UNL     1      -9.058 -73.064   4.723  1.00  0.00     0.041 C 
ATOM     16  O   UNL     1     -10.269 -72.913   4.409  1.00  0.00    -0.550 OA
ATOM     17  O   UNL     1      -8.717 -73.941   5.746  1.00  0.00    -0.550 OA
ENDBRANCH  14  15
ENDBRANCH  13  14
ENDBRANCH  12  13
ENDBRANCH  11  12
ENDBRANCH  10  11
ENDBRANCH   9  10
ENDBRANCH   8   9
ENDBRANCH   7   8
ENDBRANCH   6   7
ENDBRANCH   5   6
ENDBRANCH   4   5
ENDBRANCH   3   4
ENDBRANCH   2   3
ENDBRANCH   1   2
BRANCH   1  18
ATOM     18  C   UNL     1      -6.779 -66.143  -0.644  1.00  0.00     0.000 C 
BRANCH  18  19
ATOM     19  C   UNL     1      -5.849 -65.891  -1.843  1.00  0.00     0.000 C 
BRANCH  19  20
ATOM     20  C   UNL     1      -4.517 -65.239  -1.435  1.00  0.00     0.000 C 
BRANCH  20  21
ATOM     21  C   UNL     1      -4.383 -65.058   0.088  1.00  0.00     0.000 C 
BRANCH  21  22
ATOM     22  C   UNL     1      -4.063 -63.607   0.480  1.00  0.00     0.000 C 
BRANCH  22  23
ATOM     23  C   UNL     1      -4.669 -63.214   1.840  1.00  0.00     0.000 C 
BRANCH  23  24
ATOM     24  C   UNL     1      -5.950 -64.001   2.161  1.00  0.00    -0.000 C 
BRANCH  24  25
ATOM     25  C   UNL     1      -7.051 -63.112   2.768  1.00  0.00    -0.000 C 
BRANCH  25  26
ATOM     26  C   UNL     1      -7.739 -62.228   1.717  1.00  0.00    -0.000 C 
BRANCH  26  27
ATOM     27  C   UNL     1      -7.206 -60.785   1.712  1.00  0.00    -0.000 C 
BRANCH  27  28
ATOM     28  C   UNL     1      -7.995 -59.871   0.751  1.00  0.00    -0.000 C 
BRANCH  28  29
ATOM     29  C   UNL     1      -7.280 -59.615  -0.590  1.00  0.00    -0.000 C 
BRANCH  29  30
ATOM     30  C   UNL     1      -5.830 -60.130  -0.664  1.00  0.00    -0.000 C 
BRANCH  30  31
ATOM     31  C   UNL     1      -5.559 -61.138  -1.796  1.00  0.00    -0.003 C 
ATOM     32  C   UNL     1      -6.662 -62.188  -1.934  1.00  0.00     0.004 C 
ENDBRANCH  30  31
ENDBRANCH  29  30
ENDBRANCH  28  29
ENDBRANCH  27  28
ENDBRANCH  26  27
ENDBRANCH  25  26
ENDBRANCH  24  25
ENDBRANCH  23  24
ENDBRANCH  22  23
ENDBRANCH  21  22
ENDBRANCH  20  21
ENDBRANCH  19  20
ENDBRANCH  18  19
ENDBRANCH   1  18
TORSDOF 28
ENDMDL
