MODEL 1
REMARK VINA RESULT:    -4.989      0.000      0.000
REMARK INTER + INTRA:         -16.993
REMARK INTER:                 -13.155
REMARK INTRA:                  -3.837
REMARK UNBOUND:                -3.837
REMARK SMILES CCCCCCCCCCCCCCCCCCCCCCCCCCCCCC(=O)[O-]
REMARK SMILES IDX 16 1 17 2 18 3 19 4 20 5 21 6 22 7 23 8 24 9 25 10 26 11
REMARK SMILES IDX 27 12 28 13 29 14 30 15 31 16 32 17 15 18 14 19 13 20 12 21
REMARK SMILES IDX 11 22 10 23 9 24 8 25 7 26 6 27 5 28 4 29 3 30 2 31 1 32
REMARK H PARENT
REMARK Flexibility Score: inf
ROOT
ATOM      1  C   UNL     1     -21.802   0.314  25.987  1.00  0.00     0.000 C 
ENDROOT
BRANCH   1   2
ATOM      2  C   UNL     1     -20.516   1.094  26.321  1.00  0.00     0.000 C 
BRANCH   2   3
ATOM      3  C   UNL     1     -19.296   0.216  26.646  1.00  0.00     0.000 C 
BRANCH   3   4
ATOM      4  C   UNL     1     -18.373   0.852  27.701  1.00  0.00     0.000 C 
BRANCH   4   5
ATOM      5  C   UNL     1     -18.296   0.020  28.993  1.00  0.00     0.000 C 
BRANCH   5   6
ATOM      6  C   UNL     1     -19.647  -0.067  29.718  1.00  0.00     0.000 C 
BRANCH   6   7
ATOM      7  C   UNL     1     -20.115  -1.522  29.842  1.00  0.00     0.000 C 
BRANCH   7   8
ATOM      8  C   UNL     1     -19.010  -2.493  29.402  1.00  0.00     0.000 C 
BRANCH   8   9
ATOM      9  C   UNL     1     -18.558  -3.431  30.532  1.00  0.00     0.000 C 
BRANCH   9  10
ATOM     10  C   UNL     1     -17.172  -3.063  31.090  1.00  0.00     0.000 C 
BRANCH  10  11
ATOM     11  C   UNL     1     -17.253  -2.332  32.440  1.00  0.00     0.000 C 
BRANCH  11  12
ATOM     12  C   UNL     1     -16.711  -0.897  32.370  1.00  0.00     0.000 C 
BRANCH  12  13
ATOM     13  C   UNL     1     -15.707  -0.748  31.217  1.00  0.00     0.006 C 
BRANCH  13  14
ATOM     14  C   UNL     1     -14.360  -0.180  31.687  1.00  0.00     0.053 C 
BRANCH  14  15
ATOM     15  C   UNL     1     -13.553   0.360  30.546  1.00  0.00     0.041 C 
ATOM     16  O   UNL     1     -12.479  -0.203  30.208  1.00  0.00    -0.550 OA
ATOM     17  O   UNL     1     -13.975   1.499  29.872  1.00  0.00    -0.550 OA
ENDBRANCH  14  15
ENDBRANCH  13  14
ENDBRANCH  12  13
ENDBRANCH  11  12
ENDBRANCH  10  11
ENDBRANCH   9  10
ENDBRANCH   8   9
ENDBRANCH   7   8
ENDBRANCH   6   7
ENDBRANCH   5   6
ENDBRANCH   4   5
ENDBRANCH   3   4
ENDBRANCH   2   3
ENDBRANCH   1   2
BRANCH   1  18
ATOM     18  C   UNL     1     -22.742   0.119  27.198  1.00  0.00     0.000 C 
BRANCH  18  19
ATOM     19  C   UNL     1     -24.054  -0.583  26.808  1.00  0.00     0.000 C 
BRANCH  19  20
ATOM     20  C   UNL     1     -24.029  -2.091  27.106  1.00  0.00     0.000 C 
BRANCH  20  21
ATOM     21  C   UNL     1     -23.506  -2.408  28.517  1.00  0.00     0.000 C 
BRANCH  21  22
ATOM     22  C   UNL     1     -23.423  -3.926  28.786  1.00  0.00     0.000 C 
BRANCH  22  23
ATOM     23  C   UNL     1     -23.705  -4.790  27.542  1.00  0.00     0.000 C 
BRANCH  23  24
ATOM     24  C   UNL     1     -23.376  -6.286  27.706  1.00  0.00    -0.000 C 
BRANCH  24  25
ATOM     25  C   UNL     1     -21.994  -6.711  27.166  1.00  0.00    -0.000 C 
BRANCH  25  26
ATOM     26  C   UNL     1     -20.966  -7.108  28.244  1.00  0.00    -0.000 C 
BRANCH  26  27
ATOM     27  C   UNL     1     -21.512  -8.023  29.359  1.00  0.00    -0.000 C 
BRANCH  27  28
ATOM     28  C   UNL     1     -21.448  -7.430  30.780  1.00  0.00    -0.000 C 
BRANCH  28  29
ATOM     29  C   UNL     1     -21.139  -5.923  30.840  1.00  0.00    -0.000 C 
BRANCH  29  30
ATOM     30  C   UNL     1     -21.434  -5.309  32.220  1.00  0.00    -0.000 C 
BRANCH  30  31
ATOM     31  C   UNL     1     -22.089  -6.312  33.182  1.00  0.00    -0.003 C 
ATOM     32  C   UNL     1     -21.083  -6.955  34.136  1.00  0.00     0.004 C 
ENDBRANCH  30  31
ENDBRANCH  29  30
ENDBRANCH  28  29
ENDBRANCH  27  28
ENDBRANCH  26  27
ENDBRANCH  25  26
ENDBRANCH  24  25
ENDBRANCH  23  24
ENDBRANCH  22  23
ENDBRANCH  21  22
ENDBRANCH  20  21
ENDBRANCH  19  20
ENDBRANCH  18  19
ENDBRANCH   1  18
TORSDOF 28
ENDMDL
MODEL 2
REMARK VINA RESULT:    -4.859      1.825      4.756
REMARK INTER + INTRA:         -16.649
REMARK INTER:                 -11.975
REMARK INTRA:                  -4.674
REMARK UNBOUND:                -3.837
REMARK SMILES CCCCCCCCCCCCCCCCCCCCCCCCCCCCCC(=O)[O-]
REMARK SMILES IDX 16 1 17 2 18 3 19 4 20 5 21 6 22 7 23 8 24 9 25 10 26 11
REMARK SMILES IDX 27 12 28 13 29 14 30 15 31 16 32 17 15 18 14 19 13 20 12 21
REMARK SMILES IDX 11 22 10 23 9 24 8 25 7 26 6 27 5 28 4 29 3 30 2 31 1 32
REMARK H PARENT
REMARK Flexibility Score: inf
ROOT
ATOM      1  C   UNL     1     -20.115  -4.734  30.345  1.00  0.00     0.000 C 
ENDROOT
BRANCH   1   2
ATOM      2  C   UNL     1     -21.294  -3.837  30.766  1.00  0.00     0.000 C 
BRANCH   2   3
ATOM      3  C   UNL     1     -21.960  -3.064  29.615  1.00  0.00     0.000 C 
BRANCH   3   4
ATOM      4  C   UNL     1     -22.707  -1.809  30.100  1.00  0.00     0.000 C 
BRANCH   4   5
ATOM      5  C   UNL     1     -22.718  -0.687  29.047  1.00  0.00     0.000 C 
BRANCH   5   6
ATOM      6  C   UNL     1     -23.459  -1.091  27.764  1.00  0.00     0.000 C 
BRANCH   6   7
ATOM      7  C   UNL     1     -22.747  -0.547  26.520  1.00  0.00     0.000 C 
BRANCH   7   8
ATOM      8  C   UNL     1     -21.752   0.560  26.898  1.00  0.00     0.000 C 
BRANCH   8   9
ATOM      9  C   UNL     1     -20.312   0.237  26.467  1.00  0.00     0.000 C 
BRANCH   9  10
ATOM     10  C   UNL     1     -19.269   1.109  27.189  1.00  0.00     0.000 C 
BRANCH  10  11
ATOM     11  C   UNL     1     -18.318   0.284  28.071  1.00  0.00     0.000 C 
BRANCH  11  12
ATOM     12  C   UNL     1     -18.979  -0.986  28.627  1.00  0.00     0.000 C 
BRANCH  12  13
ATOM     13  C   UNL     1     -18.699  -1.136  30.129  1.00  0.00     0.006 C 
BRANCH  13  14
ATOM     14  C   UNL     1     -17.345  -1.806  30.406  1.00  0.00     0.053 C 
BRANCH  14  15
ATOM     15  C   UNL     1     -16.620  -1.152  31.542  1.00  0.00     0.041 C 
ATOM     16  O   UNL     1     -15.440  -0.741  31.386  1.00  0.00    -0.550 OA
ATOM     17  O   UNL     1     -17.239  -1.015  32.778  1.00  0.00    -0.550 OA
ENDBRANCH  14  15
ENDBRANCH  13  14
ENDBRANCH  12  13
ENDBRANCH  11  12
ENDBRANCH  10  11
ENDBRANCH   9  10
ENDBRANCH   8   9
ENDBRANCH   7   8
ENDBRANCH   6   7
ENDBRANCH   5   6
ENDBRANCH   4   5
ENDBRANCH   3   4
ENDBRANCH   2   3
ENDBRANCH   1   2
BRANCH   1  18
ATOM     18  C   UNL     1     -20.427  -5.639  29.133  1.00  0.00     0.000 C 
BRANCH  18  19
ATOM     19  C   UNL     1     -19.982  -7.094  29.364  1.00  0.00     0.000 C 
BRANCH  19  20
ATOM     20  C   UNL     1     -20.881  -8.110  28.640  1.00  0.00     0.000 C 
BRANCH  20  21
ATOM     21  C   UNL     1     -21.167  -7.713  27.182  1.00  0.00     0.000 C 
BRANCH  21  22
ATOM     22  C   UNL     1     -22.671  -7.484  26.919  1.00  0.00     0.000 C 
BRANCH  22  23
ATOM     23  C   UNL     1     -23.549  -7.642  28.176  1.00  0.00     0.000 C 
BRANCH  23  24
ATOM     24  C   UNL     1     -24.029  -6.319  28.801  1.00  0.00    -0.000 C 
BRANCH  24  25
ATOM     25  C   UNL     1     -23.952  -6.260  30.340  1.00  0.00    -0.000 C 
BRANCH  25  26
ATOM     26  C   UNL     1     -23.612  -7.597  31.029  1.00  0.00    -0.000 C 
BRANCH  26  27
ATOM     27  C   UNL     1     -22.454  -7.529  32.045  1.00  0.00    -0.000 C 
BRANCH  27  28
ATOM     28  C   UNL     1     -22.528  -6.356  33.042  1.00  0.00    -0.000 C 
BRANCH  28  29
ATOM     29  C   UNL     1     -21.250  -6.128  33.869  1.00  0.00    -0.000 C 
BRANCH  29  30
ATOM     30  C   UNL     1     -20.911  -7.319  34.782  1.00  0.00    -0.000 C 
BRANCH  30  31
ATOM     31  C   UNL     1     -20.123  -6.897  36.031  1.00  0.00    -0.003 C 
ATOM     32  C   UNL     1     -18.992  -5.920  35.711  1.00  0.00     0.004 C 
ENDBRANCH  30  31
ENDBRANCH  29  30
ENDBRANCH  28  29
ENDBRANCH  27  28
ENDBRANCH  26  27
ENDBRANCH  25  26
ENDBRANCH  24  25
ENDBRANCH  23  24
ENDBRANCH  22  23
ENDBRANCH  21  22
ENDBRANCH  20  21
ENDBRANCH  19  20
ENDBRANCH  18  19
ENDBRANCH   1  18
TORSDOF 28
ENDMDL
MODEL 3
REMARK VINA RESULT:    -4.662      2.995      7.820
REMARK INTER + INTRA:         -16.129
REMARK INTER:                 -11.580
REMARK INTRA:                  -4.549
REMARK UNBOUND:                -3.837
REMARK SMILES CCCCCCCCCCCCCCCCCCCCCCCCCCCCCC(=O)[O-]
REMARK SMILES IDX 16 1 17 2 18 3 19 4 20 5 21 6 22 7 23 8 24 9 25 10 26 11
REMARK SMILES IDX 27 12 28 13 29 14 30 15 31 16 32 17 15 18 14 19 13 20 12 21
REMARK SMILES IDX 11 22 10 23 9 24 8 25 7 26 6 27 5 28 4 29 3 30 2 31 1 32
REMARK H PARENT
REMARK Flexibility Score: inf
ROOT
ATOM      1  C   UNL     1     -18.697  -0.375  28.286  1.00  0.00     0.000 C 
ENDROOT
BRANCH   1   2
ATOM      2  C   UNL     1     -18.875   0.126  26.841  1.00  0.00     0.000 C 
BRANCH   2   3
ATOM      3  C   UNL     1     -19.913   1.249  26.670  1.00  0.00     0.000 C 
BRANCH   3   4
ATOM      4  C   UNL     1     -21.155   0.792  25.884  1.00  0.00     0.000 C 
BRANCH   4   5
ATOM      5  C   UNL     1     -22.319   0.389  26.805  1.00  0.00     0.000 C 
BRANCH   5   6
ATOM      6  C   UNL     1     -22.975  -0.933  26.379  1.00  0.00     0.000 C 
BRANCH   6   7
ATOM      7  C   UNL     1     -23.578  -1.665  27.584  1.00  0.00     0.000 C 
BRANCH   7   8
ATOM      8  C   UNL     1     -23.854  -3.138  27.248  1.00  0.00     0.000 C 
BRANCH   8   9
ATOM      9  C   UNL     1     -23.647  -4.072  28.450  1.00  0.00     0.000 C 
BRANCH   9  10
ATOM     10  C   UNL     1     -23.119  -5.458  28.039  1.00  0.00     0.000 C 
BRANCH  10  11
ATOM     11  C   UNL     1     -21.762  -5.788  28.682  1.00  0.00     0.000 C 
BRANCH  11  12
ATOM     12  C   UNL     1     -21.824  -7.025  29.591  1.00  0.00     0.000 C 
BRANCH  12  13
ATOM     13  C   UNL     1     -21.294  -6.699  30.995  1.00  0.00     0.006 C 
BRANCH  13  14
ATOM     14  C   UNL     1     -22.103  -5.589  31.680  1.00  0.00     0.053 C 
BRANCH  14  15
ATOM     15  C   UNL     1     -21.752  -5.456  33.131  1.00  0.00     0.041 C 
ATOM     16  O   UNL     1     -22.398  -6.099  34.000  1.00  0.00    -0.550 OA
ATOM     17  O   UNL     1     -20.726  -4.606  33.524  1.00  0.00    -0.550 OA
ENDBRANCH  14  15
ENDBRANCH  13  14
ENDBRANCH  12  13
ENDBRANCH  11  12
ENDBRANCH  10  11
ENDBRANCH   9  10
ENDBRANCH   8   9
ENDBRANCH   7   8
ENDBRANCH   6   7
ENDBRANCH   5   6
ENDBRANCH   4   5
ENDBRANCH   3   4
ENDBRANCH   2   3
ENDBRANCH   1   2
BRANCH   1  18
ATOM     18  C   UNL     1     -19.504   0.433  29.327  1.00  0.00     0.000 C 
BRANCH  18  19
ATOM     19  C   UNL     1     -20.642  -0.394  29.949  1.00  0.00     0.000 C 
BRANCH  19  20
ATOM     20  C   UNL     1     -20.676  -1.840  29.429  1.00  0.00     0.000 C 
BRANCH  20  21
ATOM     21  C   UNL     1     -20.175  -2.856  30.469  1.00  0.00     0.000 C 
BRANCH  21  22
ATOM     22  C   UNL     1     -18.916  -3.613  29.994  1.00  0.00     0.000 C 
BRANCH  22  23
ATOM     23  C   UNL     1     -17.622  -3.165  30.701  1.00  0.00     0.000 C 
BRANCH  23  24
ATOM     24  C   UNL     1     -17.838  -2.385  32.011  1.00  0.00    -0.000 C 
BRANCH  24  25
ATOM     25  C   UNL     1     -17.035  -1.073  32.128  1.00  0.00    -0.000 C 
BRANCH  25  26
ATOM     26  C   UNL     1     -15.798  -0.981  31.211  1.00  0.00    -0.000 C 
BRANCH  26  27
ATOM     27  C   UNL     1     -14.741   0.053  31.647  1.00  0.00    -0.000 C 
BRANCH  27  28
ATOM     28  C   UNL     1     -13.432   0.031  30.834  1.00  0.00    -0.000 C 
BRANCH  28  29
ATOM     29  C   UNL     1     -13.456   0.874  29.545  1.00  0.00    -0.000 C 
BRANCH  29  30
ATOM     30  C   UNL     1     -14.422   2.068  29.633  1.00  0.00    -0.000 C 
BRANCH  30  31
ATOM     31  C   UNL     1     -14.654   2.737  28.269  1.00  0.00    -0.003 C 
ATOM     32  C   UNL     1     -16.088   2.570  27.769  1.00  0.00     0.004 C 
ENDBRANCH  30  31
ENDBRANCH  29  30
ENDBRANCH  28  29
ENDBRANCH  27  28
ENDBRANCH  26  27
ENDBRANCH  25  26
ENDBRANCH  24  25
ENDBRANCH  23  24
ENDBRANCH  22  23
ENDBRANCH  21  22
ENDBRANCH  20  21
ENDBRANCH  19  20
ENDBRANCH  18  19
ENDBRANCH   1  18
TORSDOF 28
ENDMDL
MODEL 4
REMARK VINA RESULT:    -4.625      1.170      2.059
REMARK INTER + INTRA:         -16.032
REMARK INTER:                 -12.559
REMARK INTRA:                  -3.473
REMARK UNBOUND:                -3.837
REMARK SMILES CCCCCCCCCCCCCCCCCCCCCCCCCCCCCC(=O)[O-]
REMARK SMILES IDX 16 1 17 2 18 3 19 4 20 5 21 6 22 7 23 8 24 9 25 10 26 11
REMARK SMILES IDX 27 12 28 13 29 14 30 15 31 16 32 17 15 18 14 19 13 20 12 21
REMARK SMILES IDX 11 22 10 23 9 24 8 25 7 26 6 27 5 28 4 29 3 30 2 31 1 32
REMARK H PARENT
REMARK Flexibility Score: inf
ROOT
ATOM      1  C   UNL     1     -23.199   0.406  27.835  1.00  0.00     0.000 C 
ENDROOT
BRANCH   1   2
ATOM      2  C   UNL     1     -22.794  -0.637  26.777  1.00  0.00     0.000 C 
BRANCH   2   3
ATOM      3  C   UNL     1     -21.394  -0.433  26.172  1.00  0.00     0.000 C 
BRANCH   3   4
ATOM      4  C   UNL     1     -20.918   1.028  26.261  1.00  0.00     0.000 C 
BRANCH   4   5
ATOM      5  C   UNL     1     -19.473   1.146  26.774  1.00  0.00     0.000 C 
BRANCH   5   6
ATOM      6  C   UNL     1     -19.399   1.265  28.303  1.00  0.00     0.000 C 
BRANCH   6   7
ATOM      7  C   UNL     1     -18.579   0.118  28.908  1.00  0.00     0.000 C 
BRANCH   7   8
ATOM      8  C   UNL     1     -19.356  -1.205  28.842  1.00  0.00     0.000 C 
BRANCH   8   9
ATOM      9  C   UNL     1     -18.547  -2.397  29.377  1.00  0.00     0.000 C 
BRANCH   9  10
ATOM     10  C   UNL     1     -18.623  -2.525  30.908  1.00  0.00     0.000 C 
BRANCH  10  11
ATOM     11  C   UNL     1     -17.240  -2.693  31.558  1.00  0.00     0.000 C 
BRANCH  11  12
ATOM     12  C   UNL     1     -16.670  -1.369  32.086  1.00  0.00     0.000 C 
BRANCH  12  13
ATOM     13  C   UNL     1     -15.818  -0.674  31.013  1.00  0.00     0.006 C 
BRANCH  13  14
ATOM     14  C   UNL     1     -14.490  -0.147  31.574  1.00  0.00     0.053 C 
BRANCH  14  15
ATOM     15  C   UNL     1     -13.627   0.446  30.502  1.00  0.00     0.041 C 
ATOM     16  O   UNL     1     -13.992   1.491  29.902  1.00  0.00    -0.550 OA
ATOM     17  O   UNL     1     -12.432  -0.168  30.150  1.00  0.00    -0.550 OA
ENDBRANCH  14  15
ENDBRANCH  13  14
ENDBRANCH  12  13
ENDBRANCH  11  12
ENDBRANCH  10  11
ENDBRANCH   9  10
ENDBRANCH   8   9
ENDBRANCH   7   8
ENDBRANCH   6   7
ENDBRANCH   5   6
ENDBRANCH   4   5
ENDBRANCH   3   4
ENDBRANCH   2   3
ENDBRANCH   1   2
BRANCH   1  18
ATOM     18  C   UNL     1     -23.872  -0.206  29.084  1.00  0.00     0.000 C 
BRANCH  18  19
ATOM     19  C   UNL     1     -22.842  -0.729  30.101  1.00  0.00     0.000 C 
BRANCH  19  20
ATOM     20  C   UNL     1     -22.566  -2.233  29.943  1.00  0.00     0.000 C 
BRANCH  20  21
ATOM     21  C   UNL     1     -23.850  -3.053  29.733  1.00  0.00     0.000 C 
BRANCH  21  22
ATOM     22  C   UNL     1     -23.775  -3.952  28.480  1.00  0.00     0.000 C 
BRANCH  22  23
ATOM     23  C   UNL     1     -23.900  -5.456  28.790  1.00  0.00     0.000 C 
BRANCH  23  24
ATOM     24  C   UNL     1     -22.613  -6.271  28.568  1.00  0.00    -0.000 C 
BRANCH  24  25
ATOM     25  C   UNL     1     -21.305  -5.532  28.918  1.00  0.00    -0.000 C 
BRANCH  25  26
ATOM     26  C   UNL     1     -20.247  -6.385  29.645  1.00  0.00    -0.000 C 
BRANCH  26  27
ATOM     27  C   UNL     1     -20.817  -7.491  30.556  1.00  0.00    -0.000 C 
BRANCH  27  28
ATOM     28  C   UNL     1     -21.244  -7.024  31.962  1.00  0.00    -0.000 C 
BRANCH  28  29
ATOM     29  C   UNL     1     -22.135  -8.016  32.730  1.00  0.00    -0.000 C 
BRANCH  29  30
ATOM     30  C   UNL     1     -21.759  -8.125  34.218  1.00  0.00    -0.000 C 
BRANCH  30  31
ATOM     31  C   UNL     1     -21.373  -6.768  34.828  1.00  0.00    -0.003 C 
ATOM     32  C   UNL     1     -19.981  -6.782  35.459  1.00  0.00     0.004 C 
ENDBRANCH  30  31
ENDBRANCH  29  30
ENDBRANCH  28  29
ENDBRANCH  27  28
ENDBRANCH  26  27
ENDBRANCH  25  26
ENDBRANCH  24  25
ENDBRANCH  23  24
ENDBRANCH  22  23
ENDBRANCH  21  22
ENDBRANCH  20  21
ENDBRANCH  19  20
ENDBRANCH  18  19
ENDBRANCH   1  18
TORSDOF 28
ENDMDL
MODEL 5
REMARK VINA RESULT:    -4.539      2.892      7.015
REMARK INTER + INTRA:         -15.807
REMARK INTER:                 -12.107
REMARK INTRA:                  -3.700
REMARK UNBOUND:                -3.837
REMARK SMILES CCCCCCCCCCCCCCCCCCCCCCCCCCCCCC(=O)[O-]
REMARK SMILES IDX 16 1 17 2 18 3 19 4 20 5 21 6 22 7 23 8 24 9 25 10 26 11
REMARK SMILES IDX 27 12 28 13 29 14 30 15 31 16 32 17 15 18 14 19 13 20 12 21
REMARK SMILES IDX 11 22 10 23 9 24 8 25 7 26 6 27 5 28 4 29 3 30 2 31 1 32
REMARK H PARENT
REMARK Flexibility Score: inf
ROOT
ATOM      1  C   UNL     1     -22.064  -2.016  29.527  1.00  0.00     0.000 C 
ENDROOT
BRANCH   1   2
ATOM      2  C   UNL     1     -22.416  -3.515  29.573  1.00  0.00     0.000 C 
BRANCH   2   3
ATOM      3  C   UNL     1     -23.608  -3.926  28.693  1.00  0.00     0.000 C 
BRANCH   3   4
ATOM      4  C   UNL     1     -23.665  -5.443  28.443  1.00  0.00     0.000 C 
BRANCH   4   5
ATOM      5  C   UNL     1     -22.779  -5.880  27.264  1.00  0.00     0.000 C 
BRANCH   5   6
ATOM      6  C   UNL     1     -21.668  -6.850  27.690  1.00  0.00     0.000 C 
BRANCH   6   7
ATOM      7  C   UNL     1     -22.237  -8.023  28.498  1.00  0.00     0.000 C 
BRANCH   7   8
ATOM      8  C   UNL     1     -21.572  -8.110  29.880  1.00  0.00     0.000 C 
BRANCH   8   9
ATOM      9  C   UNL     1     -20.619  -6.936  30.157  1.00  0.00     0.000 C 
BRANCH   9  10
ATOM     10  C   UNL     1     -21.114  -6.028  31.296  1.00  0.00     0.000 C 
BRANCH  10  11
ATOM     11  C   UNL     1     -22.498  -6.440  31.822  1.00  0.00     0.000 C 
BRANCH  11  12
ATOM     12  C   UNL     1     -22.523  -6.615  33.348  1.00  0.00     0.000 C 
BRANCH  12  13
ATOM     13  C   UNL     1     -21.383  -7.533  33.812  1.00  0.00     0.006 C 
BRANCH  13  14
ATOM     14  C   UNL     1     -21.087  -7.383  35.311  1.00  0.00     0.053 C 
BRANCH  14  15
ATOM     15  C   UNL     1     -19.847  -6.577  35.557  1.00  0.00     0.041 C 
ATOM     16  O   UNL     1     -18.995  -6.969  36.396  1.00  0.00    -0.550 OA
ATOM     17  O   UNL     1     -19.646  -5.384  34.875  1.00  0.00    -0.550 OA
ENDBRANCH  14  15
ENDBRANCH  13  14
ENDBRANCH  12  13
ENDBRANCH  11  12
ENDBRANCH  10  11
ENDBRANCH   9  10
ENDBRANCH   8   9
ENDBRANCH   7   8
ENDBRANCH   6   7
ENDBRANCH   5   6
ENDBRANCH   4   5
ENDBRANCH   3   4
ENDBRANCH   2   3
ENDBRANCH   1   2
BRANCH   1  18
ATOM     18  C   UNL     1     -23.040  -1.125  30.328  1.00  0.00     0.000 C 
BRANCH  18  19
ATOM     19  C   UNL     1     -24.125  -0.502  29.432  1.00  0.00     0.000 C 
BRANCH  19  20
ATOM     20  C   UNL     1     -23.573   0.602  28.516  1.00  0.00     0.000 C 
BRANCH  20  21
ATOM     21  C   UNL     1     -23.765   0.285  27.024  1.00  0.00     0.000 C 
BRANCH  21  22
ATOM     22  C   UNL     1     -22.598  -0.543  26.444  1.00  0.00     0.000 C 
BRANCH  22  23
ATOM     23  C   UNL     1     -21.621   0.283  25.585  1.00  0.00     0.000 C 
BRANCH  23  24
ATOM     24  C   UNL     1     -20.157   0.254  26.061  1.00  0.00    -0.000 C 
BRANCH  24  25
ATOM     25  C   UNL     1     -19.930   0.761  27.500  1.00  0.00    -0.000 C 
BRANCH  25  26
ATOM     26  C   UNL     1     -18.562   0.399  28.112  1.00  0.00    -0.000 C 
BRANCH  26  27
ATOM     27  C   UNL     1     -18.628  -0.472  29.383  1.00  0.00    -0.000 C 
BRANCH  27  28
ATOM     28  C   UNL     1     -18.311  -1.965  29.168  1.00  0.00    -0.000 C 
BRANCH  28  29
ATOM     29  C   UNL     1     -17.570  -2.644  30.334  1.00  0.00    -0.000 C 
BRANCH  29  30
ATOM     30  C   UNL     1     -16.552  -1.713  31.015  1.00  0.00    -0.000 C 
BRANCH  30  31
ATOM     31  C   UNL     1     -17.008  -1.264  32.412  1.00  0.00    -0.003 C 
ATOM     32  C   UNL     1     -17.822  -2.336  33.138  1.00  0.00     0.004 C 
ENDBRANCH  30  31
ENDBRANCH  29  30
ENDBRANCH  28  29
ENDBRANCH  27  28
ENDBRANCH  26  27
ENDBRANCH  25  26
ENDBRANCH  24  25
ENDBRANCH  23  24
ENDBRANCH  22  23
ENDBRANCH  21  22
ENDBRANCH  20  21
ENDBRANCH  19  20
ENDBRANCH  18  19
ENDBRANCH   1  18
TORSDOF 28
ENDMDL
MODEL 6
REMARK VINA RESULT:    -4.428      3.056      6.350
REMARK INTER + INTRA:         -15.513
REMARK INTER:                 -12.515
REMARK INTRA:                  -2.998
REMARK UNBOUND:                -3.837
REMARK SMILES CCCCCCCCCCCCCCCCCCCCCCCCCCCCCC(=O)[O-]
REMARK SMILES IDX 16 1 17 2 18 3 19 4 20 5 21 6 22 7 23 8 24 9 25 10 26 11
REMARK SMILES IDX 27 12 28 13 29 14 30 15 31 16 32 17 15 18 14 19 13 20 12 21
REMARK SMILES IDX 11 22 10 23 9 24 8 25 7 26 6 27 5 28 4 29 3 30 2 31 1 32
REMARK H PARENT
REMARK Flexibility Score: inf
ROOT
ATOM      1  C   UNL     1     -15.852  -0.729  31.174  1.00  0.00     0.000 C 
ENDROOT
BRANCH   1   2
ATOM      2  C   UNL     1     -14.477  -0.264  31.690  1.00  0.00     0.000 C 
BRANCH   2   3
ATOM      3  C   UNL     1     -13.487   0.165  30.594  1.00  0.00     0.000 C 
BRANCH   3   4
ATOM      4  C   UNL     1     -13.713   1.614  30.126  1.00  0.00     0.000 C 
BRANCH   4   5
ATOM      5  C   UNL     1     -14.322   1.689  28.716  1.00  0.00     0.000 C 
BRANCH   5   6
ATOM      6  C   UNL     1     -15.127   2.978  28.491  1.00  0.00     0.000 C 
BRANCH   6   7
ATOM      7  C   UNL     1     -16.285   2.743  27.513  1.00  0.00     0.000 C 
BRANCH   7   8
ATOM      8  C   UNL     1     -17.056   1.465  27.874  1.00  0.00     0.000 C 
BRANCH   8   9
ATOM      9  C   UNL     1     -18.521   1.503  27.409  1.00  0.00     0.000 C 
BRANCH   9  10
ATOM     10  C   UNL     1     -18.992   0.159  26.828  1.00  0.00     0.000 C 
BRANCH  10  11
ATOM     11  C   UNL     1     -20.506   0.127  26.563  1.00  0.00     0.000 C 
BRANCH  11  12
ATOM     12  C   UNL     1     -21.296   1.010  27.540  1.00  0.00     0.000 C 
BRANCH  12  13
ATOM     13  C   UNL     1     -22.344   0.182  28.300  1.00  0.00     0.006 C 
BRANCH  13  14
ATOM     14  C   UNL     1     -23.368  -0.467  27.358  1.00  0.00     0.053 C 
BRANCH  14  15
ATOM     15  C   UNL     1     -23.501  -1.938  27.606  1.00  0.00     0.041 C 
ATOM     16  O   UNL     1     -23.058  -2.443  28.671  1.00  0.00    -0.550 OA
ATOM     17  O   UNL     1     -24.095  -2.755  26.652  1.00  0.00    -0.550 OA
ENDBRANCH  14  15
ENDBRANCH  13  14
ENDBRANCH  12  13
ENDBRANCH  11  12
ENDBRANCH  10  11
ENDBRANCH   9  10
ENDBRANCH   8   9
ENDBRANCH   7   8
ENDBRANCH   6   7
ENDBRANCH   5   6
ENDBRANCH   4   5
ENDBRANCH   3   4
ENDBRANCH   2   3
ENDBRANCH   1   2
BRANCH   1  18
ATOM     18  C   UNL     1     -16.740  -1.366  32.265  1.00  0.00     0.000 C 
BRANCH  18  19
ATOM     19  C   UNL     1     -18.010  -2.008  31.679  1.00  0.00     0.000 C 
BRANCH  19  20
ATOM     20  C   UNL     1     -18.432  -1.373  30.345  1.00  0.00     0.000 C 
BRANCH  20  21
ATOM     21  C   UNL     1     -19.687  -2.029  29.747  1.00  0.00     0.000 C 
BRANCH  21  22
ATOM     22  C   UNL     1     -20.108  -3.302  30.513  1.00  0.00     0.000 C 
BRANCH  22  23
ATOM     23  C   UNL     1     -19.624  -4.608  29.853  1.00  0.00     0.000 C 
BRANCH  23  24
ATOM     24  C   UNL     1     -20.744  -5.492  29.272  1.00  0.00    -0.000 C 
BRANCH  24  25
ATOM     25  C   UNL     1     -20.743  -6.953  29.768  1.00  0.00    -0.000 C 
BRANCH  25  26
ATOM     26  C   UNL     1     -22.040  -7.407  30.466  1.00  0.00    -0.000 C 
BRANCH  26  27
ATOM     27  C   UNL     1     -22.841  -6.280  31.148  1.00  0.00    -0.000 C 
BRANCH  27  28
ATOM     28  C   UNL     1     -22.811  -6.299  32.689  1.00  0.00    -0.000 C 
BRANCH  28  29
ATOM     29  C   UNL     1     -21.660  -7.114  33.305  1.00  0.00    -0.000 C 
BRANCH  29  30
ATOM     30  C   UNL     1     -20.751  -6.269  34.214  1.00  0.00    -0.000 C 
BRANCH  30  31
ATOM     31  C   UNL     1     -20.375  -6.999  35.512  1.00  0.00    -0.003 C 
ATOM     32  C   UNL     1     -19.076  -6.476  36.126  1.00  0.00     0.004 C 
ENDBRANCH  30  31
ENDBRANCH  29  30
ENDBRANCH  28  29
ENDBRANCH  27  28
ENDBRANCH  26  27
ENDBRANCH  25  26
ENDBRANCH  24  25
ENDBRANCH  23  24
ENDBRANCH  22  23
ENDBRANCH  21  22
ENDBRANCH  20  21
ENDBRANCH  19  20
ENDBRANCH  18  19
ENDBRANCH   1  18
TORSDOF 28
ENDMDL
MODEL 7
REMARK VINA RESULT:    -4.378      1.356      6.337
REMARK INTER + INTRA:         -15.382
REMARK INTER:                 -10.774
REMARK INTRA:                  -4.607
REMARK UNBOUND:                -3.837
REMARK SMILES CCCCCCCCCCCCCCCCCCCCCCCCCCCCCC(=O)[O-]
REMARK SMILES IDX 16 1 17 2 18 3 19 4 20 5 21 6 22 7 23 8 24 9 25 10 26 11
REMARK SMILES IDX 27 12 28 13 29 14 30 15 31 16 32 17 15 18 14 19 13 20 12 21
REMARK SMILES IDX 11 22 10 23 9 24 8 25 7 26 6 27 5 28 4 29 3 30 2 31 1 32
REMARK H PARENT
REMARK Flexibility Score: inf
ROOT
ATOM      1  C   UNL     1     -20.371  -5.844  29.932  1.00  0.00     0.000 C 
ENDROOT
BRANCH   1   2
ATOM      2  C   UNL     1     -20.905  -7.288  29.890  1.00  0.00     0.000 C 
BRANCH   2   3
ATOM      3  C   UNL     1     -20.847  -8.038  31.232  1.00  0.00     0.000 C 
BRANCH   3   4
ATOM      4  C   UNL     1     -22.163  -7.938  32.023  1.00  0.00     0.000 C 
BRANCH   4   5
ATOM      5  C   UNL     1     -21.950  -7.435  33.460  1.00  0.00     0.000 C 
BRANCH   5   6
ATOM      6  C   UNL     1     -21.813  -5.907  33.535  1.00  0.00     0.000 C 
BRANCH   6   7
ATOM      7  C   UNL     1     -20.402  -5.499  33.976  1.00  0.00     0.000 C 
BRANCH   7   8
ATOM      8  C   UNL     1     -19.954  -4.217  33.259  1.00  0.00     0.000 C 
BRANCH   8   9
ATOM      9  C   UNL     1     -19.082  -3.314  34.144  1.00  0.00     0.000 C 
BRANCH   9  10
ATOM     10  C   UNL     1     -17.769  -2.899  33.456  1.00  0.00     0.000 C 
BRANCH  10  11
ATOM     11  C   UNL     1     -17.981  -2.446  32.003  1.00  0.00     0.000 C 
BRANCH  11  12
ATOM     12  C   UNL     1     -16.671  -2.403  31.200  1.00  0.00     0.000 C 
BRANCH  12  13
ATOM     13  C   UNL     1     -16.261  -0.954  30.900  1.00  0.00     0.006 C 
BRANCH  13  14
ATOM     14  C   UNL     1     -15.008  -0.529  31.680  1.00  0.00     0.053 C 
BRANCH  14  15
ATOM     15  C   UNL     1     -14.006   0.151  30.798  1.00  0.00     0.041 C 
ATOM     16  O   UNL     1     -12.851  -0.331  30.664  1.00  0.00    -0.550 OA
ATOM     17  O   UNL     1     -14.341   1.329  30.143  1.00  0.00    -0.550 OA
ENDBRANCH  14  15
ENDBRANCH  13  14
ENDBRANCH  12  13
ENDBRANCH  11  12
ENDBRANCH  10  11
ENDBRANCH   9  10
ENDBRANCH   8   9
ENDBRANCH   7   8
ENDBRANCH   6   7
ENDBRANCH   5   6
ENDBRANCH   4   5
ENDBRANCH   3   4
ENDBRANCH   2   3
ENDBRANCH   1   2
BRANCH   1  18
ATOM     18  C   UNL     1     -21.483  -4.772  29.947  1.00  0.00     0.000 C 
BRANCH  18  19
ATOM     19  C   UNL     1     -22.844  -5.341  29.509  1.00  0.00     0.000 C 
BRANCH  19  20
ATOM     20  C   UNL     1     -24.027  -4.636  30.191  1.00  0.00     0.000 C 
BRANCH  20  21
ATOM     21  C   UNL     1     -23.578  -3.595  31.230  1.00  0.00     0.000 C 
BRANCH  21  22
ATOM     22  C   UNL     1     -24.005  -2.161  30.849  1.00  0.00     0.000 C 
BRANCH  22  23
ATOM     23  C   UNL     1     -23.955  -1.884  29.334  1.00  0.00     0.000 C 
BRANCH  23  24
ATOM     24  C   UNL     1     -22.599  -1.372  28.815  1.00  0.00    -0.000 C 
BRANCH  24  25
ATOM     25  C   UNL     1     -21.549  -1.085  29.908  1.00  0.00    -0.000 C 
BRANCH  25  26
ATOM     26  C   UNL     1     -20.093  -0.998  29.409  1.00  0.00    -0.000 C 
BRANCH  26  27
ATOM     27  C   UNL     1     -19.514   0.429  29.338  1.00  0.00    -0.000 C 
BRANCH  27  28
ATOM     28  C   UNL     1     -18.564   0.689  28.152  1.00  0.00    -0.000 C 
BRANCH  28  29
ATOM     29  C   UNL     1     -19.068   0.172  26.793  1.00  0.00    -0.000 C 
BRANCH  29  30
ATOM     30  C   UNL     1     -20.388   0.832  26.357  1.00  0.00    -0.000 C 
BRANCH  30  31
ATOM     31  C   UNL     1     -21.328  -0.150  25.641  1.00  0.00    -0.003 C 
ATOM     32  C   UNL     1     -22.777   0.335  25.618  1.00  0.00     0.004 C 
ENDBRANCH  30  31
ENDBRANCH  29  30
ENDBRANCH  28  29
ENDBRANCH  27  28
ENDBRANCH  26  27
ENDBRANCH  25  26
ENDBRANCH  24  25
ENDBRANCH  23  24
ENDBRANCH  22  23
ENDBRANCH  21  22
ENDBRANCH  20  21
ENDBRANCH  19  20
ENDBRANCH  18  19
ENDBRANCH   1  18
TORSDOF 28
ENDMDL
MODEL 8
REMARK VINA RESULT:    -4.344      1.850      6.441
REMARK INTER + INTRA:         -15.292
REMARK INTER:                 -11.232
REMARK INTRA:                  -4.060
REMARK UNBOUND:                -3.837
REMARK SMILES CCCCCCCCCCCCCCCCCCCCCCCCCCCCCC(=O)[O-]
REMARK SMILES IDX 16 1 17 2 18 3 19 4 20 5 21 6 22 7 23 8 24 9 25 10 26 11
REMARK SMILES IDX 27 12 28 13 29 14 30 15 31 16 32 17 15 18 14 19 13 20 12 21
REMARK SMILES IDX 11 22 10 23 9 24 8 25 7 26 6 27 5 28 4 29 3 30 2 31 1 32
REMARK H PARENT
REMARK Flexibility Score: inf
ROOT
ATOM      1  C   UNL     1     -19.850  -4.752  29.907  1.00  0.00     0.000 C 
ENDROOT
BRANCH   1   2
ATOM      2  C   UNL     1     -20.503  -5.908  29.126  1.00  0.00     0.000 C 
BRANCH   2   3
ATOM      3  C   UNL     1     -20.194  -7.312  29.671  1.00  0.00     0.000 C 
BRANCH   3   4
ATOM      4  C   UNL     1     -21.426  -7.987  30.301  1.00  0.00     0.000 C 
BRANCH   4   5
ATOM      5  C   UNL     1     -21.367  -8.004  31.837  1.00  0.00     0.000 C 
BRANCH   5   6
ATOM      6  C   UNL     1     -22.336  -6.997  32.474  1.00  0.00     0.000 C 
BRANCH   6   7
ATOM      7  C   UNL     1     -21.663  -6.231  33.620  1.00  0.00     0.000 C 
BRANCH   7   8
ATOM      8  C   UNL     1     -20.770  -7.163  34.452  1.00  0.00     0.000 C 
BRANCH   8   9
ATOM      9  C   UNL     1     -20.195  -6.476  35.701  1.00  0.00     0.000 C 
BRANCH   9  10
ATOM     10  C   UNL     1     -18.926  -5.661  35.397  1.00  0.00     0.000 C 
BRANCH  10  11
ATOM     11  C   UNL     1     -19.227  -4.355  34.645  1.00  0.00     0.000 C 
BRANCH  11  12
ATOM     12  C   UNL     1     -17.958  -3.671  34.115  1.00  0.00     0.000 C 
BRANCH  12  13
ATOM     13  C   UNL     1     -18.298  -2.688  32.985  1.00  0.00     0.006 C 
BRANCH  13  14
ATOM     14  C   UNL     1     -17.227  -1.601  32.818  1.00  0.00     0.053 C 
BRANCH  14  15
ATOM     15  C   UNL     1     -16.514  -1.717  31.505  1.00  0.00     0.041 C 
ATOM     16  O   UNL     1     -16.531  -2.804  30.870  1.00  0.00    -0.550 OA
ATOM     17  O   UNL     1     -15.812  -0.632  30.995  1.00  0.00    -0.550 OA
ENDBRANCH  14  15
ENDBRANCH  13  14
ENDBRANCH  12  13
ENDBRANCH  11  12
ENDBRANCH  10  11
ENDBRANCH   9  10
ENDBRANCH   8   9
ENDBRANCH   7   8
ENDBRANCH   6   7
ENDBRANCH   5   6
ENDBRANCH   4   5
ENDBRANCH   3   4
ENDBRANCH   2   3
ENDBRANCH   1   2
BRANCH   1  18
ATOM     18  C   UNL     1     -20.867  -3.754  30.503  1.00  0.00     0.000 C 
BRANCH  18  19
ATOM     19  C   UNL     1     -22.292  -3.992  29.974  1.00  0.00     0.000 C 
BRANCH  19  20
ATOM     20  C   UNL     1     -23.364  -3.811  31.061  1.00  0.00     0.000 C 
BRANCH  20  21
ATOM     21  C   UNL     1     -24.036  -2.429  31.006  1.00  0.00     0.000 C 
BRANCH  21  22
ATOM     22  C   UNL     1     -23.836  -1.731  29.644  1.00  0.00     0.000 C 
BRANCH  22  23
ATOM     23  C   UNL     1     -23.237  -0.315  29.757  1.00  0.00     0.000 C 
BRANCH  23  24
ATOM     24  C   UNL     1     -23.427   0.570  28.511  1.00  0.00    -0.000 C 
BRANCH  24  25
ATOM     25  C   UNL     1     -23.756  -0.196  27.213  1.00  0.00    -0.000 C 
BRANCH  25  26
ATOM     26  C   UNL     1     -22.532  -0.651  26.395  1.00  0.00    -0.000 C 
BRANCH  26  27
ATOM     27  C   UNL     1     -21.792   0.478  25.649  1.00  0.00    -0.000 C 
BRANCH  27  28
ATOM     28  C   UNL     1     -20.582   1.071  26.397  1.00  0.00    -0.000 C 
BRANCH  28  29
ATOM     29  C   UNL     1     -19.304   0.214  26.345  1.00  0.00    -0.000 C 
BRANCH  29  30
ATOM     30  C   UNL     1     -18.722  -0.071  27.740  1.00  0.00    -0.000 C 
BRANCH  30  31
ATOM     31  C   UNL     1     -19.777  -0.609  28.719  1.00  0.00    -0.003 C 
ATOM     32  C   UNL     1     -19.477  -0.235  30.170  1.00  0.00     0.004 C 
ENDBRANCH  30  31
ENDBRANCH  29  30
ENDBRANCH  28  29
ENDBRANCH  27  28
ENDBRANCH  26  27
ENDBRANCH  25  26
ENDBRANCH  24  25
ENDBRANCH  23  24
ENDBRANCH  22  23
ENDBRANCH  21  22
ENDBRANCH  20  21
ENDBRANCH  19  20
ENDBRANCH  18  19
ENDBRANCH   1  18
TORSDOF 28
ENDMDL
MODEL 9
REMARK VINA RESULT:    -4.317      1.239      2.853
REMARK INTER + INTRA:         -15.221
REMARK INTER:                 -10.875
REMARK INTRA:                  -4.346
REMARK UNBOUND:                -3.837
REMARK SMILES CCCCCCCCCCCCCCCCCCCCCCCCCCCCCC(=O)[O-]
REMARK SMILES IDX 16 1 17 2 18 3 19 4 20 5 21 6 22 7 23 8 24 9 25 10 26 11
REMARK SMILES IDX 27 12 28 13 29 14 30 15 31 16 32 17 15 18 14 19 13 20 12 21
REMARK SMILES IDX 11 22 10 23 9 24 8 25 7 26 6 27 5 28 4 29 3 30 2 31 1 32
REMARK H PARENT
REMARK Flexibility Score: inf
ROOT
ATOM      1  C   UNL     1     -23.403  -0.587  26.423  1.00  0.00     0.000 C 
ENDROOT
BRANCH   1   2
ATOM      2  C   UNL     1     -22.331   0.186  25.631  1.00  0.00     0.000 C 
BRANCH   2   3
ATOM      3  C   UNL     1     -20.917   0.128  26.234  1.00  0.00     0.000 C 
BRANCH   3   4
ATOM      4  C   UNL     1     -20.651   1.272  27.229  1.00  0.00     0.000 C 
BRANCH   4   5
ATOM      5  C   UNL     1     -19.371   1.050  28.051  1.00  0.00     0.000 C 
BRANCH   5   6
ATOM      6  C   UNL     1     -19.473  -0.165  28.984  1.00  0.00     0.000 C 
BRANCH   6   7
ATOM      7  C   UNL     1     -18.324  -1.150  28.739  1.00  0.00     0.000 C 
BRANCH   7   8
ATOM      8  C   UNL     1     -18.562  -2.468  29.490  1.00  0.00     0.000 C 
BRANCH   8   9
ATOM      9  C   UNL     1     -19.198  -2.259  30.873  1.00  0.00     0.000 C 
BRANCH   9  10
ATOM     10  C   UNL     1     -18.690  -3.268  31.917  1.00  0.00     0.000 C 
BRANCH  10  11
ATOM     11  C   UNL     1     -17.892  -2.598  33.048  1.00  0.00     0.000 C 
BRANCH  11  12
ATOM     12  C   UNL     1     -16.448  -2.272  32.641  1.00  0.00     0.000 C 
BRANCH  12  13
ATOM     13  C   UNL     1     -16.317  -0.800  32.222  1.00  0.00     0.006 C 
BRANCH  13  14
ATOM     14  C   UNL     1     -15.571  -0.637  30.890  1.00  0.00     0.053 C 
BRANCH  14  15
ATOM     15  C   UNL     1     -14.289   0.120  31.057  1.00  0.00     0.041 C 
ATOM     16  O   UNL     1     -13.467  -0.218  31.949  1.00  0.00    -0.550 OA
ATOM     17  O   UNL     1     -14.013   1.211  30.244  1.00  0.00    -0.550 OA
ENDBRANCH  14  15
ENDBRANCH  13  14
ENDBRANCH  12  13
ENDBRANCH  11  12
ENDBRANCH  10  11
ENDBRANCH   9  10
ENDBRANCH   8   9
ENDBRANCH   7   8
ENDBRANCH   6   7
ENDBRANCH   5   6
ENDBRANCH   4   5
ENDBRANCH   3   4
ENDBRANCH   2   3
ENDBRANCH   1   2
BRANCH   1  18
ATOM     18  C   UNL     1     -24.114   0.265  27.497  1.00  0.00     0.000 C 
BRANCH  18  19
ATOM     19  C   UNL     1     -24.115  -0.419  28.875  1.00  0.00     0.000 C 
BRANCH  19  20
ATOM     20  C   UNL     1     -23.876  -1.935  28.783  1.00  0.00     0.000 C 
BRANCH  20  21
ATOM     21  C   UNL     1     -22.420  -2.325  29.086  1.00  0.00     0.000 C 
BRANCH  21  22
ATOM     22  C   UNL     1     -22.303  -3.252  30.316  1.00  0.00     0.000 C 
BRANCH  22  23
ATOM     23  C   UNL     1     -23.561  -3.259  31.206  1.00  0.00     0.000 C 
BRANCH  23  24
ATOM     24  C   UNL     1     -23.639  -4.427  32.207  1.00  0.00    -0.000 C 
BRANCH  24  25
ATOM     25  C   UNL     1     -22.489  -4.481  33.234  1.00  0.00    -0.000 C 
BRANCH  25  26
ATOM     26  C   UNL     1     -21.621  -5.754  33.176  1.00  0.00    -0.000 C 
BRANCH  26  27
ATOM     27  C   UNL     1     -22.167  -6.873  32.266  1.00  0.00    -0.000 C 
BRANCH  27  28
ATOM     28  C   UNL     1     -21.189  -7.369  31.183  1.00  0.00    -0.000 C 
BRANCH  28  29
ATOM     29  C   UNL     1     -20.410  -6.257  30.456  1.00  0.00    -0.000 C 
BRANCH  29  30
ATOM     30  C   UNL     1     -20.672  -6.240  28.941  1.00  0.00    -0.000 C 
BRANCH  30  31
ATOM     31  C   UNL     1     -22.132  -6.571  28.593  1.00  0.00    -0.003 C 
ATOM     32  C   UNL     1     -22.490  -6.208  27.152  1.00  0.00     0.004 C 
ENDBRANCH  30  31
ENDBRANCH  29  30
ENDBRANCH  28  29
ENDBRANCH  27  28
ENDBRANCH  26  27
ENDBRANCH  25  26
ENDBRANCH  24  25
ENDBRANCH  23  24
ENDBRANCH  22  23
ENDBRANCH  21  22
ENDBRANCH  20  21
ENDBRANCH  19  20
ENDBRANCH  18  19
ENDBRANCH   1  18
TORSDOF 28
ENDMDL
