MODEL 1
REMARK VINA RESULT:    -2.787      0.000      0.000
REMARK INTER + INTRA:          -3.682
REMARK INTER:                  -3.357
REMARK INTRA:                  -0.325
REMARK UNBOUND:                -0.325
REMARK SMILES O=c1c(O)c(-c2ccc(O)cc2O)oc2cc(O)cc(O)c12
REMARK SMILES IDX 5 1 3 2 2 3 1 4 22 5 20 6 19 7 17 8 16 9 15 10 14 11 6 12
REMARK SMILES IDX 8 13 7 14 9 15 11 16 12 17 10 18 13 20 4 22 21 24 18 26
REMARK H PARENT 10 19 13 21 4 23 21 25 18 27
REMARK Flexibility Score: inf
ROOT
ATOM      1  C   UNL     1     -19.019   9.308  26.168  1.00  0.00     0.184 A 
ATOM      2  C   UNL     1     -17.628   9.383  26.363  1.00  0.00     0.208 A 
ATOM      3  C   UNL     1     -16.802   9.622  25.254  1.00  0.00     0.238 A 
ATOM      4  O   UNL     1     -15.553   9.703  25.417  1.00  0.00    -0.285 OA
ATOM      5  C   UNL     1     -17.376   9.763  23.975  1.00  0.00     0.111 A 
ATOM      6  C   UNL     1     -16.614  10.002  22.805  1.00  0.00     0.134 A 
ATOM      7  C   UNL     1     -17.260  10.121  21.566  1.00  0.00     0.093 A 
ATOM      8  C   UNL     1     -18.649  10.004  21.472  1.00  0.00     0.123 A 
ATOM      9  C   UNL     1     -19.408   9.768  22.623  1.00  0.00     0.094 A 
ATOM     10  C   UNL     1     -18.783   9.648  23.868  1.00  0.00     0.146 A 
ATOM     11  O   UNL     1     -19.527   9.428  24.946  1.00  0.00    -0.451 OA
ENDROOT
BRANCH   1  12
ATOM     12  C   UNL     1     -19.947   9.068  27.294  1.00  0.00     0.063 A 
ATOM     13  C   UNL     1     -21.636   9.935  28.812  1.00  0.00     0.047 A 
ATOM     14  C   UNL     1     -20.753  10.124  27.747  1.00  0.00     0.020 A 
ATOM     15  C   UNL     1     -21.714   8.691  29.448  1.00  0.00     0.119 A 
ATOM     16  C   UNL     1     -20.898   7.640  29.019  1.00  0.00     0.093 A 
ATOM     17  C   UNL     1     -20.004   7.824  27.953  1.00  0.00     0.130 A 
BRANCH  15  18
ATOM     18  O   UNL     1     -22.594   8.489  30.508  1.00  0.00    -0.508 OA
ATOM     19  H   UNL     1     -22.264   8.217  31.426  1.00  0.00     0.293 HD
ENDBRANCH  15  18
BRANCH  17  20
ATOM     20  O   UNL     1     -19.161   6.781  27.567  1.00  0.00    -0.507 OA
ATOM     21  H   UNL     1     -19.520   5.855  27.363  1.00  0.00     0.293 HD
ENDBRANCH  17  20
ENDBRANCH   1  12
BRANCH   2  22
ATOM     22  O   UNL     1     -17.086   9.194  27.636  1.00  0.00    -0.502 OA
ATOM     23  H   UNL     1     -17.661   8.997  28.446  1.00  0.00     0.293 HD
ENDBRANCH   2  22
BRANCH   6  24
ATOM     24  O   UNL     1     -15.226  10.124  22.866  1.00  0.00    -0.507 OA
ATOM     25  H   UNL     1     -14.613   9.340  22.673  1.00  0.00     0.293 HD
ENDBRANCH   6  24
BRANCH   8  26
ATOM     26  O   UNL     1     -19.266  10.125  20.229  1.00  0.00    -0.508 OA
ATOM     27  H   UNL     1     -20.041   9.531  19.961  1.00  0.00     0.293 HD
ENDBRANCH   8  26
TORSDOF 6
ENDMDL
