MODEL 1
REMARK VINA RESULT:    -5.686      0.000      0.000
REMARK INTER + INTRA:         -17.906
REMARK INTER:                 -14.994
REMARK INTRA:                  -2.912
REMARK UNBOUND:                -2.912
REMARK SMILES CCCCCCCCCCCCCCCCCCCCCCCCCCCCCC(=O)[O-]
REMARK SMILES IDX 16 1 17 2 18 3 19 4 20 5 21 6 22 7 23 8 24 9 25 10 26 11
REMARK SMILES IDX 27 12 28 13 29 14 30 15 31 16 32 17 15 18 14 19 13 20 12 21
REMARK SMILES IDX 11 22 10 23 9 24 8 25 7 26 6 27 5 28 4 29 3 30 2 31 1 32
REMARK H PARENT
REMARK Flexibility Score: inf
ROOT
ATOM      1  C   UNL     1      49.041  28.535  17.026  1.00  0.00     0.000 C 
ENDROOT
BRANCH   1   2
ATOM      2  C   UNL     1      49.000  29.937  16.393  1.00  0.00     0.000 C 
BRANCH   2   3
ATOM      3  C   UNL     1      48.451  31.002  17.366  1.00  0.00     0.000 C 
BRANCH   3   4
ATOM      4  C   UNL     1      49.498  32.045  17.795  1.00  0.00     0.000 C 
BRANCH   4   5
ATOM      5  C   UNL     1      49.078  33.483  17.447  1.00  0.00     0.000 C 
BRANCH   5   6
ATOM      6  C   UNL     1      47.596  33.597  17.054  1.00  0.00     0.000 C 
BRANCH   6   7
ATOM      7  C   UNL     1      47.334  34.055  15.605  1.00  0.00     0.000 C 
BRANCH   7   8
ATOM      8  C   UNL     1      48.422  33.618  14.601  1.00  0.00     0.000 C 
BRANCH   8   9
ATOM      9  C   UNL     1      48.570  34.612  13.435  1.00  0.00     0.000 C 
BRANCH   9  10
ATOM     10  C   UNL     1      48.060  34.039  12.102  1.00  0.00     0.000 C 
BRANCH  10  11
ATOM     11  C   UNL     1      46.595  34.414  11.821  1.00  0.00     0.000 C 
BRANCH  11  12
ATOM     12  C   UNL     1      46.156  35.678  12.577  1.00  0.00     0.000 C 
BRANCH  12  13
ATOM     13  C   UNL     1      44.674  35.633  12.990  1.00  0.00     0.006 C 
BRANCH  13  14
ATOM     14  C   UNL     1      43.922  36.907  12.581  1.00  0.00     0.053 C 
BRANCH  14  15
ATOM     15  C   UNL     1      42.482  36.627  12.278  1.00  0.00     0.041 C 
ATOM     16  O   UNL     1      42.172  35.771  11.408  1.00  0.00    -0.550 OA
ATOM     17  O   UNL     1      41.482  37.333  12.936  1.00  0.00    -0.550 OA
ENDBRANCH  14  15
ENDBRANCH  13  14
ENDBRANCH  12  13
ENDBRANCH  11  12
ENDBRANCH  10  11
ENDBRANCH   9  10
ENDBRANCH   8   9
ENDBRANCH   7   8
ENDBRANCH   6   7
ENDBRANCH   5   6
ENDBRANCH   4   5
ENDBRANCH   3   4
ENDBRANCH   2   3
ENDBRANCH   1   2
BRANCH   1  18
ATOM     18  C   UNL     1      48.552  27.442  16.060  1.00  0.00     0.000 C 
BRANCH  18  19
ATOM     19  C   UNL     1      48.770  26.026  16.621  1.00  0.00     0.000 C 
BRANCH  19  20
ATOM     20  C   UNL     1      48.497  25.938  18.131  1.00  0.00     0.000 C 
BRANCH  20  21
ATOM     21  C   UNL     1      49.620  25.206  18.887  1.00  0.00     0.000 C 
BRANCH  21  22
ATOM     22  C   UNL     1      49.273  24.951  20.365  1.00  0.00     0.000 C 
BRANCH  22  23
ATOM     23  C   UNL     1      48.430  26.085  20.976  1.00  0.00     0.000 C 
BRANCH  23  24
ATOM     24  C   UNL     1      49.106  26.732  22.197  1.00  0.00    -0.000 C 
BRANCH  24  25
ATOM     25  C   UNL     1      50.396  26.004  22.610  1.00  0.00    -0.000 C 
BRANCH  25  26
ATOM     26  C   UNL     1      51.669  26.794  22.253  1.00  0.00    -0.000 C 
BRANCH  26  27
ATOM     27  C   UNL     1      52.987  25.994  22.327  1.00  0.00    -0.000 C 
BRANCH  27  28
ATOM     28  C   UNL     1      53.342  25.178  21.066  1.00  0.00    -0.000 C 
BRANCH  28  29
ATOM     29  C   UNL     1      53.858  26.022  19.885  1.00  0.00    -0.000 C 
BRANCH  29  30
ATOM     30  C   UNL     1      52.852  26.115  18.714  1.00  0.00    -0.000 C 
BRANCH  30  31
ATOM     31  C   UNL     1      52.638  27.551  18.210  1.00  0.00    -0.003 C 
ATOM     32  C   UNL     1      53.491  28.572  18.961  1.00  0.00     0.004 C 
ENDBRANCH  30  31
ENDBRANCH  29  30
ENDBRANCH  28  29
ENDBRANCH  27  28
ENDBRANCH  26  27
ENDBRANCH  25  26
ENDBRANCH  24  25
ENDBRANCH  23  24
ENDBRANCH  22  23
ENDBRANCH  21  22
ENDBRANCH  20  21
ENDBRANCH  19  20
ENDBRANCH  18  19
ENDBRANCH   1  18
TORSDOF 28
ENDMDL
MODEL 2
REMARK VINA RESULT:    -5.572      4.729     12.927
REMARK INTER + INTRA:         -17.604
REMARK INTER:                 -14.990
REMARK INTRA:                  -2.614
REMARK UNBOUND:                -2.912
REMARK SMILES CCCCCCCCCCCCCCCCCCCCCCCCCCCCCC(=O)[O-]
REMARK SMILES IDX 16 1 17 2 18 3 19 4 20 5 21 6 22 7 23 8 24 9 25 10 26 11
REMARK SMILES IDX 27 12 28 13 29 14 30 15 31 16 32 17 15 18 14 19 13 20 12 21
REMARK SMILES IDX 11 22 10 23 9 24 8 25 7 26 6 27 5 28 4 29 3 30 2 31 1 32
REMARK H PARENT
REMARK Flexibility Score: inf
ROOT
ATOM      1  C   UNL     1      49.244  32.367  17.637  1.00  0.00     0.000 C 
ENDROOT
BRANCH   1   2
ATOM      2  C   UNL     1      48.087  31.600  18.301  1.00  0.00     0.000 C 
BRANCH   2   3
ATOM      3  C   UNL     1      47.962  30.156  17.769  1.00  0.00     0.000 C 
BRANCH   3   4
ATOM      4  C   UNL     1      47.394  30.071  16.342  1.00  0.00     0.000 C 
BRANCH   4   5
ATOM      5  C   UNL     1      48.266  29.216  15.408  1.00  0.00     0.000 C 
BRANCH   5   6
ATOM      6  C   UNL     1      49.656  28.914  15.993  1.00  0.00     0.000 C 
BRANCH   6   7
ATOM      7  C   UNL     1      50.052  27.424  16.013  1.00  0.00     0.000 C 
BRANCH   7   8
ATOM      8  C   UNL     1      48.888  26.460  15.696  1.00  0.00     0.000 C 
BRANCH   8   9
ATOM      9  C   UNL     1      48.169  25.978  16.968  1.00  0.00     0.000 C 
BRANCH   9  10
ATOM     10  C   UNL     1      49.147  25.540  18.069  1.00  0.00     0.000 C 
BRANCH  10  11
ATOM     11  C   UNL     1      48.486  25.489  19.458  1.00  0.00     0.000 C 
BRANCH  11  12
ATOM     12  C   UNL     1      49.488  25.155  20.574  1.00  0.00     0.000 C 
BRANCH  12  13
ATOM     13  C   UNL     1      50.933  25.047  20.056  1.00  0.00     0.006 C 
BRANCH  13  14
ATOM     14  C   UNL     1      51.794  26.239  20.495  1.00  0.00     0.053 C 
BRANCH  14  15
ATOM     15  C   UNL     1      52.152  26.157  21.948  1.00  0.00     0.041 C 
ATOM     16  O   UNL     1      52.334  27.209  22.617  1.00  0.00    -0.550 OA
ATOM     17  O   UNL     1      52.313  24.918  22.556  1.00  0.00    -0.550 OA
ENDBRANCH  14  15
ENDBRANCH  13  14
ENDBRANCH  12  13
ENDBRANCH  11  12
ENDBRANCH  10  11
ENDBRANCH   9  10
ENDBRANCH   8   9
ENDBRANCH   7   8
ENDBRANCH   6   7
ENDBRANCH   5   6
ENDBRANCH   4   5
ENDBRANCH   3   4
ENDBRANCH   2   3
ENDBRANCH   1   2
BRANCH   1  18
ATOM     18  C   UNL     1      48.857  33.811  17.273  1.00  0.00     0.000 C 
BRANCH  18  19
ATOM     19  C   UNL     1      47.677  33.870  16.287  1.00  0.00     0.000 C 
BRANCH  19  20
ATOM     20  C   UNL     1      48.017  33.256  14.919  1.00  0.00     0.000 C 
BRANCH  20  21
ATOM     21  C   UNL     1      48.650  34.279  13.958  1.00  0.00     0.000 C 
BRANCH  21  22
ATOM     22  C   UNL     1      47.966  34.302  12.580  1.00  0.00     0.000 C 
BRANCH  22  23
ATOM     23  C   UNL     1      46.950  35.451  12.446  1.00  0.00     0.000 C 
BRANCH  23  24
ATOM     24  C   UNL     1      45.506  34.996  12.711  1.00  0.00    -0.000 C 
BRANCH  24  25
ATOM     25  C   UNL     1      44.620  36.134  13.247  1.00  0.00    -0.000 C 
BRANCH  25  26
ATOM     26  C   UNL     1      43.274  36.243  12.506  1.00  0.00    -0.000 C 
BRANCH  26  27
ATOM     27  C   UNL     1      43.060  37.551  11.716  1.00  0.00    -0.000 C 
BRANCH  27  28
ATOM     28  C   UNL     1      41.750  38.308  12.022  1.00  0.00    -0.000 C 
BRANCH  28  29
ATOM     29  C   UNL     1      40.669  37.457  12.715  1.00  0.00    -0.000 C 
BRANCH  29  30
ATOM     30  C   UNL     1      39.596  36.919  11.740  1.00  0.00    -0.000 C 
BRANCH  30  31
ATOM     31  C   UNL     1      40.007  35.612  11.045  1.00  0.00    -0.003 C 
ATOM     32  C   UNL     1      39.328  34.384  11.649  1.00  0.00     0.004 C 
ENDBRANCH  30  31
ENDBRANCH  29  30
ENDBRANCH  28  29
ENDBRANCH  27  28
ENDBRANCH  26  27
ENDBRANCH  25  26
ENDBRANCH  24  25
ENDBRANCH  23  24
ENDBRANCH  22  23
ENDBRANCH  21  22
ENDBRANCH  20  21
ENDBRANCH  19  20
ENDBRANCH  18  19
ENDBRANCH   1  18
TORSDOF 28
ENDMDL
MODEL 3
REMARK VINA RESULT:    -5.471      4.680     13.839
REMARK INTER + INTRA:         -17.338
REMARK INTER:                 -15.053
REMARK INTRA:                  -2.285
REMARK UNBOUND:                -2.912
REMARK SMILES CCCCCCCCCCCCCCCCCCCCCCCCCCCCCC(=O)[O-]
REMARK SMILES IDX 16 1 17 2 18 3 19 4 20 5 21 6 22 7 23 8 24 9 25 10 26 11
REMARK SMILES IDX 27 12 28 13 29 14 30 15 31 16 32 17 15 18 14 19 13 20 12 21
REMARK SMILES IDX 11 22 10 23 9 24 8 25 7 26 6 27 5 28 4 29 3 30 2 31 1 32
REMARK H PARENT
REMARK Flexibility Score: inf
ROOT
ATOM      1  C   UNL     1      46.598  34.368  16.016  1.00  0.00     0.000 C 
ENDROOT
BRANCH   1   2
ATOM      2  C   UNL     1      47.387  34.070  17.304  1.00  0.00     0.000 C 
BRANCH   2   3
ATOM      3  C   UNL     1      48.870  33.752  17.020  1.00  0.00     0.000 C 
BRANCH   3   4
ATOM      4  C   UNL     1      49.254  32.290  17.308  1.00  0.00     0.000 C 
BRANCH   4   5
ATOM      5  C   UNL     1      48.227  31.572  18.198  1.00  0.00     0.000 C 
BRANCH   5   6
ATOM      6  C   UNL     1      47.730  30.248  17.592  1.00  0.00     0.000 C 
BRANCH   6   7
ATOM      7  C   UNL     1      47.771  30.174  16.053  1.00  0.00     0.000 C 
BRANCH   7   8
ATOM      8  C   UNL     1      48.126  28.777  15.500  1.00  0.00     0.000 C 
BRANCH   8   9
ATOM      9  C   UNL     1      48.093  27.693  16.592  1.00  0.00     0.000 C 
BRANCH   9  10
ATOM     10  C   UNL     1      48.587  26.328  16.086  1.00  0.00     0.000 C 
BRANCH  10  11
ATOM     11  C   UNL     1      49.405  25.568  17.144  1.00  0.00     0.000 C 
BRANCH  11  12
ATOM     12  C   UNL     1      49.365  26.251  18.520  1.00  0.00     0.000 C 
BRANCH  12  13
ATOM     13  C   UNL     1      49.265  25.240  19.677  1.00  0.00     0.006 C 
BRANCH  13  14
ATOM     14  C   UNL     1      48.312  25.720  20.781  1.00  0.00     0.053 C 
BRANCH  14  15
ATOM     15  C   UNL     1      49.055  26.107  22.023  1.00  0.00     0.041 C 
ATOM     16  O   UNL     1      48.858  27.231  22.555  1.00  0.00    -0.550 OA
ATOM     17  O   UNL     1      49.987  25.237  22.576  1.00  0.00    -0.550 OA
ENDBRANCH  14  15
ENDBRANCH  13  14
ENDBRANCH  12  13
ENDBRANCH  11  12
ENDBRANCH  10  11
ENDBRANCH   9  10
ENDBRANCH   8   9
ENDBRANCH   7   8
ENDBRANCH   6   7
ENDBRANCH   5   6
ENDBRANCH   4   5
ENDBRANCH   3   4
ENDBRANCH   2   3
ENDBRANCH   1   2
BRANCH   1  18
ATOM     18  C   UNL     1      45.271  35.094  16.297  1.00  0.00     0.000 C 
BRANCH  18  19
ATOM     19  C   UNL     1      44.614  35.629  15.014  1.00  0.00     0.000 C 
BRANCH  19  20
ATOM     20  C   UNL     1      45.473  35.388  13.762  1.00  0.00     0.000 C 
BRANCH  20  21
ATOM     21  C   UNL     1      44.820  35.947  12.485  1.00  0.00     0.000 C 
BRANCH  21  22
ATOM     22  C   UNL     1      43.347  36.341  12.696  1.00  0.00     0.000 C 
BRANCH  22  23
ATOM     23  C   UNL     1      42.700  36.905  11.418  1.00  0.00     0.000 C 
BRANCH  23  24
ATOM     24  C   UNL     1      43.214  38.311  11.066  1.00  0.00    -0.000 C 
BRANCH  24  25
ATOM     25  C   UNL     1      42.430  38.951   9.908  1.00  0.00    -0.000 C 
BRANCH  25  26
ATOM     26  C   UNL     1      41.347  39.935  10.390  1.00  0.00    -0.000 C 
BRANCH  26  27
ATOM     27  C   UNL     1      39.911  39.617   9.922  1.00  0.00    -0.000 C 
BRANCH  27  28
ATOM     28  C   UNL     1      39.062  38.779  10.901  1.00  0.00    -0.000 C 
BRANCH  28  29
ATOM     29  C   UNL     1      38.918  37.295  10.511  1.00  0.00    -0.000 C 
BRANCH  29  30
ATOM     30  C   UNL     1      38.401  36.406  11.665  1.00  0.00    -0.000 C 
BRANCH  30  31
ATOM     31  C   UNL     1      38.454  34.904  11.344  1.00  0.00    -0.003 C 
ATOM     32  C   UNL     1      39.878  34.350  11.347  1.00  0.00     0.004 C 
ENDBRANCH  30  31
ENDBRANCH  29  30
ENDBRANCH  28  29
ENDBRANCH  27  28
ENDBRANCH  26  27
ENDBRANCH  25  26
ENDBRANCH  24  25
ENDBRANCH  23  24
ENDBRANCH  22  23
ENDBRANCH  21  22
ENDBRANCH  20  21
ENDBRANCH  19  20
ENDBRANCH  18  19
ENDBRANCH   1  18
TORSDOF 28
ENDMDL
MODEL 4
REMARK VINA RESULT:    -5.468      4.720     13.660
REMARK INTER + INTRA:         -17.332
REMARK INTER:                 -14.728
REMARK INTRA:                  -2.603
REMARK UNBOUND:                -2.912
REMARK SMILES CCCCCCCCCCCCCCCCCCCCCCCCCCCCCC(=O)[O-]
REMARK SMILES IDX 16 1 17 2 18 3 19 4 20 5 21 6 22 7 23 8 24 9 25 10 26 11
REMARK SMILES IDX 27 12 28 13 29 14 30 15 31 16 32 17 15 18 14 19 13 20 12 21
REMARK SMILES IDX 11 22 10 23 9 24 8 25 7 26 6 27 5 28 4 29 3 30 2 31 1 32
REMARK H PARENT
REMARK Flexibility Score: inf
ROOT
ATOM      1  C   UNL     1      44.702  35.436  14.996  1.00  0.00     0.000 C 
ENDROOT
BRANCH   1   2
ATOM      2  C   UNL     1      45.501  35.031  16.247  1.00  0.00     0.000 C 
BRANCH   2   3
ATOM      3  C   UNL     1      46.778  34.238  15.896  1.00  0.00     0.000 C 
BRANCH   3   4
ATOM      4  C   UNL     1      47.652  33.902  17.116  1.00  0.00     0.000 C 
BRANCH   4   5
ATOM      5  C   UNL     1      48.831  32.981  16.764  1.00  0.00     0.000 C 
BRANCH   5   6
ATOM      6  C   UNL     1      48.968  31.788  17.726  1.00  0.00     0.000 C 
BRANCH   6   7
ATOM      7  C   UNL     1      48.001  30.617  17.462  1.00  0.00     0.000 C 
BRANCH   7   8
ATOM      8  C   UNL     1      47.748  30.336  15.965  1.00  0.00     0.000 C 
BRANCH   8   9
ATOM      9  C   UNL     1      48.058  28.877  15.586  1.00  0.00     0.000 C 
BRANCH   9  10
ATOM     10  C   UNL     1      48.199  27.964  16.815  1.00  0.00     0.000 C 
BRANCH  10  11
ATOM     11  C   UNL     1      48.206  26.471  16.442  1.00  0.00     0.000 C 
BRANCH  11  12
ATOM     12  C   UNL     1      49.143  25.646  17.339  1.00  0.00     0.000 C 
BRANCH  12  13
ATOM     13  C   UNL     1      49.240  26.211  18.767  1.00  0.00     0.006 C 
BRANCH  13  14
ATOM     14  C   UNL     1      48.500  25.334  19.786  1.00  0.00     0.053 C 
BRANCH  14  15
ATOM     15  C   UNL     1      48.865  25.693  21.194  1.00  0.00     0.041 C 
ATOM     16  O   UNL     1      49.824  25.114  21.769  1.00  0.00    -0.550 OA
ATOM     17  O   UNL     1      48.126  26.648  21.882  1.00  0.00    -0.550 OA
ENDBRANCH  14  15
ENDBRANCH  13  14
ENDBRANCH  12  13
ENDBRANCH  11  12
ENDBRANCH  10  11
ENDBRANCH   9  10
ENDBRANCH   8   9
ENDBRANCH   7   8
ENDBRANCH   6   7
ENDBRANCH   5   6
ENDBRANCH   4   5
ENDBRANCH   3   4
ENDBRANCH   2   3
ENDBRANCH   1   2
BRANCH   1  18
ATOM     18  C   UNL     1      45.593  35.560  13.747  1.00  0.00     0.000 C 
BRANCH  18  19
ATOM     19  C   UNL     1      44.771  35.700  12.454  1.00  0.00     0.000 C 
BRANCH  19  20
ATOM     20  C   UNL     1      43.689  36.788  12.554  1.00  0.00     0.000 C 
BRANCH  20  21
ATOM     21  C   UNL     1      42.304  36.278  12.118  1.00  0.00     0.000 C 
BRANCH  21  22
ATOM     22  C   UNL     1      42.125  36.276  10.590  1.00  0.00     0.000 C 
BRANCH  22  23
ATOM     23  C   UNL     1      40.969  35.368  10.132  1.00  0.00     0.000 C 
BRANCH  23  24
ATOM     24  C   UNL     1      40.238  34.704  11.311  1.00  0.00    -0.000 C 
BRANCH  24  25
ATOM     25  C   UNL     1      38.708  34.808  11.188  1.00  0.00    -0.000 C 
BRANCH  25  26
ATOM     26  C   UNL     1      38.191  36.248  11.361  1.00  0.00    -0.000 C 
BRANCH  26  27
ATOM     27  C   UNL     1      38.719  36.995  12.605  1.00  0.00    -0.000 C 
BRANCH  27  28
ATOM     28  C   UNL     1      39.440  38.330  12.323  1.00  0.00    -0.000 C 
BRANCH  28  29
ATOM     29  C   UNL     1      40.096  38.973  13.560  1.00  0.00    -0.000 C 
BRANCH  29  30
ATOM     30  C   UNL     1      39.924  38.136  14.848  1.00  0.00    -0.000 C 
BRANCH  30  31
ATOM     31  C   UNL     1      38.964  38.776  15.864  1.00  0.00    -0.003 C 
ATOM     32  C   UNL     1      37.680  37.969  16.051  1.00  0.00     0.004 C 
ENDBRANCH  30  31
ENDBRANCH  29  30
ENDBRANCH  28  29
ENDBRANCH  27  28
ENDBRANCH  26  27
ENDBRANCH  25  26
ENDBRANCH  24  25
ENDBRANCH  23  24
ENDBRANCH  22  23
ENDBRANCH  21  22
ENDBRANCH  20  21
ENDBRANCH  19  20
ENDBRANCH  18  19
ENDBRANCH   1  18
TORSDOF 28
ENDMDL
MODEL 5
REMARK VINA RESULT:    -5.436      4.689     14.036
REMARK INTER + INTRA:         -17.247
REMARK INTER:                 -14.751
REMARK INTRA:                  -2.497
REMARK UNBOUND:                -2.912
REMARK SMILES CCCCCCCCCCCCCCCCCCCCCCCCCCCCCC(=O)[O-]
REMARK SMILES IDX 16 1 17 2 18 3 19 4 20 5 21 6 22 7 23 8 24 9 25 10 26 11
REMARK SMILES IDX 27 12 28 13 29 14 30 15 31 16 32 17 15 18 14 19 13 20 12 21
REMARK SMILES IDX 11 22 10 23 9 24 8 25 7 26 6 27 5 28 4 29 3 30 2 31 1 32
REMARK H PARENT
REMARK Flexibility Score: inf
ROOT
ATOM      1  C   UNL     1      44.836  35.380  15.084  1.00  0.00     0.000 C 
ENDROOT
BRANCH   1   2
ATOM      2  C   UNL     1      45.825  34.988  16.196  1.00  0.00     0.000 C 
BRANCH   2   3
ATOM      3  C   UNL     1      47.020  34.174  15.657  1.00  0.00     0.000 C 
BRANCH   3   4
ATOM      4  C   UNL     1      48.074  33.843  16.727  1.00  0.00     0.000 C 
BRANCH   4   5
ATOM      5  C   UNL     1      47.892  32.438  17.324  1.00  0.00     0.000 C 
BRANCH   5   6
ATOM      6  C   UNL     1      49.079  31.504  17.034  1.00  0.00     0.000 C 
BRANCH   6   7
ATOM      7  C   UNL     1      48.859  30.498  15.887  1.00  0.00     0.000 C 
BRANCH   7   8
ATOM      8  C   UNL     1      49.531  29.126  16.116  1.00  0.00     0.000 C 
BRANCH   8   9
ATOM      9  C   UNL     1      48.643  28.173  16.935  1.00  0.00     0.000 C 
BRANCH   9  10
ATOM     10  C   UNL     1      48.498  26.790  16.279  1.00  0.00     0.000 C 
BRANCH  10  11
ATOM     11  C   UNL     1      49.035  25.657  17.170  1.00  0.00     0.000 C 
BRANCH  11  12
ATOM     12  C   UNL     1      48.818  25.932  18.666  1.00  0.00     0.000 C 
BRANCH  12  13
ATOM     13  C   UNL     1      49.550  24.918  19.564  1.00  0.00     0.006 C 
BRANCH  13  14
ATOM     14  C   UNL     1      49.199  25.101  21.047  1.00  0.00     0.053 C 
BRANCH  14  15
ATOM     15  C   UNL     1      50.108  26.089  21.713  1.00  0.00     0.041 C 
ATOM     16  O   UNL     1      49.702  26.759  22.699  1.00  0.00    -0.550 OA
ATOM     17  O   UNL     1      51.393  26.290  21.226  1.00  0.00    -0.550 OA
ENDBRANCH  14  15
ENDBRANCH  13  14
ENDBRANCH  12  13
ENDBRANCH  11  12
ENDBRANCH  10  11
ENDBRANCH   9  10
ENDBRANCH   8   9
ENDBRANCH   7   8
ENDBRANCH   6   7
ENDBRANCH   5   6
ENDBRANCH   4   5
ENDBRANCH   3   4
ENDBRANCH   2   3
ENDBRANCH   1   2
BRANCH   1  18
ATOM     18  C   UNL     1      45.533  35.593  13.729  1.00  0.00     0.000 C 
BRANCH  18  19
ATOM     19  C   UNL     1      44.554  35.498  12.546  1.00  0.00     0.000 C 
BRANCH  19  20
ATOM     20  C   UNL     1      43.528  36.643  12.532  1.00  0.00     0.000 C 
BRANCH  20  21
ATOM     21  C   UNL     1      42.117  36.160  12.151  1.00  0.00     0.000 C 
BRANCH  21  22
ATOM     22  C   UNL     1      41.915  36.058  10.629  1.00  0.00     0.000 C 
BRANCH  22  23
ATOM     23  C   UNL     1      40.929  34.942  10.239  1.00  0.00     0.000 C 
BRANCH  23  24
ATOM     24  C   UNL     1      39.909  34.640  11.349  1.00  0.00    -0.000 C 
BRANCH  24  25
ATOM     25  C   UNL     1      38.545  35.304  11.092  1.00  0.00    -0.000 C 
BRANCH  25  26
ATOM     26  C   UNL     1      38.422  36.691  11.751  1.00  0.00    -0.000 C 
BRANCH  26  27
ATOM     27  C   UNL     1      38.634  37.893  10.806  1.00  0.00    -0.000 C 
BRANCH  27  28
ATOM     28  C   UNL     1      39.061  39.210  11.489  1.00  0.00    -0.000 C 
BRANCH  28  29
ATOM     29  C   UNL     1      40.337  39.099  12.344  1.00  0.00    -0.000 C 
BRANCH  29  30
ATOM     30  C   UNL     1      41.483  40.016  11.855  1.00  0.00    -0.000 C 
BRANCH  30  31
ATOM     31  C   UNL     1      41.682  39.978  10.332  1.00  0.00    -0.003 C 
ATOM     32  C   UNL     1      42.939  39.211   9.921  1.00  0.00     0.004 C 
ENDBRANCH  30  31
ENDBRANCH  29  30
ENDBRANCH  28  29
ENDBRANCH  27  28
ENDBRANCH  26  27
ENDBRANCH  25  26
ENDBRANCH  24  25
ENDBRANCH  23  24
ENDBRANCH  22  23
ENDBRANCH  21  22
ENDBRANCH  20  21
ENDBRANCH  19  20
ENDBRANCH  18  19
ENDBRANCH   1  18
TORSDOF 28
ENDMDL
MODEL 6
REMARK VINA RESULT:    -5.430      1.918      5.264
REMARK INTER + INTRA:         -17.230
REMARK INTER:                 -15.038
REMARK INTRA:                  -2.192
REMARK UNBOUND:                -2.912
REMARK SMILES CCCCCCCCCCCCCCCCCCCCCCCCCCCCCC(=O)[O-]
REMARK SMILES IDX 16 1 17 2 18 3 19 4 20 5 21 6 22 7 23 8 24 9 25 10 26 11
REMARK SMILES IDX 27 12 28 13 29 14 30 15 31 16 32 17 15 18 14 19 13 20 12 21
REMARK SMILES IDX 11 22 10 23 9 24 8 25 7 26 6 27 5 28 4 29 3 30 2 31 1 32
REMARK H PARENT
REMARK Flexibility Score: inf
ROOT
ATOM      1  C   UNL     1      47.747  33.898  17.346  1.00  0.00     0.000 C 
ENDROOT
BRANCH   1   2
ATOM      2  C   UNL     1      47.249  34.088  15.903  1.00  0.00     0.000 C 
BRANCH   2   3
ATOM      3  C   UNL     1      48.143  33.362  14.875  1.00  0.00     0.000 C 
BRANCH   3   4
ATOM      4  C   UNL     1      48.548  34.240  13.679  1.00  0.00     0.000 C 
BRANCH   4   5
ATOM      5  C   UNL     1      47.805  33.860  12.387  1.00  0.00     0.000 C 
BRANCH   5   6
ATOM      6  C   UNL     1      46.819  34.945  11.921  1.00  0.00     0.000 C 
BRANCH   6   7
ATOM      7  C   UNL     1      45.676  35.261  12.906  1.00  0.00     0.000 C 
BRANCH   7   8
ATOM      8  C   UNL     1      44.921  36.570  12.593  1.00  0.00     0.000 C 
BRANCH   8   9
ATOM      9  C   UNL     1      43.414  36.456  12.882  1.00  0.00     0.000 C 
BRANCH   9  10
ATOM     10  C   UNL     1      42.584  36.226  11.608  1.00  0.00     0.000 C 
BRANCH  10  11
ATOM     11  C   UNL     1      42.369  37.519  10.803  1.00  0.00     0.000 C 
BRANCH  11  12
ATOM     12  C   UNL     1      42.593  38.782  11.649  1.00  0.00     0.000 C 
BRANCH  12  13
ATOM     13  C   UNL     1      41.470  39.819  11.468  1.00  0.00     0.006 C 
BRANCH  13  14
ATOM     14  C   UNL     1      40.079  39.207  11.679  1.00  0.00     0.053 C 
BRANCH  14  15
ATOM     15  C   UNL     1      39.493  39.605  12.999  1.00  0.00     0.041 C 
ATOM     16  O   UNL     1      38.363  40.160  13.050  1.00  0.00    -0.550 OA
ATOM     17  O   UNL     1      40.207  39.390  14.171  1.00  0.00    -0.550 OA
ENDBRANCH  14  15
ENDBRANCH  13  14
ENDBRANCH  12  13
ENDBRANCH  11  12
ENDBRANCH  10  11
ENDBRANCH   9  10
ENDBRANCH   8   9
ENDBRANCH   7   8
ENDBRANCH   6   7
ENDBRANCH   5   6
ENDBRANCH   4   5
ENDBRANCH   3   4
ENDBRANCH   2   3
ENDBRANCH   1   2
BRANCH   1  18
ATOM     18  C   UNL     1      49.226  33.479  17.405  1.00  0.00     0.000 C 
BRANCH  18  19
ATOM     19  C   UNL     1      49.409  32.054  17.954  1.00  0.00     0.000 C 
BRANCH  19  20
ATOM     20  C   UNL     1      48.072  31.342  18.213  1.00  0.00     0.000 C 
BRANCH  20  21
ATOM     21  C   UNL     1      47.996  29.968  17.521  1.00  0.00     0.000 C 
BRANCH  21  22
ATOM     22  C   UNL     1      48.967  29.847  16.333  1.00  0.00     0.000 C 
BRANCH  22  23
ATOM     23  C   UNL     1      49.465  28.406  16.124  1.00  0.00     0.000 C 
BRANCH  23  24
ATOM     24  C   UNL     1      48.324  27.375  16.161  1.00  0.00    -0.000 C 
BRANCH  24  25
ATOM     25  C   UNL     1      48.837  25.935  16.331  1.00  0.00    -0.000 C 
BRANCH  25  26
ATOM     26  C   UNL     1      50.136  25.857  17.155  1.00  0.00    -0.000 C 
BRANCH  26  27
ATOM     27  C   UNL     1      49.985  25.266  18.572  1.00  0.00    -0.000 C 
BRANCH  27  28
ATOM     28  C   UNL     1      48.651  25.577  19.285  1.00  0.00    -0.000 C 
BRANCH  28  29
ATOM     29  C   UNL     1      48.642  25.251  20.791  1.00  0.00    -0.000 C 
BRANCH  29  30
ATOM     30  C   UNL     1      48.153  26.426  21.669  1.00  0.00    -0.000 C 
BRANCH  30  31
ATOM     31  C   UNL     1      49.206  26.908  22.679  1.00  0.00    -0.003 C 
ATOM     32  C   UNL     1      50.599  26.348  22.391  1.00  0.00     0.004 C 
ENDBRANCH  30  31
ENDBRANCH  29  30
ENDBRANCH  28  29
ENDBRANCH  27  28
ENDBRANCH  26  27
ENDBRANCH  25  26
ENDBRANCH  24  25
ENDBRANCH  23  24
ENDBRANCH  22  23
ENDBRANCH  21  22
ENDBRANCH  20  21
ENDBRANCH  19  20
ENDBRANCH  18  19
ENDBRANCH   1  18
TORSDOF 28
ENDMDL
MODEL 7
REMARK VINA RESULT:    -5.426      4.679     13.830
REMARK INTER + INTRA:         -17.221
REMARK INTER:                 -14.772
REMARK INTRA:                  -2.449
REMARK UNBOUND:                -2.912
REMARK SMILES CCCCCCCCCCCCCCCCCCCCCCCCCCCCCC(=O)[O-]
REMARK SMILES IDX 16 1 17 2 18 3 19 4 20 5 21 6 22 7 23 8 24 9 25 10 26 11
REMARK SMILES IDX 27 12 28 13 29 14 30 15 31 16 32 17 15 18 14 19 13 20 12 21
REMARK SMILES IDX 11 22 10 23 9 24 8 25 7 26 6 27 5 28 4 29 3 30 2 31 1 32
REMARK H PARENT
REMARK Flexibility Score: inf
ROOT
ATOM      1  C   UNL     1      46.732  34.093  15.890  1.00  0.00     0.000 C 
ENDROOT
BRANCH   1   2
ATOM      2  C   UNL     1      47.877  34.031  16.917  1.00  0.00     0.000 C 
BRANCH   2   3
ATOM      3  C   UNL     1      48.652  32.698  16.849  1.00  0.00     0.000 C 
BRANCH   3   4
ATOM      4  C   UNL     1      48.263  31.701  17.955  1.00  0.00     0.000 C 
BRANCH   4   5
ATOM      5  C   UNL     1      47.661  30.401  17.396  1.00  0.00     0.000 C 
BRANCH   5   6
ATOM      6  C   UNL     1      48.641  29.622  16.502  1.00  0.00     0.000 C 
BRANCH   6   7
ATOM      7  C   UNL     1      49.170  28.303  17.101  1.00  0.00     0.000 C 
BRANCH   7   8
ATOM      8  C   UNL     1      48.796  27.048  16.284  1.00  0.00     0.000 C 
BRANCH   8   9
ATOM      9  C   UNL     1      48.947  25.754  17.104  1.00  0.00     0.000 C 
BRANCH   9  10
ATOM     10  C   UNL     1      49.309  26.024  18.573  1.00  0.00     0.000 C 
BRANCH  10  11
ATOM     11  C   UNL     1      48.281  25.432  19.552  1.00  0.00     0.000 C 
BRANCH  11  12
ATOM     12  C   UNL     1      48.485  25.931  20.992  1.00  0.00     0.000 C 
BRANCH  12  13
ATOM     13  C   UNL     1      49.747  25.341  21.647  1.00  0.00     0.006 C 
BRANCH  13  14
ATOM     14  C   UNL     1      50.443  26.350  22.570  1.00  0.00     0.053 C 
BRANCH  14  15
ATOM     15  C   UNL     1      51.778  26.764  22.031  1.00  0.00     0.041 C 
ATOM     16  O   UNL     1      52.631  27.298  22.788  1.00  0.00    -0.550 OA
ATOM     17  O   UNL     1      52.069  26.587  20.684  1.00  0.00    -0.550 OA
ENDBRANCH  14  15
ENDBRANCH  13  14
ENDBRANCH  12  13
ENDBRANCH  11  12
ENDBRANCH  10  11
ENDBRANCH   9  10
ENDBRANCH   8   9
ENDBRANCH   7   8
ENDBRANCH   6   7
ENDBRANCH   5   6
ENDBRANCH   4   5
ENDBRANCH   3   4
ENDBRANCH   2   3
ENDBRANCH   1   2
BRANCH   1  18
ATOM     18  C   UNL     1      45.582  35.005  16.349  1.00  0.00     0.000 C 
BRANCH  18  19
ATOM     19  C   UNL     1      44.760  35.550  15.168  1.00  0.00     0.000 C 
BRANCH  19  20
ATOM     20  C   UNL     1      45.471  35.370  13.817  1.00  0.00     0.000 C 
BRANCH  20  21
ATOM     21  C   UNL     1      44.905  36.299  12.728  1.00  0.00     0.000 C 
BRANCH  21  22
ATOM     22  C   UNL     1      43.386  36.507  12.856  1.00  0.00     0.000 C 
BRANCH  22  23
ATOM     23  C   UNL     1      42.659  36.387  11.504  1.00  0.00     0.000 C 
BRANCH  23  24
ATOM     24  C   UNL     1      42.513  37.742  10.790  1.00  0.00    -0.000 C 
BRANCH  24  25
ATOM     25  C   UNL     1      42.378  38.915  11.776  1.00  0.00    -0.000 C 
BRANCH  25  26
ATOM     26  C   UNL     1      40.912  39.301  12.048  1.00  0.00    -0.000 C 
BRANCH  26  27
ATOM     27  C   UNL     1      40.299  38.708  13.334  1.00  0.00    -0.000 C 
BRANCH  27  28
ATOM     28  C   UNL     1      39.574  37.355  13.164  1.00  0.00    -0.000 C 
BRANCH  28  29
ATOM     29  C   UNL     1      38.900  37.162  11.792  1.00  0.00    -0.000 C 
BRANCH  29  30
ATOM     30  C   UNL     1      38.349  35.734  11.578  1.00  0.00    -0.000 C 
BRANCH  30  31
ATOM     31  C   UNL     1      39.447  34.693  11.305  1.00  0.00    -0.003 C 
ATOM     32  C   UNL     1      39.980  34.760   9.875  1.00  0.00     0.004 C 
ENDBRANCH  30  31
ENDBRANCH  29  30
ENDBRANCH  28  29
ENDBRANCH  27  28
ENDBRANCH  26  27
ENDBRANCH  25  26
ENDBRANCH  24  25
ENDBRANCH  23  24
ENDBRANCH  22  23
ENDBRANCH  21  22
ENDBRANCH  20  21
ENDBRANCH  19  20
ENDBRANCH  18  19
ENDBRANCH   1  18
TORSDOF 28
ENDMDL
MODEL 8
REMARK VINA RESULT:    -5.422      4.737     13.685
REMARK INTER + INTRA:         -17.210
REMARK INTER:                 -14.858
REMARK INTRA:                  -2.352
REMARK UNBOUND:                -2.912
REMARK SMILES CCCCCCCCCCCCCCCCCCCCCCCCCCCCCC(=O)[O-]
REMARK SMILES IDX 16 1 17 2 18 3 19 4 20 5 21 6 22 7 23 8 24 9 25 10 26 11
REMARK SMILES IDX 27 12 28 13 29 14 30 15 31 16 32 17 15 18 14 19 13 20 12 21
REMARK SMILES IDX 11 22 10 23 9 24 8 25 7 26 6 27 5 28 4 29 3 30 2 31 1 32
REMARK H PARENT
REMARK Flexibility Score: inf
ROOT
ATOM      1  C   UNL     1      46.789  34.255  15.873  1.00  0.00     0.000 C 
ENDROOT
BRANCH   1   2
ATOM      2  C   UNL     1      47.759  34.105  17.059  1.00  0.00     0.000 C 
BRANCH   2   3
ATOM      3  C   UNL     1      48.739  32.929  16.867  1.00  0.00     0.000 C 
BRANCH   3   4
ATOM      4  C   UNL     1      48.831  31.997  18.088  1.00  0.00     0.000 C 
BRANCH   4   5
ATOM      5  C   UNL     1      48.052  30.686  17.892  1.00  0.00     0.000 C 
BRANCH   5   6
ATOM      6  C   UNL     1      47.707  30.407  16.419  1.00  0.00     0.000 C 
BRANCH   6   7
ATOM      7  C   UNL     1      47.624  28.916  16.034  1.00  0.00     0.000 C 
BRANCH   7   8
ATOM      8  C   UNL     1      48.465  27.987  16.935  1.00  0.00     0.000 C 
BRANCH   8   9
ATOM      9  C   UNL     1      48.087  26.506  16.757  1.00  0.00     0.000 C 
BRANCH   9  10
ATOM     10  C   UNL     1      49.317  25.591  16.648  1.00  0.00     0.000 C 
BRANCH  10  11
ATOM     11  C   UNL     1      49.929  25.260  18.020  1.00  0.00     0.000 C 
BRANCH  11  12
ATOM     12  C   UNL     1      48.889  25.290  19.151  1.00  0.00     0.000 C 
BRANCH  12  13
ATOM     13  C   UNL     1      49.522  25.089  20.539  1.00  0.00     0.006 C 
BRANCH  13  14
ATOM     14  C   UNL     1      50.885  25.784  20.658  1.00  0.00     0.053 C 
BRANCH  14  15
ATOM     15  C   UNL     1      51.066  26.419  22.003  1.00  0.00     0.041 C 
ATOM     16  O   UNL     1      50.091  26.966  22.584  1.00  0.00    -0.550 OA
ATOM     17  O   UNL     1      52.320  26.432  22.603  1.00  0.00    -0.550 OA
ENDBRANCH  14  15
ENDBRANCH  13  14
ENDBRANCH  12  13
ENDBRANCH  11  12
ENDBRANCH  10  11
ENDBRANCH   9  10
ENDBRANCH   8   9
ENDBRANCH   7   8
ENDBRANCH   6   7
ENDBRANCH   5   6
ENDBRANCH   4   5
ENDBRANCH   3   4
ENDBRANCH   2   3
ENDBRANCH   1   2
BRANCH   1  18
ATOM     18  C   UNL     1      45.512  35.023  16.255  1.00  0.00     0.000 C 
BRANCH  18  19
ATOM     19  C   UNL     1      44.687  35.435  15.023  1.00  0.00     0.000 C 
BRANCH  19  20
ATOM     20  C   UNL     1      45.524  35.473  13.735  1.00  0.00     0.000 C 
BRANCH  20  21
ATOM     21  C   UNL     1      44.736  36.040  12.540  1.00  0.00     0.000 C 
BRANCH  21  22
ATOM     22  C   UNL     1      43.350  36.575  12.943  1.00  0.00     0.000 C 
BRANCH  22  23
ATOM     23  C   UNL     1      42.801  37.604  11.939  1.00  0.00     0.000 C 
BRANCH  23  24
ATOM     24  C   UNL     1      42.248  36.948  10.663  1.00  0.00    -0.000 C 
BRANCH  24  25
ATOM     25  C   UNL     1      41.624  35.568  10.933  1.00  0.00    -0.000 C 
BRANCH  25  26
ATOM     26  C   UNL     1      40.361  35.307  10.091  1.00  0.00    -0.000 C 
BRANCH  26  27
ATOM     27  C   UNL     1      39.149  34.757  10.872  1.00  0.00    -0.000 C 
BRANCH  27  28
ATOM     28  C   UNL     1      38.399  35.782  11.749  1.00  0.00    -0.000 C 
BRANCH  28  29
ATOM     29  C   UNL     1      38.684  37.254  11.392  1.00  0.00    -0.000 C 
BRANCH  29  30
ATOM     30  C   UNL     1      39.023  38.127  12.622  1.00  0.00    -0.000 C 
BRANCH  30  31
ATOM     31  C   UNL     1      39.709  37.343  13.753  1.00  0.00    -0.003 C 
ATOM     32  C   UNL     1      39.601  38.044  15.106  1.00  0.00     0.004 C 
ENDBRANCH  30  31
ENDBRANCH  29  30
ENDBRANCH  28  29
ENDBRANCH  27  28
ENDBRANCH  26  27
ENDBRANCH  25  26
ENDBRANCH  24  25
ENDBRANCH  23  24
ENDBRANCH  22  23
ENDBRANCH  21  22
ENDBRANCH  20  21
ENDBRANCH  19  20
ENDBRANCH  18  19
ENDBRANCH   1  18
TORSDOF 28
ENDMDL
MODEL 9
REMARK VINA RESULT:    -5.417      1.293      2.734
REMARK INTER + INTRA:         -17.197
REMARK INTER:                 -14.601
REMARK INTRA:                  -2.596
REMARK UNBOUND:                -2.912
REMARK SMILES CCCCCCCCCCCCCCCCCCCCCCCCCCCCCC(=O)[O-]
REMARK SMILES IDX 16 1 17 2 18 3 19 4 20 5 21 6 22 7 23 8 24 9 25 10 26 11
REMARK SMILES IDX 27 12 28 13 29 14 30 15 31 16 32 17 15 18 14 19 13 20 12 21
REMARK SMILES IDX 11 22 10 23 9 24 8 25 7 26 6 27 5 28 4 29 3 30 2 31 1 32
REMARK H PARENT
REMARK Flexibility Score: inf
ROOT
ATOM      1  C   UNL     1      47.746  30.326  17.247  1.00  0.00     0.000 C 
ENDROOT
BRANCH   1   2
ATOM      2  C   UNL     1      48.213  31.499  18.126  1.00  0.00     0.000 C 
BRANCH   2   3
ATOM      3  C   UNL     1      48.991  32.561  17.321  1.00  0.00     0.000 C 
BRANCH   3   4
ATOM      4  C   UNL     1      48.087  33.591  16.622  1.00  0.00     0.000 C 
BRANCH   4   5
ATOM      5  C   UNL     1      47.825  33.245  15.147  1.00  0.00     0.000 C 
BRANCH   5   6
ATOM      6  C   UNL     1      48.386  34.298  14.175  1.00  0.00     0.000 C 
BRANCH   6   7
ATOM      7  C   UNL     1      48.180  33.987  12.679  1.00  0.00     0.000 C 
BRANCH   7   8
ATOM      8  C   UNL     1      46.841  34.501  12.109  1.00  0.00     0.000 C 
BRANCH   8   9
ATOM      9  C   UNL     1      46.336  35.753  12.848  1.00  0.00     0.000 C 
BRANCH   9  10
ATOM     10  C   UNL     1      44.836  35.681  13.177  1.00  0.00     0.000 C 
BRANCH  10  11
ATOM     11  C   UNL     1      44.017  36.746  12.427  1.00  0.00     0.000 C 
BRANCH  11  12
ATOM     12  C   UNL     1      42.531  36.370  12.311  1.00  0.00     0.000 C 
BRANCH  12  13
ATOM     13  C   UNL     1      41.606  37.597  12.390  1.00  0.00     0.006 C 
BRANCH  13  14
ATOM     14  C   UNL     1      40.122  37.204  12.359  1.00  0.00     0.053 C 
BRANCH  14  15
ATOM     15  C   UNL     1      39.431  37.550  13.642  1.00  0.00     0.041 C 
ATOM     16  O   UNL     1      39.922  37.190  14.745  1.00  0.00    -0.550 OA
ATOM     17  O   UNL     1      38.228  38.245  13.619  1.00  0.00    -0.550 OA
ENDBRANCH  14  15
ENDBRANCH  13  14
ENDBRANCH  12  13
ENDBRANCH  11  12
ENDBRANCH  10  11
ENDBRANCH   9  10
ENDBRANCH   8   9
ENDBRANCH   7   8
ENDBRANCH   6   7
ENDBRANCH   5   6
ENDBRANCH   4   5
ENDBRANCH   3   4
ENDBRANCH   2   3
ENDBRANCH   1   2
BRANCH   1  18
ATOM     18  C   UNL     1      48.877  29.323  16.961  1.00  0.00     0.000 C 
BRANCH  18  19
ATOM     19  C   UNL     1      48.512  28.334  15.840  1.00  0.00     0.000 C 
BRANCH  19  20
ATOM     20  C   UNL     1      48.632  26.866  16.282  1.00  0.00     0.000 C 
BRANCH  20  21
ATOM     21  C   UNL     1      49.049  26.731  17.757  1.00  0.00     0.000 C 
BRANCH  21  22
ATOM     22  C   UNL     1      49.610  25.337  18.090  1.00  0.00     0.000 C 
BRANCH  22  23
ATOM     23  C   UNL     1      49.544  25.019  19.595  1.00  0.00     0.000 C 
BRANCH  23  24
ATOM     24  C   UNL     1      48.237  25.503  20.244  1.00  0.00    -0.000 C 
BRANCH  24  25
ATOM     25  C   UNL     1      48.449  26.028  21.674  1.00  0.00    -0.000 C 
BRANCH  25  26
ATOM     26  C   UNL     1      49.857  25.724  22.220  1.00  0.00    -0.000 C 
BRANCH  26  27
ATOM     27  C   UNL     1      50.681  26.957  22.647  1.00  0.00    -0.000 C 
BRANCH  27  28
ATOM     28  C   UNL     1      52.176  26.923  22.266  1.00  0.00    -0.000 C 
BRANCH  28  29
ATOM     29  C   UNL     1      52.631  25.619  21.584  1.00  0.00    -0.000 C 
BRANCH  29  30
ATOM     30  C   UNL     1      53.104  25.824  20.126  1.00  0.00    -0.000 C 
BRANCH  30  31
ATOM     31  C   UNL     1      53.152  27.302  19.705  1.00  0.00    -0.003 C 
ATOM     32  C   UNL     1      52.651  27.525  18.279  1.00  0.00     0.004 C 
ENDBRANCH  30  31
ENDBRANCH  29  30
ENDBRANCH  28  29
ENDBRANCH  27  28
ENDBRANCH  26  27
ENDBRANCH  25  26
ENDBRANCH  24  25
ENDBRANCH  23  24
ENDBRANCH  22  23
ENDBRANCH  21  22
ENDBRANCH  20  21
ENDBRANCH  19  20
ENDBRANCH  18  19
ENDBRANCH   1  18
TORSDOF 28
ENDMDL
