MODEL 1
REMARK VINA RESULT:    -3.590      0.000      0.000
REMARK INTER + INTRA:          -8.999
REMARK INTER:                  -6.529
REMARK INTRA:                  -2.470
REMARK UNBOUND:                -2.470
REMARK SMILES CCCCCCCCCCCCCCCC(=O)[O-]
REMARK SMILES IDX 9 1 10 2 11 3 12 4 13 5 14 6 15 7 16 8 17 9 18 10 8 11 7 12
REMARK SMILES IDX 6 13 5 14 4 15 3 16 2 17 1 18
REMARK H PARENT
REMARK Flexibility Score: inf
ROOT
ATOM      1  C   UNL     1       1.274   9.243  36.023  1.00  0.00     0.000 C 
ENDROOT
BRANCH   1   2
ATOM      2  C   UNL     1      -0.157   9.781  35.879  1.00  0.00     0.000 C 
BRANCH   2   3
ATOM      3  C   UNL     1      -1.172   8.995  36.722  1.00  0.00     0.000 C 
BRANCH   3   4
ATOM      4  C   UNL     1      -1.540   9.764  37.997  1.00  0.00     0.000 C 
BRANCH   4   5
ATOM      5  C   UNL     1      -1.261   8.923  39.248  1.00  0.00     0.000 C 
BRANCH   5   6
ATOM      6  C   UNL     1      -2.514   8.146  39.679  1.00  0.00     0.006 C 
BRANCH   6   7
ATOM      7  C   UNL     1      -2.193   7.046  40.699  1.00  0.00     0.053 C 
BRANCH   7   8
ATOM      8  C   UNL     1      -2.668   5.703  40.237  1.00  0.00     0.041 C 
ATOM      9  O   UNL     1      -3.545   5.616  39.337  1.00  0.00    -0.550 OA
ATOM     10  O   UNL     1      -2.118   4.547  40.776  1.00  0.00    -0.550 OA
ENDBRANCH   7   8
ENDBRANCH   6   7
ENDBRANCH   5   6
ENDBRANCH   4   5
ENDBRANCH   3   4
ENDBRANCH   2   3
ENDBRANCH   1   2
BRANCH   1  11
ATOM     11  C   UNL     1       2.105  10.032  37.051  1.00  0.00     0.000 C 
BRANCH  11  12
ATOM     12  C   UNL     1       2.389   9.209  38.326  1.00  0.00    -0.000 C 
BRANCH  12  13
ATOM     13  C   UNL     1       2.232   7.692  38.126  1.00  0.00    -0.000 C 
BRANCH  13  14
ATOM     14  C   UNL     1       1.629   6.988  39.349  1.00  0.00    -0.000 C 
BRANCH  14  15
ATOM     15  C   UNL     1       0.797   5.769  38.935  1.00  0.00    -0.000 C 
BRANCH  15  16
ATOM     16  C   UNL     1       0.549   5.704  37.418  1.00  0.00    -0.000 C 
BRANCH  16  17
ATOM     17  C   UNL     1      -0.937   5.518  37.040  1.00  0.00    -0.003 C 
ATOM     18  C   UNL     1      -1.198   4.188  36.334  1.00  0.00     0.004 C 
ENDBRANCH  16  17
ENDBRANCH  15  16
ENDBRANCH  14  15
ENDBRANCH  13  14
ENDBRANCH  12  13
ENDBRANCH  11  12
ENDBRANCH   1  11
TORSDOF 14
ENDMDL
MODEL 2
REMARK VINA RESULT:    -3.420      2.645      5.511
REMARK INTER + INTRA:          -8.689
REMARK INTER:                  -6.253
REMARK INTRA:                  -2.436
REMARK UNBOUND:                -2.470
REMARK SMILES CCCCCCCCCCCCCCCC(=O)[O-]
REMARK SMILES IDX 9 1 10 2 11 3 12 4 13 5 14 6 15 7 16 8 17 9 18 10 8 11 7 12
REMARK SMILES IDX 6 13 5 14 4 15 3 16 2 17 1 18
REMARK H PARENT
REMARK Flexibility Score: inf
ROOT
ATOM      1  C   UNL     1      -2.594   5.578  40.271  1.00  0.00     0.000 C 
ENDROOT
BRANCH   1   2
ATOM      2  C   UNL     1      -1.681   4.911  39.232  1.00  0.00     0.000 C 
BRANCH   2   3
ATOM      3  C   UNL     1      -1.960   5.395  37.801  1.00  0.00     0.000 C 
BRANCH   3   4
ATOM      4  C   UNL     1      -0.680   5.921  37.140  1.00  0.00     0.000 C 
BRANCH   4   5
ATOM      5  C   UNL     1       0.551   5.613  38.000  1.00  0.00     0.000 C 
BRANCH   5   6
ATOM      6  C   UNL     1       1.585   6.746  37.906  1.00  0.00     0.006 C 
BRANCH   6   7
ATOM      7  C   UNL     1       2.653   6.470  36.840  1.00  0.00     0.053 C 
BRANCH   7   8
ATOM      8  C   UNL     1       3.408   5.207  37.122  1.00  0.00     0.041 C 
ATOM      9  O   UNL     1       4.245   5.166  38.063  1.00  0.00    -0.550 OA
ATOM     10  O   UNL     1       3.165   4.067  36.368  1.00  0.00    -0.550 OA
ENDBRANCH   7   8
ENDBRANCH   6   7
ENDBRANCH   5   6
ENDBRANCH   4   5
ENDBRANCH   3   4
ENDBRANCH   2   3
ENDBRANCH   1   2
BRANCH   1  11
ATOM     11  C   UNL     1      -2.655   7.109  40.113  1.00  0.00     0.000 C 
BRANCH  11  12
ATOM     12  C   UNL     1      -1.351   7.794  40.572  1.00  0.00    -0.000 C 
BRANCH  12  13
ATOM     13  C   UNL     1      -0.847   8.873  39.598  1.00  0.00    -0.000 C 
BRANCH  13  14
ATOM     14  C   UNL     1      -1.870   9.217  38.508  1.00  0.00    -0.000 C 
BRANCH  14  15
ATOM     15  C   UNL     1      -1.254  10.122  37.434  1.00  0.00    -0.000 C 
BRANCH  15  16
ATOM     16  C   UNL     1      -1.324   9.509  36.025  1.00  0.00    -0.000 C 
BRANCH  16  17
ATOM     17  C   UNL     1      -0.025   9.683  35.208  1.00  0.00    -0.003 C 
ATOM     18  C   UNL     1       1.186   9.975  36.095  1.00  0.00     0.004 C 
ENDBRANCH  16  17
ENDBRANCH  15  16
ENDBRANCH  14  15
ENDBRANCH  13  14
ENDBRANCH  12  13
ENDBRANCH  11  12
ENDBRANCH   1  11
TORSDOF 14
ENDMDL
MODEL 3
REMARK VINA RESULT:    -3.356      1.253      3.722
REMARK INTER + INTRA:          -8.573
REMARK INTER:                  -5.916
REMARK INTRA:                  -2.657
REMARK UNBOUND:                -2.470
REMARK SMILES CCCCCCCCCCCCCCCC(=O)[O-]
REMARK SMILES IDX 9 1 10 2 11 3 12 4 13 5 14 6 15 7 16 8 17 9 18 10 8 11 7 12
REMARK SMILES IDX 6 13 5 14 4 15 3 16 2 17 1 18
REMARK H PARENT
REMARK Flexibility Score: inf
ROOT
ATOM      1  C   UNL     1       2.224   6.748  38.255  1.00  0.00     0.000 C 
ENDROOT
BRANCH   1   2
ATOM      2  C   UNL     1       2.215   7.055  36.750  1.00  0.00     0.000 C 
BRANCH   2   3
ATOM      3  C   UNL     1       1.095   6.319  36.002  1.00  0.00     0.000 C 
BRANCH   3   4
ATOM      4  C   UNL     1       0.769   4.981  36.679  1.00  0.00     0.000 C 
BRANCH   4   5
ATOM      5  C   UNL     1      -0.722   4.649  36.554  1.00  0.00     0.000 C 
BRANCH   5   6
ATOM      6  C   UNL     1      -1.558   5.492  37.529  1.00  0.00     0.006 C 
BRANCH   6   7
ATOM      7  C   UNL     1      -1.392   5.033  38.983  1.00  0.00     0.053 C 
BRANCH   7   8
ATOM      8  C   UNL     1      -2.542   5.468  39.839  1.00  0.00     0.041 C 
ATOM      9  O   UNL     1      -3.669   5.685  39.323  1.00  0.00    -0.550 OA
ATOM     10  O   UNL     1      -2.377   5.602  41.212  1.00  0.00    -0.550 OA
ENDBRANCH   7   8
ENDBRANCH   6   7
ENDBRANCH   5   6
ENDBRANCH   4   5
ENDBRANCH   3   4
ENDBRANCH   2   3
ENDBRANCH   1   2
BRANCH   1  11
ATOM     11  C   UNL     1       1.806   7.957  39.112  1.00  0.00     0.000 C 
BRANCH  11  12
ATOM     12  C   UNL     1       0.856   7.556  40.260  1.00  0.00    -0.000 C 
BRANCH  12  13
ATOM     13  C   UNL     1      -0.378   8.467  40.384  1.00  0.00    -0.000 C 
BRANCH  13  14
ATOM     14  C   UNL     1      -0.450   9.528  39.278  1.00  0.00    -0.000 C 
BRANCH  14  15
ATOM     15  C   UNL     1      -1.632   9.269  38.336  1.00  0.00    -0.000 C 
BRANCH  15  16
ATOM     16  C   UNL     1      -1.202   9.109  36.868  1.00  0.00    -0.000 C 
BRANCH  16  17
ATOM     17  C   UNL     1      -0.035  10.035  36.460  1.00  0.00    -0.003 C 
ATOM     18  C   UNL     1       0.277   9.954  34.966  1.00  0.00     0.004 C 
ENDBRANCH  16  17
ENDBRANCH  15  16
ENDBRANCH  14  15
ENDBRANCH  13  14
ENDBRANCH  12  13
ENDBRANCH  11  12
ENDBRANCH   1  11
TORSDOF 14
ENDMDL
MODEL 4
REMARK VINA RESULT:    -3.349      3.175      5.548
REMARK INTER + INTRA:          -8.559
REMARK INTER:                  -6.129
REMARK INTRA:                  -2.430
REMARK UNBOUND:                -2.470
REMARK SMILES CCCCCCCCCCCCCCCC(=O)[O-]
REMARK SMILES IDX 9 1 10 2 11 3 12 4 13 5 14 6 15 7 16 8 17 9 18 10 8 11 7 12
REMARK SMILES IDX 6 13 5 14 4 15 3 16 2 17 1 18
REMARK H PARENT
REMARK Flexibility Score: inf
ROOT
ATOM      1  C   UNL     1      -1.874   8.721  39.031  1.00  0.00     0.000 C 
ENDROOT
BRANCH   1   2
ATOM      2  C   UNL     1      -1.102   8.268  37.784  1.00  0.00     0.000 C 
BRANCH   2   3
ATOM      3  C   UNL     1      -0.828   6.757  37.773  1.00  0.00     0.000 C 
BRANCH   3   4
ATOM      4  C   UNL     1       0.640   6.467  37.438  1.00  0.00     0.000 C 
BRANCH   4   5
ATOM      5  C   UNL     1       1.367   5.848  38.638  1.00  0.00     0.000 C 
BRANCH   5   6
ATOM      6  C   UNL     1       2.820   5.500  38.281  1.00  0.00     0.006 C 
BRANCH   6   7
ATOM      7  C   UNL     1       3.127   5.739  36.797  1.00  0.00     0.053 C 
BRANCH   7   8
ATOM      8  C   UNL     1       3.611   4.493  36.121  1.00  0.00     0.041 C 
ATOM      9  O   UNL     1       4.654   4.521  35.415  1.00  0.00    -0.550 OA
ATOM     10  O   UNL     1       2.931   3.295  36.297  1.00  0.00    -0.550 OA
ENDBRANCH   7   8
ENDBRANCH   6   7
ENDBRANCH   5   6
ENDBRANCH   4   5
ENDBRANCH   3   4
ENDBRANCH   2   3
ENDBRANCH   1   2
BRANCH   1  11
ATOM     11  C   UNL     1      -2.510   7.545  39.796  1.00  0.00     0.000 C 
BRANCH  11  12
ATOM     12  C   UNL     1      -2.070   7.506  41.275  1.00  0.00    -0.000 C 
BRANCH  12  13
ATOM     13  C   UNL     1      -0.701   6.839  41.492  1.00  0.00    -0.000 C 
BRANCH  13  14
ATOM     14  C   UNL     1       0.201   7.626  42.452  1.00  0.00    -0.000 C 
BRANCH  14  15
ATOM     15  C   UNL     1       0.672   8.941  41.820  1.00  0.00    -0.000 C 
BRANCH  15  16
ATOM     16  C   UNL     1       1.504   8.725  40.544  1.00  0.00    -0.000 C 
BRANCH  16  17
ATOM     17  C   UNL     1       1.619   9.985  39.658  1.00  0.00    -0.003 C 
ATOM     18  C   UNL     1       2.330   9.704  38.335  1.00  0.00     0.004 C 
ENDBRANCH  16  17
ENDBRANCH  15  16
ENDBRANCH  14  15
ENDBRANCH  13  14
ENDBRANCH  12  13
ENDBRANCH  11  12
ENDBRANCH   1  11
TORSDOF 14
ENDMDL
MODEL 5
REMARK VINA RESULT:    -3.341      3.117      4.792
REMARK INTER + INTRA:          -8.545
REMARK INTER:                  -6.200
REMARK INTRA:                  -2.344
REMARK UNBOUND:                -2.470
REMARK SMILES CCCCCCCCCCCCCCCC(=O)[O-]
REMARK SMILES IDX 9 1 10 2 11 3 12 4 13 5 14 6 15 7 16 8 17 9 18 10 8 11 7 12
REMARK SMILES IDX 6 13 5 14 4 15 3 16 2 17 1 18
REMARK H PARENT
REMARK Flexibility Score: inf
ROOT
ATOM      1  C   UNL     1      -1.260  10.051  36.906  1.00  0.00     0.000 C 
ENDROOT
BRANCH   1   2
ATOM      2  C   UNL     1      -0.262   8.995  36.409  1.00  0.00     0.000 C 
BRANCH   2   3
ATOM      3  C   UNL     1       1.151   9.563  36.209  1.00  0.00     0.000 C 
BRANCH   3   4
ATOM      4  C   UNL     1       2.177   8.793  37.049  1.00  0.00     0.000 C 
BRANCH   4   5
ATOM      5  C   UNL     1       1.634   7.418  37.458  1.00  0.00     0.000 C 
BRANCH   5   6
ATOM      6  C   UNL     1       2.355   6.294  36.698  1.00  0.00     0.006 C 
BRANCH   6   7
ATOM      7  C   UNL     1       1.503   5.728  35.554  1.00  0.00     0.053 C 
BRANCH   7   8
ATOM      8  C   UNL     1       1.975   6.210  34.217  1.00  0.00     0.041 C 
ATOM      9  O   UNL     1       1.444   7.219  33.683  1.00  0.00    -0.550 OA
ATOM     10  O   UNL     1       3.024   5.563  33.574  1.00  0.00    -0.550 OA
ENDBRANCH   7   8
ENDBRANCH   6   7
ENDBRANCH   5   6
ENDBRANCH   4   5
ENDBRANCH   3   4
ENDBRANCH   2   3
ENDBRANCH   1   2
BRANCH   1  11
ATOM     11  C   UNL     1      -1.883   9.686  38.266  1.00  0.00     0.000 C 
BRANCH  11  12
ATOM     12  C   UNL     1      -0.813   9.319  39.317  1.00  0.00    -0.000 C 
BRANCH  12  13
ATOM     13  C   UNL     1      -1.179   8.087  40.162  1.00  0.00    -0.000 C 
BRANCH  13  14
ATOM     14  C   UNL     1      -2.602   7.580  39.893  1.00  0.00    -0.000 C 
BRANCH  14  15
ATOM     15  C   UNL     1      -2.594   6.115  39.441  1.00  0.00    -0.000 C 
BRANCH  15  16
ATOM     16  C   UNL     1      -1.750   5.886  38.175  1.00  0.00    -0.000 C 
BRANCH  16  17
ATOM     17  C   UNL     1      -0.917   4.586  38.212  1.00  0.00    -0.003 C 
ATOM     18  C   UNL     1      -0.753   4.040  39.631  1.00  0.00     0.004 C 
ENDBRANCH  16  17
ENDBRANCH  15  16
ENDBRANCH  14  15
ENDBRANCH  13  14
ENDBRANCH  12  13
ENDBRANCH  11  12
ENDBRANCH   1  11
TORSDOF 14
ENDMDL
MODEL 6
REMARK VINA RESULT:    -3.312      3.112      5.834
REMARK INTER + INTRA:          -8.494
REMARK INTER:                  -6.389
REMARK INTRA:                  -2.105
REMARK UNBOUND:                -2.470
REMARK SMILES CCCCCCCCCCCCCCCC(=O)[O-]
REMARK SMILES IDX 9 1 10 2 11 3 12 4 13 5 14 6 15 7 16 8 17 9 18 10 8 11 7 12
REMARK SMILES IDX 6 13 5 14 4 15 3 16 2 17 1 18
REMARK H PARENT
REMARK Flexibility Score: inf
ROOT
ATOM      1  C   UNL     1      -2.821   5.625  39.354  1.00  0.00     0.000 C 
ENDROOT
BRANCH   1   2
ATOM      2  C   UNL     1      -1.776   5.300  38.277  1.00  0.00     0.000 C 
BRANCH   2   3
ATOM      3  C   UNL     1      -0.432   4.855  38.871  1.00  0.00     0.000 C 
BRANCH   3   4
ATOM      4  C   UNL     1       0.707   5.766  38.398  1.00  0.00     0.000 C 
BRANCH   4   5
ATOM      5  C   UNL     1       0.322   6.508  37.113  1.00  0.00     0.000 C 
BRANCH   5   6
ATOM      6  C   UNL     1       0.827   5.757  35.872  1.00  0.00     0.006 C 
BRANCH   6   7
ATOM      7  C   UNL     1       1.923   6.534  35.130  1.00  0.00     0.053 C 
BRANCH   7   8
ATOM      8  C   UNL     1       1.570   6.759  33.692  1.00  0.00     0.041 C 
ATOM      9  O   UNL     1       1.165   5.801  32.982  1.00  0.00    -0.550 OA
ATOM     10  O   UNL     1       1.656   8.033  33.144  1.00  0.00    -0.550 OA
ENDBRANCH   7   8
ENDBRANCH   6   7
ENDBRANCH   5   6
ENDBRANCH   4   5
ENDBRANCH   3   4
ENDBRANCH   2   3
ENDBRANCH   1   2
BRANCH   1  11
ATOM     11  C   UNL     1      -2.348   6.717  40.331  1.00  0.00     0.000 C 
BRANCH  11  12
ATOM     12  C   UNL     1      -2.448   8.130  39.718  1.00  0.00    -0.000 C 
BRANCH  12  13
ATOM     13  C   UNL     1      -1.082   8.806  39.506  1.00  0.00    -0.000 C 
BRANCH  13  14
ATOM     14  C   UNL     1      -0.110   8.564  40.668  1.00  0.00    -0.000 C 
BRANCH  14  15
ATOM     15  C   UNL     1       1.267   9.174  40.377  1.00  0.00    -0.000 C 
BRANCH  15  16
ATOM     16  C   UNL     1       1.304   9.960  39.055  1.00  0.00    -0.000 C 
BRANCH  16  17
ATOM     17  C   UNL     1       2.471   9.558  38.128  1.00  0.00    -0.003 C 
ATOM     18  C   UNL     1       2.200   9.905  36.664  1.00  0.00     0.004 C 
ENDBRANCH  16  17
ENDBRANCH  15  16
ENDBRANCH  14  15
ENDBRANCH  13  14
ENDBRANCH  12  13
ENDBRANCH  11  12
ENDBRANCH   1  11
TORSDOF 14
ENDMDL
MODEL 7
REMARK VINA RESULT:    -3.269      2.633      4.727
REMARK INTER + INTRA:          -8.415
REMARK INTER:                  -6.001
REMARK INTRA:                  -2.414
REMARK UNBOUND:                -2.470
REMARK SMILES CCCCCCCCCCCCCCCC(=O)[O-]
REMARK SMILES IDX 9 1 10 2 11 3 12 4 13 5 14 6 15 7 16 8 17 9 18 10 8 11 7 12
REMARK SMILES IDX 6 13 5 14 4 15 3 16 2 17 1 18
REMARK H PARENT
REMARK Flexibility Score: inf
ROOT
ATOM      1  C   UNL     1       1.172   7.509  40.623  1.00  0.00     0.000 C 
ENDROOT
BRANCH   1   2
ATOM      2  C   UNL     1       0.718   8.976  40.616  1.00  0.00     0.000 C 
BRANCH   2   3
ATOM      3  C   UNL     1       1.661   9.884  39.813  1.00  0.00     0.000 C 
BRANCH   3   4
ATOM      4  C   UNL     1       1.120  10.125  38.398  1.00  0.00     0.000 C 
BRANCH   4   5
ATOM      5  C   UNL     1      -0.334   9.654  38.276  1.00  0.00     0.000 C 
BRANCH   5   6
ATOM      6  C   UNL     1      -0.547   8.856  36.981  1.00  0.00     0.006 C 
BRANCH   6   7
ATOM      7  C   UNL     1      -0.216   7.369  37.155  1.00  0.00     0.053 C 
BRANCH   7   8
ATOM      8  C   UNL     1       0.986   6.969  36.354  1.00  0.00     0.041 C 
ATOM      9  O   UNL     1       1.853   6.204  36.853  1.00  0.00    -0.550 OA
ATOM     10  O   UNL     1       1.131   7.414  35.046  1.00  0.00    -0.550 OA
ENDBRANCH   7   8
ENDBRANCH   6   7
ENDBRANCH   5   6
ENDBRANCH   4   5
ENDBRANCH   3   4
ENDBRANCH   2   3
ENDBRANCH   1   2
BRANCH   1  11
ATOM     11  C   UNL     1       0.751   6.763  41.903  1.00  0.00     0.000 C 
BRANCH  11  12
ATOM     12  C   UNL     1       0.358   5.297  41.619  1.00  0.00    -0.000 C 
BRANCH  12  13
ATOM     13  C   UNL     1       0.345   4.942  40.122  1.00  0.00    -0.000 C 
BRANCH  13  14
ATOM     14  C   UNL     1      -0.998   4.364  39.658  1.00  0.00    -0.000 C 
BRANCH  14  15
ATOM     15  C   UNL     1      -2.173   5.062  40.353  1.00  0.00    -0.000 C 
BRANCH  15  16
ATOM     16  C   UNL     1      -2.798   6.175  39.495  1.00  0.00    -0.000 C 
BRANCH  16  17
ATOM     17  C   UNL     1      -2.651   7.585  40.108  1.00  0.00    -0.003 C 
ATOM     18  C   UNL     1      -2.637   7.558  41.637  1.00  0.00     0.004 C 
ENDBRANCH  16  17
ENDBRANCH  15  16
ENDBRANCH  14  15
ENDBRANCH  13  14
ENDBRANCH  12  13
ENDBRANCH  11  12
ENDBRANCH   1  11
TORSDOF 14
ENDMDL
MODEL 8
REMARK VINA RESULT:    -3.261      2.795      4.491
REMARK INTER + INTRA:          -8.401
REMARK INTER:                  -6.044
REMARK INTRA:                  -2.357
REMARK UNBOUND:                -2.470
REMARK SMILES CCCCCCCCCCCCCCCC(=O)[O-]
REMARK SMILES IDX 9 1 10 2 11 3 12 4 13 5 14 6 15 7 16 8 17 9 18 10 8 11 7 12
REMARK SMILES IDX 6 13 5 14 4 15 3 16 2 17 1 18
REMARK H PARENT
REMARK Flexibility Score: inf
ROOT
ATOM      1  C   UNL     1      -1.124   9.015  36.805  1.00  0.00     0.000 C 
ENDROOT
BRANCH   1   2
ATOM      2  C   UNL     1       0.014   9.783  36.117  1.00  0.00     0.000 C 
BRANCH   2   3
ATOM      3  C   UNL     1       1.266   8.920  35.903  1.00  0.00     0.000 C 
BRANCH   3   4
ATOM      4  C   UNL     1       1.142   7.580  36.640  1.00  0.00     0.000 C 
BRANCH   4   5
ATOM      5  C   UNL     1       2.211   7.450  37.731  1.00  0.00     0.000 C 
BRANCH   5   6
ATOM      6  C   UNL     1       2.199   6.044  38.348  1.00  0.00     0.006 C 
BRANCH   6   7
ATOM      7  C   UNL     1       3.581   5.380  38.306  1.00  0.00     0.053 C 
BRANCH   7   8
ATOM      8  C   UNL     1       3.734   4.486  37.114  1.00  0.00     0.041 C 
ATOM      9  O   UNL     1       3.714   3.235  37.254  1.00  0.00    -0.550 OA
ATOM     10  O   UNL     1       3.866   5.034  35.845  1.00  0.00    -0.550 OA
ENDBRANCH   7   8
ENDBRANCH   6   7
ENDBRANCH   5   6
ENDBRANCH   4   5
ENDBRANCH   3   4
ENDBRANCH   2   3
ENDBRANCH   1   2
BRANCH   1  11
ATOM     11  C   UNL     1      -1.639   9.724  38.071  1.00  0.00     0.000 C 
BRANCH  11  12
ATOM     12  C   UNL     1      -0.761   9.424  39.305  1.00  0.00    -0.000 C 
BRANCH  12  13
ATOM     13  C   UNL     1      -0.864   7.969  39.794  1.00  0.00    -0.000 C 
BRANCH  13  14
ATOM     14  C   UNL     1      -2.303   7.550  40.122  1.00  0.00    -0.000 C 
BRANCH  14  15
ATOM     15  C   UNL     1      -2.667   6.229  39.434  1.00  0.00    -0.000 C 
BRANCH  15  16
ATOM     16  C   UNL     1      -1.483   5.605  38.676  1.00  0.00    -0.000 C 
BRANCH  16  17
ATOM     17  C   UNL     1      -1.793   5.285  37.198  1.00  0.00    -0.003 C 
ATOM     18  C   UNL     1      -0.848   4.232  36.619  1.00  0.00     0.004 C 
ENDBRANCH  16  17
ENDBRANCH  15  16
ENDBRANCH  14  15
ENDBRANCH  13  14
ENDBRANCH  12  13
ENDBRANCH  11  12
ENDBRANCH   1  11
TORSDOF 14
ENDMDL
