MODEL 1
REMARK VINA RESULT:    -3.354      0.000      0.000
REMARK INTER + INTRA:         -15.338
REMARK INTER:                  -8.845
REMARK INTRA:                  -6.493
REMARK UNBOUND:                -6.493
REMARK SMILES CCCCCCCCCCCCCCCCCCCCCCCCCCCCCC(=O)[O-]
REMARK SMILES IDX 16 1 17 2 18 3 19 4 20 5 21 6 22 7 23 8 24 9 25 10 26 11
REMARK SMILES IDX 27 12 28 13 29 14 30 15 31 16 32 17 15 18 14 19 13 20 12 21
REMARK SMILES IDX 11 22 10 23 9 24 8 25 7 26 6 27 5 28 4 29 3 30 2 31 1 32
REMARK H PARENT
REMARK Flexibility Score: inf
ROOT
ATOM      1  C   UNL     1      19.959 -10.615  29.520  1.00  0.00     0.000 C 
ENDROOT
BRANCH   1   2
ATOM      2  C   UNL     1      20.775 -11.361  30.589  1.00  0.00     0.000 C 
BRANCH   2   3
ATOM      3  C   UNL     1      19.895 -12.180  31.550  1.00  0.00     0.000 C 
BRANCH   3   4
ATOM      4  C   UNL     1      20.547 -12.515  32.908  1.00  0.00     0.000 C 
BRANCH   4   5
ATOM      5  C   UNL     1      19.679 -12.214  34.147  1.00  0.00     0.000 C 
BRANCH   5   6
ATOM      6  C   UNL     1      18.407 -13.076  34.280  1.00  0.00     0.000 C 
BRANCH   6   7
ATOM      7  C   UNL     1      17.096 -12.277  34.391  1.00  0.00     0.000 C 
BRANCH   7   8
ATOM      8  C   UNL     1      16.480 -11.964  33.016  1.00  0.00     0.000 C 
BRANCH   8   9
ATOM      9  C   UNL     1      16.748 -10.521  32.561  1.00  0.00     0.000 C 
BRANCH   9  10
ATOM     10  C   UNL     1      16.661  -9.503  33.711  1.00  0.00     0.000 C 
BRANCH  10  11
ATOM     11  C   UNL     1      17.920  -8.628  33.833  1.00  0.00     0.000 C 
BRANCH  11  12
ATOM     12  C   UNL     1      18.942  -8.848  32.697  1.00  0.00     0.000 C 
BRANCH  12  13
ATOM     13  C   UNL     1      20.378  -8.511  33.133  1.00  0.00     0.006 C 
BRANCH  13  14
ATOM     14  C   UNL     1      20.555  -8.594  34.655  1.00  0.00     0.053 C 
BRANCH  14  15
ATOM     15  C   UNL     1      20.929  -7.269  35.245  1.00  0.00     0.041 C 
ATOM     16  O   UNL     1      20.732  -6.206  34.595  1.00  0.00    -0.550 OA
ATOM     17  O   UNL     1      21.494  -7.205  36.511  1.00  0.00    -0.550 OA
ENDBRANCH  14  15
ENDBRANCH  13  14
ENDBRANCH  12  13
ENDBRANCH  11  12
ENDBRANCH  10  11
ENDBRANCH   9  10
ENDBRANCH   8   9
ENDBRANCH   7   8
ENDBRANCH   6   7
ENDBRANCH   5   6
ENDBRANCH   4   5
ENDBRANCH   3   4
ENDBRANCH   2   3
ENDBRANCH   1   2
BRANCH   1  18
ATOM     18  C   UNL     1      20.852 -10.046  28.397  1.00  0.00     0.000 C 
BRANCH  18  19
ATOM     19  C   UNL     1      20.756  -8.519  28.244  1.00  0.00     0.000 C 
BRANCH  19  20
ATOM     20  C   UNL     1      20.240  -7.819  29.512  1.00  0.00     0.000 C 
BRANCH  20  21
ATOM     21  C   UNL     1      20.789  -6.391  29.660  1.00  0.00     0.000 C 
BRANCH  21  22
ATOM     22  C   UNL     1      19.680  -5.361  29.938  1.00  0.00     0.000 C 
BRANCH  22  23
ATOM     23  C   UNL     1      19.391  -5.211  31.441  1.00  0.00     0.000 C 
BRANCH  23  24
ATOM     24  C   UNL     1      17.906  -5.442  31.774  1.00  0.00    -0.000 C 
BRANCH  24  25
ATOM     25  C   UNL     1      17.069  -5.816  30.541  1.00  0.00    -0.000 C 
BRANCH  25  26
ATOM     26  C   UNL     1      16.513  -7.250  30.611  1.00  0.00    -0.000 C 
BRANCH  26  27
ATOM     27  C   UNL     1      16.353  -7.889  29.214  1.00  0.00    -0.000 C 
BRANCH  27  28
ATOM     28  C   UNL     1      16.454  -6.885  28.053  1.00  0.00    -0.000 C 
BRANCH  28  29
ATOM     29  C   UNL     1      17.537  -7.256  27.028  1.00  0.00    -0.000 C 
BRANCH  29  30
ATOM     30  C   UNL     1      17.558  -8.757  26.705  1.00  0.00    -0.000 C 
BRANCH  30  31
ATOM     31  C   UNL     1      18.179  -9.058  25.332  1.00  0.00    -0.003 C 
ATOM     32  C   UNL     1      18.872 -10.418  25.329  1.00  0.00     0.004 C 
ENDBRANCH  30  31
ENDBRANCH  29  30
ENDBRANCH  28  29
ENDBRANCH  27  28
ENDBRANCH  26  27
ENDBRANCH  25  26
ENDBRANCH  24  25
ENDBRANCH  23  24
ENDBRANCH  22  23
ENDBRANCH  21  22
ENDBRANCH  20  21
ENDBRANCH  19  20
ENDBRANCH  18  19
ENDBRANCH   1  18
TORSDOF 28
ENDMDL
MODEL 2
REMARK VINA RESULT:    -3.344      2.746      7.092
REMARK INTER + INTRA:         -15.312
REMARK INTER:                  -9.501
REMARK INTRA:                  -5.811
REMARK UNBOUND:                -6.493
REMARK SMILES CCCCCCCCCCCCCCCCCCCCCCCCCCCCCC(=O)[O-]
REMARK SMILES IDX 16 1 17 2 18 3 19 4 20 5 21 6 22 7 23 8 24 9 25 10 26 11
REMARK SMILES IDX 27 12 28 13 29 14 30 15 31 16 32 17 15 18 14 19 13 20 12 21
REMARK SMILES IDX 11 22 10 23 9 24 8 25 7 26 6 27 5 28 4 29 3 30 2 31 1 32
REMARK H PARENT
REMARK Flexibility Score: inf
ROOT
ATOM      1  C   UNL     1      20.242  -9.153  31.635  1.00  0.00     0.000 C 
ENDROOT
BRANCH   1   2
ATOM      2  C   UNL     1      21.174  -8.171  30.905  1.00  0.00     0.000 C 
BRANCH   2   3
ATOM      3  C   UNL     1      20.626  -7.733  29.535  1.00  0.00     0.000 C 
BRANCH   3   4
ATOM      4  C   UNL     1      20.949  -6.276  29.139  1.00  0.00     0.000 C 
BRANCH   4   5
ATOM      5  C   UNL     1      19.844  -5.248  29.456  1.00  0.00     0.000 C 
BRANCH   5   6
ATOM      6  C   UNL     1      19.756  -4.816  30.934  1.00  0.00     0.000 C 
BRANCH   6   7
ATOM      7  C   UNL     1      18.702  -5.570  31.765  1.00  0.00     0.000 C 
BRANCH   7   8
ATOM      8  C   UNL     1      17.315  -4.908  31.695  1.00  0.00     0.000 C 
BRANCH   8   9
ATOM      9  C   UNL     1      16.400  -5.555  30.644  1.00  0.00     0.000 C 
BRANCH   9  10
ATOM     10  C   UNL     1      16.652  -7.063  30.477  1.00  0.00     0.000 C 
BRANCH  10  11
ATOM     11  C   UNL     1      16.909  -7.470  29.016  1.00  0.00     0.000 C 
BRANCH  11  12
ATOM     12  C   UNL     1      16.361  -8.867  28.655  1.00  0.00     0.000 C 
BRANCH  12  13
ATOM     13  C   UNL     1      16.779  -9.307  27.241  1.00  0.00     0.006 C 
BRANCH  13  14
ATOM     14  C   UNL     1      18.267  -9.047  26.969  1.00  0.00     0.053 C 
BRANCH  14  15
ATOM     15  C   UNL     1      18.901 -10.178  26.219  1.00  0.00     0.041 C 
ATOM     16  O   UNL     1      19.135 -10.070  24.985  1.00  0.00    -0.550 OA
ATOM     17  O   UNL     1      19.233 -11.352  26.881  1.00  0.00    -0.550 OA
ENDBRANCH  14  15
ENDBRANCH  13  14
ENDBRANCH  12  13
ENDBRANCH  11  12
ENDBRANCH  10  11
ENDBRANCH   9  10
ENDBRANCH   8   9
ENDBRANCH   7   8
ENDBRANCH   6   7
ENDBRANCH   5   6
ENDBRANCH   4   5
ENDBRANCH   3   4
ENDBRANCH   2   3
ENDBRANCH   1   2
BRANCH   1  18
ATOM     18  C   UNL     1      19.240  -9.828  30.674  1.00  0.00     0.000 C 
BRANCH  18  19
ATOM     19  C   UNL     1      19.645 -11.252  30.257  1.00  0.00     0.000 C 
BRANCH  19  20
ATOM     20  C   UNL     1      21.154 -11.513  30.396  1.00  0.00     0.000 C 
BRANCH  20  21
ATOM     21  C   UNL     1      21.459 -12.808  31.166  1.00  0.00     0.000 C 
BRANCH  21  22
ATOM     22  C   UNL     1      20.241 -13.326  31.950  1.00  0.00     0.000 C 
BRANCH  22  23
ATOM     23  C   UNL     1      20.232 -12.826  33.404  1.00  0.00     0.000 C 
BRANCH  23  24
ATOM     24  C   UNL     1      18.842 -12.329  33.840  1.00  0.00    -0.000 C 
BRANCH  24  25
ATOM     25  C   UNL     1      17.718 -12.805  32.907  1.00  0.00    -0.000 C 
BRANCH  25  26
ATOM     26  C   UNL     1      16.347 -12.205  33.270  1.00  0.00    -0.000 C 
BRANCH  26  27
ATOM     27  C   UNL     1      16.217 -10.729  32.839  1.00  0.00    -0.000 C 
BRANCH  27  28
ATOM     28  C   UNL     1      16.284  -9.729  34.006  1.00  0.00    -0.000 C 
BRANCH  28  29
ATOM     29  C   UNL     1      17.213  -8.537  33.727  1.00  0.00    -0.000 C 
BRANCH  29  30
ATOM     30  C   UNL     1      18.433  -8.505  34.660  1.00  0.00    -0.000 C 
BRANCH  30  31
ATOM     31  C   UNL     1      18.873  -7.075  35.008  1.00  0.00    -0.003 C 
ATOM     32  C   UNL     1      20.395  -6.957  35.021  1.00  0.00     0.004 C 
ENDBRANCH  30  31
ENDBRANCH  29  30
ENDBRANCH  28  29
ENDBRANCH  27  28
ENDBRANCH  26  27
ENDBRANCH  25  26
ENDBRANCH  24  25
ENDBRANCH  23  24
ENDBRANCH  22  23
ENDBRANCH  21  22
ENDBRANCH  20  21
ENDBRANCH  19  20
ENDBRANCH  18  19
ENDBRANCH   1  18
TORSDOF 28
ENDMDL
MODEL 3
REMARK VINA RESULT:    -3.290      2.033      6.314
REMARK INTER + INTRA:         -15.169
REMARK INTER:                  -8.908
REMARK INTRA:                  -6.261
REMARK UNBOUND:                -6.493
REMARK SMILES CCCCCCCCCCCCCCCCCCCCCCCCCCCCCC(=O)[O-]
REMARK SMILES IDX 16 1 17 2 18 3 19 4 20 5 21 6 22 7 23 8 24 9 25 10 26 11
REMARK SMILES IDX 27 12 28 13 29 14 30 15 31 16 32 17 15 18 14 19 13 20 12 21
REMARK SMILES IDX 11 22 10 23 9 24 8 25 7 26 6 27 5 28 4 29 3 30 2 31 1 32
REMARK H PARENT
REMARK Flexibility Score: inf
ROOT
ATOM      1  C   UNL     1      17.947  -8.821  31.775  1.00  0.00     0.000 C 
ENDROOT
BRANCH   1   2
ATOM      2  C   UNL     1      16.911  -9.128  30.680  1.00  0.00     0.000 C 
BRANCH   2   3
ATOM      3  C   UNL     1      16.344  -7.858  30.020  1.00  0.00     0.000 C 
BRANCH   3   4
ATOM      4  C   UNL     1      15.851  -8.042  28.569  1.00  0.00     0.000 C 
BRANCH   4   5
ATOM      5  C   UNL     1      15.074  -9.347  28.298  1.00  0.00     0.000 C 
BRANCH   5   6
ATOM      6  C   UNL     1      15.541 -10.142  27.063  1.00  0.00     0.000 C 
BRANCH   6   7
ATOM      7  C   UNL     1      16.982  -9.845  26.611  1.00  0.00     0.000 C 
BRANCH   7   8
ATOM      8  C   UNL     1      17.791 -11.127  26.345  1.00  0.00     0.000 C 
BRANCH   8   9
ATOM      9  C   UNL     1      19.245 -11.022  26.831  1.00  0.00     0.000 C 
BRANCH   9  10
ATOM     10  C   UNL     1      19.355 -10.595  28.305  1.00  0.00     0.000 C 
BRANCH  10  11
ATOM     11  C   UNL     1      20.719  -9.973  28.648  1.00  0.00     0.000 C 
BRANCH  11  12
ATOM     12  C   UNL     1      20.623  -8.537  29.207  1.00  0.00     0.000 C 
BRANCH  12  13
ATOM     13  C   UNL     1      19.592  -7.686  28.447  1.00  0.00     0.006 C 
BRANCH  13  14
ATOM     14  C   UNL     1      20.068  -6.241  28.245  1.00  0.00     0.053 C 
BRANCH  14  15
ATOM     15  C   UNL     1      19.695  -5.365  29.401  1.00  0.00     0.041 C 
ATOM     16  O   UNL     1      18.494  -5.027  29.580  1.00  0.00    -0.550 OA
ATOM     17  O   UNL     1      20.673  -4.920  30.280  1.00  0.00    -0.550 OA
ENDBRANCH  14  15
ENDBRANCH  13  14
ENDBRANCH  12  13
ENDBRANCH  11  12
ENDBRANCH  10  11
ENDBRANCH   9  10
ENDBRANCH   8   9
ENDBRANCH   7   8
ENDBRANCH   6   7
ENDBRANCH   5   6
ENDBRANCH   4   5
ENDBRANCH   3   4
ENDBRANCH   2   3
ENDBRANCH   1   2
BRANCH   1  18
ATOM     18  C   UNL     1      17.874  -7.355  32.251  1.00  0.00     0.000 C 
BRANCH  18  19
ATOM     19  C   UNL     1      19.201  -6.819  32.813  1.00  0.00     0.000 C 
BRANCH  19  20
ATOM     20  C   UNL     1      20.324  -7.870  32.808  1.00  0.00     0.000 C 
BRANCH  20  21
ATOM     21  C   UNL     1      21.180  -7.822  34.083  1.00  0.00     0.000 C 
BRANCH  21  22
ATOM     22  C   UNL     1      20.768  -6.677  35.026  1.00  0.00     0.000 C 
BRANCH  22  23
ATOM     23  C   UNL     1      20.337  -7.193  36.410  1.00  0.00     0.000 C 
BRANCH  23  24
ATOM     24  C   UNL     1      18.885  -6.806  36.747  1.00  0.00    -0.000 C 
BRANCH  24  25
ATOM     25  C   UNL     1      17.851  -7.715  36.066  1.00  0.00    -0.000 C 
BRANCH  25  26
ATOM     26  C   UNL     1      18.306  -9.185  35.993  1.00  0.00    -0.000 C 
BRANCH  26  27
ATOM     27  C   UNL     1      17.316 -10.070  35.205  1.00  0.00    -0.000 C 
BRANCH  27  28
ATOM     28  C   UNL     1      17.973 -11.271  34.505  1.00  0.00    -0.000 C 
BRANCH  28  29
ATOM     29  C   UNL     1      19.493 -11.114  34.336  1.00  0.00    -0.000 C 
BRANCH  29  30
ATOM     30  C   UNL     1      20.094 -12.158  33.384  1.00  0.00    -0.000 C 
BRANCH  30  31
ATOM     31  C   UNL     1      20.509 -11.557  32.033  1.00  0.00    -0.003 C 
ATOM     32  C   UNL     1      21.459 -12.489  31.286  1.00  0.00     0.004 C 
ENDBRANCH  30  31
ENDBRANCH  29  30
ENDBRANCH  28  29
ENDBRANCH  27  28
ENDBRANCH  26  27
ENDBRANCH  25  26
ENDBRANCH  24  25
ENDBRANCH  23  24
ENDBRANCH  22  23
ENDBRANCH  21  22
ENDBRANCH  20  21
ENDBRANCH  19  20
ENDBRANCH  18  19
ENDBRANCH   1  18
TORSDOF 28
ENDMDL
MODEL 4
REMARK VINA RESULT:    -3.249      2.233      5.638
REMARK INTER + INTRA:         -15.060
REMARK INTER:                  -8.673
REMARK INTRA:                  -6.387
REMARK UNBOUND:                -6.493
REMARK SMILES CCCCCCCCCCCCCCCCCCCCCCCCCCCCCC(=O)[O-]
REMARK SMILES IDX 16 1 17 2 18 3 19 4 20 5 21 6 22 7 23 8 24 9 25 10 26 11
REMARK SMILES IDX 27 12 28 13 29 14 30 15 31 16 32 17 15 18 14 19 13 20 12 21
REMARK SMILES IDX 11 22 10 23 9 24 8 25 7 26 6 27 5 28 4 29 3 30 2 31 1 32
REMARK H PARENT
REMARK Flexibility Score: inf
ROOT
ATOM      1  C   UNL     1      17.421  -7.793  30.202  1.00  0.00     0.000 C 
ENDROOT
BRANCH   1   2
ATOM      2  C   UNL     1      17.875  -7.715  31.669  1.00  0.00     0.000 C 
BRANCH   2   3
ATOM      3  C   UNL     1      19.195  -6.942  31.847  1.00  0.00     0.000 C 
BRANCH   3   4
ATOM      4  C   UNL     1      19.128  -5.444  31.482  1.00  0.00     0.000 C 
BRANCH   4   5
ATOM      5  C   UNL     1      20.101  -4.993  30.373  1.00  0.00     0.000 C 
BRANCH   5   6
ATOM      6  C   UNL     1      20.982  -6.111  29.780  1.00  0.00     0.000 C 
BRANCH   6   7
ATOM      7  C   UNL     1      21.093  -6.100  28.245  1.00  0.00     0.000 C 
BRANCH   7   8
ATOM      8  C   UNL     1      20.347  -7.277  27.593  1.00  0.00     0.000 C 
BRANCH   8   9
ATOM      9  C   UNL     1      20.154  -8.462  28.552  1.00  0.00     0.000 C 
BRANCH   9  10
ATOM     10  C   UNL     1      21.096  -9.639  28.248  1.00  0.00     0.000 C 
BRANCH  10  11
ATOM     11  C   UNL     1      20.658 -10.948  28.927  1.00  0.00     0.000 C 
BRANCH  11  12
ATOM     12  C   UNL     1      19.734 -10.736  30.146  1.00  0.00     0.000 C 
BRANCH  12  13
ATOM     13  C   UNL     1      20.313 -11.357  31.428  1.00  0.00     0.006 C 
BRANCH  13  14
ATOM     14  C   UNL     1      20.209 -10.409  32.630  1.00  0.00     0.053 C 
BRANCH  14  15
ATOM     15  C   UNL     1      19.261 -10.927  33.667  1.00  0.00     0.041 C 
ATOM     16  O   UNL     1      18.881 -10.182  34.611  1.00  0.00    -0.550 OA
ATOM     17  O   UNL     1      18.796 -12.233  33.594  1.00  0.00    -0.550 OA
ENDBRANCH  14  15
ENDBRANCH  13  14
ENDBRANCH  12  13
ENDBRANCH  11  12
ENDBRANCH  10  11
ENDBRANCH   9  10
ENDBRANCH   8   9
ENDBRANCH   7   8
ENDBRANCH   6   7
ENDBRANCH   5   6
ENDBRANCH   4   5
ENDBRANCH   3   4
ENDBRANCH   2   3
ENDBRANCH   1   2
BRANCH   1  18
ATOM     18  C   UNL     1      16.034  -7.152  29.987  1.00  0.00     0.000 C 
BRANCH  18  19
ATOM     19  C   UNL     1      16.092  -5.736  29.388  1.00  0.00     0.000 C 
BRANCH  19  20
ATOM     20  C   UNL     1      17.098  -5.613  28.232  1.00  0.00     0.000 C 
BRANCH  20  21
ATOM     21  C   UNL     1      17.461  -4.152  27.921  1.00  0.00     0.000 C 
BRANCH  21  22
ATOM     22  C   UNL     1      17.663  -3.904  26.415  1.00  0.00     0.000 C 
BRANCH  22  23
ATOM     23  C   UNL     1      19.098  -4.222  25.963  1.00  0.00     0.000 C 
BRANCH  23  24
ATOM     24  C   UNL     1      19.131  -4.984  24.626  1.00  0.00    -0.000 C 
BRANCH  24  25
ATOM     25  C   UNL     1      17.805  -5.694  24.311  1.00  0.00    -0.000 C 
BRANCH  25  26
ATOM     26  C   UNL     1      17.752  -7.130  24.866  1.00  0.00    -0.000 C 
BRANCH  26  27
ATOM     27  C   UNL     1      18.830  -8.044  24.243  1.00  0.00    -0.000 C 
BRANCH  27  28
ATOM     28  C   UNL     1      18.438  -9.530  24.199  1.00  0.00    -0.000 C 
BRANCH  28  29
ATOM     29  C   UNL     1      19.045 -10.349  25.350  1.00  0.00    -0.000 C 
BRANCH  29  30
ATOM     30  C   UNL     1      17.977 -10.973  26.261  1.00  0.00    -0.000 C 
BRANCH  30  31
ATOM     31  C   UNL     1      17.323  -9.945  27.195  1.00  0.00    -0.003 C 
ATOM     32  C   UNL     1      15.820  -9.850  26.941  1.00  0.00     0.004 C 
ENDBRANCH  30  31
ENDBRANCH  29  30
ENDBRANCH  28  29
ENDBRANCH  27  28
ENDBRANCH  26  27
ENDBRANCH  25  26
ENDBRANCH  24  25
ENDBRANCH  23  24
ENDBRANCH  22  23
ENDBRANCH  21  22
ENDBRANCH  20  21
ENDBRANCH  19  20
ENDBRANCH  18  19
ENDBRANCH   1  18
TORSDOF 28
ENDMDL
MODEL 5
REMARK VINA RESULT:    -3.247      3.018      7.595
REMARK INTER + INTRA:         -15.055
REMARK INTER:                  -8.891
REMARK INTRA:                  -6.164
REMARK UNBOUND:                -6.493
REMARK SMILES CCCCCCCCCCCCCCCCCCCCCCCCCCCCCC(=O)[O-]
REMARK SMILES IDX 16 1 17 2 18 3 19 4 20 5 21 6 22 7 23 8 24 9 25 10 26 11
REMARK SMILES IDX 27 12 28 13 29 14 30 15 31 16 32 17 15 18 14 19 13 20 12 21
REMARK SMILES IDX 11 22 10 23 9 24 8 25 7 26 6 27 5 28 4 29 3 30 2 31 1 32
REMARK H PARENT
REMARK Flexibility Score: inf
ROOT
ATOM      1  C   UNL     1      17.348  -9.443  31.097  1.00  0.00     0.000 C 
ENDROOT
BRANCH   1   2
ATOM      2  C   UNL     1      16.269  -8.845  30.178  1.00  0.00     0.000 C 
BRANCH   2   3
ATOM      3  C   UNL     1      16.716  -7.536  29.503  1.00  0.00     0.000 C 
BRANCH   3   4
ATOM      4  C   UNL     1      16.362  -6.248  30.275  1.00  0.00     0.000 C 
BRANCH   4   5
ATOM      5  C   UNL     1      16.482  -4.941  29.466  1.00  0.00     0.000 C 
BRANCH   5   6
ATOM      6  C   UNL     1      17.083  -5.098  28.054  1.00  0.00     0.000 C 
BRANCH   6   7
ATOM      7  C   UNL     1      18.521  -4.570  27.903  1.00  0.00     0.000 C 
BRANCH   7   8
ATOM      8  C   UNL     1      19.304  -5.303  26.800  1.00  0.00     0.000 C 
BRANCH   8   9
ATOM      9  C   UNL     1      18.864  -6.765  26.631  1.00  0.00     0.000 C 
BRANCH   9  10
ATOM     10  C   UNL     1      18.919  -7.244  25.171  1.00  0.00     0.000 C 
BRANCH  10  11
ATOM     11  C   UNL     1      17.549  -7.696  24.636  1.00  0.00     0.000 C 
BRANCH  11  12
ATOM     12  C   UNL     1      16.478  -7.863  25.735  1.00  0.00     0.000 C 
BRANCH  12  13
ATOM     13  C   UNL     1      16.062  -9.332  25.922  1.00  0.00     0.006 C 
BRANCH  13  14
ATOM     14  C   UNL     1      17.009 -10.088  26.863  1.00  0.00     0.053 C 
BRANCH  14  15
ATOM     15  C   UNL     1      17.904 -11.027  26.115  1.00  0.00     0.041 C 
ATOM     16  O   UNL     1      18.894 -11.555  26.689  1.00  0.00    -0.550 OA
ATOM     17  O   UNL     1      17.645 -11.322  24.783  1.00  0.00    -0.550 OA
ENDBRANCH  14  15
ENDBRANCH  13  14
ENDBRANCH  12  13
ENDBRANCH  11  12
ENDBRANCH  10  11
ENDBRANCH   9  10
ENDBRANCH   8   9
ENDBRANCH   7   8
ENDBRANCH   6   7
ENDBRANCH   5   6
ENDBRANCH   4   5
ENDBRANCH   3   4
ENDBRANCH   2   3
ENDBRANCH   1   2
BRANCH   1  18
ATOM     18  C   UNL     1      17.129  -9.065  32.576  1.00  0.00     0.000 C 
BRANCH  18  19
ATOM     19  C   UNL     1      18.410  -8.610  33.296  1.00  0.00     0.000 C 
BRANCH  19  20
ATOM     20  C   UNL     1      18.670  -7.101  33.165  1.00  0.00     0.000 C 
BRANCH  20  21
ATOM     21  C   UNL     1      20.016  -6.792  32.490  1.00  0.00     0.000 C 
BRANCH  21  22
ATOM     22  C   UNL     1      19.847  -6.050  31.152  1.00  0.00     0.000 C 
BRANCH  22  23
ATOM     23  C   UNL     1      20.561  -6.770  29.996  1.00  0.00     0.000 C 
BRANCH  23  24
ATOM     24  C   UNL     1      20.834  -8.251  30.315  1.00  0.00    -0.000 C 
BRANCH  24  25
ATOM     25  C   UNL     1      20.462  -9.190  29.156  1.00  0.00    -0.000 C 
BRANCH  25  26
ATOM     26  C   UNL     1      20.701 -10.674  29.491  1.00  0.00    -0.000 C 
BRANCH  26  27
ATOM     27  C   UNL     1      20.759 -10.933  31.012  1.00  0.00    -0.000 C 
BRANCH  27  28
ATOM     28  C   UNL     1      21.131 -12.378  31.385  1.00  0.00    -0.000 C 
BRANCH  28  29
ATOM     29  C   UNL     1      19.927 -13.208  31.859  1.00  0.00    -0.000 C 
BRANCH  29  30
ATOM     30  C   UNL     1      18.858 -12.355  32.559  1.00  0.00    -0.000 C 
BRANCH  30  31
ATOM     31  C   UNL     1      17.773 -13.206  33.235  1.00  0.00    -0.003 C 
ATOM     32  C   UNL     1      16.406 -12.535  33.132  1.00  0.00     0.004 C 
ENDBRANCH  30  31
ENDBRANCH  29  30
ENDBRANCH  28  29
ENDBRANCH  27  28
ENDBRANCH  26  27
ENDBRANCH  25  26
ENDBRANCH  24  25
ENDBRANCH  23  24
ENDBRANCH  22  23
ENDBRANCH  21  22
ENDBRANCH  20  21
ENDBRANCH  19  20
ENDBRANCH  18  19
ENDBRANCH   1  18
TORSDOF 28
ENDMDL
MODEL 6
REMARK VINA RESULT:    -3.227      3.061      6.437
REMARK INTER + INTRA:         -15.001
REMARK INTER:                  -8.529
REMARK INTRA:                  -6.472
REMARK UNBOUND:                -6.493
REMARK SMILES CCCCCCCCCCCCCCCCCCCCCCCCCCCCCC(=O)[O-]
REMARK SMILES IDX 16 1 17 2 18 3 19 4 20 5 21 6 22 7 23 8 24 9 25 10 26 11
REMARK SMILES IDX 27 12 28 13 29 14 30 15 31 16 32 17 15 18 14 19 13 20 12 21
REMARK SMILES IDX 11 22 10 23 9 24 8 25 7 26 6 27 5 28 4 29 3 30 2 31 1 32
REMARK H PARENT
REMARK Flexibility Score: inf
ROOT
ATOM      1  C   UNL     1      20.943  -7.190  28.210  1.00  0.00     0.000 C 
ENDROOT
BRANCH   1   2
ATOM      2  C   UNL     1      21.036  -7.367  29.735  1.00  0.00     0.000 C 
BRANCH   2   3
ATOM      3  C   UNL     1      20.611  -8.772  30.201  1.00  0.00     0.000 C 
BRANCH   3   4
ATOM      4  C   UNL     1      19.867  -9.613  29.142  1.00  0.00     0.000 C 
BRANCH   4   5
ATOM      5  C   UNL     1      18.328  -9.549  29.212  1.00  0.00     0.000 C 
BRANCH   5   6
ATOM      6  C   UNL     1      17.749  -9.243  30.609  1.00  0.00     0.000 C 
BRANCH   6   7
ATOM      7  C   UNL     1      16.213  -9.159  30.665  1.00  0.00     0.000 C 
BRANCH   7   8
ATOM      8  C   UNL     1      15.575  -9.090  29.267  1.00  0.00     0.000 C 
BRANCH   8   9
ATOM      9  C   UNL     1      14.716  -7.832  29.068  1.00  0.00     0.000 C 
BRANCH   9  10
ATOM     10  C   UNL     1      14.636  -7.387  27.597  1.00  0.00     0.000 C 
BRANCH  10  11
ATOM     11  C   UNL     1      15.577  -8.184  26.678  1.00  0.00     0.000 C 
BRANCH  11  12
ATOM     12  C   UNL     1      16.827  -7.394  26.235  1.00  0.00     0.000 C 
BRANCH  12  13
ATOM     13  C   UNL     1      17.577  -8.090  25.086  1.00  0.00     0.006 C 
BRANCH  13  14
ATOM     14  C   UNL     1      18.839  -8.815  25.573  1.00  0.00     0.053 C 
BRANCH  14  15
ATOM     15  C   UNL     1      18.819 -10.268  25.212  1.00  0.00     0.041 C 
ATOM     16  O   UNL     1      18.739 -11.146  26.114  1.00  0.00    -0.550 OA
ATOM     17  O   UNL     1      18.890 -10.656  23.881  1.00  0.00    -0.550 OA
ENDBRANCH  14  15
ENDBRANCH  13  14
ENDBRANCH  12  13
ENDBRANCH  11  12
ENDBRANCH  10  11
ENDBRANCH   9  10
ENDBRANCH   8   9
ENDBRANCH   7   8
ENDBRANCH   6   7
ENDBRANCH   5   6
ENDBRANCH   4   5
ENDBRANCH   3   4
ENDBRANCH   2   3
ENDBRANCH   1   2
BRANCH   1  18
ATOM     18  C   UNL     1      19.935  -6.091  27.812  1.00  0.00     0.000 C 
BRANCH  18  19
ATOM     19  C   UNL     1      19.350  -5.324  29.010  1.00  0.00     0.000 C 
BRANCH  19  20
ATOM     20  C   UNL     1      17.843  -5.564  29.198  1.00  0.00     0.000 C 
BRANCH  20  21
ATOM     21  C   UNL     1      17.442  -5.653  30.679  1.00  0.00     0.000 C 
BRANCH  21  22
ATOM     22  C   UNL     1      18.523  -5.086  31.616  1.00  0.00     0.000 C 
BRANCH  22  23
ATOM     23  C   UNL     1      19.101  -6.163  32.552  1.00  0.00     0.000 C 
BRANCH  23  24
ATOM     24  C   UNL     1      17.997  -6.977  33.251  1.00  0.00    -0.000 C 
BRANCH  24  25
ATOM     25  C   UNL     1      18.535  -7.855  34.392  1.00  0.00    -0.000 C 
BRANCH  25  26
ATOM     26  C   UNL     1      19.967  -8.358  34.132  1.00  0.00    -0.000 C 
BRANCH  26  27
ATOM     27  C   UNL     1      19.996  -9.813  33.617  1.00  0.00    -0.000 C 
BRANCH  27  28
ATOM     28  C   UNL     1      18.705 -10.601  33.898  1.00  0.00    -0.000 C 
BRANCH  28  29
ATOM     29  C   UNL     1      18.828 -12.097  33.569  1.00  0.00    -0.000 C 
BRANCH  29  30
ATOM     30  C   UNL     1      19.017 -12.360  32.068  1.00  0.00    -0.000 C 
BRANCH  30  31
ATOM     31  C   UNL     1      20.203 -13.292  31.776  1.00  0.00    -0.003 C 
ATOM     32  C   UNL     1      21.434 -12.496  31.348  1.00  0.00     0.004 C 
ENDBRANCH  30  31
ENDBRANCH  29  30
ENDBRANCH  28  29
ENDBRANCH  27  28
ENDBRANCH  26  27
ENDBRANCH  25  26
ENDBRANCH  24  25
ENDBRANCH  23  24
ENDBRANCH  22  23
ENDBRANCH  21  22
ENDBRANCH  20  21
ENDBRANCH  19  20
ENDBRANCH  18  19
ENDBRANCH   1  18
TORSDOF 28
ENDMDL
MODEL 7
REMARK VINA RESULT:    -3.213      3.876      8.149
REMARK INTER + INTRA:         -14.967
REMARK INTER:                  -7.774
REMARK INTRA:                  -7.192
REMARK UNBOUND:                -6.493
REMARK SMILES CCCCCCCCCCCCCCCCCCCCCCCCCCCCCC(=O)[O-]
REMARK SMILES IDX 16 1 17 2 18 3 19 4 20 5 21 6 22 7 23 8 24 9 25 10 26 11
REMARK SMILES IDX 27 12 28 13 29 14 30 15 31 16 32 17 15 18 14 19 13 20 12 21
REMARK SMILES IDX 11 22 10 23 9 24 8 25 7 26 6 27 5 28 4 29 3 30 2 31 1 32
REMARK H PARENT
REMARK Flexibility Score: inf
ROOT
ATOM      1  C   UNL     1      15.521  -7.533  26.611  1.00  0.00     0.000 C 
ENDROOT
BRANCH   1   2
ATOM      2  C   UNL     1      14.620  -6.351  27.006  1.00  0.00     0.000 C 
BRANCH   2   3
ATOM      3  C   UNL     1      15.237  -4.985  26.656  1.00  0.00     0.000 C 
BRANCH   3   4
ATOM      4  C   UNL     1      15.985  -4.291  27.814  1.00  0.00     0.000 C 
BRANCH   4   5
ATOM      5  C   UNL     1      17.477  -3.996  27.551  1.00  0.00     0.000 C 
BRANCH   5   6
ATOM      6  C   UNL     1      18.097  -4.766  26.367  1.00  0.00     0.000 C 
BRANCH   6   7
ATOM      7  C   UNL     1      19.403  -5.511  26.696  1.00  0.00     0.000 C 
BRANCH   7   8
ATOM      8  C   UNL     1      19.226  -7.040  26.686  1.00  0.00     0.000 C 
BRANCH   8   9
ATOM      9  C   UNL     1      18.717  -7.569  25.336  1.00  0.00     0.000 C 
BRANCH   9  10
ATOM     10  C   UNL     1      18.822  -9.099  25.214  1.00  0.00     0.000 C 
BRANCH  10  11
ATOM     11  C   UNL     1      19.199  -9.782  26.540  1.00  0.00     0.000 C 
BRANCH  11  12
ATOM     12  C   UNL     1      18.397 -11.070  26.825  1.00  0.00     0.000 C 
BRANCH  12  13
ATOM     13  C   UNL     1      17.536 -11.495  25.623  1.00  0.00     0.006 C 
BRANCH  13  14
ATOM     14  C   UNL     1      16.066 -11.706  26.009  1.00  0.00     0.053 C 
BRANCH  14  15
ATOM     15  C   UNL     1      15.137 -11.279  24.914  1.00  0.00     0.041 C 
ATOM     16  O   UNL     1      14.102 -11.953  24.660  1.00  0.00    -0.550 OA
ATOM     17  O   UNL     1      15.412 -10.138  24.174  1.00  0.00    -0.550 OA
ENDBRANCH  14  15
ENDBRANCH  13  14
ENDBRANCH  12  13
ENDBRANCH  11  12
ENDBRANCH  10  11
ENDBRANCH   9  10
ENDBRANCH   8   9
ENDBRANCH   7   8
ENDBRANCH   6   7
ENDBRANCH   5   6
ENDBRANCH   4   5
ENDBRANCH   3   4
ENDBRANCH   2   3
ENDBRANCH   1   2
BRANCH   1  18
ATOM     18  C   UNL     1      15.489  -8.665  27.658  1.00  0.00     0.000 C 
BRANCH  18  19
ATOM     19  C   UNL     1      16.503  -8.482  28.799  1.00  0.00     0.000 C 
BRANCH  19  20
ATOM     20  C   UNL     1      15.848  -8.056  30.123  1.00  0.00     0.000 C 
BRANCH  20  21
ATOM     21  C   UNL     1      16.472  -6.777  30.704  1.00  0.00     0.000 C 
BRANCH  21  22
ATOM     22  C   UNL     1      17.831  -6.443  30.064  1.00  0.00     0.000 C 
BRANCH  22  23
ATOM     23  C   UNL     1      18.593  -5.364  30.851  1.00  0.00     0.000 C 
BRANCH  23  24
ATOM     24  C   UNL     1      20.048  -5.774  31.140  1.00  0.00    -0.000 C 
BRANCH  24  25
ATOM     25  C   UNL     1      20.653  -6.649  30.032  1.00  0.00    -0.000 C 
BRANCH  25  26
ATOM     26  C   UNL     1      21.089  -8.036  30.539  1.00  0.00    -0.000 C 
BRANCH  26  27
ATOM     27  C   UNL     1      20.298  -9.183  29.872  1.00  0.00    -0.000 C 
BRANCH  27  28
ATOM     28  C   UNL     1      19.325  -9.903  30.820  1.00  0.00    -0.000 C 
BRANCH  28  29
ATOM     29  C   UNL     1      19.544  -9.543  32.298  1.00  0.00    -0.000 C 
BRANCH  29  30
ATOM     30  C   UNL     1      18.320  -8.865  32.931  1.00  0.00    -0.000 C 
BRANCH  30  31
ATOM     31  C   UNL     1      18.704  -7.745  33.909  1.00  0.00    -0.003 C 
ATOM     32  C   UNL     1      17.488  -6.901  34.282  1.00  0.00     0.004 C 
ENDBRANCH  30  31
ENDBRANCH  29  30
ENDBRANCH  28  29
ENDBRANCH  27  28
ENDBRANCH  26  27
ENDBRANCH  25  26
ENDBRANCH  24  25
ENDBRANCH  23  24
ENDBRANCH  22  23
ENDBRANCH  21  22
ENDBRANCH  20  21
ENDBRANCH  19  20
ENDBRANCH  18  19
ENDBRANCH   1  18
TORSDOF 28
ENDMDL
MODEL 8
REMARK VINA RESULT:    -3.210      3.116      7.423
REMARK INTER + INTRA:         -14.957
REMARK INTER:                  -9.122
REMARK INTRA:                  -5.835
REMARK UNBOUND:                -6.493
REMARK SMILES CCCCCCCCCCCCCCCCCCCCCCCCCCCCCC(=O)[O-]
REMARK SMILES IDX 16 1 17 2 18 3 19 4 20 5 21 6 22 7 23 8 24 9 25 10 26 11
REMARK SMILES IDX 27 12 28 13 29 14 30 15 31 16 32 17 15 18 14 19 13 20 12 21
REMARK SMILES IDX 11 22 10 23 9 24 8 25 7 26 6 27 5 28 4 29 3 30 2 31 1 32
REMARK H PARENT
REMARK Flexibility Score: inf
ROOT
ATOM      1  C   UNL     1      20.491  -6.772  29.395  1.00  0.00     0.000 C 
ENDROOT
BRANCH   1   2
ATOM      2  C   UNL     1      20.766  -6.833  27.883  1.00  0.00     0.000 C 
BRANCH   2   3
ATOM      3  C   UNL     1      19.601  -6.283  27.041  1.00  0.00     0.000 C 
BRANCH   3   4
ATOM      4  C   UNL     1      18.779  -5.164  27.716  1.00  0.00     0.000 C 
BRANCH   4   5
ATOM      5  C   UNL     1      17.272  -5.165  27.387  1.00  0.00     0.000 C 
BRANCH   5   6
ATOM      6  C   UNL     1      16.404  -4.268  28.293  1.00  0.00     0.000 C 
BRANCH   6   7
ATOM      7  C   UNL     1      15.735  -4.998  29.472  1.00  0.00     0.000 C 
BRANCH   7   8
ATOM      8  C   UNL     1      16.628  -5.036  30.724  1.00  0.00     0.000 C 
BRANCH   8   9
ATOM      9  C   UNL     1      17.241  -6.423  30.974  1.00  0.00     0.000 C 
BRANCH   9  10
ATOM     10  C   UNL     1      16.340  -7.572  30.491  1.00  0.00     0.000 C 
BRANCH  10  11
ATOM     11  C   UNL     1      17.113  -8.655  29.719  1.00  0.00     0.000 C 
BRANCH  11  12
ATOM     12  C   UNL     1      16.526  -8.962  28.324  1.00  0.00     0.000 C 
BRANCH  12  13
ATOM     13  C   UNL     1      17.620  -9.104  27.252  1.00  0.00     0.006 C 
BRANCH  13  14
ATOM     14  C   UNL     1      17.746 -10.546  26.741  1.00  0.00     0.053 C 
BRANCH  14  15
ATOM     15  C   UNL     1      18.052 -10.592  25.276  1.00  0.00     0.041 C 
ATOM     16  O   UNL     1      17.125 -10.764  24.438  1.00  0.00    -0.550 OA
ATOM     17  O   UNL     1      19.359 -10.445  24.833  1.00  0.00    -0.550 OA
ENDBRANCH  14  15
ENDBRANCH  13  14
ENDBRANCH  12  13
ENDBRANCH  11  12
ENDBRANCH  10  11
ENDBRANCH   9  10
ENDBRANCH   8   9
ENDBRANCH   7   8
ENDBRANCH   6   7
ENDBRANCH   5   6
ENDBRANCH   4   5
ENDBRANCH   3   4
ENDBRANCH   2   3
ENDBRANCH   1   2
BRANCH   1  18
ATOM     18  C   UNL     1      20.739  -8.128  30.087  1.00  0.00     0.000 C 
BRANCH  18  19
ATOM     19  C   UNL     1      20.779  -9.321  29.117  1.00  0.00     0.000 C 
BRANCH  19  20
ATOM     20  C   UNL     1      20.121 -10.586  29.693  1.00  0.00     0.000 C 
BRANCH  20  21
ATOM     21  C   UNL     1      21.153 -11.634  30.141  1.00  0.00     0.000 C 
BRANCH  21  22
ATOM     22  C   UNL     1      21.159 -11.838  31.666  1.00  0.00     0.000 C 
BRANCH  22  23
ATOM     23  C   UNL     1      20.457 -13.144  32.078  1.00  0.00     0.000 C 
BRANCH  23  24
ATOM     24  C   UNL     1      18.924 -13.031  31.992  1.00  0.00    -0.000 C 
BRANCH  24  25
ATOM     25  C   UNL     1      18.239 -13.140  33.363  1.00  0.00    -0.000 C 
BRANCH  25  26
ATOM     26  C   UNL     1      17.088 -12.132  33.537  1.00  0.00    -0.000 C 
BRANCH  26  27
ATOM     27  C   UNL     1      17.273 -10.871  32.666  1.00  0.00    -0.000 C 
BRANCH  27  28
ATOM     28  C   UNL     1      16.969  -9.555  33.402  1.00  0.00    -0.000 C 
BRANCH  28  29
ATOM     29  C   UNL     1      18.178  -9.000  34.172  1.00  0.00    -0.000 C 
BRANCH  29  30
ATOM     30  C   UNL     1      19.502  -9.198  33.417  1.00  0.00    -0.000 C 
BRANCH  30  31
ATOM     31  C   UNL     1      20.476  -8.027  33.616  1.00  0.00    -0.003 C 
ATOM     32  C   UNL     1      19.730  -6.696  33.664  1.00  0.00     0.004 C 
ENDBRANCH  30  31
ENDBRANCH  29  30
ENDBRANCH  28  29
ENDBRANCH  27  28
ENDBRANCH  26  27
ENDBRANCH  25  26
ENDBRANCH  24  25
ENDBRANCH  23  24
ENDBRANCH  22  23
ENDBRANCH  21  22
ENDBRANCH  20  21
ENDBRANCH  19  20
ENDBRANCH  18  19
ENDBRANCH   1  18
TORSDOF 28
ENDMDL
MODEL 9
REMARK VINA RESULT:    -3.197      2.340      4.885
REMARK INTER + INTRA:         -14.924
REMARK INTER:                  -8.604
REMARK INTRA:                  -6.321
REMARK UNBOUND:                -6.493
REMARK SMILES CCCCCCCCCCCCCCCCCCCCCCCCCCCCCC(=O)[O-]
REMARK SMILES IDX 16 1 17 2 18 3 19 4 20 5 21 6 22 7 23 8 24 9 25 10 26 11
REMARK SMILES IDX 27 12 28 13 29 14 30 15 31 16 32 17 15 18 14 19 13 20 12 21
REMARK SMILES IDX 11 22 10 23 9 24 8 25 7 26 6 27 5 28 4 29 3 30 2 31 1 32
REMARK H PARENT
REMARK Flexibility Score: inf
ROOT
ATOM      1  C   UNL     1      20.588  -7.143  28.313  1.00  0.00     0.000 C 
ENDROOT
BRANCH   1   2
ATOM      2  C   UNL     1      20.764  -8.671  28.278  1.00  0.00     0.000 C 
BRANCH   2   3
ATOM      3  C   UNL     1      20.757  -9.306  29.681  1.00  0.00     0.000 C 
BRANCH   3   4
ATOM      4  C   UNL     1      20.973  -8.317  30.846  1.00  0.00     0.000 C 
BRANCH   4   5
ATOM      5  C   UNL     1      20.282  -8.700  32.171  1.00  0.00     0.000 C 
BRANCH   5   6
ATOM      6  C   UNL     1      20.697  -7.856  33.393  1.00  0.00     0.000 C 
BRANCH   6   7
ATOM      7  C   UNL     1      19.529  -7.194  34.146  1.00  0.00     0.000 C 
BRANCH   7   8
ATOM      8  C   UNL     1      18.290  -8.102  34.225  1.00  0.00     0.000 C 
BRANCH   8   9
ATOM      9  C   UNL     1      18.343  -9.077  35.412  1.00  0.00     0.000 C 
BRANCH   9  10
ATOM     10  C   UNL     1      18.794 -10.490  35.007  1.00  0.00     0.000 C 
BRANCH  10  11
ATOM     11  C   UNL     1      17.616 -11.429  34.697  1.00  0.00     0.000 C 
BRANCH  11  12
ATOM     12  C   UNL     1      17.133 -11.355  33.232  1.00  0.00     0.000 C 
BRANCH  12  13
ATOM     13  C   UNL     1      18.298 -11.434  32.231  1.00  0.00     0.006 C 
BRANCH  13  14
ATOM     14  C   UNL     1      18.917 -12.837  32.173  1.00  0.00     0.053 C 
BRANCH  14  15
ATOM     15  C   UNL     1      20.372 -12.819  32.529  1.00  0.00     0.041 C 
ATOM     16  O   UNL     1      20.747 -13.154  33.685  1.00  0.00    -0.550 OA
ATOM     17  O   UNL     1      21.314 -12.432  31.586  1.00  0.00    -0.550 OA
ENDBRANCH  14  15
ENDBRANCH  13  14
ENDBRANCH  12  13
ENDBRANCH  11  12
ENDBRANCH  10  11
ENDBRANCH   9  10
ENDBRANCH   8   9
ENDBRANCH   7   8
ENDBRANCH   6   7
ENDBRANCH   5   6
ENDBRANCH   4   5
ENDBRANCH   3   4
ENDBRANCH   2   3
ENDBRANCH   1   2
BRANCH   1  18
ATOM     18  C   UNL     1      19.563  -6.652  27.269  1.00  0.00     0.000 C 
BRANCH  18  19
ATOM     19  C   UNL     1      18.838  -5.358  27.675  1.00  0.00     0.000 C 
BRANCH  19  20
ATOM     20  C   UNL     1      17.509  -5.154  26.929  1.00  0.00     0.000 C 
BRANCH  20  21
ATOM     21  C   UNL     1      16.309  -5.043  27.884  1.00  0.00     0.000 C 
BRANCH  21  22
ATOM     22  C   UNL     1      14.982  -5.432  27.208  1.00  0.00     0.000 C 
BRANCH  22  23
ATOM     23  C   UNL     1      14.211  -6.491  28.014  1.00  0.00     0.000 C 
BRANCH  23  24
ATOM     24  C   UNL     1      14.428  -7.912  27.464  1.00  0.00    -0.000 C 
BRANCH  24  25
ATOM     25  C   UNL     1      15.107  -8.847  28.476  1.00  0.00    -0.000 C 
BRANCH  25  26
ATOM     26  C   UNL     1      16.643  -8.819  28.376  1.00  0.00    -0.000 C 
BRANCH  26  27
ATOM     27  C   UNL     1      17.325  -8.820  29.761  1.00  0.00    -0.000 C 
BRANCH  27  28
ATOM     28  C   UNL     1      16.423  -8.316  30.901  1.00  0.00    -0.000 C 
BRANCH  28  29
ATOM     29  C   UNL     1      16.613  -6.821  31.205  1.00  0.00    -0.000 C 
BRANCH  29  30
ATOM     30  C   UNL     1      17.988  -6.297  30.762  1.00  0.00    -0.000 C 
BRANCH  30  31
ATOM     31  C   UNL     1      18.424  -5.049  31.544  1.00  0.00    -0.003 C 
ATOM     32  C   UNL     1      19.877  -4.691  31.240  1.00  0.00     0.004 C 
ENDBRANCH  30  31
ENDBRANCH  29  30
ENDBRANCH  28  29
ENDBRANCH  27  28
ENDBRANCH  26  27
ENDBRANCH  25  26
ENDBRANCH  24  25
ENDBRANCH  23  24
ENDBRANCH  22  23
ENDBRANCH  21  22
ENDBRANCH  20  21
ENDBRANCH  19  20
ENDBRANCH  18  19
ENDBRANCH   1  18
TORSDOF 28
ENDMDL
