MODEL 1
REMARK VINA RESULT:    -7.618      0.000      0.000
REMARK INTER + INTRA:         -13.767
REMARK INTER:                 -12.962
REMARK INTRA:                  -0.805
REMARK UNBOUND:                -0.805
REMARK SMILES CCCCCCCCCCCCCC(=O)[O-]
REMARK SMILES IDX 8 1 9 2 10 3 11 4 12 5 13 6 14 7 15 8 16 9 7 10 6 11 5 12
REMARK SMILES IDX 4 13 3 14 2 15 1 16
REMARK H PARENT
REMARK Flexibility Score: inf
ROOT
ATOM      1  C   UNL     1       6.716  -2.372  20.704  1.00  0.00     0.000 C 
ENDROOT
BRANCH   1   2
ATOM      2  C   UNL     1       6.108  -2.503  22.110  1.00  0.00     0.000 C 
BRANCH   2   3
ATOM      3  C   UNL     1       4.661  -3.029  22.080  1.00  0.00     0.000 C 
BRANCH   3   4
ATOM      4  C   UNL     1       3.642  -1.933  21.725  1.00  0.00     0.000 C 
BRANCH   4   5
ATOM      5  C   UNL     1       3.066  -2.098  20.307  1.00  0.00     0.006 C 
BRANCH   5   6
ATOM      6  C   UNL     1       2.466  -0.790  19.772  1.00  0.00     0.053 C 
BRANCH   6   7
ATOM      7  C   UNL     1       3.428  -0.055  18.888  1.00  0.00     0.041 C 
ATOM      8  O   UNL     1       3.080   0.298  17.730  1.00  0.00    -0.550 OA
ATOM      9  O   UNL     1       4.697   0.266  19.354  1.00  0.00    -0.550 OA
ENDBRANCH   6   7
ENDBRANCH   5   6
ENDBRANCH   4   5
ENDBRANCH   3   4
ENDBRANCH   2   3
ENDBRANCH   1   2
BRANCH   1  10
ATOM     10  C   UNL     1       6.897  -3.728  20.006  1.00  0.00     0.000 C 
BRANCH  10  11
ATOM     11  C   UNL     1       7.678  -4.703  20.896  1.00  0.00    -0.000 C 
BRANCH  11  12
ATOM     12  C   UNL     1       6.914  -6.021  21.071  1.00  0.00    -0.000 C 
BRANCH  12  13
ATOM     13  C   UNL     1       7.817  -7.104  21.674  1.00  0.00    -0.000 C 
BRANCH  13  14
ATOM     14  C   UNL     1       7.338  -8.504  21.275  1.00  0.00    -0.000 C 
BRANCH  14  15
ATOM     15  C   UNL     1       6.567  -9.169  22.421  1.00  0.00    -0.003 C 
ATOM     16  C   UNL     1       7.137  -8.765  23.777  1.00  0.00     0.004 C 
ENDBRANCH  14  15
ENDBRANCH  13  14
ENDBRANCH  12  13
ENDBRANCH  11  12
ENDBRANCH  10  11
ENDBRANCH   1  10
TORSDOF 12
ENDMDL
MODEL 2
REMARK VINA RESULT:    -7.584      3.910      7.485
REMARK INTER + INTRA:         -13.709
REMARK INTER:                 -12.566
REMARK INTRA:                  -1.143
REMARK UNBOUND:                -0.805
REMARK SMILES CCCCCCCCCCCCCC(=O)[O-]
REMARK SMILES IDX 8 1 9 2 10 3 11 4 12 5 13 6 14 7 15 8 16 9 7 10 6 11 5 12
REMARK SMILES IDX 4 13 3 14 2 15 1 16
REMARK H PARENT
REMARK Flexibility Score: inf
ROOT
ATOM      1  C   UNL     1       5.843  -3.463  19.848  1.00  0.00     0.000 C 
ENDROOT
BRANCH   1   2
ATOM      2  C   UNL     1       6.871  -4.598  19.719  1.00  0.00     0.000 C 
BRANCH   2   3
ATOM      3  C   UNL     1       7.950  -4.546  20.817  1.00  0.00     0.000 C 
BRANCH   3   4
ATOM      4  C   UNL     1       8.070  -5.870  21.590  1.00  0.00     0.000 C 
BRANCH   4   5
ATOM      5  C   UNL     1       6.947  -6.863  21.242  1.00  0.00     0.006 C 
BRANCH   5   6
ATOM      6  C   UNL     1       7.426  -8.320  21.298  1.00  0.00     0.053 C 
BRANCH   6   7
ATOM      7  C   UNL     1       6.903  -9.034  22.508  1.00  0.00     0.041 C 
ATOM      8  O   UNL     1       6.171 -10.050  22.376  1.00  0.00    -0.550 OA
ATOM      9  O   UNL     1       7.249  -8.595  23.780  1.00  0.00    -0.550 OA
ENDBRANCH   6   7
ENDBRANCH   5   6
ENDBRANCH   4   5
ENDBRANCH   3   4
ENDBRANCH   2   3
ENDBRANCH   1   2
BRANCH   1  10
ATOM     10  C   UNL     1       6.460  -2.160  20.379  1.00  0.00     0.000 C 
BRANCH  10  11
ATOM     11  C   UNL     1       5.659  -1.619  21.570  1.00  0.00    -0.000 C 
BRANCH  11  12
ATOM     12  C   UNL     1       4.489  -2.548  21.914  1.00  0.00    -0.000 C 
BRANCH  12  13
ATOM     13  C   UNL     1       3.144  -1.857  21.659  1.00  0.00    -0.000 C 
BRANCH  13  14
ATOM     14  C   UNL     1       2.744  -1.958  20.183  1.00  0.00    -0.000 C 
BRANCH  14  15
ATOM     15  C   UNL     1       2.418  -0.576  19.605  1.00  0.00    -0.003 C 
ATOM     16  C   UNL     1       3.638   0.040  18.926  1.00  0.00     0.004 C 
ENDBRANCH  14  15
ENDBRANCH  13  14
ENDBRANCH  12  13
ENDBRANCH  11  12
ENDBRANCH  10  11
ENDBRANCH   1  10
TORSDOF 12
ENDMDL
MODEL 3
REMARK VINA RESULT:    -7.454      3.895      8.234
REMARK INTER + INTRA:         -13.488
REMARK INTER:                 -12.940
REMARK INTRA:                  -0.548
REMARK UNBOUND:                -0.805
REMARK SMILES CCCCCCCCCCCCCC(=O)[O-]
REMARK SMILES IDX 8 1 9 2 10 3 11 4 12 5 13 6 14 7 15 8 16 9 7 10 6 11 5 12
REMARK SMILES IDX 4 13 3 14 2 15 1 16
REMARK H PARENT
REMARK Flexibility Score: inf
ROOT
ATOM      1  C   UNL     1       6.378  -1.621  20.739  1.00  0.00     0.000 C 
ENDROOT
BRANCH   1   2
ATOM      2  C   UNL     1       6.317  -2.979  21.455  1.00  0.00     0.000 C 
BRANCH   2   3
ATOM      3  C   UNL     1       7.146  -4.061  20.742  1.00  0.00     0.000 C 
BRANCH   3   4
ATOM      4  C   UNL     1       6.585  -5.476  20.962  1.00  0.00     0.000 C 
BRANCH   4   5
ATOM      5  C   UNL     1       7.613  -6.429  21.598  1.00  0.00     0.006 C 
BRANCH   5   6
ATOM      6  C   UNL     1       7.337  -7.897  21.243  1.00  0.00     0.053 C 
BRANCH   6   7
ATOM      7  C   UNL     1       7.006  -8.712  22.458  1.00  0.00     0.041 C 
ATOM      8  O   UNL     1       7.382  -8.330  23.597  1.00  0.00    -0.550 OA
ATOM      9  O   UNL     1       6.257  -9.875  22.332  1.00  0.00    -0.550 OA
ENDBRANCH   6   7
ENDBRANCH   5   6
ENDBRANCH   4   5
ENDBRANCH   3   4
ENDBRANCH   2   3
ENDBRANCH   1   2
BRANCH   1  10
ATOM     10  C   UNL     1       5.056  -1.253  20.048  1.00  0.00     0.000 C 
BRANCH  10  11
ATOM     11  C   UNL     1       4.071  -2.427  20.088  1.00  0.00    -0.000 C 
BRANCH  11  12
ATOM     12  C   UNL     1       2.635  -1.950  19.844  1.00  0.00    -0.000 C 
BRANCH  12  13
ATOM     13  C   UNL     1       2.594  -0.439  19.580  1.00  0.00    -0.000 C 
BRANCH  13  14
ATOM     14  C   UNL     1       1.322  -0.048  18.819  1.00  0.00    -0.000 C 
BRANCH  14  15
ATOM     15  C   UNL     1       1.657   0.809  17.593  1.00  0.00    -0.003 C 
ATOM     16  C   UNL     1       1.273   2.269  17.819  1.00  0.00     0.004 C 
ENDBRANCH  14  15
ENDBRANCH  13  14
ENDBRANCH  12  13
ENDBRANCH  11  12
ENDBRANCH  10  11
ENDBRANCH   1  10
TORSDOF 12
ENDMDL
MODEL 4
REMARK VINA RESULT:    -7.374      0.887      1.148
REMARK INTER + INTRA:         -13.351
REMARK INTER:                 -12.612
REMARK INTRA:                  -0.739
REMARK UNBOUND:                -0.805
REMARK SMILES CCCCCCCCCCCCCC(=O)[O-]
REMARK SMILES IDX 8 1 9 2 10 3 11 4 12 5 13 6 14 7 15 8 16 9 7 10 6 11 5 12
REMARK SMILES IDX 4 13 3 14 2 15 1 16
REMARK H PARENT
REMARK Flexibility Score: inf
ROOT
ATOM      1  C   UNL     1       6.718  -2.454  20.704  1.00  0.00     0.000 C 
ENDROOT
BRANCH   1   2
ATOM      2  C   UNL     1       6.072  -2.725  22.073  1.00  0.00     0.000 C 
BRANCH   2   3
ATOM      3  C   UNL     1       4.578  -2.357  22.104  1.00  0.00     0.000 C 
BRANCH   3   4
ATOM      4  C   UNL     1       3.888  -2.574  20.747  1.00  0.00     0.000 C 
BRANCH   4   5
ATOM      5  C   UNL     1       2.770  -1.550  20.480  1.00  0.00     0.006 C 
BRANCH   5   6
ATOM      6  C   UNL     1       3.237  -0.411  19.564  1.00  0.00     0.053 C 
BRANCH   6   7
ATOM      7  C   UNL     1       2.200  -0.057  18.540  1.00  0.00     0.041 C 
ATOM      8  O   UNL     1       2.528   0.568  17.497  1.00  0.00    -0.550 OA
ATOM      9  O   UNL     1       0.879  -0.446  18.724  1.00  0.00    -0.550 OA
ENDBRANCH   6   7
ENDBRANCH   5   6
ENDBRANCH   4   5
ENDBRANCH   3   4
ENDBRANCH   2   3
ENDBRANCH   1   2
BRANCH   1  10
ATOM     10  C   UNL     1       7.299  -3.723  20.061  1.00  0.00     0.000 C 
BRANCH  10  11
ATOM     11  C   UNL     1       7.740  -4.728  21.131  1.00  0.00    -0.000 C 
BRANCH  11  12
ATOM     12  C   UNL     1       6.977  -6.051  20.992  1.00  0.00    -0.000 C 
BRANCH  12  13
ATOM     13  C   UNL     1       7.647  -7.162  21.810  1.00  0.00    -0.000 C 
BRANCH  13  14
ATOM     14  C   UNL     1       7.262  -8.546  21.276  1.00  0.00    -0.000 C 
BRANCH  14  15
ATOM     15  C   UNL     1       6.612  -9.397  22.373  1.00  0.00    -0.003 C 
ATOM     16  C   UNL     1       6.969  -8.874  23.761  1.00  0.00     0.004 C 
ENDBRANCH  14  15
ENDBRANCH  13  14
ENDBRANCH  12  13
ENDBRANCH  11  12
ENDBRANCH  10  11
ENDBRANCH   1  10
TORSDOF 12
ENDMDL
MODEL 5
REMARK VINA RESULT:    -7.337      3.930      8.048
REMARK INTER + INTRA:         -13.290
REMARK INTER:                 -12.556
REMARK INTRA:                  -0.734
REMARK UNBOUND:                -0.805
REMARK SMILES CCCCCCCCCCCCCC(=O)[O-]
REMARK SMILES IDX 8 1 9 2 10 3 11 4 12 5 13 6 14 7 15 8 16 9 7 10 6 11 5 12
REMARK SMILES IDX 4 13 3 14 2 15 1 16
REMARK H PARENT
REMARK Flexibility Score: inf
ROOT
ATOM      1  C   UNL     1       6.423  -2.448  21.226  1.00  0.00     0.000 C 
ENDROOT
BRANCH   1   2
ATOM      2  C   UNL     1       7.318  -3.691  21.099  1.00  0.00     0.000 C 
BRANCH   2   3
ATOM      3  C   UNL     1       6.643  -4.827  20.308  1.00  0.00     0.000 C 
BRANCH   3   4
ATOM      4  C   UNL     1       6.398  -6.079  21.167  1.00  0.00     0.000 C 
BRANCH   4   5
ATOM      5  C   UNL     1       7.704  -6.794  21.558  1.00  0.00     0.006 C 
BRANCH   5   6
ATOM      6  C   UNL     1       7.607  -8.315  21.375  1.00  0.00     0.053 C 
BRANCH   6   7
ATOM      7  C   UNL     1       6.951  -8.978  22.549  1.00  0.00     0.041 C 
ATOM      8  O   UNL     1       6.135  -9.920  22.369  1.00  0.00    -0.550 OA
ATOM      9  O   UNL     1       7.266  -8.576  23.841  1.00  0.00    -0.550 OA
ENDBRANCH   6   7
ENDBRANCH   5   6
ENDBRANCH   4   5
ENDBRANCH   3   4
ENDBRANCH   2   3
ENDBRANCH   1   2
BRANCH   1  10
ATOM     10  C   UNL     1       5.335  -2.606  22.299  1.00  0.00     0.000 C 
BRANCH  10  11
ATOM     11  C   UNL     1       3.959  -2.214  21.747  1.00  0.00    -0.000 C 
BRANCH  11  12
ATOM     12  C   UNL     1       4.027  -1.947  20.239  1.00  0.00    -0.000 C 
BRANCH  12  13
ATOM     13  C   UNL     1       2.675  -1.454  19.706  1.00  0.00    -0.000 C 
BRANCH  13  14
ATOM     14  C   UNL     1       2.866  -0.340  18.671  1.00  0.00    -0.000 C 
BRANCH  14  15
ATOM     15  C   UNL     1       1.819   0.765  18.853  1.00  0.00    -0.003 C 
ATOM     16  C   UNL     1       1.542   1.485  17.537  1.00  0.00     0.004 C 
ENDBRANCH  14  15
ENDBRANCH  13  14
ENDBRANCH  12  13
ENDBRANCH  11  12
ENDBRANCH  10  11
ENDBRANCH   1  10
TORSDOF 12
ENDMDL
MODEL 6
REMARK VINA RESULT:    -7.253      3.934      8.175
REMARK INTER + INTRA:         -13.147
REMARK INTER:                 -12.581
REMARK INTRA:                  -0.566
REMARK UNBOUND:                -0.805
REMARK SMILES CCCCCCCCCCCCCC(=O)[O-]
REMARK SMILES IDX 8 1 9 2 10 3 11 4 12 5 13 6 14 7 15 8 16 9 7 10 6 11 5 12
REMARK SMILES IDX 4 13 3 14 2 15 1 16
REMARK H PARENT
REMARK Flexibility Score: inf
ROOT
ATOM      1  C   UNL     1       6.511  -2.209  20.736  1.00  0.00     0.000 C 
ENDROOT
BRANCH   1   2
ATOM      2  C   UNL     1       6.512  -3.237  21.879  1.00  0.00     0.000 C 
BRANCH   2   3
ATOM      3  C   UNL     1       5.913  -4.591  21.457  1.00  0.00     0.000 C 
BRANCH   3   4
ATOM      4  C   UNL     1       6.915  -5.465  20.686  1.00  0.00     0.000 C 
BRANCH   4   5
ATOM      5  C   UNL     1       7.626  -6.489  21.590  1.00  0.00     0.006 C 
BRANCH   5   6
ATOM      6  C   UNL     1       7.248  -7.934  21.234  1.00  0.00     0.053 C 
BRANCH   6   7
ATOM      7  C   UNL     1       6.920  -8.742  22.453  1.00  0.00     0.041 C 
ATOM      8  O   UNL     1       6.287  -9.825  22.342  1.00  0.00    -0.550 OA
ATOM      9  O   UNL     1       7.342  -8.315  23.706  1.00  0.00    -0.550 OA
ENDBRANCH   6   7
ENDBRANCH   5   6
ENDBRANCH   4   5
ENDBRANCH   3   4
ENDBRANCH   2   3
ENDBRANCH   1   2
BRANCH   1  10
ATOM     10  C   UNL     1       5.399  -1.159  20.882  1.00  0.00     0.000 C 
BRANCH  10  11
ATOM     11  C   UNL     1       5.551  -0.051  19.833  1.00  0.00    -0.000 C 
BRANCH  11  12
ATOM     12  C   UNL     1       4.264   0.113  19.015  1.00  0.00    -0.000 C 
BRANCH  12  13
ATOM     13  C   UNL     1       3.096  -0.631  19.674  1.00  0.00    -0.000 C 
BRANCH  13  14
ATOM     14  C   UNL     1       1.750  -0.060  19.211  1.00  0.00    -0.000 C 
BRANCH  14  15
ATOM     15  C   UNL     1       1.920   0.796  17.951  1.00  0.00    -0.003 C 
ATOM     16  C   UNL     1       1.172   2.120  18.079  1.00  0.00     0.004 C 
ENDBRANCH  14  15
ENDBRANCH  13  14
ENDBRANCH  12  13
ENDBRANCH  11  12
ENDBRANCH  10  11
ENDBRANCH   1  10
TORSDOF 12
ENDMDL
MODEL 7
REMARK VINA RESULT:    -6.702      4.034      7.882
REMARK INTER + INTRA:         -12.209
REMARK INTER:                 -11.197
REMARK INTRA:                  -1.012
REMARK UNBOUND:                -0.805
REMARK SMILES CCCCCCCCCCCCCC(=O)[O-]
REMARK SMILES IDX 8 1 9 2 10 3 11 4 12 5 13 6 14 7 15 8 16 9 7 10 6 11 5 12
REMARK SMILES IDX 4 13 3 14 2 15 1 16
REMARK H PARENT
REMARK Flexibility Score: inf
ROOT
ATOM      1  C   UNL     1       4.860  -3.141  20.421  1.00  0.00     0.000 C 
ENDROOT
BRANCH   1   2
ATOM      2  C   UNL     1       6.309  -3.614  20.619  1.00  0.00     0.000 C 
BRANCH   2   3
ATOM      3  C   UNL     1       6.396  -5.094  21.034  1.00  0.00     0.000 C 
BRANCH   3   4
ATOM      4  C   UNL     1       7.833  -5.531  21.362  1.00  0.00     0.000 C 
BRANCH   4   5
ATOM      5  C   UNL     1       7.968  -7.057  21.514  1.00  0.00     0.006 C 
BRANCH   5   6
ATOM      6  C   UNL     1       6.631  -7.723  21.862  1.00  0.00     0.053 C 
BRANCH   6   7
ATOM      7  C   UNL     1       6.810  -8.878  22.802  1.00  0.00     0.041 C 
ATOM      8  O   UNL     1       6.575 -10.052  22.413  1.00  0.00    -0.550 OA
ATOM      9  O   UNL     1       7.267  -8.659  24.095  1.00  0.00    -0.550 OA
ENDBRANCH   6   7
ENDBRANCH   5   6
ENDBRANCH   4   5
ENDBRANCH   3   4
ENDBRANCH   2   3
ENDBRANCH   1   2
BRANCH   1  10
ATOM     10  C   UNL     1       4.310  -2.386  21.641  1.00  0.00     0.000 C 
BRANCH  10  11
ATOM     11  C   UNL     1       2.886  -1.879  21.376  1.00  0.00    -0.000 C 
BRANCH  11  12
ATOM     12  C   UNL     1       2.515  -2.029  19.896  1.00  0.00    -0.000 C 
BRANCH  12  13
ATOM     13  C   UNL     1       2.131  -0.676  19.286  1.00  0.00    -0.000 C 
BRANCH  13  14
ATOM     14  C   UNL     1       3.270  -0.118  18.424  1.00  0.00    -0.000 C 
BRANCH  14  15
ATOM     15  C   UNL     1       4.140   0.856  19.226  1.00  0.00    -0.003 C 
ATOM     16  C   UNL     1       5.530   0.278  19.475  1.00  0.00     0.004 C 
ENDBRANCH  14  15
ENDBRANCH  13  14
ENDBRANCH  12  13
ENDBRANCH  11  12
ENDBRANCH  10  11
ENDBRANCH   1  10
TORSDOF 12
ENDMDL
MODEL 8
REMARK VINA RESULT:    -6.361      3.586      5.834
REMARK INTER + INTRA:         -11.629
REMARK INTER:                 -11.000
REMARK INTRA:                  -0.629
REMARK UNBOUND:                -0.805
REMARK SMILES CCCCCCCCCCCCCC(=O)[O-]
REMARK SMILES IDX 8 1 9 2 10 3 11 4 12 5 13 6 14 7 15 8 16 9 7 10 6 11 5 12
REMARK SMILES IDX 4 13 3 14 2 15 1 16
REMARK H PARENT
REMARK Flexibility Score: inf
ROOT
ATOM      1  C   UNL     1       3.311  -0.095  19.254  1.00  0.00     0.000 C 
ENDROOT
BRANCH   1   2
ATOM      2  C   UNL     1       2.207   0.301  18.260  1.00  0.00     0.000 C 
BRANCH   2   3
ATOM      3  C   UNL     1       1.695   1.734  18.486  1.00  0.00     0.000 C 
BRANCH   3   4
ATOM      4  C   UNL     1       1.047   2.335  17.227  1.00  0.00     0.000 C 
BRANCH   4   5
ATOM      5  C   UNL     1       0.875   3.862  17.321  1.00  0.00     0.006 C 
BRANCH   5   6
ATOM      6  C   UNL     1       2.135   4.553  17.860  1.00  0.00     0.053 C 
BRANCH   6   7
ATOM      7  C   UNL     1       2.000   6.046  17.851  1.00  0.00     0.041 C 
ATOM      8  O   UNL     1       1.472   6.640  18.828  1.00  0.00    -0.550 OA
ATOM      9  O   UNL     1       2.485   6.783  16.777  1.00  0.00    -0.550 OA
ENDBRANCH   6   7
ENDBRANCH   5   6
ENDBRANCH   4   5
ENDBRANCH   3   4
ENDBRANCH   2   3
ENDBRANCH   1   2
BRANCH   1  10
ATOM     10  C   UNL     1       2.896  -1.254  20.173  1.00  0.00     0.000 C 
BRANCH  10  11
ATOM     11  C   UNL     1       4.022  -2.287  20.296  1.00  0.00    -0.000 C 
BRANCH  11  12
ATOM     12  C   UNL     1       5.388  -1.649  20.016  1.00  0.00    -0.000 C 
BRANCH  12  13
ATOM     13  C   UNL     1       6.249  -1.611  21.284  1.00  0.00    -0.000 C 
BRANCH  13  14
ATOM     14  C   UNL     1       6.360  -3.004  21.915  1.00  0.00    -0.000 C 
BRANCH  14  15
ATOM     15  C   UNL     1       7.212  -3.935  21.045  1.00  0.00    -0.003 C 
ATOM     16  C   UNL     1       6.608  -5.335  20.980  1.00  0.00     0.004 C 
ENDBRANCH  14  15
ENDBRANCH  13  14
ENDBRANCH  12  13
ENDBRANCH  11  12
ENDBRANCH  10  11
ENDBRANCH   1  10
TORSDOF 12
ENDMDL
MODEL 9
REMARK VINA RESULT:    -6.274      3.375      8.720
REMARK INTER + INTRA:         -11.480
REMARK INTER:                 -10.801
REMARK INTRA:                  -0.679
REMARK UNBOUND:                -0.805
REMARK SMILES CCCCCCCCCCCCCC(=O)[O-]
REMARK SMILES IDX 8 1 9 2 10 3 11 4 12 5 13 6 14 7 15 8 16 9 7 10 6 11 5 12
REMARK SMILES IDX 4 13 3 14 2 15 1 16
REMARK H PARENT
REMARK Flexibility Score: inf
ROOT
ATOM      1  C   UNL     1       3.953  -0.580  19.492  1.00  0.00     0.000 C 
ENDROOT
BRANCH   1   2
ATOM      2  C   UNL     1       5.011  -1.639  19.838  1.00  0.00     0.000 C 
BRANCH   2   3
ATOM      3  C   UNL     1       5.765  -1.317  21.141  1.00  0.00     0.000 C 
BRANCH   3   4
ATOM      4  C   UNL     1       6.061  -2.573  21.977  1.00  0.00     0.000 C 
BRANCH   4   5
ATOM      5  C   UNL     1       5.160  -3.763  21.598  1.00  0.00     0.006 C 
BRANCH   5   6
ATOM      6  C   UNL     1       5.972  -5.034  21.313  1.00  0.00     0.053 C 
BRANCH   6   7
ATOM      7  C   UNL     1       7.069  -4.786  20.322  1.00  0.00     0.041 C 
ATOM      8  O   UNL     1       6.790  -4.535  19.120  1.00  0.00    -0.550 OA
ATOM      9  O   UNL     1       8.396  -4.800  20.734  1.00  0.00    -0.550 OA
ENDBRANCH   6   7
ENDBRANCH   5   6
ENDBRANCH   4   5
ENDBRANCH   3   4
ENDBRANCH   2   3
ENDBRANCH   1   2
BRANCH   1  10
ATOM     10  C   UNL     1       2.531  -1.159  19.430  1.00  0.00     0.000 C 
BRANCH  10  11
ATOM     11  C   UNL     1       1.493  -0.045  19.247  1.00  0.00    -0.000 C 
BRANCH  11  12
ATOM     12  C   UNL     1       1.827   0.824  18.028  1.00  0.00    -0.000 C 
BRANCH  12  13
ATOM     13  C   UNL     1       0.883   2.029  17.936  1.00  0.00    -0.000 C 
BRANCH  13  14
ATOM     14  C   UNL     1       1.610   3.255  17.374  1.00  0.00    -0.000 C 
BRANCH  14  15
ATOM     15  C   UNL     1       0.875   4.548  17.745  1.00  0.00    -0.003 C 
ATOM     16  C   UNL     1       1.718   5.776  17.413  1.00  0.00     0.004 C 
ENDBRANCH  14  15
ENDBRANCH  13  14
ENDBRANCH  12  13
ENDBRANCH  11  12
ENDBRANCH  10  11
ENDBRANCH   1  10
TORSDOF 12
ENDMDL
