MODEL 1
REMARK VINA RESULT:    -2.274      0.000      0.000
REMARK INTER + INTRA:          -7.362
REMARK INTER:                  -5.995
REMARK INTRA:                  -1.366
REMARK UNBOUND:                -1.366
REMARK SMILES CCCCCCCCCCCCCCCCCCCCCCCCCCCCCC(=O)[O-]
REMARK SMILES IDX 16 1 17 2 18 3 19 4 20 5 21 6 22 7 23 8 24 9 25 10 26 11
REMARK SMILES IDX 27 12 28 13 29 14 30 15 31 16 32 17 15 18 14 19 13 20 12 21
REMARK SMILES IDX 11 22 10 23 9 24 8 25 7 26 6 27 5 28 4 29 3 30 2 31 1 32
REMARK H PARENT
REMARK Flexibility Score: inf
ROOT
ATOM      1  C   UNL     1      12.828 -31.764  14.432  1.00  0.00     0.000 C 
ENDROOT
BRANCH   1   2
ATOM      2  C   UNL     1      12.041 -32.390  13.269  1.00  0.00     0.000 C 
BRANCH   2   3
ATOM      3  C   UNL     1      10.599 -31.858  13.235  1.00  0.00     0.000 C 
BRANCH   3   4
ATOM      4  C   UNL     1       9.542 -32.953  13.470  1.00  0.00     0.000 C 
BRANCH   4   5
ATOM      5  C   UNL     1      10.099 -34.291  14.003  1.00  0.00     0.000 C 
BRANCH   5   6
ATOM      6  C   UNL     1       9.026 -35.367  14.262  1.00  0.00     0.000 C 
BRANCH   6   7
ATOM      7  C   UNL     1       8.886 -36.441  13.166  1.00  0.00     0.000 C 
BRANCH   7   8
ATOM      8  C   UNL     1       7.757 -37.465  13.390  1.00  0.00     0.000 C 
BRANCH   8   9
ATOM      9  C   UNL     1       6.509 -36.850  14.038  1.00  0.00     0.000 C 
BRANCH   9  10
ATOM     10  C   UNL     1       6.566 -36.968  15.566  1.00  0.00     0.000 C 
BRANCH  10  11
ATOM     11  C   UNL     1       5.875 -35.774  16.235  1.00  0.00     0.000 C 
BRANCH  11  12
ATOM     12  C   UNL     1       6.731 -35.209  17.378  1.00  0.00     0.000 C 
BRANCH  12  13
ATOM     13  C   UNL     1       7.200 -33.767  17.111  1.00  0.00     0.006 C 
BRANCH  13  14
ATOM     14  C   UNL     1       7.758 -33.048  18.351  1.00  0.00     0.053 C 
BRANCH  14  15
ATOM     15  C   UNL     1       8.864 -32.102  18.000  1.00  0.00     0.041 C 
ATOM     16  O   UNL     1       9.358 -31.352  18.882  1.00  0.00    -0.550 OA
ATOM     17  O   UNL     1       9.328 -32.028  16.693  1.00  0.00    -0.550 OA
ENDBRANCH  14  15
ENDBRANCH  13  14
ENDBRANCH  12  13
ENDBRANCH  11  12
ENDBRANCH  10  11
ENDBRANCH   9  10
ENDBRANCH   8   9
ENDBRANCH   7   8
ENDBRANCH   6   7
ENDBRANCH   5   6
ENDBRANCH   4   5
ENDBRANCH   3   4
ENDBRANCH   2   3
ENDBRANCH   1   2
BRANCH   1  18
ATOM     18  C   UNL     1      13.850 -30.709  13.969  1.00  0.00     0.000 C 
BRANCH  18  19
ATOM     19  C   UNL     1      15.185 -30.721  14.746  1.00  0.00     0.000 C 
BRANCH  19  20
ATOM     20  C   UNL     1      16.412 -31.053  13.876  1.00  0.00     0.000 C 
BRANCH  20  21
ATOM     21  C   UNL     1      17.256 -32.246  14.365  1.00  0.00     0.000 C 
BRANCH  21  22
ATOM     22  C   UNL     1      18.770 -32.141  14.080  1.00  0.00     0.000 C 
BRANCH  22  23
ATOM     23  C   UNL     1      19.174 -31.035  13.089  1.00  0.00     0.000 C 
BRANCH  23  24
ATOM     24  C   UNL     1      19.671 -29.732  13.743  1.00  0.00    -0.000 C 
BRANCH  24  25
ATOM     25  C   UNL     1      20.702 -28.963  12.889  1.00  0.00    -0.000 C 
BRANCH  25  26
ATOM     26  C   UNL     1      21.098 -27.614  13.516  1.00  0.00    -0.000 C 
BRANCH  26  27
ATOM     27  C   UNL     1      20.360 -26.425  12.876  1.00  0.00    -0.000 C 
BRANCH  27  28
ATOM     28  C   UNL     1      21.009 -25.074  13.223  1.00  0.00    -0.000 C 
BRANCH  28  29
ATOM     29  C   UNL     1      20.067 -24.148  14.008  1.00  0.00    -0.000 C 
BRANCH  29  30
ATOM     30  C   UNL     1      20.506 -22.675  13.964  1.00  0.00    -0.000 C 
BRANCH  30  31
ATOM     31  C   UNL     1      19.637 -21.821  14.896  1.00  0.00    -0.003 C 
ATOM     32  C   UNL     1      20.265 -20.450  15.131  1.00  0.00     0.004 C 
ENDBRANCH  30  31
ENDBRANCH  29  30
ENDBRANCH  28  29
ENDBRANCH  27  28
ENDBRANCH  26  27
ENDBRANCH  25  26
ENDBRANCH  24  25
ENDBRANCH  23  24
ENDBRANCH  22  23
ENDBRANCH  21  22
ENDBRANCH  20  21
ENDBRANCH  19  20
ENDBRANCH  18  19
ENDBRANCH   1  18
TORSDOF 28
ENDMDL
MODEL 2
REMARK VINA RESULT:    -2.265      3.788     13.454
REMARK INTER + INTRA:          -7.340
REMARK INTER:                  -5.695
REMARK INTRA:                  -1.645
REMARK UNBOUND:                -1.366
REMARK SMILES CCCCCCCCCCCCCCCCCCCCCCCCCCCCCC(=O)[O-]
REMARK SMILES IDX 16 1 17 2 18 3 19 4 20 5 21 6 22 7 23 8 24 9 25 10 26 11
REMARK SMILES IDX 27 12 28 13 29 14 30 15 31 16 32 17 15 18 14 19 13 20 12 21
REMARK SMILES IDX 11 22 10 23 9 24 8 25 7 26 6 27 5 28 4 29 3 30 2 31 1 32
REMARK H PARENT
REMARK Flexibility Score: inf
ROOT
ATOM      1  C   UNL     1      13.346 -31.031  14.277  1.00  0.00     0.000 C 
ENDROOT
BRANCH   1   2
ATOM      2  C   UNL     1      14.719 -30.696  13.671  1.00  0.00     0.000 C 
BRANCH   2   3
ATOM      3  C   UNL     1      15.759 -30.445  14.775  1.00  0.00     0.000 C 
BRANCH   3   4
ATOM      4  C   UNL     1      16.360 -31.741  15.349  1.00  0.00     0.000 C 
BRANCH   4   5
ATOM      5  C   UNL     1      17.500 -32.358  14.510  1.00  0.00     0.000 C 
BRANCH   5   6
ATOM      6  C   UNL     1      17.947 -31.494  13.314  1.00  0.00     0.000 C 
BRANCH   6   7
ATOM      7  C   UNL     1      19.454 -31.182  13.247  1.00  0.00     0.000 C 
BRANCH   7   8
ATOM      8  C   UNL     1      19.809 -29.723  12.901  1.00  0.00     0.000 C 
BRANCH   8   9
ATOM      9  C   UNL     1      20.807 -29.099  13.886  1.00  0.00     0.000 C 
BRANCH   9  10
ATOM     10  C   UNL     1      21.690 -28.055  13.190  1.00  0.00     0.000 C 
BRANCH  10  11
ATOM     11  C   UNL     1      20.892 -26.784  12.875  1.00  0.00     0.000 C 
BRANCH  11  12
ATOM     12  C   UNL     1      21.094 -25.721  13.964  1.00  0.00     0.000 C 
BRANCH  12  13
ATOM     13  C   UNL     1      20.499 -24.355  13.577  1.00  0.00     0.006 C 
BRANCH  13  14
ATOM     14  C   UNL     1      20.417 -23.352  14.740  1.00  0.00     0.053 C 
BRANCH  14  15
ATOM     15  C   UNL     1      19.631 -22.132  14.374  1.00  0.00     0.041 C 
ATOM     16  O   UNL     1      18.595 -22.235  13.665  1.00  0.00    -0.550 OA
ATOM     17  O   UNL     1      20.059 -20.877  14.791  1.00  0.00    -0.550 OA
ENDBRANCH  14  15
ENDBRANCH  13  14
ENDBRANCH  12  13
ENDBRANCH  11  12
ENDBRANCH  10  11
ENDBRANCH   9  10
ENDBRANCH   8   9
ENDBRANCH   7   8
ENDBRANCH   6   7
ENDBRANCH   5   6
ENDBRANCH   4   5
ENDBRANCH   3   4
ENDBRANCH   2   3
ENDBRANCH   1   2
BRANCH   1  18
ATOM     18  C   UNL     1      12.574 -32.091  13.469  1.00  0.00     0.000 C 
BRANCH  18  19
ATOM     19  C   UNL     1      11.089 -32.247  13.866  1.00  0.00     0.000 C 
BRANCH  19  20
ATOM     20  C   UNL     1      10.380 -33.433  13.183  1.00  0.00     0.000 C 
BRANCH  20  21
ATOM     21  C   UNL     1      10.944 -34.822  13.538  1.00  0.00     0.000 C 
BRANCH  21  22
ATOM     22  C   UNL     1      10.162 -36.017  12.952  1.00  0.00     0.000 C 
BRANCH  22  23
ATOM     23  C   UNL     1       8.875 -36.392  13.709  1.00  0.00     0.000 C 
BRANCH  23  24
ATOM     24  C   UNL     1       7.864 -35.241  13.871  1.00  0.00    -0.000 C 
BRANCH  24  25
ATOM     25  C   UNL     1       6.442 -35.713  14.245  1.00  0.00    -0.000 C 
BRANCH  25  26
ATOM     26  C   UNL     1       6.453 -36.913  15.208  1.00  0.00    -0.000 C 
BRANCH  26  27
ATOM     27  C   UNL     1       6.248 -36.497  16.675  1.00  0.00    -0.000 C 
BRANCH  27  28
ATOM     28  C   UNL     1       7.455 -35.732  17.243  1.00  0.00    -0.000 C 
BRANCH  28  29
ATOM     29  C   UNL     1       7.042 -34.522  18.097  1.00  0.00    -0.000 C 
BRANCH  29  30
ATOM     30  C   UNL     1       7.343 -33.179  17.413  1.00  0.00    -0.000 C 
BRANCH  30  31
ATOM     31  C   UNL     1       8.742 -33.189  16.785  1.00  0.00    -0.003 C 
ATOM     32  C   UNL     1       9.402 -31.816  16.889  1.00  0.00     0.004 C 
ENDBRANCH  30  31
ENDBRANCH  29  30
ENDBRANCH  28  29
ENDBRANCH  27  28
ENDBRANCH  26  27
ENDBRANCH  25  26
ENDBRANCH  24  25
ENDBRANCH  23  24
ENDBRANCH  22  23
ENDBRANCH  21  22
ENDBRANCH  20  21
ENDBRANCH  19  20
ENDBRANCH  18  19
ENDBRANCH   1  18
TORSDOF 28
ENDMDL
MODEL 3
REMARK VINA RESULT:     0.287      3.952     13.902
REMARK INTER + INTRA:          -0.610
REMARK INTER:                   1.537
REMARK INTRA:                  -2.147
REMARK UNBOUND:                -1.366
REMARK SMILES CCCCCCCCCCCCCCCCCCCCCCCCCCCCCC(=O)[O-]
REMARK SMILES IDX 16 1 17 2 18 3 19 4 20 5 21 6 22 7 23 8 24 9 25 10 26 11
REMARK SMILES IDX 27 12 28 13 29 14 30 15 31 16 32 17 15 18 14 19 13 20 12 21
REMARK SMILES IDX 11 22 10 23 9 24 8 25 7 26 6 27 5 28 4 29 3 30 2 31 1 32
REMARK H PARENT
REMARK Flexibility Score: inf
ROOT
ATOM      1  C   UNL     1      13.880 -31.128  14.888  1.00  0.00     0.000 C 
ENDROOT
BRANCH   1   2
ATOM      2  C   UNL     1      15.108 -30.960  13.976  1.00  0.00     0.000 C 
BRANCH   2   3
ATOM      3  C   UNL     1      16.406 -30.966  14.799  1.00  0.00     0.000 C 
BRANCH   3   4
ATOM      4  C   UNL     1      17.247 -32.239  14.597  1.00  0.00     0.000 C 
BRANCH   4   5
ATOM      5  C   UNL     1      18.198 -32.206  13.381  1.00  0.00     0.000 C 
BRANCH   5   6
ATOM      6  C   UNL     1      18.564 -30.787  12.901  1.00  0.00     0.000 C 
BRANCH   6   7
ATOM      7  C   UNL     1      20.034 -30.375  13.109  1.00  0.00     0.000 C 
BRANCH   7   8
ATOM      8  C   UNL     1      20.247 -29.116  13.972  1.00  0.00     0.000 C 
BRANCH   8   9
ATOM      9  C   UNL     1      21.647 -28.507  13.809  1.00  0.00     0.000 C 
BRANCH   9  10
ATOM     10  C   UNL     1      21.614 -27.290  12.877  1.00  0.00     0.000 C 
BRANCH  10  11
ATOM     11  C   UNL     1      20.405 -26.398  13.182  1.00  0.00     0.000 C 
BRANCH  11  12
ATOM     12  C   UNL     1      20.735 -25.374  14.278  1.00  0.00     0.000 C 
BRANCH  12  13
ATOM     13  C   UNL     1      21.087 -23.988  13.707  1.00  0.00     0.006 C 
BRANCH  13  14
ATOM     14  C   UNL     1      19.873 -23.065  13.507  1.00  0.00     0.053 C 
BRANCH  14  15
ATOM     15  C   UNL     1      19.944 -21.849  14.377  1.00  0.00     0.041 C 
ATOM     16  O   UNL     1      19.342 -20.795  14.041  1.00  0.00    -0.550 OA
ATOM     17  O   UNL     1      20.698 -21.871  15.543  1.00  0.00    -0.550 OA
ENDBRANCH  14  15
ENDBRANCH  13  14
ENDBRANCH  12  13
ENDBRANCH  11  12
ENDBRANCH  10  11
ENDBRANCH   9  10
ENDBRANCH   8   9
ENDBRANCH   7   8
ENDBRANCH   6   7
ENDBRANCH   5   6
ENDBRANCH   4   5
ENDBRANCH   3   4
ENDBRANCH   2   3
ENDBRANCH   1   2
BRANCH   1  18
ATOM     18  C   UNL     1      12.826 -32.089  14.307  1.00  0.00     0.000 C 
BRANCH  18  19
ATOM     19  C   UNL     1      11.587 -31.394  13.701  1.00  0.00     0.000 C 
BRANCH  19  20
ATOM     20  C   UNL     1      10.686 -32.332  12.875  1.00  0.00     0.000 C 
BRANCH  20  21
ATOM     21  C   UNL     1      10.562 -33.767  13.423  1.00  0.00     0.000 C 
BRANCH  21  22
ATOM     22  C   UNL     1       9.294 -34.531  12.983  1.00  0.00     0.000 C 
BRANCH  22  23
ATOM     23  C   UNL     1       8.292 -34.839  14.110  1.00  0.00     0.000 C 
BRANCH  23  24
ATOM     24  C   UNL     1       7.228 -33.750  14.344  1.00  0.00    -0.000 C 
BRANCH  24  25
ATOM     25  C   UNL     1       7.768 -32.501  15.074  1.00  0.00    -0.000 C 
BRANCH  25  26
ATOM     26  C   UNL     1       8.524 -32.856  16.367  1.00  0.00    -0.000 C 
BRANCH  26  27
ATOM     27  C   UNL     1       7.612 -32.844  17.607  1.00  0.00    -0.000 C 
BRANCH  27  28
ATOM     28  C   UNL     1       6.603 -34.005  17.605  1.00  0.00    -0.000 C 
BRANCH  28  29
ATOM     29  C   UNL     1       7.191 -35.303  18.179  1.00  0.00    -0.000 C 
BRANCH  29  30
ATOM     30  C   UNL     1       7.257 -36.437  17.144  1.00  0.00    -0.000 C 
BRANCH  30  31
ATOM     31  C   UNL     1       5.916 -36.588  16.415  1.00  0.00    -0.003 C 
ATOM     32  C   UNL     1       6.112 -37.167  15.017  1.00  0.00     0.004 C 
ENDBRANCH  30  31
ENDBRANCH  29  30
ENDBRANCH  28  29
ENDBRANCH  27  28
ENDBRANCH  26  27
ENDBRANCH  25  26
ENDBRANCH  24  25
ENDBRANCH  23  24
ENDBRANCH  22  23
ENDBRANCH  21  22
ENDBRANCH  20  21
ENDBRANCH  19  20
ENDBRANCH  18  19
ENDBRANCH   1  18
TORSDOF 28
ENDMDL
MODEL 4
REMARK VINA RESULT:     0.475      2.935      5.377
REMARK INTER + INTRA:          -0.114
REMARK INTER:                   0.222
REMARK INTRA:                  -0.336
REMARK UNBOUND:                -1.366
REMARK SMILES CCCCCCCCCCCCCCCCCCCCCCCCCCCCCC(=O)[O-]
REMARK SMILES IDX 16 1 17 2 18 3 19 4 20 5 21 6 22 7 23 8 24 9 25 10 26 11
REMARK SMILES IDX 27 12 28 13 29 14 30 15 31 16 32 17 15 18 14 19 13 20 12 21
REMARK SMILES IDX 11 22 10 23 9 24 8 25 7 26 6 27 5 28 4 29 3 30 2 31 1 32
REMARK H PARENT
REMARK Flexibility Score: inf
ROOT
ATOM      1  C   UNL     1       9.957 -34.718  13.553  1.00  0.00     0.000 C 
ENDROOT
BRANCH   1   2
ATOM      2  C   UNL     1      10.400 -36.188  13.654  1.00  0.00     0.000 C 
BRANCH   2   3
ATOM      3  C   UNL     1       9.435 -37.105  12.884  1.00  0.00     0.000 C 
BRANCH   3   4
ATOM      4  C   UNL     1       8.366 -37.753  13.783  1.00  0.00     0.000 C 
BRANCH   4   5
ATOM      5  C   UNL     1       7.359 -36.765  14.413  1.00  0.00     0.000 C 
BRANCH   5   6
ATOM      6  C   UNL     1       6.378 -36.132  13.407  1.00  0.00     0.000 C 
BRANCH   6   7
ATOM      7  C   UNL     1       6.735 -34.709  12.936  1.00  0.00     0.000 C 
BRANCH   7   8
ATOM      8  C   UNL     1       5.948 -33.574  13.618  1.00  0.00     0.000 C 
BRANCH   8   9
ATOM      9  C   UNL     1       5.935 -33.688  15.148  1.00  0.00     0.000 C 
BRANCH   9  10
ATOM     10  C   UNL     1       6.597 -32.466  15.798  1.00  0.00     0.000 C 
BRANCH  10  11
ATOM     11  C   UNL     1       6.293 -32.412  17.300  1.00  0.00     0.000 C 
BRANCH  11  12
ATOM     12  C   UNL     1       6.071 -33.821  17.870  1.00  0.00     0.000 C 
BRANCH  12  13
ATOM     13  C   UNL     1       7.389 -34.530  18.231  1.00  0.00     0.006 C 
BRANCH  13  14
ATOM     14  C   UNL     1       7.619 -35.851  17.478  1.00  0.00     0.053 C 
BRANCH  14  15
ATOM     15  C   UNL     1       7.556 -37.035  18.390  1.00  0.00     0.041 C 
ATOM     16  O   UNL     1       6.738 -37.965  18.164  1.00  0.00    -0.550 OA
ATOM     17  O   UNL     1       8.379 -37.098  19.508  1.00  0.00    -0.550 OA
ENDBRANCH  14  15
ENDBRANCH  13  14
ENDBRANCH  12  13
ENDBRANCH  11  12
ENDBRANCH  10  11
ENDBRANCH   9  10
ENDBRANCH   8   9
ENDBRANCH   7   8
ENDBRANCH   6   7
ENDBRANCH   5   6
ENDBRANCH   4   5
ENDBRANCH   3   4
ENDBRANCH   2   3
ENDBRANCH   1   2
BRANCH   1  18
ATOM     18  C   UNL     1       9.481 -34.139  14.898  1.00  0.00     0.000 C 
BRANCH  18  19
ATOM     19  C   UNL     1       9.252 -32.612  14.897  1.00  0.00     0.000 C 
BRANCH  19  20
ATOM     20  C   UNL     1      10.244 -31.832  14.011  1.00  0.00     0.000 C 
BRANCH  20  21
ATOM     21  C   UNL     1      11.414 -32.664  13.453  1.00  0.00     0.000 C 
BRANCH  21  22
ATOM     22  C   UNL     1      12.799 -32.337  14.053  1.00  0.00     0.000 C 
BRANCH  22  23
ATOM     23  C   UNL     1      13.226 -30.862  13.947  1.00  0.00     0.000 C 
BRANCH  23  24
ATOM     24  C   UNL     1      14.738 -30.639  13.757  1.00  0.00    -0.000 C 
BRANCH  24  25
ATOM     25  C   UNL     1      15.606 -31.816  14.254  1.00  0.00    -0.000 C 
BRANCH  25  26
ATOM     26  C   UNL     1      16.960 -31.351  14.818  1.00  0.00    -0.000 C 
BRANCH  26  27
ATOM     27  C   UNL     1      18.126 -32.254  14.376  1.00  0.00    -0.000 C 
BRANCH  27  28
ATOM     28  C   UNL     1      18.580 -31.964  12.935  1.00  0.00    -0.000 C 
BRANCH  28  29
ATOM     29  C   UNL     1      19.832 -31.075  12.875  1.00  0.00    -0.000 C 
BRANCH  29  30
ATOM     30  C   UNL     1      19.524 -29.592  13.136  1.00  0.00    -0.000 C 
BRANCH  30  31
ATOM     31  C   UNL     1      20.772 -28.729  12.912  1.00  0.00    -0.003 C 
ATOM     32  C   UNL     1      21.340 -28.227  14.236  1.00  0.00     0.004 C 
ENDBRANCH  30  31
ENDBRANCH  29  30
ENDBRANCH  28  29
ENDBRANCH  27  28
ENDBRANCH  26  27
ENDBRANCH  25  26
ENDBRANCH  24  25
ENDBRANCH  23  24
ENDBRANCH  22  23
ENDBRANCH  21  22
ENDBRANCH  20  21
ENDBRANCH  19  20
ENDBRANCH  18  19
ENDBRANCH   1  18
TORSDOF 28
ENDMDL
