MODEL 1
REMARK VINA RESULT:    -5.326      0.000      0.000
REMARK INTER + INTRA:         -15.129
REMARK INTER:                 -12.176
REMARK INTRA:                  -2.953
REMARK UNBOUND:                -2.953
REMARK SMILES CCCCCCCCCCCCCCCCCCCCCCCC(=O)[O-]
REMARK SMILES IDX 13 1 14 2 15 3 16 4 17 5 18 6 19 7 20 8 21 9 22 10 23 11
REMARK SMILES IDX 24 12 25 13 26 14 12 15 11 16 10 17 9 18 8 19 7 20 6 21 5 22
REMARK SMILES IDX 4 23 3 24 2 25 1 26
REMARK H PARENT
REMARK Flexibility Score: inf
ROOT
ATOM      1  C   UNL     1      50.053  29.488  16.013  1.00  0.00     0.000 C 
ENDROOT
BRANCH   1   2
ATOM      2  C   UNL     1      48.747  29.685  15.224  1.00  0.00     0.000 C 
BRANCH   2   3
ATOM      3  C   UNL     1      47.536  30.140  16.066  1.00  0.00     0.000 C 
BRANCH   3   4
ATOM      4  C   UNL     1      47.796  30.259  17.580  1.00  0.00     0.000 C 
BRANCH   4   5
ATOM      5  C   UNL     1      47.816  31.698  18.134  1.00  0.00     0.000 C 
BRANCH   5   6
ATOM      6  C   UNL     1      49.182  32.405  17.999  1.00  0.00     0.000 C 
BRANCH   6   7
ATOM      7  C   UNL     1      49.133  33.619  17.055  1.00  0.00     0.000 C 
BRANCH   7   8
ATOM      8  C   UNL     1      47.700  34.085  16.755  1.00  0.00     0.000 C 
BRANCH   8   9
ATOM      9  C   UNL     1      47.292  33.844  15.290  1.00  0.00     0.000 C 
BRANCH   9  10
ATOM     10  C   UNL     1      48.501  33.535  14.390  1.00  0.00     0.006 C 
BRANCH  10  11
ATOM     11  C   UNL     1      48.540  34.431  13.145  1.00  0.00     0.053 C 
BRANCH  11  12
ATOM     12  C   UNL     1      49.027  33.663  11.957  1.00  0.00     0.041 C 
ATOM     13  O   UNL     1      48.238  32.913  11.323  1.00  0.00    -0.550 OA
ATOM     14  O   UNL     1      50.343  33.796  11.531  1.00  0.00    -0.550 OA
ENDBRANCH  11  12
ENDBRANCH  10  11
ENDBRANCH   9  10
ENDBRANCH   8   9
ENDBRANCH   7   8
ENDBRANCH   6   7
ENDBRANCH   5   6
ENDBRANCH   4   5
ENDBRANCH   3   4
ENDBRANCH   2   3
ENDBRANCH   1   2
BRANCH   1  15
ATOM     15  C   UNL     1      50.837  28.240  15.570  1.00  0.00     0.000 C 
BRANCH  15  16
ATOM     16  C   UNL     1      49.958  26.970  15.575  1.00  0.00     0.000 C 
BRANCH  16  17
ATOM     17  C   UNL     1      50.641  25.753  16.221  1.00  0.00     0.000 C 
BRANCH  17  18
ATOM     18  C   UNL     1      51.498  26.132  17.440  1.00  0.00    -0.000 C 
BRANCH  18  19
ATOM     19  C   UNL     1      50.733  25.991  18.765  1.00  0.00    -0.000 C 
BRANCH  19  20
ATOM     20  C   UNL     1      49.591  24.967  18.687  1.00  0.00    -0.000 C 
BRANCH  20  21
ATOM     21  C   UNL     1      48.465  25.328  19.664  1.00  0.00    -0.000 C 
BRANCH  21  22
ATOM     22  C   UNL     1      48.477  26.826  19.993  1.00  0.00    -0.000 C 
BRANCH  22  23
ATOM     23  C   UNL     1      47.920  27.082  21.401  1.00  0.00    -0.000 C 
BRANCH  23  24
ATOM     24  C   UNL     1      48.777  26.445  22.511  1.00  0.00    -0.000 C 
BRANCH  24  25
ATOM     25  C   UNL     1      50.045  27.236  22.883  1.00  0.00    -0.003 C 
ATOM     26  C   UNL     1      51.331  26.559  22.413  1.00  0.00     0.004 C 
ENDBRANCH  24  25
ENDBRANCH  23  24
ENDBRANCH  22  23
ENDBRANCH  21  22
ENDBRANCH  20  21
ENDBRANCH  19  20
ENDBRANCH  18  19
ENDBRANCH  17  18
ENDBRANCH  16  17
ENDBRANCH  15  16
ENDBRANCH   1  15
TORSDOF 22
ENDMDL
MODEL 2
REMARK VINA RESULT:    -5.301      3.739      9.061
REMARK INTER + INTRA:         -15.073
REMARK INTER:                 -12.728
REMARK INTRA:                  -2.345
REMARK UNBOUND:                -2.953
REMARK SMILES CCCCCCCCCCCCCCCCCCCCCCCC(=O)[O-]
REMARK SMILES IDX 13 1 14 2 15 3 16 4 17 5 18 6 19 7 20 8 21 9 22 10 23 11
REMARK SMILES IDX 24 12 25 13 26 14 12 15 11 16 10 17 9 18 8 19 7 20 6 21 5 22
REMARK SMILES IDX 4 23 3 24 2 25 1 26
REMARK H PARENT
REMARK Flexibility Score: inf
ROOT
ATOM      1  C   UNL     1      49.937  29.249  15.876  1.00  0.00     0.000 C 
ENDROOT
BRANCH   1   2
ATOM      2  C   UNL     1      50.143  27.727  15.977  1.00  0.00     0.000 C 
BRANCH   2   3
ATOM      3  C   UNL     1      49.155  26.877  15.151  1.00  0.00     0.000 C 
BRANCH   3   4
ATOM      4  C   UNL     1      48.784  25.514  15.768  1.00  0.00     0.000 C 
BRANCH   4   5
ATOM      5  C   UNL     1      49.262  25.297  17.219  1.00  0.00     0.000 C 
BRANCH   5   6
ATOM      6  C   UNL     1      48.195  25.617  18.287  1.00  0.00     0.000 C 
BRANCH   6   7
ATOM      7  C   UNL     1      48.739  25.508  19.723  1.00  0.00     0.000 C 
BRANCH   7   8
ATOM      8  C   UNL     1      48.273  26.660  20.627  1.00  0.00     0.000 C 
BRANCH   8   9
ATOM      9  C   UNL     1      48.526  26.382  22.120  1.00  0.00     0.000 C 
BRANCH   9  10
ATOM     10  C   UNL     1      49.874  26.950  22.598  1.00  0.00     0.006 C 
BRANCH  10  11
ATOM     11  C   UNL     1      50.976  25.882  22.623  1.00  0.00     0.053 C 
BRANCH  11  12
ATOM     12  C   UNL     1      52.313  26.497  22.349  1.00  0.00     0.041 C 
ATOM     13  O   UNL     1      52.410  27.471  21.557  1.00  0.00    -0.550 OA
ATOM     14  O   UNL     1      53.447  26.014  22.990  1.00  0.00    -0.550 OA
ENDBRANCH  11  12
ENDBRANCH  10  11
ENDBRANCH   9  10
ENDBRANCH   8   9
ENDBRANCH   7   8
ENDBRANCH   6   7
ENDBRANCH   5   6
ENDBRANCH   4   5
ENDBRANCH   3   4
ENDBRANCH   2   3
ENDBRANCH   1   2
BRANCH   1  15
ATOM     15  C   UNL     1      48.624  29.629  15.170  1.00  0.00     0.000 C 
BRANCH  15  16
ATOM     16  C   UNL     1      47.492  29.937  16.174  1.00  0.00     0.000 C 
BRANCH  16  17
ATOM     17  C   UNL     1      47.988  30.147  17.615  1.00  0.00     0.000 C 
BRANCH  17  18
ATOM     18  C   UNL     1      47.934  31.620  18.051  1.00  0.00    -0.000 C 
BRANCH  18  19
ATOM     19  C   UNL     1      49.224  32.383  17.713  1.00  0.00    -0.000 C 
BRANCH  19  20
ATOM     20  C   UNL     1      48.973  33.625  16.845  1.00  0.00    -0.000 C 
BRANCH  20  21
ATOM     21  C   UNL     1      47.480  33.773  16.523  1.00  0.00    -0.000 C 
BRANCH  21  22
ATOM     22  C   UNL     1      47.257  33.975  15.019  1.00  0.00    -0.000 C 
BRANCH  22  23
ATOM     23  C   UNL     1      48.597  34.087  14.277  1.00  0.00    -0.000 C 
BRANCH  23  24
ATOM     24  C   UNL     1      48.790  32.986  13.217  1.00  0.00    -0.000 C 
BRANCH  24  25
ATOM     25  C   UNL     1      48.894  33.495  11.768  1.00  0.00    -0.003 C 
ATOM     26  C   UNL     1      50.331  33.545  11.253  1.00  0.00     0.004 C 
ENDBRANCH  24  25
ENDBRANCH  23  24
ENDBRANCH  22  23
ENDBRANCH  21  22
ENDBRANCH  20  21
ENDBRANCH  19  20
ENDBRANCH  18  19
ENDBRANCH  17  18
ENDBRANCH  16  17
ENDBRANCH  15  16
ENDBRANCH   1  15
TORSDOF 22
ENDMDL
MODEL 3
REMARK VINA RESULT:    -5.267      5.722     11.458
REMARK INTER + INTRA:         -14.993
REMARK INTER:                 -12.580
REMARK INTRA:                  -2.413
REMARK UNBOUND:                -2.953
REMARK SMILES CCCCCCCCCCCCCCCCCCCCCCCC(=O)[O-]
REMARK SMILES IDX 13 1 14 2 15 3 16 4 17 5 18 6 19 7 20 8 21 9 22 10 23 11
REMARK SMILES IDX 24 12 25 13 26 14 12 15 11 16 10 17 9 18 8 19 7 20 6 21 5 22
REMARK SMILES IDX 4 23 3 24 2 25 1 26
REMARK H PARENT
REMARK Flexibility Score: inf
ROOT
ATOM      1  C   UNL     1      46.249  35.739  12.500  1.00  0.00     0.000 C 
ENDROOT
BRANCH   1   2
ATOM      2  C   UNL     1      46.737  34.435  11.844  1.00  0.00     0.000 C 
BRANCH   2   3
ATOM      3  C   UNL     1      48.237  34.127  12.036  1.00  0.00     0.000 C 
BRANCH   3   4
ATOM      4  C   UNL     1      48.810  34.491  13.420  1.00  0.00     0.000 C 
BRANCH   4   5
ATOM      5  C   UNL     1      48.455  33.511  14.558  1.00  0.00     0.000 C 
BRANCH   5   6
ATOM      6  C   UNL     1      47.404  34.055  15.550  1.00  0.00     0.000 C 
BRANCH   6   7
ATOM      7  C   UNL     1      47.689  33.642  17.005  1.00  0.00     0.000 C 
BRANCH   7   8
ATOM      8  C   UNL     1      49.180  33.722  17.367  1.00  0.00     0.000 C 
BRANCH   8   9
ATOM      9  C   UNL     1      49.795  32.342  17.661  1.00  0.00     0.000 C 
BRANCH   9  10
ATOM     10  C   UNL     1      48.812  31.193  17.378  1.00  0.00     0.006 C 
BRANCH  10  11
ATOM     11  C   UNL     1      49.238  30.350  16.168  1.00  0.00     0.053 C 
BRANCH  11  12
ATOM     12  C   UNL     1      50.031  29.160  16.607  1.00  0.00     0.041 C 
ATOM     13  O   UNL     1      49.466  28.045  16.759  1.00  0.00    -0.550 OA
ATOM     14  O   UNL     1      51.400  29.274  16.820  1.00  0.00    -0.550 OA
ENDBRANCH  11  12
ENDBRANCH  10  11
ENDBRANCH   9  10
ENDBRANCH   8   9
ENDBRANCH   7   8
ENDBRANCH   6   7
ENDBRANCH   5   6
ENDBRANCH   4   5
ENDBRANCH   3   4
ENDBRANCH   2   3
ENDBRANCH   1   2
BRANCH   1  15
ATOM     15  C   UNL     1      44.821  35.627  13.062  1.00  0.00     0.000 C 
BRANCH  15  16
ATOM     16  C   UNL     1      43.886  36.718  12.495  1.00  0.00     0.000 C 
BRANCH  16  17
ATOM     17  C   UNL     1      42.847  36.179  11.497  1.00  0.00     0.000 C 
BRANCH  17  18
ATOM     18  C   UNL     1      42.251  37.284  10.609  1.00  0.00    -0.000 C 
BRANCH  18  19
ATOM     19  C   UNL     1      42.863  38.664  10.894  1.00  0.00    -0.000 C 
BRANCH  19  20
ATOM     20  C   UNL     1      41.892  39.607  11.619  1.00  0.00    -0.000 C 
BRANCH  20  21
ATOM     21  C   UNL     1      40.592  38.878  11.985  1.00  0.00    -0.000 C 
BRANCH  21  22
ATOM     22  C   UNL     1      40.541  38.556  13.483  1.00  0.00    -0.000 C 
BRANCH  22  23
ATOM     23  C   UNL     1      39.974  37.149  13.721  1.00  0.00    -0.000 C 
BRANCH  23  24
ATOM     24  C   UNL     1      39.197  36.602  12.510  1.00  0.00    -0.000 C 
BRANCH  24  25
ATOM     25  C   UNL     1      39.461  35.120  12.188  1.00  0.00    -0.003 C 
ATOM     26  C   UNL     1      38.636  34.608  11.008  1.00  0.00     0.004 C 
ENDBRANCH  24  25
ENDBRANCH  23  24
ENDBRANCH  22  23
ENDBRANCH  21  22
ENDBRANCH  20  21
ENDBRANCH  19  20
ENDBRANCH  18  19
ENDBRANCH  17  18
ENDBRANCH  16  17
ENDBRANCH  15  16
ENDBRANCH   1  15
TORSDOF 22
ENDMDL
MODEL 4
REMARK VINA RESULT:    -5.258      1.125      2.914
REMARK INTER + INTRA:         -14.973
REMARK INTER:                 -12.257
REMARK INTRA:                  -2.716
REMARK UNBOUND:                -2.953
REMARK SMILES CCCCCCCCCCCCCCCCCCCCCCCC(=O)[O-]
REMARK SMILES IDX 13 1 14 2 15 3 16 4 17 5 18 6 19 7 20 8 21 9 22 10 23 11
REMARK SMILES IDX 24 12 25 13 26 14 12 15 11 16 10 17 9 18 8 19 7 20 6 21 5 22
REMARK SMILES IDX 4 23 3 24 2 25 1 26
REMARK H PARENT
REMARK Flexibility Score: inf
ROOT
ATOM      1  C   UNL     1      49.254  27.126  16.749  1.00  0.00     0.000 C 
ENDROOT
BRANCH   1   2
ATOM      2  C   UNL     1      48.262  27.783  15.773  1.00  0.00     0.000 C 
BRANCH   2   3
ATOM      3  C   UNL     1      47.895  29.246  16.098  1.00  0.00     0.000 C 
BRANCH   3   4
ATOM      4  C   UNL     1      48.949  30.294  15.693  1.00  0.00     0.000 C 
BRANCH   4   5
ATOM      5  C   UNL     1      49.777  30.879  16.855  1.00  0.00     0.000 C 
BRANCH   5   6
ATOM      6  C   UNL     1      49.034  31.954  17.677  1.00  0.00     0.000 C 
BRANCH   6   7
ATOM      7  C   UNL     1      49.113  33.352  17.038  1.00  0.00     0.000 C 
BRANCH   7   8
ATOM      8  C   UNL     1      47.729  33.950  16.739  1.00  0.00     0.000 C 
BRANCH   8   9
ATOM      9  C   UNL     1      47.305  33.761  15.271  1.00  0.00     0.000 C 
BRANCH   9  10
ATOM     10  C   UNL     1      48.512  33.692  14.319  1.00  0.00     0.006 C 
BRANCH  10  11
ATOM     11  C   UNL     1      48.237  34.392  12.982  1.00  0.00     0.053 C 
BRANCH  11  12
ATOM     12  C   UNL     1      48.789  33.592  11.844  1.00  0.00     0.041 C 
ATOM     13  O   UNL     1      48.016  33.130  10.963  1.00  0.00    -0.550 OA
ATOM     14  O   UNL     1      50.158  33.382  11.739  1.00  0.00    -0.550 OA
ENDBRANCH  11  12
ENDBRANCH  10  11
ENDBRANCH   9  10
ENDBRANCH   8   9
ENDBRANCH   7   8
ENDBRANCH   6   7
ENDBRANCH   5   6
ENDBRANCH   4   5
ENDBRANCH   3   4
ENDBRANCH   2   3
ENDBRANCH   1   2
BRANCH   1  15
ATOM     15  C   UNL     1      49.028  25.611  16.902  1.00  0.00     0.000 C 
BRANCH  15  16
ATOM     16  C   UNL     1      48.857  25.196  18.380  1.00  0.00     0.000 C 
BRANCH  16  17
ATOM     17  C   UNL     1      48.453  26.358  19.303  1.00  0.00     0.000 C 
BRANCH  17  18
ATOM     18  C   UNL     1      48.131  25.893  20.733  1.00  0.00    -0.000 C 
BRANCH  18  19
ATOM     19  C   UNL     1      48.188  27.042  21.752  1.00  0.00    -0.000 C 
BRANCH  19  20
ATOM     20  C   UNL     1      49.417  26.963  22.670  1.00  0.00    -0.000 C 
BRANCH  20  21
ATOM     21  C   UNL     1      50.062  25.573  22.601  1.00  0.00    -0.000 C 
BRANCH  21  22
ATOM     22  C   UNL     1      51.580  25.677  22.407  1.00  0.00    -0.000 C 
BRANCH  22  23
ATOM     23  C   UNL     1      51.975  27.081  21.924  1.00  0.00    -0.000 C 
BRANCH  23  24
ATOM     24  C   UNL     1      52.850  27.056  20.657  1.00  0.00    -0.000 C 
BRANCH  24  25
ATOM     25  C   UNL     1      52.078  26.850  19.342  1.00  0.00    -0.003 C 
ATOM     26  C   UNL     1      52.575  25.650  18.538  1.00  0.00     0.004 C 
ENDBRANCH  24  25
ENDBRANCH  23  24
ENDBRANCH  22  23
ENDBRANCH  21  22
ENDBRANCH  20  21
ENDBRANCH  19  20
ENDBRANCH  18  19
ENDBRANCH  17  18
ENDBRANCH  16  17
ENDBRANCH  15  16
ENDBRANCH   1  15
TORSDOF 22
ENDMDL
MODEL 5
REMARK VINA RESULT:    -5.163      6.463     12.197
REMARK INTER + INTRA:         -14.756
REMARK INTER:                 -12.101
REMARK INTRA:                  -2.655
REMARK UNBOUND:                -2.953
REMARK SMILES CCCCCCCCCCCCCCCCCCCCCCCC(=O)[O-]
REMARK SMILES IDX 13 1 14 2 15 3 16 4 17 5 18 6 19 7 20 8 21 9 22 10 23 11
REMARK SMILES IDX 24 12 25 13 26 14 12 15 11 16 10 17 9 18 8 19 7 20 6 21 5 22
REMARK SMILES IDX 4 23 3 24 2 25 1 26
REMARK H PARENT
REMARK Flexibility Score: inf
ROOT
ATOM      1  C   UNL     1      43.683  36.038  12.120  1.00  0.00     0.000 C 
ENDROOT
BRANCH   1   2
ATOM      2  C   UNL     1      44.837  35.726  13.089  1.00  0.00     0.000 C 
BRANCH   2   3
ATOM      3  C   UNL     1      46.251  35.828  12.478  1.00  0.00     0.000 C 
BRANCH   3   4
ATOM      4  C   UNL     1      47.051  34.512  12.450  1.00  0.00     0.000 C 
BRANCH   4   5
ATOM      5  C   UNL     1      48.387  34.537  13.221  1.00  0.00     0.000 C 
BRANCH   5   6
ATOM      6  C   UNL     1      48.400  33.653  14.486  1.00  0.00     0.000 C 
BRANCH   6   7
ATOM      7  C   UNL     1      47.278  34.015  15.476  1.00  0.00     0.000 C 
BRANCH   7   8
ATOM      8  C   UNL     1      47.732  33.947  16.943  1.00  0.00     0.000 C 
BRANCH   8   9
ATOM      9  C   UNL     1      48.731  32.805  17.203  1.00  0.00     0.000 C 
BRANCH   9  10
ATOM     10  C   UNL     1      48.054  31.566  17.816  1.00  0.00     0.006 C 
BRANCH  10  11
ATOM     11  C   UNL     1      47.675  30.527  16.752  1.00  0.00     0.053 C 
BRANCH  11  12
ATOM     12  C   UNL     1      48.704  29.442  16.685  1.00  0.00     0.041 C 
ATOM     13  O   UNL     1      48.446  28.297  17.141  1.00  0.00    -0.550 OA
ATOM     14  O   UNL     1      49.937  29.687  16.092  1.00  0.00    -0.550 OA
ENDBRANCH  11  12
ENDBRANCH  10  11
ENDBRANCH   9  10
ENDBRANCH   8   9
ENDBRANCH   7   8
ENDBRANCH   6   7
ENDBRANCH   5   6
ENDBRANCH   4   5
ENDBRANCH   3   4
ENDBRANCH   2   3
ENDBRANCH   1   2
BRANCH   1  15
ATOM     15  C   UNL     1      43.337  37.536  12.065  1.00  0.00     0.000 C 
BRANCH  15  16
ATOM     16  C   UNL     1      42.629  37.922  10.748  1.00  0.00     0.000 C 
BRANCH  16  17
ATOM     17  C   UNL     1      41.799  39.212  10.850  1.00  0.00     0.000 C 
BRANCH  17  18
ATOM     18  C   UNL     1      40.445  39.104  10.129  1.00  0.00    -0.000 C 
BRANCH  18  19
ATOM     19  C   UNL     1      39.258  39.073  11.104  1.00  0.00    -0.000 C 
BRANCH  19  20
ATOM     20  C   UNL     1      39.695  38.920  12.568  1.00  0.00    -0.000 C 
BRANCH  20  21
ATOM     21  C   UNL     1      39.125  37.632  13.177  1.00  0.00    -0.000 C 
BRANCH  21  22
ATOM     22  C   UNL     1      40.157  36.498  13.138  1.00  0.00    -0.000 C 
BRANCH  22  23
ATOM     23  C   UNL     1      39.576  35.253  12.451  1.00  0.00    -0.000 C 
BRANCH  23  24
ATOM     24  C   UNL     1      38.675  35.595  11.249  1.00  0.00    -0.000 C 
BRANCH  24  25
ATOM     25  C   UNL     1      39.367  35.507   9.877  1.00  0.00    -0.003 C 
ATOM     26  C   UNL     1      40.731  34.822   9.938  1.00  0.00     0.004 C 
ENDBRANCH  24  25
ENDBRANCH  23  24
ENDBRANCH  22  23
ENDBRANCH  21  22
ENDBRANCH  20  21
ENDBRANCH  19  20
ENDBRANCH  18  19
ENDBRANCH  17  18
ENDBRANCH  16  17
ENDBRANCH  15  16
ENDBRANCH   1  15
TORSDOF 22
ENDMDL
MODEL 6
REMARK VINA RESULT:    -5.148      2.803      8.691
REMARK INTER + INTRA:         -14.723
REMARK INTER:                 -12.529
REMARK INTRA:                  -2.194
REMARK UNBOUND:                -2.953
REMARK SMILES CCCCCCCCCCCCCCCCCCCCCCCC(=O)[O-]
REMARK SMILES IDX 13 1 14 2 15 3 16 4 17 5 18 6 19 7 20 8 21 9 22 10 23 11
REMARK SMILES IDX 24 12 25 13 26 14 12 15 11 16 10 17 9 18 8 19 7 20 6 21 5 22
REMARK SMILES IDX 4 23 3 24 2 25 1 26
REMARK H PARENT
REMARK Flexibility Score: inf
ROOT
ATOM      1  C   UNL     1      49.182  28.013  16.745  1.00  0.00     0.000 C 
ENDROOT
BRANCH   1   2
ATOM      2  C   UNL     1      48.969  26.635  17.398  1.00  0.00     0.000 C 
BRANCH   2   3
ATOM      3  C   UNL     1      48.678  26.667  18.913  1.00  0.00     0.000 C 
BRANCH   3   4
ATOM      4  C   UNL     1      48.503  25.287  19.577  1.00  0.00     0.000 C 
BRANCH   4   5
ATOM      5  C   UNL     1      48.906  25.216  21.065  1.00  0.00     0.000 C 
BRANCH   5   6
ATOM      6  C   UNL     1      48.446  26.430  21.900  1.00  0.00     0.000 C 
BRANCH   6   7
ATOM      7  C   UNL     1      49.609  27.126  22.629  1.00  0.00     0.000 C 
BRANCH   7   8
ATOM      8  C   UNL     1      50.919  26.326  22.562  1.00  0.00     0.000 C 
BRANCH   8   9
ATOM      9  C   UNL     1      52.074  27.129  21.937  1.00  0.00     0.000 C 
BRANCH   9  10
ATOM     10  C   UNL     1      52.308  26.761  20.461  1.00  0.00     0.006 C 
BRANCH  10  11
ATOM     11  C   UNL     1      53.084  27.850  19.708  1.00  0.00     0.053 C 
BRANCH  11  12
ATOM     12  C   UNL     1      52.767  27.809  18.246  1.00  0.00     0.041 C 
ATOM     13  O   UNL     1      52.806  28.865  17.561  1.00  0.00    -0.550 OA
ATOM     14  O   UNL     1      52.456  26.600  17.634  1.00  0.00    -0.550 OA
ENDBRANCH  11  12
ENDBRANCH  10  11
ENDBRANCH   9  10
ENDBRANCH   8   9
ENDBRANCH   7   8
ENDBRANCH   6   7
ENDBRANCH   5   6
ENDBRANCH   4   5
ENDBRANCH   3   4
ENDBRANCH   2   3
ENDBRANCH   1   2
BRANCH   1  15
ATOM     15  C   UNL     1      47.976  28.469  15.906  1.00  0.00     0.000 C 
BRANCH  15  16
ATOM     16  C   UNL     1      47.520  29.898  16.273  1.00  0.00     0.000 C 
BRANCH  16  17
ATOM     17  C   UNL     1      48.046  30.381  17.635  1.00  0.00     0.000 C 
BRANCH  17  18
ATOM     18  C   UNL     1      47.830  31.888  17.853  1.00  0.00    -0.000 C 
BRANCH  18  19
ATOM     19  C   UNL     1      49.131  32.694  17.727  1.00  0.00    -0.000 C 
BRANCH  19  20
ATOM     20  C   UNL     1      48.949  33.999  16.937  1.00  0.00    -0.000 C 
BRANCH  20  21
ATOM     21  C   UNL     1      47.925  33.816  15.809  1.00  0.00    -0.000 C 
BRANCH  21  22
ATOM     22  C   UNL     1      48.559  33.132  14.592  1.00  0.00    -0.000 C 
BRANCH  22  23
ATOM     23  C   UNL     1      48.518  34.052  13.363  1.00  0.00    -0.000 C 
BRANCH  23  24
ATOM     24  C   UNL     1      48.742  33.296  12.040  1.00  0.00    -0.000 C 
BRANCH  24  25
ATOM     25  C   UNL     1      50.136  33.486  11.415  1.00  0.00    -0.003 C 
ATOM     26  C   UNL     1      50.084  33.787   9.918  1.00  0.00     0.004 C 
ENDBRANCH  24  25
ENDBRANCH  23  24
ENDBRANCH  22  23
ENDBRANCH  21  22
ENDBRANCH  20  21
ENDBRANCH  19  20
ENDBRANCH  18  19
ENDBRANCH  17  18
ENDBRANCH  16  17
ENDBRANCH  15  16
ENDBRANCH   1  15
TORSDOF 22
ENDMDL
MODEL 7
REMARK VINA RESULT:    -5.119      2.664      7.724
REMARK INTER + INTRA:         -14.655
REMARK INTER:                 -11.648
REMARK INTRA:                  -3.007
REMARK UNBOUND:                -2.953
REMARK SMILES CCCCCCCCCCCCCCCCCCCCCCCC(=O)[O-]
REMARK SMILES IDX 13 1 14 2 15 3 16 4 17 5 18 6 19 7 20 8 21 9 22 10 23 11
REMARK SMILES IDX 24 12 25 13 26 14 12 15 11 16 10 17 9 18 8 19 7 20 6 21 5 22
REMARK SMILES IDX 4 23 3 24 2 25 1 26
REMARK H PARENT
REMARK Flexibility Score: inf
ROOT
ATOM      1  C   UNL     1      48.487  25.784  18.519  1.00  0.00     0.000 C 
ENDROOT
BRANCH   1   2
ATOM      2  C   UNL     1      49.190  25.058  19.680  1.00  0.00     0.000 C 
BRANCH   2   3
ATOM      3  C   UNL     1      48.615  25.354  21.081  1.00  0.00     0.000 C 
BRANCH   3   4
ATOM      4  C   UNL     1      48.922  26.759  21.634  1.00  0.00     0.000 C 
BRANCH   4   5
ATOM      5  C   UNL     1      49.891  26.797  22.834  1.00  0.00     0.000 C 
BRANCH   5   6
ATOM      6  C   UNL     1      51.347  27.143  22.455  1.00  0.00     0.000 C 
BRANCH   6   7
ATOM      7  C   UNL     1      52.245  25.897  22.347  1.00  0.00     0.000 C 
BRANCH   7   8
ATOM      8  C   UNL     1      52.818  25.696  20.935  1.00  0.00     0.000 C 
BRANCH   8   9
ATOM      9  C   UNL     1      52.606  26.921  20.028  1.00  0.00     0.000 C 
BRANCH   9  10
ATOM     10  C   UNL     1      52.265  26.523  18.581  1.00  0.00     0.006 C 
BRANCH  10  11
ATOM     11  C   UNL     1      53.332  26.993  17.583  1.00  0.00     0.053 C 
BRANCH  11  12
ATOM     12  C   UNL     1      53.492  28.480  17.644  1.00  0.00     0.041 C 
ATOM     13  O   UNL     1      54.630  28.986  17.833  1.00  0.00    -0.550 OA
ATOM     14  O   UNL     1      52.391  29.308  17.462  1.00  0.00    -0.550 OA
ENDBRANCH  11  12
ENDBRANCH  10  11
ENDBRANCH   9  10
ENDBRANCH   8   9
ENDBRANCH   7   8
ENDBRANCH   6   7
ENDBRANCH   5   6
ENDBRANCH   4   5
ENDBRANCH   3   4
ENDBRANCH   2   3
ENDBRANCH   1   2
BRANCH   1  15
ATOM     15  C   UNL     1      48.985  25.324  17.137  1.00  0.00     0.000 C 
BRANCH  15  16
ATOM     16  C   UNL     1      49.502  26.502  16.284  1.00  0.00     0.000 C 
BRANCH  16  17
ATOM     17  C   UNL     1      49.042  27.879  16.793  1.00  0.00     0.000 C 
BRANCH  17  18
ATOM     18  C   UNL     1      48.516  28.781  15.665  1.00  0.00    -0.000 C 
BRANCH  18  19
ATOM     19  C   UNL     1      47.586  29.890  16.182  1.00  0.00    -0.000 C 
BRANCH  19  20
ATOM     20  C   UNL     1      47.659  30.065  17.706  1.00  0.00    -0.000 C 
BRANCH  20  21
ATOM     21  C   UNL     1      47.906  31.533  18.076  1.00  0.00    -0.000 C 
BRANCH  21  22
ATOM     22  C   UNL     1      49.228  32.038  17.487  1.00  0.00    -0.000 C 
BRANCH  22  23
ATOM     23  C   UNL     1      49.171  33.551  17.231  1.00  0.00    -0.000 C 
BRANCH  23  24
ATOM     24  C   UNL     1      47.991  33.964  16.330  1.00  0.00    -0.000 C 
BRANCH  24  25
ATOM     25  C   UNL     1      48.014  33.355  14.916  1.00  0.00    -0.003 C 
ATOM     26  C   UNL     1      48.726  34.241  13.895  1.00  0.00     0.004 C 
ENDBRANCH  24  25
ENDBRANCH  23  24
ENDBRANCH  22  23
ENDBRANCH  21  22
ENDBRANCH  20  21
ENDBRANCH  19  20
ENDBRANCH  18  19
ENDBRANCH  17  18
ENDBRANCH  16  17
ENDBRANCH  15  16
ENDBRANCH   1  15
TORSDOF 22
ENDMDL
MODEL 8
REMARK VINA RESULT:    -5.113      3.567      8.841
REMARK INTER + INTRA:         -14.642
REMARK INTER:                 -11.762
REMARK INTRA:                  -2.879
REMARK UNBOUND:                -2.953
REMARK SMILES CCCCCCCCCCCCCCCCCCCCCCCC(=O)[O-]
REMARK SMILES IDX 13 1 14 2 15 3 16 4 17 5 18 6 19 7 20 8 21 9 22 10 23 11
REMARK SMILES IDX 24 12 25 13 26 14 12 15 11 16 10 17 9 18 8 19 7 20 6 21 5 22
REMARK SMILES IDX 4 23 3 24 2 25 1 26
REMARK H PARENT
REMARK Flexibility Score: inf
ROOT
ATOM      1  C   UNL     1      51.741  27.810  17.184  1.00  0.00     0.000 C 
ENDROOT
BRANCH   1   2
ATOM      2  C   UNL     1      52.468  27.238  15.954  1.00  0.00     0.000 C 
BRANCH   2   3
ATOM      3  C   UNL     1      51.959  25.863  15.472  1.00  0.00     0.000 C 
BRANCH   3   4
ATOM      4  C   UNL     1      51.164  25.883  14.151  1.00  0.00     0.000 C 
BRANCH   4   5
ATOM      5  C   UNL     1      49.633  25.775  14.303  1.00  0.00     0.000 C 
BRANCH   5   6
ATOM      6  C   UNL     1      49.176  25.112  15.620  1.00  0.00     0.000 C 
BRANCH   6   7
ATOM      7  C   UNL     1      48.482  26.101  16.574  1.00  0.00     0.000 C 
BRANCH   7   8
ATOM      8  C   UNL     1      48.388  25.574  18.014  1.00  0.00     0.000 C 
BRANCH   8   9
ATOM      9  C   UNL     1      49.727  25.016  18.531  1.00  0.00     0.000 C 
BRANCH   9  10
ATOM     10  C   UNL     1      49.799  25.004  20.068  1.00  0.00     0.006 C 
BRANCH  10  11
ATOM     11  C   UNL     1      48.446  25.330  20.715  1.00  0.00     0.053 C 
BRANCH  11  12
ATOM     12  C   UNL     1      48.532  26.598  21.506  1.00  0.00     0.041 C 
ATOM     13  O   UNL     1      47.632  27.472  21.398  1.00  0.00    -0.550 OA
ATOM     14  O   UNL     1      49.589  26.800  22.385  1.00  0.00    -0.550 OA
ENDBRANCH  11  12
ENDBRANCH  10  11
ENDBRANCH   9  10
ENDBRANCH   8   9
ENDBRANCH   7   8
ENDBRANCH   6   7
ENDBRANCH   5   6
ENDBRANCH   4   5
ENDBRANCH   3   4
ENDBRANCH   2   3
ENDBRANCH   1   2
BRANCH   1  15
ATOM     15  C   UNL     1      51.114  29.190  16.920  1.00  0.00     0.000 C 
BRANCH  15  16
ATOM     16  C   UNL     1      50.251  29.201  15.639  1.00  0.00     0.000 C 
BRANCH  16  17
ATOM     17  C   UNL     1      49.066  30.178  15.704  1.00  0.00     0.000 C 
BRANCH  17  18
ATOM     18  C   UNL     1      48.363  30.166  17.071  1.00  0.00    -0.000 C 
BRANCH  18  19
ATOM     19  C   UNL     1      48.080  31.580  17.601  1.00  0.00    -0.000 C 
BRANCH  19  20
ATOM     20  C   UNL     1      49.214  32.569  17.295  1.00  0.00    -0.000 C 
BRANCH  20  21
ATOM     21  C   UNL     1      48.662  33.858  16.674  1.00  0.00    -0.000 C 
BRANCH  21  22
ATOM     22  C   UNL     1      48.004  33.581  15.317  1.00  0.00    -0.000 C 
BRANCH  22  23
ATOM     23  C   UNL     1      48.835  34.182  14.173  1.00  0.00    -0.000 C 
BRANCH  23  24
ATOM     24  C   UNL     1      48.065  34.244  12.841  1.00  0.00    -0.000 C 
BRANCH  24  25
ATOM     25  C   UNL     1      48.693  33.434  11.692  1.00  0.00    -0.003 C 
ATOM     26  C   UNL     1      50.193  33.680  11.538  1.00  0.00     0.004 C 
ENDBRANCH  24  25
ENDBRANCH  23  24
ENDBRANCH  22  23
ENDBRANCH  21  22
ENDBRANCH  20  21
ENDBRANCH  19  20
ENDBRANCH  18  19
ENDBRANCH  17  18
ENDBRANCH  16  17
ENDBRANCH  15  16
ENDBRANCH   1  15
TORSDOF 22
ENDMDL
MODEL 9
REMARK VINA RESULT:    -5.023      2.670      5.931
REMARK INTER + INTRA:         -14.435
REMARK INTER:                 -10.545
REMARK INTRA:                  -3.891
REMARK UNBOUND:                -2.953
REMARK SMILES CCCCCCCCCCCCCCCCCCCCCCCC(=O)[O-]
REMARK SMILES IDX 13 1 14 2 15 3 16 4 17 5 18 6 19 7 20 8 21 9 22 10 23 11
REMARK SMILES IDX 24 12 25 13 26 14 12 15 11 16 10 17 9 18 8 19 7 20 6 21 5 22
REMARK SMILES IDX 4 23 3 24 2 25 1 26
REMARK H PARENT
REMARK Flexibility Score: inf
ROOT
ATOM      1  C   UNL     1      48.544  26.280  19.003  1.00  0.00     0.000 C 
ENDROOT
BRANCH   1   2
ATOM      2  C   UNL     1      48.997  25.254  17.950  1.00  0.00     0.000 C 
BRANCH   2   3
ATOM      3  C   UNL     1      48.674  25.628  16.488  1.00  0.00     0.000 C 
BRANCH   3   4
ATOM      4  C   UNL     1      49.638  25.052  15.433  1.00  0.00     0.000 C 
BRANCH   4   5
ATOM      5  C   UNL     1      50.616  26.068  14.809  1.00  0.00     0.000 C 
BRANCH   5   6
ATOM      6  C   UNL     1      51.850  26.373  15.684  1.00  0.00     0.000 C 
BRANCH   6   7
ATOM      7  C   UNL     1      52.102  27.883  15.852  1.00  0.00     0.000 C 
BRANCH   7   8
ATOM      8  C   UNL     1      51.313  28.493  17.021  1.00  0.00     0.000 C 
BRANCH   8   9
ATOM      9  C   UNL     1      50.414  29.663  16.584  1.00  0.00     0.000 C 
BRANCH   9  10
ATOM     10  C   UNL     1      49.065  29.183  16.019  1.00  0.00     0.006 C 
BRANCH  10  11
ATOM     11  C   UNL     1      47.887  29.570  16.924  1.00  0.00     0.053 C 
BRANCH  11  12
ATOM     12  C   UNL     1      47.851  31.050  17.139  1.00  0.00     0.041 C 
ATOM     13  O   UNL     1      47.863  31.519  18.308  1.00  0.00    -0.550 OA
ATOM     14  O   UNL     1      47.834  31.913  16.050  1.00  0.00    -0.550 OA
ENDBRANCH  11  12
ENDBRANCH  10  11
ENDBRANCH   9  10
ENDBRANCH   8   9
ENDBRANCH   7   8
ENDBRANCH   6   7
ENDBRANCH   5   6
ENDBRANCH   4   5
ENDBRANCH   3   4
ENDBRANCH   2   3
ENDBRANCH   1   2
BRANCH   1  15
ATOM     15  C   UNL     1      48.135  25.628  20.336  1.00  0.00     0.000 C 
BRANCH  15  16
ATOM     16  C   UNL     1      48.165  26.634  21.507  1.00  0.00     0.000 C 
BRANCH  16  17
ATOM     17  C   UNL     1      49.153  26.251  22.622  1.00  0.00     0.000 C 
BRANCH  17  18
ATOM     18  C   UNL     1      50.424  27.116  22.608  1.00  0.00    -0.000 C 
BRANCH  18  19
ATOM     19  C   UNL     1      51.709  26.274  22.569  1.00  0.00    -0.000 C 
BRANCH  19  20
ATOM     20  C   UNL     1      51.809  25.398  21.311  1.00  0.00    -0.000 C 
BRANCH  20  21
ATOM     21  C   UNL     1      51.953  26.264  20.053  1.00  0.00    -0.000 C 
BRANCH  21  22
ATOM     22  C   UNL     1      53.378  26.815  19.921  1.00  0.00    -0.000 C 
BRANCH  22  23
ATOM     23  C   UNL     1      54.189  26.000  18.903  1.00  0.00    -0.000 C 
BRANCH  23  24
ATOM     24  C   UNL     1      54.966  26.883  17.909  1.00  0.00    -0.000 C 
BRANCH  24  25
ATOM     25  C   UNL     1      55.353  28.273  18.444  1.00  0.00    -0.003 C 
ATOM     26  C   UNL     1      55.295  29.363  17.375  1.00  0.00     0.004 C 
ENDBRANCH  24  25
ENDBRANCH  23  24
ENDBRANCH  22  23
ENDBRANCH  21  22
ENDBRANCH  20  21
ENDBRANCH  19  20
ENDBRANCH  18  19
ENDBRANCH  17  18
ENDBRANCH  16  17
ENDBRANCH  15  16
ENDBRANCH   1  15
TORSDOF 22
ENDMDL
