MODEL 1
REMARK VINA RESULT:    -4.257      0.000      0.000
REMARK INTER + INTRA:          -9.003
REMARK INTER:                  -8.239
REMARK INTRA:                  -0.764
REMARK UNBOUND:                -0.764
REMARK SMILES CCCCCCCCCCCCCCCCCC(=O)[O-]
REMARK SMILES IDX 10 1 11 2 12 3 13 4 14 5 15 6 16 7 17 8 18 9 19 10 20 11
REMARK SMILES IDX 9 12 8 13 7 14 6 15 5 16 4 17 3 18 2 19 1 20
REMARK H PARENT
REMARK Flexibility Score: inf
ROOT
ATOM      1  C   UNL     1       1.466  16.042  23.049  1.00  0.00     0.000 C 
ENDROOT
BRANCH   1   2
ATOM      2  C   UNL     1       0.810  16.123  21.654  1.00  0.00     0.000 C 
BRANCH   2   3
ATOM      3  C   UNL     1      -0.653  15.644  21.628  1.00  0.00     0.000 C 
BRANCH   3   4
ATOM      4  C   UNL     1      -1.702  16.757  21.812  1.00  0.00     0.000 C 
BRANCH   4   5
ATOM      5  C   UNL     1      -2.689  16.541  22.978  1.00  0.00     0.000 C 
BRANCH   5   6
ATOM      6  C   UNL     1      -4.144  16.952  22.687  1.00  0.00     0.000 C 
BRANCH   6   7
ATOM      7  C   UNL     1      -5.108  15.754  22.651  1.00  0.00     0.006 C 
BRANCH   7   8
ATOM      8  C   UNL     1      -5.603  15.454  21.229  1.00  0.00     0.053 C 
BRANCH   8   9
ATOM      9  C   UNL     1      -7.098  15.463  21.151  1.00  0.00     0.041 C 
ATOM     10  O   UNL     1      -7.764  14.492  21.599  1.00  0.00    -0.550 OA
ATOM     11  O   UNL     1      -7.756  16.528  20.549  1.00  0.00    -0.550 OA
ENDBRANCH   8   9
ENDBRANCH   7   8
ENDBRANCH   6   7
ENDBRANCH   5   6
ENDBRANCH   4   5
ENDBRANCH   3   4
ENDBRANCH   2   3
ENDBRANCH   1   2
BRANCH   1  12
ATOM     12  C   UNL     1       3.000  16.033  22.979  1.00  0.00     0.000 C 
BRANCH  12  13
ATOM     13  C   UNL     1       3.495  16.664  21.668  1.00  0.00    -0.000 C 
BRANCH  13  14
ATOM     14  C   UNL     1       5.002  16.459  21.441  1.00  0.00    -0.000 C 
BRANCH  14  15
ATOM     15  C   UNL     1       5.660  15.623  22.553  1.00  0.00    -0.000 C 
BRANCH  15  16
ATOM     16  C   UNL     1       7.079  16.109  22.893  1.00  0.00    -0.000 C 
BRANCH  16  17
ATOM     17  C   UNL     1       8.044  15.987  21.701  1.00  0.00    -0.000 C 
BRANCH  17  18
ATOM     18  C   UNL     1       8.497  17.354  21.157  1.00  0.00    -0.000 C 
BRANCH  18  19
ATOM     19  C   UNL     1       9.726  17.311  20.232  1.00  0.00    -0.003 C 
ATOM     20  C   UNL     1      10.275  15.898  20.031  1.00  0.00     0.004 C 
ENDBRANCH  18  19
ENDBRANCH  17  18
ENDBRANCH  16  17
ENDBRANCH  15  16
ENDBRANCH  14  15
ENDBRANCH  13  14
ENDBRANCH  12  13
ENDBRANCH   1  12
TORSDOF 16
ENDMDL
MODEL 2
REMARK VINA RESULT:    -4.101      0.720      1.598
REMARK INTER + INTRA:          -8.702
REMARK INTER:                  -7.842
REMARK INTRA:                  -0.860
REMARK UNBOUND:                -0.764
REMARK SMILES CCCCCCCCCCCCCCCCCC(=O)[O-]
REMARK SMILES IDX 10 1 11 2 12 3 13 4 14 5 15 6 16 7 17 8 18 9 19 10 20 11
REMARK SMILES IDX 9 12 8 13 7 14 6 15 5 16 4 17 3 18 2 19 1 20
REMARK H PARENT
REMARK Flexibility Score: inf
ROOT
ATOM      1  C   UNL     1       0.538  16.034  21.665  1.00  0.00     0.000 C 
ENDROOT
BRANCH   1   2
ATOM      2  C   UNL     1      -0.990  15.858  21.802  1.00  0.00     0.000 C 
BRANCH   2   3
ATOM      3  C   UNL     1      -1.790  17.142  21.519  1.00  0.00     0.000 C 
BRANCH   3   4
ATOM      4  C   UNL     1      -2.650  17.642  22.695  1.00  0.00     0.000 C 
BRANCH   4   5
ATOM      5  C   UNL     1      -4.173  17.479  22.509  1.00  0.00     0.000 C 
BRANCH   5   6
ATOM      6  C   UNL     1      -4.708  16.051  22.720  1.00  0.00     0.000 C 
BRANCH   6   7
ATOM      7  C   UNL     1      -5.146  15.376  21.409  1.00  0.00     0.006 C 
BRANCH   7   8
ATOM      8  C   UNL     1      -6.471  14.618  21.565  1.00  0.00     0.053 C 
BRANCH   8   9
ATOM      9  C   UNL     1      -7.650  15.536  21.456  1.00  0.00     0.041 C 
ATOM     10  O   UNL     1      -8.689  15.320  22.134  1.00  0.00    -0.550 OA
ATOM     11  O   UNL     1      -7.615  16.610  20.576  1.00  0.00    -0.550 OA
ENDBRANCH   8   9
ENDBRANCH   7   8
ENDBRANCH   6   7
ENDBRANCH   5   6
ENDBRANCH   4   5
ENDBRANCH   3   4
ENDBRANCH   2   3
ENDBRANCH   1   2
BRANCH   1  12
ATOM     12  C   UNL     1       1.253  16.055  23.024  1.00  0.00     0.000 C 
BRANCH  12  13
ATOM     13  C   UNL     1       2.778  15.992  22.844  1.00  0.00    -0.000 C 
BRANCH  13  14
ATOM     14  C   UNL     1       3.262  16.752  21.598  1.00  0.00    -0.000 C 
BRANCH  14  15
ATOM     15  C   UNL     1       4.775  16.598  21.362  1.00  0.00    -0.000 C 
BRANCH  15  16
ATOM     16  C   UNL     1       5.448  15.709  22.421  1.00  0.00    -0.000 C 
BRANCH  16  17
ATOM     17  C   UNL     1       6.589  14.858  21.836  1.00  0.00    -0.000 C 
BRANCH  17  18
ATOM     18  C   UNL     1       7.983  15.437  22.140  1.00  0.00    -0.000 C 
BRANCH  18  19
ATOM     19  C   UNL     1       8.257  16.824  21.531  1.00  0.00    -0.003 C 
ATOM     20  C   UNL     1       9.327  16.798  20.440  1.00  0.00     0.004 C 
ENDBRANCH  18  19
ENDBRANCH  17  18
ENDBRANCH  16  17
ENDBRANCH  15  16
ENDBRANCH  14  15
ENDBRANCH  13  14
ENDBRANCH  12  13
ENDBRANCH   1  12
TORSDOF 16
ENDMDL
MODEL 3
REMARK VINA RESULT:    -3.968      1.603      3.676
REMARK INTER + INTRA:          -8.444
REMARK INTER:                  -7.524
REMARK INTRA:                  -0.920
REMARK UNBOUND:                -0.764
REMARK SMILES CCCCCCCCCCCCCCCCCC(=O)[O-]
REMARK SMILES IDX 10 1 11 2 12 3 13 4 14 5 15 6 16 7 17 8 18 9 19 10 20 11
REMARK SMILES IDX 9 12 8 13 7 14 6 15 5 16 4 17 3 18 2 19 1 20
REMARK H PARENT
REMARK Flexibility Score: inf
ROOT
ATOM      1  C   UNL     1      -2.332  15.693  21.168  1.00  0.00     0.000 C 
ENDROOT
BRANCH   1   2
ATOM      2  C   UNL     1      -2.830  16.375  22.460  1.00  0.00     0.000 C 
BRANCH   2   3
ATOM      3  C   UNL     1      -4.280  16.013  22.834  1.00  0.00     0.000 C 
BRANCH   3   4
ATOM      4  C   UNL     1      -5.244  15.885  21.639  1.00  0.00     0.000 C 
BRANCH   4   5
ATOM      5  C   UNL     1      -6.031  14.560  21.571  1.00  0.00     0.000 C 
BRANCH   5   6
ATOM      6  C   UNL     1      -7.561  14.712  21.510  1.00  0.00     0.000 C 
BRANCH   6   7
ATOM      7  C   UNL     1      -8.101  15.740  22.519  1.00  0.00     0.006 C 
BRANCH   7   8
ATOM      8  C   UNL     1      -9.108  16.705  21.879  1.00  0.00     0.053 C 
BRANCH   8   9
ATOM      9  C   UNL     1      -8.444  17.639  20.916  1.00  0.00     0.041 C 
ATOM     10  O   UNL     1      -8.653  17.531  19.679  1.00  0.00    -0.550 OA
ATOM     11  O   UNL     1      -7.564  18.607  21.382  1.00  0.00    -0.550 OA
ENDBRANCH   8   9
ENDBRANCH   7   8
ENDBRANCH   6   7
ENDBRANCH   5   6
ENDBRANCH   4   5
ENDBRANCH   3   4
ENDBRANCH   2   3
ENDBRANCH   1   2
BRANCH   1  12
ATOM     12  C   UNL     1      -0.863  15.253  21.263  1.00  0.00     0.000 C 
BRANCH  12  13
ATOM     13  C   UNL     1       0.035  16.425  21.686  1.00  0.00    -0.000 C 
BRANCH  13  14
ATOM     14  C   UNL     1       1.171  15.995  22.629  1.00  0.00    -0.000 C 
BRANCH  14  15
ATOM     15  C   UNL     1       2.562  16.144  21.986  1.00  0.00    -0.000 C 
BRANCH  15  16
ATOM     16  C   UNL     1       3.699  15.777  22.954  1.00  0.00    -0.000 C 
BRANCH  16  17
ATOM     17  C   UNL     1       4.428  14.486  22.543  1.00  0.00    -0.000 C 
BRANCH  17  18
ATOM     18  C   UNL     1       5.938  14.694  22.327  1.00  0.00    -0.000 C 
BRANCH  18  19
ATOM     19  C   UNL     1       6.337  16.097  21.835  1.00  0.00    -0.003 C 
ATOM     20  C   UNL     1       7.772  16.474  22.201  1.00  0.00     0.004 C 
ENDBRANCH  18  19
ENDBRANCH  17  18
ENDBRANCH  16  17
ENDBRANCH  15  16
ENDBRANCH  14  15
ENDBRANCH  13  14
ENDBRANCH  12  13
ENDBRANCH   1  12
TORSDOF 16
ENDMDL
MODEL 4
REMARK VINA RESULT:    -3.954      5.559     11.920
REMARK INTER + INTRA:          -8.416
REMARK INTER:                  -7.601
REMARK INTRA:                  -0.815
REMARK UNBOUND:                -0.764
REMARK SMILES CCCCCCCCCCCCCCCCCC(=O)[O-]
REMARK SMILES IDX 10 1 11 2 12 3 13 4 14 5 15 6 16 7 17 8 18 9 19 10 20 11
REMARK SMILES IDX 9 12 8 13 7 14 6 15 5 16 4 17 3 18 2 19 1 20
REMARK H PARENT
REMARK Flexibility Score: inf
ROOT
ATOM      1  C   UNL     1       0.705  16.170  21.661  1.00  0.00     0.000 C 
ENDROOT
BRANCH   1   2
ATOM      2  C   UNL     1       1.409  15.982  23.022  1.00  0.00     0.000 C 
BRANCH   2   3
ATOM      3  C   UNL     1       2.945  16.024  22.938  1.00  0.00     0.000 C 
BRANCH   3   4
ATOM      4  C   UNL     1       3.507  16.703  21.674  1.00  0.00     0.000 C 
BRANCH   4   5
ATOM      5  C   UNL     1       5.017  16.496  21.434  1.00  0.00     0.000 C 
BRANCH   5   6
ATOM      6  C   UNL     1       5.710  15.540  22.421  1.00  0.00     0.000 C 
BRANCH   6   7
ATOM      7  C   UNL     1       7.227  15.438  22.189  1.00  0.00     0.006 C 
BRANCH   7   8
ATOM      8  C   UNL     1       7.818  16.748  21.650  1.00  0.00     0.053 C 
BRANCH   8   9
ATOM      9  C   UNL     1       9.057  16.505  20.844  1.00  0.00     0.041 C 
ATOM     10  O   UNL     1       9.449  15.330  20.619  1.00  0.00    -0.550 OA
ATOM     11  O   UNL     1       9.799  17.580  20.371  1.00  0.00    -0.550 OA
ENDBRANCH   8   9
ENDBRANCH   7   8
ENDBRANCH   6   7
ENDBRANCH   5   6
ENDBRANCH   4   5
ENDBRANCH   3   4
ENDBRANCH   2   3
ENDBRANCH   1   2
BRANCH   1  12
ATOM     12  C   UNL     1      -0.718  15.594  21.648  1.00  0.00     0.000 C 
BRANCH  12  13
ATOM     13  C   UNL     1      -1.765  16.715  21.731  1.00  0.00    -0.000 C 
BRANCH  13  14
ATOM     14  C   UNL     1      -2.509  16.736  23.077  1.00  0.00    -0.000 C 
BRANCH  14  15
ATOM     15  C   UNL     1      -4.030  16.563  22.915  1.00  0.00    -0.000 C 
BRANCH  15  16
ATOM     16  C   UNL     1      -4.400  15.752  21.663  1.00  0.00    -0.000 C 
BRANCH  16  17
ATOM     17  C   UNL     1      -5.644  14.873  21.878  1.00  0.00    -0.000 C 
BRANCH  17  18
ATOM     18  C   UNL     1      -6.787  15.206  20.902  1.00  0.00    -0.000 C 
BRANCH  18  19
ATOM     19  C   UNL     1      -8.073  15.735  21.562  1.00  0.00    -0.003 C 
ATOM     20  C   UNL     1      -8.386  17.183  21.187  1.00  0.00     0.004 C 
ENDBRANCH  18  19
ENDBRANCH  17  18
ENDBRANCH  16  17
ENDBRANCH  15  16
ENDBRANCH  14  15
ENDBRANCH  13  14
ENDBRANCH  12  13
ENDBRANCH   1  12
TORSDOF 16
ENDMDL
MODEL 5
REMARK VINA RESULT:    -3.930      5.177     12.044
REMARK INTER + INTRA:          -8.371
REMARK INTER:                  -7.667
REMARK INTRA:                  -0.704
REMARK UNBOUND:                -0.764
REMARK SMILES CCCCCCCCCCCCCCCCCC(=O)[O-]
REMARK SMILES IDX 10 1 11 2 12 3 13 4 14 5 15 6 16 7 17 8 18 9 19 10 20 11
REMARK SMILES IDX 9 12 8 13 7 14 6 15 5 16 4 17 3 18 2 19 1 20
REMARK H PARENT
REMARK Flexibility Score: inf
ROOT
ATOM      1  C   UNL     1      -1.949  17.039  22.964  1.00  0.00     0.000 C 
ENDROOT
BRANCH   1   2
ATOM      2  C   UNL     1      -1.209  16.862  21.621  1.00  0.00     0.000 C 
BRANCH   2   3
ATOM      3  C   UNL     1      -0.105  15.788  21.658  1.00  0.00     0.000 C 
BRANCH   3   4
ATOM      4  C   UNL     1       1.060  16.089  22.620  1.00  0.00     0.000 C 
BRANCH   4   5
ATOM      5  C   UNL     1       2.408  16.404  21.939  1.00  0.00     0.000 C 
BRANCH   5   6
ATOM      6  C   UNL     1       3.623  15.661  22.523  1.00  0.00     0.000 C 
BRANCH   6   7
ATOM      7  C   UNL     1       4.949  16.070  21.859  1.00  0.00     0.006 C 
BRANCH   7   8
ATOM      8  C   UNL     1       6.164  15.706  22.723  1.00  0.00     0.053 C 
BRANCH   8   9
ATOM      9  C   UNL     1       7.425  15.667  21.916  1.00  0.00     0.041 C 
ATOM     10  O   UNL     1       7.851  14.576  21.455  1.00  0.00    -0.550 OA
ATOM     11  O   UNL     1       8.151  16.832  21.705  1.00  0.00    -0.550 OA
ENDBRANCH   8   9
ENDBRANCH   7   8
ENDBRANCH   6   7
ENDBRANCH   5   6
ENDBRANCH   4   5
ENDBRANCH   3   4
ENDBRANCH   2   3
ENDBRANCH   1   2
BRANCH   1  12
ATOM     12  C   UNL     1      -3.452  17.296  22.779  1.00  0.00     0.000 C 
BRANCH  12  13
ATOM     13  C   UNL     1      -4.241  15.978  22.788  1.00  0.00    -0.000 C 
BRANCH  13  14
ATOM     14  C   UNL     1      -5.325  15.926  21.699  1.00  0.00    -0.000 C 
BRANCH  14  15
ATOM     15  C   UNL     1      -6.117  14.606  21.716  1.00  0.00    -0.000 C 
BRANCH  15  16
ATOM     16  C   UNL     1      -7.599  14.804  21.354  1.00  0.00    -0.000 C 
BRANCH  16  17
ATOM     17  C   UNL     1      -8.328  15.728  22.345  1.00  0.00    -0.000 C 
BRANCH  17  18
ATOM     18  C   UNL     1      -8.731  17.075  21.718  1.00  0.00    -0.000 C 
BRANCH  18  19
ATOM     19  C   UNL     1      -8.346  17.246  20.238  1.00  0.00    -0.003 C 
ATOM     20  C   UNL     1      -8.744  18.607  19.669  1.00  0.00     0.004 C 
ENDBRANCH  18  19
ENDBRANCH  17  18
ENDBRANCH  16  17
ENDBRANCH  15  16
ENDBRANCH  14  15
ENDBRANCH  13  14
ENDBRANCH  12  13
ENDBRANCH   1  12
TORSDOF 16
ENDMDL
MODEL 6
REMARK VINA RESULT:    -3.923      5.774     12.148
REMARK INTER + INTRA:          -8.357
REMARK INTER:                  -7.700
REMARK INTRA:                  -0.657
REMARK UNBOUND:                -0.764
REMARK SMILES CCCCCCCCCCCCCCCCCC(=O)[O-]
REMARK SMILES IDX 10 1 11 2 12 3 13 4 14 5 15 6 16 7 17 8 18 9 19 10 20 11
REMARK SMILES IDX 9 12 8 13 7 14 6 15 5 16 4 17 3 18 2 19 1 20
REMARK H PARENT
REMARK Flexibility Score: inf
ROOT
ATOM      1  C   UNL     1       4.120  15.737  22.715  1.00  0.00     0.000 C 
ENDROOT
BRANCH   1   2
ATOM      2  C   UNL     1       5.401  15.812  21.856  1.00  0.00     0.000 C 
BRANCH   2   3
ATOM      3  C   UNL     1       6.690  15.488  22.633  1.00  0.00     0.000 C 
BRANCH   3   4
ATOM      4  C   UNL     1       7.852  16.471  22.400  1.00  0.00     0.000 C 
BRANCH   4   5
ATOM      5  C   UNL     1       8.013  16.963  20.946  1.00  0.00     0.000 C 
BRANCH   5   6
ATOM      6  C   UNL     1       9.412  17.497  20.589  1.00  0.00     0.000 C 
BRANCH   6   7
ATOM      7  C   UNL     1      10.503  16.416  20.670  1.00  0.00     0.006 C 
BRANCH   7   8
ATOM      8  C   UNL     1      10.392  15.396  19.529  1.00  0.00     0.053 C 
BRANCH   8   9
ATOM      9  C   UNL     1      10.217  14.002  20.048  1.00  0.00     0.041 C 
ATOM     10  O   UNL     1       9.740  13.807  21.197  1.00  0.00    -0.550 OA
ATOM     11  O   UNL     1      10.616  12.919  19.276  1.00  0.00    -0.550 OA
ENDBRANCH   8   9
ENDBRANCH   7   8
ENDBRANCH   6   7
ENDBRANCH   5   6
ENDBRANCH   4   5
ENDBRANCH   3   4
ENDBRANCH   2   3
ENDBRANCH   1   2
BRANCH   1  12
ATOM     12  C   UNL     1       2.887  16.286  21.984  1.00  0.00     0.000 C 
BRANCH  12  13
ATOM     13  C   UNL     1       1.616  16.085  22.823  1.00  0.00    -0.000 C 
BRANCH  13  14
ATOM     14  C   UNL     1       0.333  16.114  21.975  1.00  0.00    -0.000 C 
BRANCH  14  15
ATOM     15  C   UNL     1      -0.913  16.486  22.801  1.00  0.00    -0.000 C 
BRANCH  15  16
ATOM     16  C   UNL     1      -2.187  16.555  21.944  1.00  0.00    -0.000 C 
BRANCH  16  17
ATOM     17  C   UNL     1      -3.470  16.443  22.787  1.00  0.00    -0.000 C 
BRANCH  17  18
ATOM     18  C   UNL     1      -4.751  16.502  21.935  1.00  0.00    -0.000 C 
BRANCH  18  19
ATOM     19  C   UNL     1      -5.342  15.133  21.553  1.00  0.00    -0.003 C 
ATOM     20  C   UNL     1      -6.862  15.161  21.393  1.00  0.00     0.004 C 
ENDBRANCH  18  19
ENDBRANCH  17  18
ENDBRANCH  16  17
ENDBRANCH  15  16
ENDBRANCH  14  15
ENDBRANCH  13  14
ENDBRANCH  12  13
ENDBRANCH   1  12
TORSDOF 16
ENDMDL
MODEL 7
REMARK VINA RESULT:    -3.737      5.388     11.898
REMARK INTER + INTRA:          -7.997
REMARK INTER:                  -7.037
REMARK INTRA:                  -0.960
REMARK UNBOUND:                -0.764
REMARK SMILES CCCCCCCCCCCCCCCCCC(=O)[O-]
REMARK SMILES IDX 10 1 11 2 12 3 13 4 14 5 15 6 16 7 17 8 18 9 19 10 20 11
REMARK SMILES IDX 9 12 8 13 7 14 6 15 5 16 4 17 3 18 2 19 1 20
REMARK H PARENT
REMARK Flexibility Score: inf
ROOT
ATOM      1  C   UNL     1      -1.973  15.910  21.193  1.00  0.00     0.000 C 
ENDROOT
BRANCH   1   2
ATOM      2  C   UNL     1      -0.816  16.401  22.090  1.00  0.00     0.000 C 
BRANCH   2   3
ATOM      3  C   UNL     1       0.567  15.875  21.663  1.00  0.00     0.000 C 
BRANCH   3   4
ATOM      4  C   UNL     1       1.699  16.134  22.675  1.00  0.00     0.000 C 
BRANCH   4   5
ATOM      5  C   UNL     1       3.101  16.318  22.058  1.00  0.00     0.000 C 
BRANCH   5   6
ATOM      6  C   UNL     1       4.232  15.554  22.768  1.00  0.00     0.000 C 
BRANCH   6   7
ATOM      7  C   UNL     1       5.605  15.769  22.108  1.00  0.00     0.006 C 
BRANCH   7   8
ATOM      8  C   UNL     1       6.280  14.443  21.731  1.00  0.00     0.053 C 
BRANCH   8   9
ATOM      9  C   UNL     1       7.773  14.547  21.784  1.00  0.00     0.041 C 
ATOM     10  O   UNL     1       8.486  13.840  21.024  1.00  0.00    -0.550 OA
ATOM     11  O   UNL     1       8.378  15.400  22.698  1.00  0.00    -0.550 OA
ENDBRANCH   8   9
ENDBRANCH   7   8
ENDBRANCH   6   7
ENDBRANCH   5   6
ENDBRANCH   4   5
ENDBRANCH   3   4
ENDBRANCH   2   3
ENDBRANCH   1   2
BRANCH   1  12
ATOM     12  C   UNL     1      -3.285  15.728  21.970  1.00  0.00     0.000 C 
BRANCH  12  13
ATOM     13  C   UNL     1      -3.660  17.013  22.723  1.00  0.00    -0.000 C 
BRANCH  13  14
ATOM     14  C   UNL     1      -4.692  17.866  21.967  1.00  0.00    -0.000 C 
BRANCH  14  15
ATOM     15  C   UNL     1      -5.676  18.578  22.912  1.00  0.00    -0.000 C 
BRANCH  15  16
ATOM     16  C   UNL     1      -7.141  18.207  22.625  1.00  0.00    -0.000 C 
BRANCH  16  17
ATOM     17  C   UNL     1      -7.320  17.545  21.247  1.00  0.00    -0.000 C 
BRANCH  17  18
ATOM     18  C   UNL     1      -8.479  16.532  21.218  1.00  0.00    -0.000 C 
BRANCH  18  19
ATOM     19  C   UNL     1      -8.151  15.151  21.815  1.00  0.00    -0.003 C 
ATOM     20  C   UNL     1      -6.766  14.642  21.419  1.00  0.00     0.004 C 
ENDBRANCH  18  19
ENDBRANCH  17  18
ENDBRANCH  16  17
ENDBRANCH  15  16
ENDBRANCH  14  15
ENDBRANCH  13  14
ENDBRANCH  12  13
ENDBRANCH   1  12
TORSDOF 16
ENDMDL
MODEL 8
REMARK VINA RESULT:    -3.590      1.556      3.249
REMARK INTER + INTRA:          -7.712
REMARK INTER:                  -6.730
REMARK INTRA:                  -0.982
REMARK UNBOUND:                -0.764
REMARK SMILES CCCCCCCCCCCCCCCCCC(=O)[O-]
REMARK SMILES IDX 10 1 11 2 12 3 13 4 14 5 15 6 16 7 17 8 18 9 19 10 20 11
REMARK SMILES IDX 9 12 8 13 7 14 6 15 5 16 4 17 3 18 2 19 1 20
REMARK H PARENT
REMARK Flexibility Score: inf
ROOT
ATOM      1  C   UNL     1       4.648  16.308  21.610  1.00  0.00     0.000 C 
ENDROOT
BRANCH   1   2
ATOM      2  C   UNL     1       3.878  15.591  22.740  1.00  0.00     0.000 C 
BRANCH   2   3
ATOM      3  C   UNL     1       2.500  16.210  23.042  1.00  0.00     0.000 C 
BRANCH   3   4
ATOM      4  C   UNL     1       1.455  16.041  21.923  1.00  0.00     0.000 C 
BRANCH   4   5
ATOM      5  C   UNL     1      -0.009  15.951  22.401  1.00  0.00     0.000 C 
BRANCH   5   6
ATOM      6  C   UNL     1      -1.029  16.703  21.528  1.00  0.00     0.000 C 
BRANCH   6   7
ATOM      7  C   UNL     1      -2.443  16.103  21.609  1.00  0.00     0.006 C 
BRANCH   7   8
ATOM      8  C   UNL     1      -3.406  17.000  22.397  1.00  0.00     0.053 C 
BRANCH   8   9
ATOM      9  C   UNL     1      -4.837  16.675  22.096  1.00  0.00     0.041 C 
ATOM     10  O   UNL     1      -5.619  17.571  21.684  1.00  0.00    -0.550 OA
ATOM     11  O   UNL     1      -5.316  15.388  22.304  1.00  0.00    -0.550 OA
ENDBRANCH   8   9
ENDBRANCH   7   8
ENDBRANCH   6   7
ENDBRANCH   5   6
ENDBRANCH   4   5
ENDBRANCH   3   4
ENDBRANCH   2   3
ENDBRANCH   1   2
BRANCH   1  12
ATOM     12  C   UNL     1       6.167  16.106  21.711  1.00  0.00     0.000 C 
BRANCH  12  13
ATOM     13  C   UNL     1       6.510  14.630  21.957  1.00  0.00    -0.000 C 
BRANCH  13  14
ATOM     14  C   UNL     1       7.877  14.441  22.637  1.00  0.00    -0.000 C 
BRANCH  14  15
ATOM     15  C   UNL     1       8.638  13.214  22.105  1.00  0.00    -0.000 C 
BRANCH  15  16
ATOM     16  C   UNL     1      10.018  13.580  21.533  1.00  0.00    -0.000 C 
BRANCH  16  17
ATOM     17  C   UNL     1       9.940  14.063  20.074  1.00  0.00    -0.000 C 
BRANCH  17  18
ATOM     18  C   UNL     1      10.984  15.147  19.747  1.00  0.00    -0.000 C 
BRANCH  18  19
ATOM     19  C   UNL     1      10.762  16.497  20.452  1.00  0.00    -0.003 C 
ATOM     20  C   UNL     1       9.376  17.087  20.192  1.00  0.00     0.004 C 
ENDBRANCH  18  19
ENDBRANCH  17  18
ENDBRANCH  16  17
ENDBRANCH  15  16
ENDBRANCH  14  15
ENDBRANCH  13  14
ENDBRANCH  12  13
ENDBRANCH   1  12
TORSDOF 16
ENDMDL
MODEL 9
REMARK VINA RESULT:    -3.383      6.269     12.247
REMARK INTER + INTRA:          -7.311
REMARK INTER:                  -6.868
REMARK INTRA:                  -0.442
REMARK UNBOUND:                -0.764
REMARK SMILES CCCCCCCCCCCCCCCCCC(=O)[O-]
REMARK SMILES IDX 10 1 11 2 12 3 13 4 14 5 15 6 16 7 17 8 18 9 19 10 20 11
REMARK SMILES IDX 9 12 8 13 7 14 6 15 5 16 4 17 3 18 2 19 1 20
REMARK H PARENT
REMARK Flexibility Score: inf
ROOT
ATOM      1  C   UNL     1       6.521  16.033  21.298  1.00  0.00     0.000 C 
ENDROOT
BRANCH   1   2
ATOM      2  C   UNL     1       7.689  16.824  21.925  1.00  0.00     0.000 C 
BRANCH   2   3
ATOM      3  C   UNL     1       8.744  17.287  20.904  1.00  0.00     0.000 C 
BRANCH   3   4
ATOM      4  C   UNL     1       9.865  16.269  20.623  1.00  0.00     0.000 C 
BRANCH   4   5
ATOM      5  C   UNL     1       9.854  15.017  21.524  1.00  0.00     0.000 C 
BRANCH   5   6
ATOM      6  C   UNL     1      10.855  13.918  21.127  1.00  0.00     0.000 C 
BRANCH   6   7
ATOM      7  C   UNL     1      10.421  13.138  19.874  1.00  0.00     0.006 C 
BRANCH   7   8
ATOM      8  C   UNL     1      11.125  11.778  19.767  1.00  0.00     0.053 C 
BRANCH   8   9
ATOM      9  C   UNL     1      10.601  10.974  18.617  1.00  0.00     0.041 C 
ATOM     10  O   UNL     1      10.453   9.728  18.728  1.00  0.00    -0.550 OA
ATOM     11  O   UNL     1      10.312  11.595  17.409  1.00  0.00    -0.550 OA
ENDBRANCH   8   9
ENDBRANCH   7   8
ENDBRANCH   6   7
ENDBRANCH   5   6
ENDBRANCH   4   5
ENDBRANCH   3   4
ENDBRANCH   2   3
ENDBRANCH   1   2
BRANCH   1  12
ATOM     12  C   UNL     1       5.329  15.882  22.255  1.00  0.00     0.000 C 
BRANCH  12  13
ATOM     13  C   UNL     1       4.044  16.438  21.624  1.00  0.00    -0.000 C 
BRANCH  13  14
ATOM     14  C   UNL     1       2.790  16.132  22.460  1.00  0.00    -0.000 C 
BRANCH  14  15
ATOM     15  C   UNL     1       1.493  16.224  21.635  1.00  0.00    -0.000 C 
BRANCH  15  16
ATOM     16  C   UNL     1       0.237  15.959  22.483  1.00  0.00    -0.000 C 
BRANCH  16  17
ATOM     17  C   UNL     1      -0.975  16.780  22.008  1.00  0.00    -0.000 C 
BRANCH  17  18
ATOM     18  C   UNL     1      -2.172  15.899  21.606  1.00  0.00    -0.000 C 
BRANCH  18  19
ATOM     19  C   UNL     1      -3.528  16.340  22.186  1.00  0.00    -0.003 C 
ATOM     20  C   UNL     1      -4.706  15.541  21.628  1.00  0.00     0.004 C 
ENDBRANCH  18  19
ENDBRANCH  17  18
ENDBRANCH  16  17
ENDBRANCH  15  16
ENDBRANCH  14  15
ENDBRANCH  13  14
ENDBRANCH  12  13
ENDBRANCH   1  12
TORSDOF 16
ENDMDL
