MODEL 1
REMARK VINA RESULT:    -4.431      0.000      0.000
REMARK INTER + INTRA:         -10.190
REMARK INTER:                  -8.057
REMARK INTRA:                  -2.134
REMARK UNBOUND:                -2.134
REMARK SMILES CCCCCCCCCCCCCCCC(=O)[O-]
REMARK SMILES IDX 9 1 10 2 11 3 12 4 13 5 14 6 15 7 16 8 17 9 18 10 8 11 7 12
REMARK SMILES IDX 6 13 5 14 4 15 3 16 2 17 1 18
REMARK H PARENT
REMARK Flexibility Score: inf
ROOT
ATOM      1  C   UNL     1      24.920  15.309 -13.956  1.00  0.00     0.000 C 
ENDROOT
BRANCH   1   2
ATOM      2  C   UNL     1      25.196  13.843 -13.572  1.00  0.00     0.000 C 
BRANCH   2   3
ATOM      3  C   UNL     1      26.589  13.359 -14.011  1.00  0.00     0.000 C 
BRANCH   3   4
ATOM      4  C   UNL     1      27.441  12.843 -12.838  1.00  0.00     0.000 C 
BRANCH   4   5
ATOM      5  C   UNL     1      26.753  12.874 -11.457  1.00  0.00     0.000 C 
BRANCH   5   6
ATOM      6  C   UNL     1      27.684  12.621 -10.258  1.00  0.00     0.006 C 
BRANCH   6   7
ATOM      7  C   UNL     1      29.019  13.368 -10.374  1.00  0.00     0.053 C 
BRANCH   7   8
ATOM      8  C   UNL     1      28.890  14.756  -9.832  1.00  0.00     0.041 C 
ATOM      9  O   UNL     1      29.121  15.749 -10.572  1.00  0.00    -0.550 OA
ATOM     10  O   UNL     1      28.466  14.957  -8.525  1.00  0.00    -0.550 OA
ENDBRANCH   7   8
ENDBRANCH   6   7
ENDBRANCH   5   6
ENDBRANCH   4   5
ENDBRANCH   3   4
ENDBRANCH   2   3
ENDBRANCH   1   2
BRANCH   1  11
ATOM     11  C   UNL     1      26.012  15.980 -14.809  1.00  0.00     0.000 C 
BRANCH  11  12
ATOM     12  C   UNL     1      26.393  17.380 -14.306  1.00  0.00    -0.000 C 
BRANCH  12  13
ATOM     13  C   UNL     1      26.824  17.337 -12.835  1.00  0.00    -0.000 C 
BRANCH  13  14
ATOM     14  C   UNL     1      26.050  18.372 -12.005  1.00  0.00    -0.000 C 
BRANCH  14  15
ATOM     15  C   UNL     1      25.175  17.730 -10.913  1.00  0.00    -0.000 C 
BRANCH  15  16
ATOM     16  C   UNL     1      25.622  16.326 -10.459  1.00  0.00    -0.000 C 
BRANCH  16  17
ATOM     17  C   UNL     1      25.072  15.877  -9.094  1.00  0.00    -0.003 C 
ATOM     18  C   UNL     1      24.329  14.543  -9.162  1.00  0.00     0.004 C 
ENDBRANCH  16  17
ENDBRANCH  15  16
ENDBRANCH  14  15
ENDBRANCH  13  14
ENDBRANCH  12  13
ENDBRANCH  11  12
ENDBRANCH   1  11
TORSDOF 14
ENDMDL
MODEL 2
REMARK VINA RESULT:    -4.402      2.839      5.276
REMARK INTER + INTRA:         -10.138
REMARK INTER:                  -7.798
REMARK INTRA:                  -2.340
REMARK UNBOUND:                -2.134
REMARK SMILES CCCCCCCCCCCCCCCC(=O)[O-]
REMARK SMILES IDX 9 1 10 2 11 3 12 4 13 5 14 6 15 7 16 8 17 9 18 10 8 11 7 12
REMARK SMILES IDX 6 13 5 14 4 15 3 16 2 17 1 18
REMARK H PARENT
REMARK Flexibility Score: inf
ROOT
ATOM      1  C   UNL     1      25.945  16.319 -13.078  1.00  0.00     0.000 C 
ENDROOT
BRANCH   1   2
ATOM      2  C   UNL     1      26.334  16.547 -11.605  1.00  0.00     0.000 C 
BRANCH   2   3
ATOM      3  C   UNL     1      25.284  17.355 -10.825  1.00  0.00     0.000 C 
BRANCH   3   4
ATOM      4  C   UNL     1      24.901  16.703  -9.485  1.00  0.00     0.000 C 
BRANCH   4   5
ATOM      5  C   UNL     1      24.660  15.179  -9.535  1.00  0.00     0.000 C 
BRANCH   5   6
ATOM      6  C   UNL     1      23.210  14.739  -9.269  1.00  0.00     0.006 C 
BRANCH   6   7
ATOM      7  C   UNL     1      22.380  14.618 -10.554  1.00  0.00     0.053 C 
BRANCH   7   8
ATOM      8  C   UNL     1      21.633  15.887 -10.815  1.00  0.00     0.041 C 
ATOM      9  O   UNL     1      20.738  16.270 -10.016  1.00  0.00    -0.550 OA
ATOM     10  O   UNL     1      21.959  16.673 -11.913  1.00  0.00    -0.550 OA
ENDBRANCH   7   8
ENDBRANCH   6   7
ENDBRANCH   5   6
ENDBRANCH   4   5
ENDBRANCH   3   4
ENDBRANCH   2   3
ENDBRANCH   1   2
BRANCH   1  11
ATOM     11  C   UNL     1      24.816  15.298 -13.307  1.00  0.00     0.000 C 
BRANCH  11  12
ATOM     12  C   UNL     1      25.229  13.858 -12.967  1.00  0.00    -0.000 C 
BRANCH  12  13
ATOM     13  C   UNL     1      26.302  13.349 -13.937  1.00  0.00    -0.000 C 
BRANCH  13  14
ATOM     14  C   UNL     1      27.479  12.723 -13.176  1.00  0.00    -0.000 C 
BRANCH  14  15
ATOM     15  C   UNL     1      27.340  12.849 -11.648  1.00  0.00    -0.000 C 
BRANCH  15  16
ATOM     16  C   UNL     1      28.670  12.989 -10.880  1.00  0.00    -0.000 C 
BRANCH  16  17
ATOM     17  C   UNL     1      29.012  14.419 -10.427  1.00  0.00    -0.003 C 
ATOM     18  C   UNL     1      28.404  14.776  -9.071  1.00  0.00     0.004 C 
ENDBRANCH  16  17
ENDBRANCH  15  16
ENDBRANCH  14  15
ENDBRANCH  13  14
ENDBRANCH  12  13
ENDBRANCH  11  12
ENDBRANCH   1  11
TORSDOF 14
ENDMDL
MODEL 3
REMARK VINA RESULT:    -4.399      2.115      4.270
REMARK INTER + INTRA:         -10.132
REMARK INTER:                  -7.826
REMARK INTRA:                  -2.306
REMARK UNBOUND:                -2.134
REMARK SMILES CCCCCCCCCCCCCCCC(=O)[O-]
REMARK SMILES IDX 9 1 10 2 11 3 12 4 13 5 14 6 15 7 16 8 17 9 18 10 8 11 7 12
REMARK SMILES IDX 6 13 5 14 4 15 3 16 2 17 1 18
REMARK H PARENT
REMARK Flexibility Score: inf
ROOT
ATOM      1  C   UNL     1      27.339  12.920 -11.921  1.00  0.00     0.000 C 
ENDROOT
BRANCH   1   2
ATOM      2  C   UNL     1      27.178  12.972 -13.452  1.00  0.00     0.000 C 
BRANCH   2   3
ATOM      3  C   UNL     1      25.860  13.630 -13.894  1.00  0.00     0.000 C 
BRANCH   3   4
ATOM      4  C   UNL     1      25.013  14.129 -12.710  1.00  0.00     0.000 C 
BRANCH   4   5
ATOM      5  C   UNL     1      24.912  15.663 -12.569  1.00  0.00     0.000 C 
BRANCH   5   6
ATOM      6  C   UNL     1      25.941  16.462 -13.387  1.00  0.00     0.006 C 
BRANCH   6   7
ATOM      7  C   UNL     1      26.600  17.588 -12.579  1.00  0.00     0.053 C 
BRANCH   7   8
ATOM      8  C   UNL     1      25.578  18.597 -12.160  1.00  0.00     0.041 C 
ATOM      9  O   UNL     1      25.342  18.789 -10.937  1.00  0.00    -0.550 OA
ATOM     10  O   UNL     1      24.922  19.361 -13.116  1.00  0.00    -0.550 OA
ENDBRANCH   7   8
ENDBRANCH   6   7
ENDBRANCH   5   6
ENDBRANCH   4   5
ENDBRANCH   3   4
ENDBRANCH   2   3
ENDBRANCH   1   2
BRANCH   1  11
ATOM     11  C   UNL     1      28.793  12.951 -11.413  1.00  0.00     0.000 C 
BRANCH  11  12
ATOM     12  C   UNL     1      29.069  14.114 -10.449  1.00  0.00    -0.000 C 
BRANCH  12  13
ATOM     13  C   UNL     1      27.892  15.096 -10.421  1.00  0.00    -0.000 C 
BRANCH  13  14
ATOM     14  C   UNL     1      27.288  15.191  -9.012  1.00  0.00    -0.000 C 
BRANCH  14  15
ATOM     15  C   UNL     1      25.751  15.100  -9.013  1.00  0.00    -0.000 C 
BRANCH  15  16
ATOM     16  C   UNL     1      25.182  13.667  -9.013  1.00  0.00    -0.000 C 
BRANCH  16  17
ATOM     17  C   UNL     1      23.653  13.573  -9.161  1.00  0.00    -0.003 C 
ATOM     18  C   UNL     1      22.951  14.912  -8.938  1.00  0.00     0.004 C 
ENDBRANCH  16  17
ENDBRANCH  15  16
ENDBRANCH  14  15
ENDBRANCH  13  14
ENDBRANCH  12  13
ENDBRANCH  11  12
ENDBRANCH   1  11
TORSDOF 14
ENDMDL
MODEL 4
REMARK VINA RESULT:    -4.349      3.109      5.667
REMARK INTER + INTRA:         -10.042
REMARK INTER:                  -7.293
REMARK INTRA:                  -2.749
REMARK UNBOUND:                -2.134
REMARK SMILES CCCCCCCCCCCCCCCC(=O)[O-]
REMARK SMILES IDX 9 1 10 2 11 3 12 4 13 5 14 6 15 7 16 8 17 9 18 10 8 11 7 12
REMARK SMILES IDX 6 13 5 14 4 15 3 16 2 17 1 18
REMARK H PARENT
REMARK Flexibility Score: inf
ROOT
ATOM      1  C   UNL     1      26.360  15.149 -12.861  1.00  0.00     0.000 C 
ENDROOT
BRANCH   1   2
ATOM      2  C   UNL     1      26.386  16.649 -13.210  1.00  0.00     0.000 C 
BRANCH   2   3
ATOM      3  C   UNL     1      26.683  17.543 -11.993  1.00  0.00     0.000 C 
BRANCH   3   4
ATOM      4  C   UNL     1      25.616  18.630 -11.774  1.00  0.00     0.000 C 
BRANCH   4   5
ATOM      5  C   UNL     1      24.390  18.197 -10.943  1.00  0.00     0.000 C 
BRANCH   5   6
ATOM      6  C   UNL     1      23.147  17.813 -11.765  1.00  0.00     0.006 C 
BRANCH   6   7
ATOM      7  C   UNL     1      23.159  18.410 -13.178  1.00  0.00     0.053 C 
BRANCH   7   8
ATOM      8  C   UNL     1      22.587  17.438 -14.160  1.00  0.00     0.041 C 
ATOM      9  O   UNL     1      21.344  17.237 -14.202  1.00  0.00    -0.550 OA
ATOM     10  O   UNL     1      23.419  16.791 -15.065  1.00  0.00    -0.550 OA
ENDBRANCH   7   8
ENDBRANCH   6   7
ENDBRANCH   5   6
ENDBRANCH   4   5
ENDBRANCH   3   4
ENDBRANCH   2   3
ENDBRANCH   1   2
BRANCH   1  11
ATOM     11  C   UNL     1      24.975  14.585 -12.495  1.00  0.00     0.000 C 
BRANCH  11  12
ATOM     12  C   UNL     1      24.969  13.829 -11.158  1.00  0.00    -0.000 C 
BRANCH  12  13
ATOM     13  C   UNL     1      24.400  14.703 -10.034  1.00  0.00    -0.000 C 
BRANCH  13  14
ATOM     14  C   UNL     1      25.524  15.261  -9.148  1.00  0.00    -0.000 C 
BRANCH  14  15
ATOM     15  C   UNL     1      26.801  14.402  -9.189  1.00  0.00    -0.000 C 
BRANCH  15  16
ATOM     16  C   UNL     1      28.117  15.194  -9.322  1.00  0.00    -0.000 C 
BRANCH  16  17
ATOM     17  C   UNL     1      29.131  14.607 -10.320  1.00  0.00    -0.003 C 
ATOM     18  C   UNL     1      28.800  13.174 -10.732  1.00  0.00     0.004 C 
ENDBRANCH  16  17
ENDBRANCH  15  16
ENDBRANCH  14  15
ENDBRANCH  13  14
ENDBRANCH  12  13
ENDBRANCH  11  12
ENDBRANCH   1  11
TORSDOF 14
ENDMDL
MODEL 5
REMARK VINA RESULT:    -4.334      2.335      4.595
REMARK INTER + INTRA:         -10.015
REMARK INTER:                  -7.919
REMARK INTRA:                  -2.096
REMARK UNBOUND:                -2.134
REMARK SMILES CCCCCCCCCCCCCCCC(=O)[O-]
REMARK SMILES IDX 9 1 10 2 11 3 12 4 13 5 14 6 15 7 16 8 17 9 18 10 8 11 7 12
REMARK SMILES IDX 6 13 5 14 4 15 3 16 2 17 1 18
REMARK H PARENT
REMARK Flexibility Score: inf
ROOT
ATOM      1  C   UNL     1      27.457  12.784 -13.289  1.00  0.00     0.000 C 
ENDROOT
BRANCH   1   2
ATOM      2  C   UNL     1      26.106  13.294 -13.824  1.00  0.00     0.000 C 
BRANCH   2   3
ATOM      3  C   UNL     1      25.111  13.644 -12.704  1.00  0.00     0.000 C 
BRANCH   3   4
ATOM      4  C   UNL     1      24.510  15.053 -12.857  1.00  0.00     0.000 C 
BRANCH   4   5
ATOM      5  C   UNL     1      25.264  15.993 -13.821  1.00  0.00     0.000 C 
BRANCH   5   6
ATOM      6  C   UNL     1      26.351  16.864 -13.165  1.00  0.00     0.006 C 
BRANCH   6   7
ATOM      7  C   UNL     1      26.377  18.296 -13.714  1.00  0.00     0.053 C 
BRANCH   7   8
ATOM      8  C   UNL     1      27.185  18.358 -14.972  1.00  0.00     0.041 C 
ATOM      9  O   UNL     1      28.444  18.352 -14.917  1.00  0.00    -0.550 OA
ATOM     10  O   UNL     1      26.550  18.374 -16.206  1.00  0.00    -0.550 OA
ENDBRANCH   7   8
ENDBRANCH   6   7
ENDBRANCH   5   6
ENDBRANCH   4   5
ENDBRANCH   3   4
ENDBRANCH   2   3
ENDBRANCH   1   2
BRANCH   1  11
ATOM     11  C   UNL     1      27.584  12.749 -11.755  1.00  0.00     0.000 C 
BRANCH  11  12
ATOM     12  C   UNL     1      29.007  13.051 -11.262  1.00  0.00    -0.000 C 
BRANCH  12  13
ATOM     13  C   UNL     1      29.012  14.229 -10.282  1.00  0.00    -0.000 C 
BRANCH  13  14
ATOM     14  C   UNL     1      27.774  15.116 -10.480  1.00  0.00    -0.000 C 
BRANCH  14  15
ATOM     15  C   UNL     1      26.959  15.304  -9.188  1.00  0.00    -0.000 C 
BRANCH  15  16
ATOM     16  C   UNL     1      25.649  14.494  -9.119  1.00  0.00    -0.000 C 
BRANCH  16  17
ATOM     17  C   UNL     1      24.361  15.331  -9.209  1.00  0.00    -0.003 C 
ATOM     18  C   UNL     1      24.632  16.821  -9.408  1.00  0.00     0.004 C 
ENDBRANCH  16  17
ENDBRANCH  15  16
ENDBRANCH  14  15
ENDBRANCH  13  14
ENDBRANCH  12  13
ENDBRANCH  11  12
ENDBRANCH   1  11
TORSDOF 14
ENDMDL
MODEL 6
REMARK VINA RESULT:    -4.307      3.290      5.758
REMARK INTER + INTRA:          -9.965
REMARK INTER:                  -7.765
REMARK INTRA:                  -2.200
REMARK UNBOUND:                -2.134
REMARK SMILES CCCCCCCCCCCCCCCC(=O)[O-]
REMARK SMILES IDX 9 1 10 2 11 3 12 4 13 5 14 6 15 7 16 8 17 9 18 10 8 11 7 12
REMARK SMILES IDX 6 13 5 14 4 15 3 16 2 17 1 18
REMARK H PARENT
REMARK Flexibility Score: inf
ROOT
ATOM      1  C   UNL     1      28.579  15.056  -9.990  1.00  0.00     0.000 C 
ENDROOT
BRANCH   1   2
ATOM      2  C   UNL     1      27.811  14.890  -8.665  1.00  0.00     0.000 C 
BRANCH   2   3
ATOM      3  C   UNL     1      26.327  15.276  -8.780  1.00  0.00     0.000 C 
BRANCH   3   4
ATOM      4  C   UNL     1      26.040  16.203  -9.974  1.00  0.00     0.000 C 
BRANCH   4   5
ATOM      5  C   UNL     1      24.559  16.587 -10.173  1.00  0.00     0.000 C 
BRANCH   5   6
ATOM      6  C   UNL     1      23.837  17.081  -8.907  1.00  0.00     0.006 C 
BRANCH   6   7
ATOM      7  C   UNL     1      22.413  16.525  -8.779  1.00  0.00     0.053 C 
BRANCH   7   8
ATOM      8  C   UNL     1      21.687  17.201  -7.659  1.00  0.00     0.041 C 
ATOM      9  O   UNL     1      20.557  16.780  -7.292  1.00  0.00    -0.550 OA
ATOM     10  O   UNL     1      22.278  18.262  -6.987  1.00  0.00    -0.550 OA
ENDBRANCH   7   8
ENDBRANCH   6   7
ENDBRANCH   5   6
ENDBRANCH   4   5
ENDBRANCH   3   4
ENDBRANCH   2   3
ENDBRANCH   1   2
BRANCH   1  11
ATOM     11  C   UNL     1      29.000  13.742 -10.673  1.00  0.00     0.000 C 
BRANCH  11  12
ATOM     12  C   UNL     1      27.844  12.740 -10.813  1.00  0.00    -0.000 C 
BRANCH  12  13
ATOM     13  C   UNL     1      27.213  12.821 -12.208  1.00  0.00    -0.000 C 
BRANCH  13  14
ATOM     14  C   UNL     1      25.793  13.404 -12.136  1.00  0.00    -0.000 C 
BRANCH  14  15
ATOM     15  C   UNL     1      24.951  12.792 -11.002  1.00  0.00    -0.000 C 
BRANCH  15  16
ATOM     16  C   UNL     1      23.464  13.198 -11.001  1.00  0.00    -0.000 C 
BRANCH  16  17
ATOM     17  C   UNL     1      22.690  12.828  -9.724  1.00  0.00    -0.003 C 
ATOM     18  C   UNL     1      23.529  12.972  -8.455  1.00  0.00     0.004 C 
ENDBRANCH  16  17
ENDBRANCH  15  16
ENDBRANCH  14  15
ENDBRANCH  13  14
ENDBRANCH  12  13
ENDBRANCH  11  12
ENDBRANCH   1  11
TORSDOF 14
ENDMDL
MODEL 7
REMARK VINA RESULT:    -4.295      3.137      6.365
REMARK INTER + INTRA:          -9.944
REMARK INTER:                  -8.064
REMARK INTRA:                  -1.880
REMARK UNBOUND:                -2.134
REMARK SMILES CCCCCCCCCCCCCCCC(=O)[O-]
REMARK SMILES IDX 9 1 10 2 11 3 12 4 13 5 14 6 15 7 16 8 17 9 18 10 8 11 7 12
REMARK SMILES IDX 6 13 5 14 4 15 3 16 2 17 1 18
REMARK H PARENT
REMARK Flexibility Score: inf
ROOT
ATOM      1  C   UNL     1      25.744  15.242 -10.015  1.00  0.00     0.000 C 
ENDROOT
BRANCH   1   2
ATOM      2  C   UNL     1      25.735  16.374 -11.060  1.00  0.00     0.000 C 
BRANCH   2   3
ATOM      3  C   UNL     1      27.122  16.636 -11.672  1.00  0.00     0.000 C 
BRANCH   3   4
ATOM      4  C   UNL     1      27.209  17.988 -12.403  1.00  0.00     0.000 C 
BRANCH   4   5
ATOM      5  C   UNL     1      26.925  17.940 -13.919  1.00  0.00     0.000 C 
BRANCH   5   6
ATOM      6  C   UNL     1      25.717  18.772 -14.383  1.00  0.00     0.006 C 
BRANCH   6   7
ATOM      7  C   UNL     1      25.887  19.329 -15.802  1.00  0.00     0.053 C 
BRANCH   7   8
ATOM      8  C   UNL     1      24.976  18.622 -16.754  1.00  0.00     0.041 C 
ATOM      9  O   UNL     1      24.191  19.282 -17.487  1.00  0.00    -0.550 OA
ATOM     10  O   UNL     1      25.026  17.240 -16.869  1.00  0.00    -0.550 OA
ENDBRANCH   7   8
ENDBRANCH   6   7
ENDBRANCH   5   6
ENDBRANCH   4   5
ENDBRANCH   3   4
ENDBRANCH   2   3
ENDBRANCH   1   2
BRANCH   1  11
ATOM     11  C   UNL     1      26.960  15.231  -9.071  1.00  0.00     0.000 C 
BRANCH  11  12
ATOM     12  C   UNL     1      27.792  13.945  -9.177  1.00  0.00    -0.000 C 
BRANCH  12  13
ATOM     13  C   UNL     1      28.995  14.143 -10.106  1.00  0.00    -0.000 C 
BRANCH  13  14
ATOM     14  C   UNL     1      29.039  13.056 -11.191  1.00  0.00    -0.000 C 
BRANCH  14  15
ATOM     15  C   UNL     1      27.638  12.626 -11.664  1.00  0.00    -0.000 C 
BRANCH  15  16
ATOM     16  C   UNL     1      27.286  13.028 -13.110  1.00  0.00    -0.000 C 
BRANCH  16  17
ATOM     17  C   UNL     1      25.816  13.421 -13.337  1.00  0.00    -0.003 C 
ATOM     18  C   UNL     1      25.643  14.482 -14.422  1.00  0.00     0.004 C 
ENDBRANCH  16  17
ENDBRANCH  15  16
ENDBRANCH  14  15
ENDBRANCH  13  14
ENDBRANCH  12  13
ENDBRANCH  11  12
ENDBRANCH   1  11
TORSDOF 14
ENDMDL
MODEL 8
REMARK VINA RESULT:    -4.260      2.235      4.893
REMARK INTER + INTRA:          -9.880
REMARK INTER:                  -7.582
REMARK INTRA:                  -2.299
REMARK UNBOUND:                -2.134
REMARK SMILES CCCCCCCCCCCCCCCC(=O)[O-]
REMARK SMILES IDX 9 1 10 2 11 3 12 4 13 5 14 6 15 7 16 8 17 9 18 10 8 11 7 12
REMARK SMILES IDX 6 13 5 14 4 15 3 16 2 17 1 18
REMARK H PARENT
REMARK Flexibility Score: inf
ROOT
ATOM      1  C   UNL     1      26.279  12.627 -10.309  1.00  0.00     0.000 C 
ENDROOT
BRANCH   1   2
ATOM      2  C   UNL     1      25.748  12.972 -11.713  1.00  0.00     0.000 C 
BRANCH   2   3
ATOM      3  C   UNL     1      26.853  12.992 -12.783  1.00  0.00     0.000 C 
BRANCH   3   4
ATOM      4  C   UNL     1      26.357  13.509 -14.146  1.00  0.00     0.000 C 
BRANCH   4   5
ATOM      5  C   UNL     1      25.363  14.687 -14.085  1.00  0.00     0.000 C 
BRANCH   5   6
ATOM      6  C   UNL     1      25.486  15.705 -15.232  1.00  0.00     0.006 C 
BRANCH   6   7
ATOM      7  C   UNL     1      25.156  17.138 -14.796  1.00  0.00     0.053 C 
BRANCH   7   8
ATOM      8  C   UNL     1      26.322  18.040 -15.042  1.00  0.00     0.041 C 
ATOM      9  O   UNL     1      27.374  17.917 -14.359  1.00  0.00    -0.550 OA
ATOM     10  O   UNL     1      26.269  18.985 -16.059  1.00  0.00    -0.550 OA
ENDBRANCH   7   8
ENDBRANCH   6   7
ENDBRANCH   5   6
ENDBRANCH   4   5
ENDBRANCH   3   4
ENDBRANCH   2   3
ENDBRANCH   1   2
BRANCH   1  11
ATOM     11  C   UNL     1      27.810  12.677 -10.155  1.00  0.00     0.000 C 
BRANCH  11  12
ATOM     12  C   UNL     1      28.269  13.589  -9.007  1.00  0.00    -0.000 C 
BRANCH  12  13
ATOM     13  C   UNL     1      27.746  15.018  -9.196  1.00  0.00    -0.000 C 
BRANCH  13  14
ATOM     14  C   UNL     1      28.302  15.642 -10.485  1.00  0.00    -0.000 C 
BRANCH  14  15
ATOM     15  C   UNL     1      27.230  16.388 -11.300  1.00  0.00    -0.000 C 
BRANCH  15  16
ATOM     16  C   UNL     1      25.822  16.398 -10.671  1.00  0.00    -0.000 C 
BRANCH  16  17
ATOM     17  C   UNL     1      24.915  17.554 -11.127  1.00  0.00    -0.003 C 
ATOM     18  C   UNL     1      25.693  18.827 -11.457  1.00  0.00     0.004 C 
ENDBRANCH  16  17
ENDBRANCH  15  16
ENDBRANCH  14  15
ENDBRANCH  13  14
ENDBRANCH  12  13
ENDBRANCH  11  12
ENDBRANCH   1  11
TORSDOF 14
ENDMDL
MODEL 9
REMARK VINA RESULT:    -4.206      3.001      5.781
REMARK INTER + INTRA:          -9.783
REMARK INTER:                  -7.295
REMARK INTRA:                  -2.488
REMARK UNBOUND:                -2.134
REMARK SMILES CCCCCCCCCCCCCCCC(=O)[O-]
REMARK SMILES IDX 9 1 10 2 11 3 12 4 13 5 14 6 15 7 16 8 17 9 18 10 8 11 7 12
REMARK SMILES IDX 6 13 5 14 4 15 3 16 2 17 1 18
REMARK H PARENT
REMARK Flexibility Score: inf
ROOT
ATOM      1  C   UNL     1      25.153  16.207  -9.418  1.00  0.00     0.000 C 
ENDROOT
BRANCH   1   2
ATOM      2  C   UNL     1      24.524  17.522  -9.914  1.00  0.00     0.000 C 
BRANCH   2   3
ATOM      3  C   UNL     1      25.269  18.127 -11.116  1.00  0.00     0.000 C 
BRANCH   3   4
ATOM      4  C   UNL     1      26.471  17.277 -11.565  1.00  0.00     0.000 C 
BRANCH   4   5
ATOM      5  C   UNL     1      26.304  16.559 -12.921  1.00  0.00     0.000 C 
BRANCH   5   6
ATOM      6  C   UNL     1      24.854  16.442 -13.423  1.00  0.00     0.006 C 
BRANCH   6   7
ATOM      7  C   UNL     1      24.752  15.756 -14.792  1.00  0.00     0.053 C 
BRANCH   7   8
ATOM      8  C   UNL     1      24.215  16.707 -15.814  1.00  0.00     0.041 C 
ATOM      9  O   UNL     1      23.683  17.791 -15.452  1.00  0.00    -0.550 OA
ATOM     10  O   UNL     1      24.344  16.422 -17.166  1.00  0.00    -0.550 OA
ENDBRANCH   7   8
ENDBRANCH   6   7
ENDBRANCH   5   6
ENDBRANCH   4   5
ENDBRANCH   3   4
ENDBRANCH   2   3
ENDBRANCH   1   2
BRANCH   1  11
ATOM     11  C   UNL     1      24.172  15.031  -9.252  1.00  0.00     0.000 C 
BRANCH  11  12
ATOM     12  C   UNL     1      24.779  13.680  -9.656  1.00  0.00    -0.000 C 
BRANCH  12  13
ATOM     13  C   UNL     1      24.771  13.505 -11.179  1.00  0.00    -0.000 C 
BRANCH  13  14
ATOM     14  C   UNL     1      26.144  13.044 -11.688  1.00  0.00    -0.000 C 
BRANCH  14  15
ATOM     15  C   UNL     1      27.236  13.104 -10.604  1.00  0.00    -0.000 C 
BRANCH  15  16
ATOM     16  C   UNL     1      28.369  14.115 -10.873  1.00  0.00    -0.000 C 
BRANCH  16  17
ATOM     17  C   UNL     1      28.903  14.841  -9.626  1.00  0.00    -0.003 C 
ATOM     18  C   UNL     1      28.145  14.472  -8.352  1.00  0.00     0.004 C 
ENDBRANCH  16  17
ENDBRANCH  15  16
ENDBRANCH  14  15
ENDBRANCH  13  14
ENDBRANCH  12  13
ENDBRANCH  11  12
ENDBRANCH   1  11
TORSDOF 14
ENDMDL
