MODEL 1
REMARK VINA RESULT:    -5.220      0.000      0.000
REMARK INTER + INTRA:         -14.242
REMARK INTER:                 -11.323
REMARK INTRA:                  -2.919
REMARK UNBOUND:                -2.919
REMARK SMILES CCCCCCCCCCCCCCCCCCCCCC(=O)[O-]
REMARK SMILES IDX 12 1 11 2 10 3 9 4 8 5 7 6 6 7 5 8 4 9 3 10 2 11 1 12 13 13
REMARK SMILES IDX 14 14 15 15 16 16 17 17 18 18 19 19 20 20 21 21 22 22 23 23
REMARK SMILES IDX 24 24
REMARK H PARENT
REMARK Flexibility Score: inf
ROOT
ATOM      1  C   UNL     1       4.217   7.399  12.505  1.00  0.00     0.000 C 
ENDROOT
BRANCH   1   2
ATOM      2  C   UNL     1       3.104   8.307  13.055  1.00  0.00     0.000 C 
BRANCH   2   3
ATOM      3  C   UNL     1       3.554   9.129  14.275  1.00  0.00     0.000 C 
BRANCH   3   4
ATOM      4  C   UNL     1       2.681   8.956  15.537  1.00  0.00    -0.000 C 
BRANCH   4   5
ATOM      5  C   UNL     1       1.953   7.604  15.656  1.00  0.00    -0.000 C 
BRANCH   5   6
ATOM      6  C   UNL     1       2.287   6.858  16.958  1.00  0.00    -0.000 C 
BRANCH   6   7
ATOM      7  C   UNL     1       3.076   5.558  16.716  1.00  0.00    -0.000 C 
BRANCH   7   8
ATOM      8  C   UNL     1       4.576   5.623  17.072  1.00  0.00    -0.000 C 
BRANCH   8   9
ATOM      9  C   UNL     1       5.441   6.452  16.106  1.00  0.00    -0.000 C 
BRANCH   9  10
ATOM     10  C   UNL     1       5.936   5.635  14.902  1.00  0.00    -0.000 C 
BRANCH  10  11
ATOM     11  C   UNL     1       7.282   6.139  14.360  1.00  0.00    -0.003 C 
ATOM     12  C   UNL     1       8.447   5.221  14.731  1.00  0.00     0.004 C 
ENDBRANCH  10  11
ENDBRANCH   9  10
ENDBRANCH   8   9
ENDBRANCH   7   8
ENDBRANCH   6   7
ENDBRANCH   5   6
ENDBRANCH   4   5
ENDBRANCH   3   4
ENDBRANCH   2   3
ENDBRANCH   1   2
BRANCH   1  13
ATOM     13  C   UNL     1       3.819   6.710  11.190  1.00  0.00     0.000 C 
BRANCH  13  14
ATOM     14  C   UNL     1       3.426   7.714  10.095  1.00  0.00     0.000 C 
BRANCH  14  15
ATOM     15  C   UNL     1       4.639   8.100   9.241  1.00  0.00     0.000 C 
BRANCH  15  16
ATOM     16  C   UNL     1       4.910   9.611   9.320  1.00  0.00     0.000 C 
BRANCH  16  17
ATOM     17  C   UNL     1       5.885   9.983  10.448  1.00  0.00     0.000 C 
BRANCH  17  18
ATOM     18  C   UNL     1       7.357   9.848  10.028  1.00  0.00     0.000 C 
BRANCH  18  19
ATOM     19  C   UNL     1       8.199   9.068  11.051  1.00  0.00     0.000 C 
BRANCH  19  20
ATOM     20  C   UNL     1       7.593   7.702  11.441  1.00  0.00     0.006 C 
BRANCH  20  21
ATOM     21  C   UNL     1       7.771   6.654  10.334  1.00  0.00     0.053 C 
BRANCH  21  22
ATOM     22  C   UNL     1       9.081   5.946  10.488  1.00  0.00     0.041 C 
ATOM     23  O   UNL     1       9.466   5.567  11.624  1.00  0.00    -0.550 OA
ATOM     24  O   UNL     1       9.900   5.752   9.382  1.00  0.00    -0.550 OA
ENDBRANCH  21  22
ENDBRANCH  20  21
ENDBRANCH  19  20
ENDBRANCH  18  19
ENDBRANCH  17  18
ENDBRANCH  16  17
ENDBRANCH  15  16
ENDBRANCH  14  15
ENDBRANCH  13  14
ENDBRANCH   1  13
TORSDOF 20
ENDMDL
MODEL 2
REMARK VINA RESULT:    -5.093      1.033      1.617
REMARK INTER + INTRA:         -13.966
REMARK INTER:                 -11.017
REMARK INTRA:                  -2.949
REMARK UNBOUND:                -2.919
REMARK SMILES CCCCCCCCCCCCCCCCCCCCCC(=O)[O-]
REMARK SMILES IDX 12 1 11 2 10 3 9 4 8 5 7 6 6 7 5 8 4 9 3 10 2 11 1 12 13 13
REMARK SMILES IDX 14 14 15 15 16 16 17 17 18 18 19 19 20 20 21 21 22 22 23 23
REMARK SMILES IDX 24 24
REMARK H PARENT
REMARK Flexibility Score: inf
ROOT
ATOM      1  C   UNL     1       4.595   6.799  10.930  1.00  0.00     0.000 C 
ENDROOT
BRANCH   1   2
ATOM      2  C   UNL     1       3.636   7.610  11.819  1.00  0.00     0.000 C 
BRANCH   2   3
ATOM      3  C   UNL     1       4.338   8.236  13.036  1.00  0.00     0.000 C 
BRANCH   3   4
ATOM      4  C   UNL     1       3.411   8.576  14.222  1.00  0.00    -0.000 C 
BRANCH   4   5
ATOM      5  C   UNL     1       4.109   9.183  15.453  1.00  0.00    -0.000 C 
BRANCH   5   6
ATOM      6  C   UNL     1       3.669   8.530  16.774  1.00  0.00    -0.000 C 
BRANCH   6   7
ATOM      7  C   UNL     1       2.711   7.343  16.562  1.00  0.00    -0.000 C 
BRANCH   7   8
ATOM      8  C   UNL     1       3.327   5.949  16.805  1.00  0.00    -0.000 C 
BRANCH   8   9
ATOM      9  C   UNL     1       4.865   5.913  16.843  1.00  0.00    -0.000 C 
BRANCH   9  10
ATOM     10  C   UNL     1       5.486   5.629  15.466  1.00  0.00    -0.000 C 
BRANCH  10  11
ATOM     11  C   UNL     1       6.722   6.498  15.187  1.00  0.00    -0.003 C 
ATOM     12  C   UNL     1       7.821   5.737  14.444  1.00  0.00     0.004 C 
ENDBRANCH  10  11
ENDBRANCH   9  10
ENDBRANCH   8   9
ENDBRANCH   7   8
ENDBRANCH   6   7
ENDBRANCH   5   6
ENDBRANCH   4   5
ENDBRANCH   3   4
ENDBRANCH   2   3
ENDBRANCH   1   2
BRANCH   1  13
ATOM     13  C   UNL     1       4.931   7.522   9.616  1.00  0.00     0.000 C 
BRANCH  13  14
ATOM     14  C   UNL     1       4.307   8.924   9.539  1.00  0.00     0.000 C 
BRANCH  14  15
ATOM     15  C   UNL     1       5.331  10.004   9.909  1.00  0.00     0.000 C 
BRANCH  15  16
ATOM     16  C   UNL     1       6.474  10.054   8.883  1.00  0.00     0.000 C 
BRANCH  16  17
ATOM     17  C   UNL     1       7.847   9.759   9.506  1.00  0.00     0.000 C 
BRANCH  17  18
ATOM     18  C   UNL     1       7.884  10.036  11.018  1.00  0.00     0.000 C 
BRANCH  18  19
ATOM     19  C   UNL     1       8.389   8.834  11.832  1.00  0.00     0.000 C 
BRANCH  19  20
ATOM     20  C   UNL     1       7.962   7.469  11.251  1.00  0.00     0.006 C 
BRANCH  20  21
ATOM     21  C   UNL     1       9.134   6.483  11.168  1.00  0.00     0.053 C 
BRANCH  21  22
ATOM     22  C   UNL     1       9.122   5.762   9.856  1.00  0.00     0.041 C 
ATOM     23  O   UNL     1       8.048   5.287   9.405  1.00  0.00    -0.550 OA
ATOM     24  O   UNL     1      10.308   5.569   9.157  1.00  0.00    -0.550 OA
ENDBRANCH  21  22
ENDBRANCH  20  21
ENDBRANCH  19  20
ENDBRANCH  18  19
ENDBRANCH  17  18
ENDBRANCH  16  17
ENDBRANCH  15  16
ENDBRANCH  14  15
ENDBRANCH  13  14
ENDBRANCH   1  13
TORSDOF 20
ENDMDL
MODEL 3
REMARK VINA RESULT:    -5.053      3.391      6.857
REMARK INTER + INTRA:         -13.881
REMARK INTER:                 -11.326
REMARK INTRA:                  -2.555
REMARK UNBOUND:                -2.919
REMARK SMILES CCCCCCCCCCCCCCCCCCCCCC(=O)[O-]
REMARK SMILES IDX 12 1 11 2 10 3 9 4 8 5 7 6 6 7 5 8 4 9 3 10 2 11 1 12 13 13
REMARK SMILES IDX 14 14 15 15 16 16 17 17 18 18 19 19 20 20 21 21 22 22 23 23
REMARK SMILES IDX 24 24
REMARK H PARENT
REMARK Flexibility Score: inf
ROOT
ATOM      1  C   UNL     1       2.100   7.879  13.106  1.00  0.00     0.000 C 
ENDROOT
BRANCH   1   2
ATOM      2  C   UNL     1       2.028   8.287  11.624  1.00  0.00     0.000 C 
BRANCH   2   3
ATOM      3  C   UNL     1       2.589   7.208  10.682  1.00  0.00     0.000 C 
BRANCH   3   4
ATOM      4  C   UNL     1       4.100   6.932  10.830  1.00  0.00    -0.000 C 
BRANCH   4   5
ATOM      5  C   UNL     1       4.962   7.300   9.608  1.00  0.00    -0.000 C 
BRANCH   5   6
ATOM      6  C   UNL     1       5.433   8.764   9.627  1.00  0.00    -0.000 C 
BRANCH   6   7
ATOM      7  C   UNL     1       5.951   9.206  11.008  1.00  0.00    -0.000 C 
BRANCH   7   8
ATOM      8  C   UNL     1       7.486   9.210  11.165  1.00  0.00    -0.000 C 
BRANCH   8   9
ATOM      9  C   UNL     1       8.204   7.975  10.594  1.00  0.00    -0.000 C 
BRANCH   9  10
ATOM     10  C   UNL     1       8.196   6.782  11.566  1.00  0.00    -0.000 C 
BRANCH  10  11
ATOM     11  C   UNL     1       9.257   5.729  11.214  1.00  0.00    -0.003 C 
ATOM     12  C   UNL     1       9.520   5.638   9.711  1.00  0.00     0.004 C 
ENDBRANCH  10  11
ENDBRANCH   9  10
ENDBRANCH   8   9
ENDBRANCH   7   8
ENDBRANCH   6   7
ENDBRANCH   5   6
ENDBRANCH   4   5
ENDBRANCH   3   4
ENDBRANCH   2   3
ENDBRANCH   1   2
BRANCH   1  13
ATOM     13  C   UNL     1       2.649   9.002  14.000  1.00  0.00     0.000 C 
BRANCH  13  14
ATOM     14  C   UNL     1       4.148   8.840  14.294  1.00  0.00     0.000 C 
BRANCH  14  15
ATOM     15  C   UNL     1       4.640   7.443  13.896  1.00  0.00     0.000 C 
BRANCH  15  16
ATOM     16  C   UNL     1       6.052   7.180  14.443  1.00  0.00     0.000 C 
BRANCH  16  17
ATOM     17  C   UNL     1       6.102   5.996  15.421  1.00  0.00     0.000 C 
BRANCH  17  18
ATOM     18  C   UNL     1       5.160   6.180  16.623  1.00  0.00     0.000 C 
BRANCH  18  19
ATOM     19  C   UNL     1       4.214   4.985  16.827  1.00  0.00     0.000 C 
BRANCH  19  20
ATOM     20  C   UNL     1       2.816   5.383  17.347  1.00  0.00     0.006 C 
BRANCH  20  21
ATOM     21  C   UNL     1       2.494   6.858  17.069  1.00  0.00     0.053 C 
BRANCH  21  22
ATOM     22  C   UNL     1       2.615   7.667  18.322  1.00  0.00     0.041 C 
ATOM     23  O   UNL     1       2.668   7.095  19.442  1.00  0.00    -0.550 OA
ATOM     24  O   UNL     1       2.618   9.055  18.257  1.00  0.00    -0.550 OA
ENDBRANCH  21  22
ENDBRANCH  20  21
ENDBRANCH  19  20
ENDBRANCH  18  19
ENDBRANCH  17  18
ENDBRANCH  16  17
ENDBRANCH  15  16
ENDBRANCH  14  15
ENDBRANCH  13  14
ENDBRANCH   1  13
TORSDOF 20
ENDMDL
MODEL 4
REMARK VINA RESULT:    -5.013      1.108      4.957
REMARK INTER + INTRA:         -13.794
REMARK INTER:                 -10.628
REMARK INTRA:                  -3.166
REMARK UNBOUND:                -2.919
REMARK SMILES CCCCCCCCCCCCCCCCCCCCCC(=O)[O-]
REMARK SMILES IDX 12 1 11 2 10 3 9 4 8 5 7 6 6 7 5 8 4 9 3 10 2 11 1 12 13 13
REMARK SMILES IDX 14 14 15 15 16 16 17 17 18 18 19 19 20 20 21 21 22 22 23 23
REMARK SMILES IDX 24 24
REMARK H PARENT
REMARK Flexibility Score: inf
ROOT
ATOM      1  C   UNL     1       2.367   5.487  17.911  1.00  0.00     0.000 C 
ENDROOT
BRANCH   1   2
ATOM      2  C   UNL     1       2.002   6.768  17.140  1.00  0.00     0.000 C 
BRANCH   2   3
ATOM      3  C   UNL     1       2.282   8.048  17.946  1.00  0.00     0.000 C 
BRANCH   3   4
ATOM      4  C   UNL     1       3.189   9.078  17.239  1.00  0.00    -0.000 C 
BRANCH   4   5
ATOM      5  C   UNL     1       2.894   9.302  15.744  1.00  0.00    -0.000 C 
BRANCH   5   6
ATOM      6  C   UNL     1       4.125   9.076  14.851  1.00  0.00    -0.000 C 
BRANCH   6   7
ATOM      7  C   UNL     1       3.782   9.081  13.350  1.00  0.00    -0.000 C 
BRANCH   7   8
ATOM      8  C   UNL     1       3.196   7.762  12.804  1.00  0.00    -0.000 C 
BRANCH   8   9
ATOM      9  C   UNL     1       3.903   7.201  11.558  1.00  0.00    -0.000 C 
BRANCH   9  10
ATOM     10  C   UNL     1       3.372   7.810  10.249  1.00  0.00    -0.000 C 
BRANCH  10  11
ATOM     11  C   UNL     1       4.496   8.142   9.256  1.00  0.00    -0.003 C 
ATOM     12  C   UNL     1       5.494   9.157   9.814  1.00  0.00     0.004 C 
ENDBRANCH  10  11
ENDBRANCH   9  10
ENDBRANCH   8   9
ENDBRANCH   7   8
ENDBRANCH   6   7
ENDBRANCH   5   6
ENDBRANCH   4   5
ENDBRANCH   3   4
ENDBRANCH   2   3
ENDBRANCH   1   2
BRANCH   1  13
ATOM     13  C   UNL     1       3.676   4.855  17.414  1.00  0.00     0.000 C 
BRANCH  13  14
ATOM     14  C   UNL     1       4.920   5.611  17.907  1.00  0.00     0.000 C 
BRANCH  14  15
ATOM     15  C   UNL     1       5.665   6.267  16.738  1.00  0.00     0.000 C 
BRANCH  15  16
ATOM     16  C   UNL     1       5.057   5.846  15.391  1.00  0.00     0.000 C 
BRANCH  16  17
ATOM     17  C   UNL     1       6.121   5.567  14.318  1.00  0.00     0.000 C 
BRANCH  17  18
ATOM     18  C   UNL     1       7.368   6.453  14.476  1.00  0.00     0.000 C 
BRANCH  18  19
ATOM     19  C   UNL     1       7.550   7.439  13.310  1.00  0.00     0.000 C 
BRANCH  19  20
ATOM     20  C   UNL     1       7.437   6.779  11.918  1.00  0.00     0.006 C 
BRANCH  20  21
ATOM     21  C   UNL     1       8.640   7.108  11.023  1.00  0.00     0.053 C 
BRANCH  21  22
ATOM     22  C   UNL     1       8.821   6.052   9.979  1.00  0.00     0.041 C 
ATOM     23  O   UNL     1       7.827   5.413   9.546  1.00  0.00    -0.550 OA
ATOM     24  O   UNL     1      10.095   5.738   9.520  1.00  0.00    -0.550 OA
ENDBRANCH  21  22
ENDBRANCH  20  21
ENDBRANCH  19  20
ENDBRANCH  18  19
ENDBRANCH  17  18
ENDBRANCH  16  17
ENDBRANCH  15  16
ENDBRANCH  14  15
ENDBRANCH  13  14
ENDBRANCH   1  13
TORSDOF 20
ENDMDL
MODEL 5
REMARK VINA RESULT:    -4.991      1.512      5.965
REMARK INTER + INTRA:         -13.746
REMARK INTER:                 -10.829
REMARK INTRA:                  -2.917
REMARK UNBOUND:                -2.919
REMARK SMILES CCCCCCCCCCCCCCCCCCCCCC(=O)[O-]
REMARK SMILES IDX 12 1 11 2 10 3 9 4 8 5 7 6 6 7 5 8 4 9 3 10 2 11 1 12 13 13
REMARK SMILES IDX 14 14 15 15 16 16 17 17 18 18 19 19 20 20 21 21 22 22 23 23
REMARK SMILES IDX 24 24
REMARK H PARENT
REMARK Flexibility Score: inf
ROOT
ATOM      1  C   UNL     1       4.382   6.997  12.619  1.00  0.00     0.000 C 
ENDROOT
BRANCH   1   2
ATOM      2  C   UNL     1       4.320   6.658  11.119  1.00  0.00     0.000 C 
BRANCH   2   3
ATOM      3  C   UNL     1       3.018   7.137  10.454  1.00  0.00     0.000 C 
BRANCH   3   4
ATOM      4  C   UNL     1       3.149   8.425   9.614  1.00  0.00    -0.000 C 
BRANCH   4   5
ATOM      5  C   UNL     1       4.508   8.623   8.917  1.00  0.00    -0.000 C 
BRANCH   5   6
ATOM      6  C   UNL     1       5.229   9.905   9.365  1.00  0.00    -0.000 C 
BRANCH   6   7
ATOM      7  C   UNL     1       6.761   9.763   9.354  1.00  0.00    -0.000 C 
BRANCH   7   8
ATOM      8  C   UNL     1       7.423   9.656  10.744  1.00  0.00    -0.000 C 
BRANCH   8   9
ATOM      9  C   UNL     1       8.251   8.380  10.976  1.00  0.00    -0.000 C 
BRANCH   9  10
ATOM     10  C   UNL     1       7.587   7.125  10.384  1.00  0.00    -0.000 C 
BRANCH  10  11
ATOM     11  C   UNL     1       8.593   5.995  10.122  1.00  0.00    -0.003 C 
ATOM     12  C   UNL     1       9.414   5.638  11.362  1.00  0.00     0.004 C 
ENDBRANCH  10  11
ENDBRANCH   9  10
ENDBRANCH   8   9
ENDBRANCH   7   8
ENDBRANCH   6   7
ENDBRANCH   5   6
ENDBRANCH   4   5
ENDBRANCH   3   4
ENDBRANCH   2   3
ENDBRANCH   1   2
BRANCH   1  13
ATOM     13  C   UNL     1       4.471   8.510  12.876  1.00  0.00     0.000 C 
BRANCH  13  14
ATOM     14  C   UNL     1       3.940   8.902  14.264  1.00  0.00     0.000 C 
BRANCH  14  15
ATOM     15  C   UNL     1       2.408   8.848  14.304  1.00  0.00     0.000 C 
BRANCH  15  16
ATOM     16  C   UNL     1       1.912   8.291  15.647  1.00  0.00     0.000 C 
BRANCH  16  17
ATOM     17  C   UNL     1       2.399   6.858  15.915  1.00  0.00     0.000 C 
BRANCH  17  18
ATOM     18  C   UNL     1       3.263   6.753  17.183  1.00  0.00     0.000 C 
BRANCH  18  19
ATOM     19  C   UNL     1       4.432   5.767  17.026  1.00  0.00     0.000 C 
BRANCH  19  20
ATOM     20  C   UNL     1       5.691   6.394  16.388  1.00  0.00     0.006 C 
BRANCH  20  21
ATOM     21  C   UNL     1       6.066   5.716  15.064  1.00  0.00     0.053 C 
BRANCH  21  22
ATOM     22  C   UNL     1       7.427   6.151  14.619  1.00  0.00     0.041 C 
ATOM     23  O   UNL     1       7.570   7.229  13.985  1.00  0.00    -0.550 OA
ATOM     24  O   UNL     1       8.530   5.341  14.858  1.00  0.00    -0.550 OA
ENDBRANCH  21  22
ENDBRANCH  20  21
ENDBRANCH  19  20
ENDBRANCH  18  19
ENDBRANCH  17  18
ENDBRANCH  16  17
ENDBRANCH  15  16
ENDBRANCH  14  15
ENDBRANCH  13  14
ENDBRANCH   1  13
TORSDOF 20
ENDMDL
MODEL 6
REMARK VINA RESULT:    -4.957      2.355      4.296
REMARK INTER + INTRA:         -13.671
REMARK INTER:                 -10.764
REMARK INTRA:                  -2.907
REMARK UNBOUND:                -2.919
REMARK SMILES CCCCCCCCCCCCCCCCCCCCCC(=O)[O-]
REMARK SMILES IDX 12 1 11 2 10 3 9 4 8 5 7 6 6 7 5 8 4 9 3 10 2 11 1 12 13 13
REMARK SMILES IDX 14 14 15 15 16 16 17 17 18 18 19 19 20 20 21 21 22 22 23 23
REMARK SMILES IDX 24 24
REMARK H PARENT
REMARK Flexibility Score: inf
ROOT
ATOM      1  C   UNL     1       7.583   6.186  14.210  1.00  0.00     0.000 C 
ENDROOT
BRANCH   1   2
ATOM      2  C   UNL     1       6.458   6.335  15.249  1.00  0.00     0.000 C 
BRANCH   2   3
ATOM      3  C   UNL     1       5.138   6.826  14.631  1.00  0.00     0.000 C 
BRANCH   3   4
ATOM      4  C   UNL     1       4.443   7.970  15.399  1.00  0.00    -0.000 C 
BRANCH   4   5
ATOM      5  C   UNL     1       2.911   8.032  15.249  1.00  0.00    -0.000 C 
BRANCH   5   6
ATOM      6  C   UNL     1       2.242   8.926  16.305  1.00  0.00    -0.000 C 
BRANCH   6   7
ATOM      7  C   UNL     1       2.921   8.834  17.683  1.00  0.00    -0.000 C 
BRANCH   7   8
ATOM      8  C   UNL     1       2.094   8.128  18.779  1.00  0.00    -0.000 C 
BRANCH   8   9
ATOM      9  C   UNL     1       2.598   6.731  19.178  1.00  0.00    -0.000 C 
BRANCH   9  10
ATOM     10  C   UNL     1       2.048   5.619  18.269  1.00  0.00    -0.000 C 
BRANCH  10  11
ATOM     11  C   UNL     1       3.134   4.991  17.383  1.00  0.00    -0.003 C 
ATOM     12  C   UNL     1       4.541   5.192  17.946  1.00  0.00     0.004 C 
ENDBRANCH  10  11
ENDBRANCH   9  10
ENDBRANCH   8   9
ENDBRANCH   7   8
ENDBRANCH   6   7
ENDBRANCH   5   6
ENDBRANCH   4   5
ENDBRANCH   3   4
ENDBRANCH   2   3
ENDBRANCH   1   2
BRANCH   1  13
ATOM     13  C   UNL     1       7.199   6.770  12.841  1.00  0.00     0.000 C 
BRANCH  13  14
ATOM     14  C   UNL     1       8.399   6.867  11.886  1.00  0.00     0.000 C 
BRANCH  14  15
ATOM     15  C   UNL     1       7.964   6.647  10.431  1.00  0.00     0.000 C 
BRANCH  15  16
ATOM     16  C   UNL     1       6.892   7.666  10.017  1.00  0.00     0.000 C 
BRANCH  16  17
ATOM     17  C   UNL     1       7.363   9.121  10.166  1.00  0.00     0.000 C 
BRANCH  17  18
ATOM     18  C   UNL     1       6.257  10.051  10.691  1.00  0.00     0.000 C 
BRANCH  18  19
ATOM     19  C   UNL     1       4.846   9.475  10.486  1.00  0.00     0.000 C 
BRANCH  19  20
ATOM     20  C   UNL     1       4.134   9.096  11.802  1.00  0.00     0.006 C 
BRANCH  20  21
ATOM     21  C   UNL     1       2.744   8.496  11.555  1.00  0.00     0.053 C 
BRANCH  21  22
ATOM     22  C   UNL     1       2.860   7.086  11.067  1.00  0.00     0.041 C 
ATOM     23  O   UNL     1       1.903   6.549  10.451  1.00  0.00    -0.550 OA
ATOM     24  O   UNL     1       4.006   6.348  11.336  1.00  0.00    -0.550 OA
ENDBRANCH  21  22
ENDBRANCH  20  21
ENDBRANCH  19  20
ENDBRANCH  18  19
ENDBRANCH  17  18
ENDBRANCH  16  17
ENDBRANCH  15  16
ENDBRANCH  14  15
ENDBRANCH  13  14
ENDBRANCH   1  13
TORSDOF 20
ENDMDL
MODEL 7
REMARK VINA RESULT:    -4.916      2.357      4.642
REMARK INTER + INTRA:         -13.583
REMARK INTER:                 -11.076
REMARK INTRA:                  -2.507
REMARK UNBOUND:                -2.919
REMARK SMILES CCCCCCCCCCCCCCCCCCCCCC(=O)[O-]
REMARK SMILES IDX 12 1 11 2 10 3 9 4 8 5 7 6 6 7 5 8 4 9 3 10 2 11 1 12 13 13
REMARK SMILES IDX 14 14 15 15 16 16 17 17 18 18 19 19 20 20 21 21 22 22 23 23
REMARK SMILES IDX 24 24
REMARK H PARENT
REMARK Flexibility Score: inf
ROOT
ATOM      1  C   UNL     1       8.262   6.101  12.993  1.00  0.00     0.000 C 
ENDROOT
BRANCH   1   2
ATOM      2  C   UNL     1       7.714   5.814  14.402  1.00  0.00     0.000 C 
BRANCH   2   3
ATOM      3  C   UNL     1       6.537   6.731  14.781  1.00  0.00     0.000 C 
BRANCH   3   4
ATOM      4  C   UNL     1       5.248   5.997  15.206  1.00  0.00    -0.000 C 
BRANCH   4   5
ATOM      5  C   UNL     1       4.958   5.994  16.719  1.00  0.00    -0.000 C 
BRANCH   5   6
ATOM      6  C   UNL     1       4.007   4.863  17.144  1.00  0.00    -0.000 C 
BRANCH   6   7
ATOM      7  C   UNL     1       2.810   5.369  17.969  1.00  0.00    -0.000 C 
BRANCH   7   8
ATOM      8  C   UNL     1       2.267   6.755  17.561  1.00  0.00    -0.000 C 
BRANCH   8   9
ATOM      9  C   UNL     1       2.650   7.909  18.503  1.00  0.00    -0.000 C 
BRANCH   9  10
ATOM     10  C   UNL     1       2.154   9.275  18.001  1.00  0.00    -0.000 C 
BRANCH  10  11
ATOM     11  C   UNL     1       2.676   9.611  16.596  1.00  0.00    -0.003 C 
ATOM     12  C   UNL     1       4.201   9.549  16.504  1.00  0.00     0.004 C 
ENDBRANCH  10  11
ENDBRANCH   9  10
ENDBRANCH   8   9
ENDBRANCH   7   8
ENDBRANCH   6   7
ENDBRANCH   5   6
ENDBRANCH   4   5
ENDBRANCH   3   4
ENDBRANCH   2   3
ENDBRANCH   1   2
BRANCH   1  13
ATOM     13  C   UNL     1       7.604   7.330  12.346  1.00  0.00     0.000 C 
BRANCH  13  14
ATOM     14  C   UNL     1       8.243   7.696  10.997  1.00  0.00     0.000 C 
BRANCH  14  15
ATOM     15  C   UNL     1       8.127   9.201  10.723  1.00  0.00     0.000 C 
BRANCH  15  16
ATOM     16  C   UNL     1       6.658   9.650  10.727  1.00  0.00     0.000 C 
BRANCH  16  17
ATOM     17  C   UNL     1       6.078   9.805   9.313  1.00  0.00     0.000 C 
BRANCH  17  18
ATOM     18  C   UNL     1       4.781   9.003   9.113  1.00  0.00     0.000 C 
BRANCH  18  19
ATOM     19  C   UNL     1       4.904   7.545   9.584  1.00  0.00     0.000 C 
BRANCH  19  20
ATOM     20  C   UNL     1       3.720   7.073  10.456  1.00  0.00     0.006 C 
BRANCH  20  21
ATOM     21  C   UNL     1       4.101   6.964  11.938  1.00  0.00     0.053 C 
BRANCH  21  22
ATOM     22  C   UNL     1       3.494   8.087  12.720  1.00  0.00     0.041 C 
ATOM     23  O   UNL     1       4.188   9.091  13.028  1.00  0.00    -0.550 OA
ATOM     24  O   UNL     1       2.177   8.001  13.154  1.00  0.00    -0.550 OA
ENDBRANCH  21  22
ENDBRANCH  20  21
ENDBRANCH  19  20
ENDBRANCH  18  19
ENDBRANCH  17  18
ENDBRANCH  16  17
ENDBRANCH  15  16
ENDBRANCH  14  15
ENDBRANCH  13  14
ENDBRANCH   1  13
TORSDOF 20
ENDMDL
MODEL 8
REMARK VINA RESULT:    -4.880      2.053      4.640
REMARK INTER + INTRA:         -13.506
REMARK INTER:                 -10.728
REMARK INTRA:                  -2.778
REMARK UNBOUND:                -2.919
REMARK SMILES CCCCCCCCCCCCCCCCCCCCCC(=O)[O-]
REMARK SMILES IDX 12 1 11 2 10 3 9 4 8 5 7 6 6 7 5 8 4 9 3 10 2 11 1 12 13 13
REMARK SMILES IDX 14 14 15 15 16 16 17 17 18 18 19 19 20 20 21 21 22 22 23 23
REMARK SMILES IDX 24 24
REMARK H PARENT
REMARK Flexibility Score: inf
ROOT
ATOM      1  C   UNL     1       2.074   8.433  17.498  1.00  0.00     0.000 C 
ENDROOT
BRANCH   1   2
ATOM      2  C   UNL     1       2.236   7.865  18.919  1.00  0.00     0.000 C 
BRANCH   2   3
ATOM      3  C   UNL     1       3.022   6.543  18.945  1.00  0.00     0.000 C 
BRANCH   3   4
ATOM      4  C   UNL     1       2.664   5.548  17.819  1.00  0.00    -0.000 C 
BRANCH   4   5
ATOM      5  C   UNL     1       3.852   5.052  16.974  1.00  0.00    -0.000 C 
BRANCH   5   6
ATOM      6  C   UNL     1       5.028   6.042  16.956  1.00  0.00    -0.000 C 
BRANCH   6   7
ATOM      7  C   UNL     1       5.415   6.483  15.532  1.00  0.00    -0.000 C 
BRANCH   7   8
ATOM      8  C   UNL     1       6.132   5.412  14.684  1.00  0.00    -0.000 C 
BRANCH   8   9
ATOM      9  C   UNL     1       7.469   5.858  14.066  1.00  0.00    -0.000 C 
BRANCH   9  10
ATOM     10  C   UNL     1       7.380   7.236  13.389  1.00  0.00    -0.000 C 
BRANCH  10  11
ATOM     11  C   UNL     1       7.879   7.211  11.936  1.00  0.00    -0.003 C 
ATOM     12  C   UNL     1       8.911   6.111  11.687  1.00  0.00     0.004 C 
ENDBRANCH  10  11
ENDBRANCH   9  10
ENDBRANCH   8   9
ENDBRANCH   7   8
ENDBRANCH   6   7
ENDBRANCH   5   6
ENDBRANCH   4   5
ENDBRANCH   3   4
ENDBRANCH   2   3
ENDBRANCH   1   2
BRANCH   1  13
ATOM     13  C   UNL     1       2.955   9.669  17.255  1.00  0.00     0.000 C 
BRANCH  13  14
ATOM     14  C   UNL     1       3.644   9.639  15.882  1.00  0.00     0.000 C 
BRANCH  14  15
ATOM     15  C   UNL     1       2.959   8.639  14.943  1.00  0.00     0.000 C 
BRANCH  15  16
ATOM     16  C   UNL     1       2.286   9.361  13.766  1.00  0.00     0.000 C 
BRANCH  16  17
ATOM     17  C   UNL     1       2.960   9.061  12.418  1.00  0.00     0.000 C 
BRANCH  17  18
ATOM     18  C   UNL     1       3.815   7.784  12.454  1.00  0.00     0.000 C 
BRANCH  18  19
ATOM     19  C   UNL     1       3.688   6.944  11.173  1.00  0.00     0.000 C 
BRANCH  19  20
ATOM     20  C   UNL     1       3.915   7.753   9.877  1.00  0.00     0.006 C 
BRANCH  20  21
ATOM     21  C   UNL     1       5.403   8.009   9.608  1.00  0.00     0.053 C 
BRANCH  21  22
ATOM     22  C   UNL     1       5.695   9.477   9.625  1.00  0.00     0.041 C 
ATOM     23  O   UNL     1       5.745  10.124   8.546  1.00  0.00    -0.550 OA
ATOM     24  O   UNL     1       5.962  10.120  10.827  1.00  0.00    -0.550 OA
ENDBRANCH  21  22
ENDBRANCH  20  21
ENDBRANCH  19  20
ENDBRANCH  18  19
ENDBRANCH  17  18
ENDBRANCH  16  17
ENDBRANCH  15  16
ENDBRANCH  14  15
ENDBRANCH  13  14
ENDBRANCH   1  13
TORSDOF 20
ENDMDL
MODEL 9
REMARK VINA RESULT:    -4.880      2.063      4.297
REMARK INTER + INTRA:         -13.504
REMARK INTER:                 -10.265
REMARK INTRA:                  -3.239
REMARK UNBOUND:                -2.919
REMARK SMILES CCCCCCCCCCCCCCCCCCCCCC(=O)[O-]
REMARK SMILES IDX 12 1 11 2 10 3 9 4 8 5 7 6 6 7 5 8 4 9 3 10 2 11 1 12 13 13
REMARK SMILES IDX 14 14 15 15 16 16 17 17 18 18 19 19 20 20 21 21 22 22 23 23
REMARK SMILES IDX 24 24
REMARK H PARENT
REMARK Flexibility Score: inf
ROOT
ATOM      1  C   UNL     1       7.406   6.336  14.518  1.00  0.00     0.000 C 
ENDROOT
BRANCH   1   2
ATOM      2  C   UNL     1       5.897   6.046  14.438  1.00  0.00     0.000 C 
BRANCH   2   3
ATOM      3  C   UNL     1       5.244   6.638  13.177  1.00  0.00     0.000 C 
BRANCH   3   4
ATOM      4  C   UNL     1       4.983   8.158  13.228  1.00  0.00    -0.000 C 
BRANCH   4   5
ATOM      5  C   UNL     1       3.503   8.571  13.332  1.00  0.00    -0.000 C 
BRANCH   5   6
ATOM      6  C   UNL     1       3.252   9.629  14.419  1.00  0.00    -0.000 C 
BRANCH   6   7
ATOM      7  C   UNL     1       4.142   9.432  15.660  1.00  0.00    -0.000 C 
BRANCH   7   8
ATOM      8  C   UNL     1       3.384   9.159  16.977  1.00  0.00    -0.000 C 
BRANCH   8   9
ATOM      9  C   UNL     1       3.451   7.706  17.478  1.00  0.00    -0.000 C 
BRANCH   9  10
ATOM     10  C   UNL     1       2.703   6.726  16.558  1.00  0.00    -0.000 C 
BRANCH  10  11
ATOM     11  C   UNL     1       2.776   5.276  17.059  1.00  0.00    -0.003 C 
ATOM     12  C   UNL     1       4.164   4.903  17.584  1.00  0.00     0.004 C 
ENDBRANCH  10  11
ENDBRANCH   9  10
ENDBRANCH   8   9
ENDBRANCH   7   8
ENDBRANCH   6   7
ENDBRANCH   5   6
ENDBRANCH   4   5
ENDBRANCH   3   4
ENDBRANCH   2   3
ENDBRANCH   1   2
BRANCH   1  13
ATOM     13  C   UNL     1       8.226   5.452  13.564  1.00  0.00     0.000 C 
BRANCH  13  14
ATOM     14  C   UNL     1       9.076   6.275  12.584  1.00  0.00     0.000 C 
BRANCH  14  15
ATOM     15  C   UNL     1       8.587   6.091  11.142  1.00  0.00     0.000 C 
BRANCH  15  16
ATOM     16  C   UNL     1       8.161   7.434  10.530  1.00  0.00     0.000 C 
BRANCH  16  17
ATOM     17  C   UNL     1       8.303   8.609  11.510  1.00  0.00     0.000 C 
BRANCH  17  18
ATOM     18  C   UNL     1       7.556   9.867  11.039  1.00  0.00     0.000 C 
BRANCH  18  19
ATOM     19  C   UNL     1       7.610  10.057   9.515  1.00  0.00     0.000 C 
BRANCH  19  20
ATOM     20  C   UNL     1       6.226   9.988   8.833  1.00  0.00     0.006 C 
BRANCH  20  21
ATOM     21  C   UNL     1       5.095   9.751   9.842  1.00  0.00     0.053 C 
BRANCH  21  22
ATOM     22  C   UNL     1       4.469   8.409   9.624  1.00  0.00     0.041 C 
ATOM     23  O   UNL     1       5.172   7.438   9.241  1.00  0.00    -0.550 OA
ATOM     24  O   UNL     1       3.100   8.244   9.794  1.00  0.00    -0.550 OA
ENDBRANCH  21  22
ENDBRANCH  20  21
ENDBRANCH  19  20
ENDBRANCH  18  19
ENDBRANCH  17  18
ENDBRANCH  16  17
ENDBRANCH  15  16
ENDBRANCH  14  15
ENDBRANCH  13  14
ENDBRANCH   1  13
TORSDOF 20
ENDMDL
