MODEL 1
REMARK VINA RESULT:     8.149      0.000      0.000
REMARK INTER + INTRA:          14.767
REMARK INTER:                  14.819
REMARK INTRA:                  -0.052
REMARK UNBOUND:                -0.052
REMARK SMILES CCCCCCCCCCCCCCCC(=O)[O-]
REMARK SMILES IDX 9 1 10 2 11 3 12 4 13 5 14 6 15 7 16 8 17 9 18 10 8 11 7 12
REMARK SMILES IDX 6 13 5 14 4 15 3 16 2 17 1 18
REMARK H PARENT
REMARK Flexibility Score: inf
ROOT
ATOM      1  C   UNL     1     -22.359  29.330  -7.593  1.00  0.00     0.000 C 
ENDROOT
BRANCH   1   2
ATOM      2  C   UNL     1     -22.316  27.795  -7.531  1.00  0.00     0.000 C 
BRANCH   2   3
ATOM      3  C   UNL     1     -21.098  27.312  -6.731  1.00  0.00     0.000 C 
BRANCH   3   4
ATOM      4  C   UNL     1     -21.483  26.413  -5.545  1.00  0.00     0.000 C 
BRANCH   4   5
ATOM      5  C   UNL     1     -20.256  25.810  -4.839  1.00  0.00     0.000 C 
BRANCH   5   6
ATOM      6  C   UNL     1     -19.024  25.742  -5.754  1.00  0.00     0.006 C 
BRANCH   6   7
ATOM      7  C   UNL     1     -19.232  24.820  -6.963  1.00  0.00     0.053 C 
BRANCH   7   8
ATOM      8  C   UNL     1     -19.090  23.386  -6.559  1.00  0.00     0.041 C 
ATOM      9  O   UNL     1     -19.211  23.055  -5.350  1.00  0.00    -0.550 OA
ATOM     10  O   UNL     1     -18.875  22.409  -7.522  1.00  0.00    -0.550 OA
ENDBRANCH   7   8
ENDBRANCH   6   7
ENDBRANCH   5   6
ENDBRANCH   4   5
ENDBRANCH   3   4
ENDBRANCH   2   3
ENDBRANCH   1   2
BRANCH   1  11
ATOM     11  C   UNL     1     -23.629  29.860  -8.277  1.00  0.00     0.000 C 
BRANCH  11  12
ATOM     12  C   UNL     1     -23.462  31.299  -8.796  1.00  0.00    -0.000 C 
BRANCH  12  13
ATOM     13  C   UNL     1     -24.791  31.924  -9.244  1.00  0.00    -0.000 C 
BRANCH  13  14
ATOM     14  C   UNL     1     -26.003  31.024  -8.947  1.00  0.00    -0.000 C 
BRANCH  14  15
ATOM     15  C   UNL     1     -26.659  31.336  -7.590  1.00  0.00    -0.000 C 
BRANCH  15  16
ATOM     16  C   UNL     1     -27.708  30.290  -7.156  1.00  0.00    -0.000 C 
BRANCH  16  17
ATOM     17  C   UNL     1     -27.143  28.861  -7.163  1.00  0.00    -0.003 C 
ATOM     18  C   UNL     1     -28.217  27.842  -6.797  1.00  0.00     0.004 C 
ENDBRANCH  16  17
ENDBRANCH  15  16
ENDBRANCH  14  15
ENDBRANCH  13  14
ENDBRANCH  12  13
ENDBRANCH  11  12
ENDBRANCH   1  11
TORSDOF 14
ENDMDL
MODEL 2
REMARK VINA RESULT:     8.757      1.233      2.972
REMARK INTER + INTRA:          15.872
REMARK INTER:                  17.011
REMARK INTRA:                  -1.139
REMARK UNBOUND:                -0.052
REMARK SMILES CCCCCCCCCCCCCCCC(=O)[O-]
REMARK SMILES IDX 9 1 10 2 11 3 12 4 13 5 14 6 15 7 16 8 17 9 18 10 8 11 7 12
REMARK SMILES IDX 6 13 5 14 4 15 3 16 2 17 1 18
REMARK H PARENT
REMARK Flexibility Score: inf
ROOT
ATOM      1  C   UNL     1     -24.124  27.972  -7.886  1.00  0.00     0.000 C 
ENDROOT
BRANCH   1   2
ATOM      2  C   UNL     1     -22.659  27.783  -7.460  1.00  0.00     0.000 C 
BRANCH   2   3
ATOM      3  C   UNL     1     -22.542  26.717  -6.361  1.00  0.00     0.000 C 
BRANCH   3   4
ATOM      4  C   UNL     1     -21.117  26.599  -5.796  1.00  0.00     0.000 C 
BRANCH   4   5
ATOM      5  C   UNL     1     -20.041  26.647  -6.896  1.00  0.00     0.000 C 
BRANCH   5   6
ATOM      6  C   UNL     1     -18.959  25.573  -6.709  1.00  0.00     0.006 C 
BRANCH   6   7
ATOM      7  C   UNL     1     -19.151  24.752  -5.426  1.00  0.00     0.053 C 
BRANCH   7   8
ATOM      8  C   UNL     1     -19.341  23.305  -5.754  1.00  0.00     0.041 C 
ATOM      9  O   UNL     1     -19.128  22.888  -6.923  1.00  0.00    -0.550 OA
ATOM     10  O   UNL     1     -19.703  22.407  -4.758  1.00  0.00    -0.550 OA
ENDBRANCH   7   8
ENDBRANCH   6   7
ENDBRANCH   5   6
ENDBRANCH   4   5
ENDBRANCH   3   4
ENDBRANCH   2   3
ENDBRANCH   1   2
BRANCH   1  11
ATOM     11  C   UNL     1     -25.030  26.823  -7.417  1.00  0.00     0.000 C 
BRANCH  11  12
ATOM     12  C   UNL     1     -26.514  27.075  -7.737  1.00  0.00    -0.000 C 
BRANCH  12  13
ATOM     13  C   UNL     1     -27.147  28.130  -6.816  1.00  0.00    -0.000 C 
BRANCH  13  14
ATOM     14  C   UNL     1     -27.448  29.452  -7.543  1.00  0.00    -0.000 C 
BRANCH  14  15
ATOM     15  C   UNL     1     -26.432  30.559  -7.212  1.00  0.00    -0.000 C 
BRANCH  15  16
ATOM     16  C   UNL     1     -26.314  31.637  -8.310  1.00  0.00    -0.000 C 
BRANCH  16  17
ATOM     17  C   UNL     1     -25.230  31.300  -9.345  1.00  0.00    -0.003 C 
ATOM     18  C   UNL     1     -23.847  31.716  -8.853  1.00  0.00     0.004 C 
ENDBRANCH  16  17
ENDBRANCH  15  16
ENDBRANCH  14  15
ENDBRANCH  13  14
ENDBRANCH  12  13
ENDBRANCH  11  12
ENDBRANCH   1  11
TORSDOF 14
ENDMDL
MODEL 3
REMARK VINA RESULT:     8.899      7.506     11.011
REMARK INTER + INTRA:          16.131
REMARK INTER:                  16.735
REMARK INTRA:                  -0.603
REMARK UNBOUND:                -0.052
REMARK SMILES CCCCCCCCCCCCCCCC(=O)[O-]
REMARK SMILES IDX 9 1 10 2 11 3 12 4 13 5 14 6 15 7 16 8 17 9 18 10 8 11 7 12
REMARK SMILES IDX 6 13 5 14 4 15 3 16 2 17 1 18
REMARK H PARENT
REMARK Flexibility Score: inf
ROOT
ATOM      1  C   UNL     1     -27.514  31.112  -3.457  1.00  0.00     0.000 C 
ENDROOT
BRANCH   1   2
ATOM      2  C   UNL     1     -28.662  32.131  -3.385  1.00  0.00     0.000 C 
BRANCH   2   3
ATOM      3  C   UNL     1     -29.635  31.781  -2.249  1.00  0.00     0.000 C 
BRANCH   3   4
ATOM      4  C   UNL     1     -31.080  31.595  -2.739  1.00  0.00     0.000 C 
BRANCH   4   5
ATOM      5  C   UNL     1     -31.913  30.711  -1.795  1.00  0.00     0.000 C 
BRANCH   5   6
ATOM      6  C   UNL     1     -32.817  29.727  -2.555  1.00  0.00     0.006 C 
BRANCH   6   7
ATOM      7  C   UNL     1     -34.274  29.767  -2.074  1.00  0.00     0.053 C 
BRANCH   7   8
ATOM      8  C   UNL     1     -35.183  30.172  -3.192  1.00  0.00     0.041 C 
ATOM      9  O   UNL     1     -34.711  30.415  -4.334  1.00  0.00    -0.550 OA
ATOM     10  O   UNL     1     -36.555  30.231  -2.987  1.00  0.00    -0.550 OA
ENDBRANCH   7   8
ENDBRANCH   6   7
ENDBRANCH   5   6
ENDBRANCH   4   5
ENDBRANCH   3   4
ENDBRANCH   2   3
ENDBRANCH   1   2
BRANCH   1  11
ATOM     11  C   UNL     1     -26.270  31.671  -4.165  1.00  0.00     0.000 C 
BRANCH  11  12
ATOM     12  C   UNL     1     -26.019  31.005  -5.530  1.00  0.00    -0.000 C 
BRANCH  12  13
ATOM     13  C   UNL     1     -27.004  31.480  -6.609  1.00  0.00    -0.000 C 
BRANCH  13  14
ATOM     14  C   UNL     1     -27.177  30.460  -7.748  1.00  0.00    -0.000 C 
BRANCH  14  15
ATOM     15  C   UNL     1     -25.911  30.308  -8.610  1.00  0.00    -0.000 C 
BRANCH  15  16
ATOM     16  C   UNL     1     -25.168  31.638  -8.856  1.00  0.00    -0.000 C 
BRANCH  16  17
ATOM     17  C   UNL     1     -23.643  31.459  -8.874  1.00  0.00    -0.003 C 
ATOM     18  C   UNL     1     -22.936  32.773  -9.195  1.00  0.00     0.004 C 
ENDBRANCH  16  17
ENDBRANCH  15  16
ENDBRANCH  14  15
ENDBRANCH  13  14
ENDBRANCH  12  13
ENDBRANCH  11  12
ENDBRANCH   1  11
TORSDOF 14
ENDMDL
MODEL 4
REMARK VINA RESULT:     8.933      1.499      2.243
REMARK INTER + INTRA:          16.191
REMARK INTER:                  16.871
REMARK INTRA:                  -0.680
REMARK UNBOUND:                -0.052
REMARK SMILES CCCCCCCCCCCCCCCC(=O)[O-]
REMARK SMILES IDX 9 1 10 2 11 3 12 4 13 5 14 6 15 7 16 8 17 9 18 10 8 11 7 12
REMARK SMILES IDX 6 13 5 14 4 15 3 16 2 17 1 18
REMARK H PARENT
REMARK Flexibility Score: inf
ROOT
ATOM      1  C   UNL     1     -23.799  29.593  -7.958  1.00  0.00     0.000 C 
ENDROOT
BRANCH   1   2
ATOM      2  C   UNL     1     -22.378  29.017  -7.852  1.00  0.00     0.000 C 
BRANCH   2   3
ATOM      3  C   UNL     1     -22.357  27.774  -6.950  1.00  0.00     0.000 C 
BRANCH   3   4
ATOM      4  C   UNL     1     -20.957  27.151  -6.828  1.00  0.00     0.000 C 
BRANCH   4   5
ATOM      5  C   UNL     1     -20.861  26.137  -5.674  1.00  0.00     0.000 C 
BRANCH   5   6
ATOM      6  C   UNL     1     -19.436  25.594  -5.484  1.00  0.00     0.006 C 
BRANCH   6   7
ATOM      7  C   UNL     1     -18.935  24.801  -6.698  1.00  0.00     0.053 C 
BRANCH   7   8
ATOM      8  C   UNL     1     -19.202  23.341  -6.516  1.00  0.00     0.041 C 
ATOM      9  O   UNL     1     -19.126  22.556  -7.498  1.00  0.00    -0.550 OA
ATOM     10  O   UNL     1     -19.486  22.837  -5.253  1.00  0.00    -0.550 OA
ENDBRANCH   7   8
ENDBRANCH   6   7
ENDBRANCH   5   6
ENDBRANCH   4   5
ENDBRANCH   3   4
ENDBRANCH   2   3
ENDBRANCH   1   2
BRANCH   1  11
ATOM     11  C   UNL     1     -23.822  31.003  -8.569  1.00  0.00     0.000 C 
BRANCH  11  12
ATOM     12  C   UNL     1     -25.135  31.301  -9.314  1.00  0.00    -0.000 C 
BRANCH  12  13
ATOM     13  C   UNL     1     -26.296  31.621  -8.360  1.00  0.00    -0.000 C 
BRANCH  13  14
ATOM     14  C   UNL     1     -27.077  30.368  -7.930  1.00  0.00    -0.000 C 
BRANCH  14  15
ATOM     15  C   UNL     1     -27.056  30.144  -6.408  1.00  0.00    -0.000 C 
BRANCH  15  16
ATOM     16  C   UNL     1     -26.261  31.219  -5.637  1.00  0.00    -0.000 C 
BRANCH  16  17
ATOM     17  C   UNL     1     -26.510  31.153  -4.122  1.00  0.00    -0.003 C 
ATOM     18  C   UNL     1     -25.565  32.083  -3.366  1.00  0.00     0.004 C 
ENDBRANCH  16  17
ENDBRANCH  15  16
ENDBRANCH  14  15
ENDBRANCH  13  14
ENDBRANCH  12  13
ENDBRANCH  11  12
ENDBRANCH   1  11
TORSDOF 14
ENDMDL
MODEL 5
REMARK VINA RESULT:     9.168     14.281     17.974
REMARK INTER + INTRA:          16.620
REMARK INTER:                  17.173
REMARK INTRA:                  -0.553
REMARK UNBOUND:                -0.052
REMARK SMILES CCCCCCCCCCCCCCCC(=O)[O-]
REMARK SMILES IDX 9 1 10 2 11 3 12 4 13 5 14 6 15 7 16 8 17 9 18 10 8 11 7 12
REMARK SMILES IDX 6 13 5 14 4 15 3 16 2 17 1 18
REMARK H PARENT
REMARK Flexibility Score: inf
ROOT
ATOM      1  C   UNL     1     -36.739  25.105   1.499  1.00  0.00     0.000 C 
ENDROOT
BRANCH   1   2
ATOM      2  C   UNL     1     -38.020  24.384   1.946  1.00  0.00     0.000 C 
BRANCH   2   3
ATOM      3  C   UNL     1     -38.758  25.194   3.021  1.00  0.00     0.000 C 
BRANCH   3   4
ATOM      4  C   UNL     1     -39.111  24.356   4.261  1.00  0.00     0.000 C 
BRANCH   4   5
ATOM      5  C   UNL     1     -38.212  23.116   4.410  1.00  0.00     0.000 C 
BRANCH   5   6
ATOM      6  C   UNL     1     -38.885  21.992   5.211  1.00  0.00     0.006 C 
BRANCH   6   7
ATOM      7  C   UNL     1     -39.125  22.370   6.680  1.00  0.00     0.053 C 
BRANCH   7   8
ATOM      8  C   UNL     1     -38.238  21.566   7.578  1.00  0.00     0.041 C 
ATOM      9  O   UNL     1     -37.213  22.090   8.088  1.00  0.00    -0.550 OA
ATOM     10  O   UNL     1     -38.570  20.255   7.893  1.00  0.00    -0.550 OA
ENDBRANCH   7   8
ENDBRANCH   6   7
ENDBRANCH   5   6
ENDBRANCH   4   5
ENDBRANCH   3   4
ENDBRANCH   2   3
ENDBRANCH   1   2
BRANCH   1  11
ATOM     11  C   UNL     1     -36.902  25.816   0.146  1.00  0.00     0.000 C 
BRANCH  11  12
ATOM     12  C   UNL     1     -35.772  26.824  -0.129  1.00  0.00    -0.000 C 
BRANCH  12  13
ATOM     13  C   UNL     1     -35.974  27.593  -1.444  1.00  0.00    -0.000 C 
BRANCH  13  14
ATOM     14  C   UNL     1     -35.035  28.805  -1.574  1.00  0.00    -0.000 C 
BRANCH  14  15
ATOM     15  C   UNL     1     -35.183  29.531  -2.923  1.00  0.00    -0.000 C 
BRANCH  15  16
ATOM     16  C   UNL     1     -33.854  30.092  -3.472  1.00  0.00    -0.000 C 
BRANCH  16  17
ATOM     17  C   UNL     1     -32.695  29.921  -2.479  1.00  0.00    -0.003 C 
ATOM     18  C   UNL     1     -31.729  31.100  -2.550  1.00  0.00     0.004 C 
ENDBRANCH  16  17
ENDBRANCH  15  16
ENDBRANCH  14  15
ENDBRANCH  13  14
ENDBRANCH  12  13
ENDBRANCH  11  12
ENDBRANCH   1  11
TORSDOF 14
ENDMDL
MODEL 6
REMARK VINA RESULT:     9.222      1.370      3.291
REMARK INTER + INTRA:          16.718
REMARK INTER:                  17.545
REMARK INTRA:                  -0.827
REMARK UNBOUND:                -0.052
REMARK SMILES CCCCCCCCCCCCCCCC(=O)[O-]
REMARK SMILES IDX 9 1 10 2 11 3 12 4 13 5 14 6 15 7 16 8 17 9 18 10 8 11 7 12
REMARK SMILES IDX 6 13 5 14 4 15 3 16 2 17 1 18
REMARK H PARENT
REMARK Flexibility Score: inf
ROOT
ATOM      1  C   UNL     1     -24.099  27.468  -7.928  1.00  0.00     0.000 C 
ENDROOT
BRANCH   1   2
ATOM      2  C   UNL     1     -22.756  28.054  -7.466  1.00  0.00     0.000 C 
BRANCH   2   3
ATOM      3  C   UNL     1     -22.261  27.352  -6.192  1.00  0.00     0.000 C 
BRANCH   3   4
ATOM      4  C   UNL     1     -21.095  26.387  -6.459  1.00  0.00     0.000 C 
BRANCH   4   5
ATOM      5  C   UNL     1     -20.301  26.055  -5.184  1.00  0.00     0.000 C 
BRANCH   5   6
ATOM      6  C   UNL     1     -18.924  25.445  -5.489  1.00  0.00     0.006 C 
BRANCH   6   7
ATOM      7  C   UNL     1     -18.876  24.737  -6.850  1.00  0.00     0.053 C 
BRANCH   7   8
ATOM      8  C   UNL     1     -19.186  23.282  -6.693  1.00  0.00     0.041 C 
ATOM      9  O   UNL     1     -19.381  22.796  -5.548  1.00  0.00    -0.550 OA
ATOM     10  O   UNL     1     -19.311  22.472  -7.815  1.00  0.00    -0.550 OA
ENDBRANCH   7   8
ENDBRANCH   6   7
ENDBRANCH   5   6
ENDBRANCH   4   5
ENDBRANCH   3   4
ENDBRANCH   2   3
ENDBRANCH   1   2
BRANCH   1  11
ATOM     11  C   UNL     1     -24.935  28.471  -8.739  1.00  0.00     0.000 C 
BRANCH  11  12
ATOM     12  C   UNL     1     -25.361  29.693  -7.906  1.00  0.00    -0.000 C 
BRANCH  12  13
ATOM     13  C   UNL     1     -26.214  30.687  -8.708  1.00  0.00    -0.000 C 
BRANCH  13  14
ATOM     14  C   UNL     1     -25.394  31.863  -9.265  1.00  0.00    -0.000 C 
BRANCH  14  15
ATOM     15  C   UNL     1     -24.101  32.116  -8.471  1.00  0.00    -0.000 C 
BRANCH  15  16
ATOM     16  C   UNL     1     -22.816  31.941  -9.309  1.00  0.00    -0.000 C 
BRANCH  16  17
ATOM     17  C   UNL     1     -21.916  33.184  -9.263  1.00  0.00    -0.003 C 
ATOM     18  C   UNL     1     -22.740  34.457  -9.088  1.00  0.00     0.004 C 
ENDBRANCH  16  17
ENDBRANCH  15  16
ENDBRANCH  14  15
ENDBRANCH  13  14
ENDBRANCH  12  13
ENDBRANCH  11  12
ENDBRANCH   1  11
TORSDOF 14
ENDMDL
MODEL 7
REMARK VINA RESULT:     9.366      3.369      8.212
REMARK INTER + INTRA:          16.979
REMARK INTER:                  17.870
REMARK INTRA:                  -0.891
REMARK UNBOUND:                -0.052
REMARK SMILES CCCCCCCCCCCCCCCC(=O)[O-]
REMARK SMILES IDX 9 1 10 2 11 3 12 4 13 5 14 6 15 7 16 8 17 9 18 10 8 11 7 12
REMARK SMILES IDX 6 13 5 14 4 15 3 16 2 17 1 18
REMARK H PARENT
REMARK Flexibility Score: inf
ROOT
ATOM      1  C   UNL     1     -23.553  28.869  -7.885  1.00  0.00     0.000 C 
ENDROOT
BRANCH   1   2
ATOM      2  C   UNL     1     -23.701  30.355  -7.524  1.00  0.00     0.000 C 
BRANCH   2   3
ATOM      3  C   UNL     1     -23.962  31.201  -8.779  1.00  0.00     0.000 C 
BRANCH   3   4
ATOM      4  C   UNL     1     -25.435  31.169  -9.221  1.00  0.00     0.000 C 
BRANCH   4   5
ATOM      5  C   UNL     1     -26.397  31.595  -8.099  1.00  0.00     0.000 C 
BRANCH   5   6
ATOM      6  C   UNL     1     -27.483  30.544  -7.822  1.00  0.00     0.006 C 
BRANCH   6   7
ATOM      7  C   UNL     1     -27.153  29.650  -6.619  1.00  0.00     0.053 C 
BRANCH   7   8
ATOM      8  C   UNL     1     -27.472  28.221  -6.926  1.00  0.00     0.041 C 
ATOM      9  O   UNL     1     -26.649  27.512  -7.564  1.00  0.00    -0.550 OA
ATOM     10  O   UNL     1     -28.653  27.657  -6.464  1.00  0.00    -0.550 OA
ENDBRANCH   7   8
ENDBRANCH   6   7
ENDBRANCH   5   6
ENDBRANCH   4   5
ENDBRANCH   3   4
ENDBRANCH   2   3
ENDBRANCH   1   2
BRANCH   1  11
ATOM     11  C   UNL     1     -22.270  28.245  -7.315  1.00  0.00     0.000 C 
BRANCH  11  12
ATOM     12  C   UNL     1     -22.545  26.964  -6.509  1.00  0.00    -0.000 C 
BRANCH  12  13
ATOM     13  C   UNL     1     -21.543  26.761  -5.362  1.00  0.00    -0.000 C 
BRANCH  13  14
ATOM     14  C   UNL     1     -20.087  26.681  -5.850  1.00  0.00    -0.000 C 
BRANCH  14  15
ATOM     15  C   UNL     1     -19.373  25.398  -5.389  1.00  0.00    -0.000 C 
BRANCH  15  16
ATOM     16  C   UNL     1     -18.875  24.516  -6.553  1.00  0.00    -0.000 C 
BRANCH  16  17
ATOM     17  C   UNL     1     -19.486  23.106  -6.518  1.00  0.00    -0.003 C 
ATOM     18  C   UNL     1     -19.019  22.273  -7.708  1.00  0.00     0.004 C 
ENDBRANCH  16  17
ENDBRANCH  15  16
ENDBRANCH  14  15
ENDBRANCH  13  14
ENDBRANCH  12  13
ENDBRANCH  11  12
ENDBRANCH   1  11
TORSDOF 14
ENDMDL
MODEL 8
REMARK VINA RESULT:     9.408      3.861      8.304
REMARK INTER + INTRA:          17.056
REMARK INTER:                  17.620
REMARK INTRA:                  -0.564
REMARK UNBOUND:                -0.052
REMARK SMILES CCCCCCCCCCCCCCCC(=O)[O-]
REMARK SMILES IDX 9 1 10 2 11 3 12 4 13 5 14 6 15 7 16 8 17 9 18 10 8 11 7 12
REMARK SMILES IDX 6 13 5 14 4 15 3 16 2 17 1 18
REMARK H PARENT
REMARK Flexibility Score: inf
ROOT
ATOM      1  C   UNL     1     -24.231  27.961  -7.652  1.00  0.00     0.000 C 
ENDROOT
BRANCH   1   2
ATOM      2  C   UNL     1     -25.200  26.769  -7.633  1.00  0.00     0.000 C 
BRANCH   2   3
ATOM      3  C   UNL     1     -26.659  27.248  -7.631  1.00  0.00     0.000 C 
BRANCH   3   4
ATOM      4  C   UNL     1     -26.859  28.542  -6.824  1.00  0.00     0.000 C 
BRANCH   4   5
ATOM      5  C   UNL     1     -27.512  29.660  -7.655  1.00  0.00     0.000 C 
BRANCH   5   6
ATOM      6  C   UNL     1     -26.755  30.993  -7.548  1.00  0.00     0.006 C 
BRANCH   6   7
ATOM      7  C   UNL     1     -25.235  30.825  -7.679  1.00  0.00     0.053 C 
BRANCH   7   8
ATOM      8  C   UNL     1     -24.745  31.459  -8.943  1.00  0.00     0.041 C 
ATOM      9  O   UNL     1     -25.421  31.365 -10.001  1.00  0.00    -0.550 OA
ATOM     10  O   UNL     1     -23.569  32.198  -8.940  1.00  0.00    -0.550 OA
ENDBRANCH   7   8
ENDBRANCH   6   7
ENDBRANCH   5   6
ENDBRANCH   4   5
ENDBRANCH   3   4
ENDBRANCH   2   3
ENDBRANCH   1   2
BRANCH   1  11
ATOM     11  C   UNL     1     -22.759  27.530  -7.562  1.00  0.00     0.000 C 
BRANCH  11  12
ATOM     12  C   UNL     1     -22.492  26.589  -6.373  1.00  0.00    -0.000 C 
BRANCH  12  13
ATOM     13  C   UNL     1     -21.267  27.011  -5.549  1.00  0.00    -0.000 C 
BRANCH  13  14
ATOM     14  C   UNL     1     -20.541  25.816  -4.907  1.00  0.00    -0.000 C 
BRANCH  14  15
ATOM     15  C   UNL     1     -19.082  25.683  -5.376  1.00  0.00    -0.000 C 
BRANCH  15  16
ATOM     16  C   UNL     1     -18.923  24.866  -6.676  1.00  0.00    -0.000 C 
BRANCH  16  17
ATOM     17  C   UNL     1     -19.104  23.358  -6.443  1.00  0.00    -0.003 C 
ATOM     18  C   UNL     1     -19.000  22.581  -7.752  1.00  0.00     0.004 C 
ENDBRANCH  16  17
ENDBRANCH  15  16
ENDBRANCH  14  15
ENDBRANCH  13  14
ENDBRANCH  12  13
ENDBRANCH  11  12
ENDBRANCH   1  11
TORSDOF 14
ENDMDL
MODEL 9
REMARK VINA RESULT:     9.691      6.373      9.133
REMARK INTER + INTRA:          17.570
REMARK INTER:                  18.315
REMARK INTRA:                  -0.745
REMARK UNBOUND:                -0.052
REMARK SMILES CCCCCCCCCCCCCCCC(=O)[O-]
REMARK SMILES IDX 9 1 10 2 11 3 12 4 13 5 14 6 15 7 16 8 17 9 18 10 8 11 7 12
REMARK SMILES IDX 6 13 5 14 4 15 3 16 2 17 1 18
REMARK H PARENT
REMARK Flexibility Score: inf
ROOT
ATOM      1  C   UNL     1     -28.618  32.152  -3.217  1.00  0.00     0.000 C 
ENDROOT
BRANCH   1   2
ATOM      2  C   UNL     1     -27.469  31.146  -3.390  1.00  0.00     0.000 C 
BRANCH   2   3
ATOM      3  C   UNL     1     -26.311  31.768  -4.183  1.00  0.00     0.000 C 
BRANCH   3   4
ATOM      4  C   UNL     1     -26.055  31.055  -5.521  1.00  0.00     0.000 C 
BRANCH   4   5
ATOM      5  C   UNL     1     -27.094  31.426  -6.594  1.00  0.00     0.000 C 
BRANCH   5   6
ATOM      6  C   UNL     1     -26.829  30.727  -7.937  1.00  0.00     0.006 C 
BRANCH   6   7
ATOM      7  C   UNL     1     -25.341  30.434  -8.171  1.00  0.00     0.053 C 
BRANCH   7   8
ATOM      8  C   UNL     1     -24.753  31.432  -9.118  1.00  0.00     0.041 C 
ATOM      9  O   UNL     1     -25.364  31.736 -10.177  1.00  0.00    -0.550 OA
ATOM     10  O   UNL     1     -23.557  32.066  -8.807  1.00  0.00    -0.550 OA
ENDBRANCH   7   8
ENDBRANCH   6   7
ENDBRANCH   5   6
ENDBRANCH   4   5
ENDBRANCH   3   4
ENDBRANCH   2   3
ENDBRANCH   1   2
BRANCH   1  11
ATOM     11  C   UNL     1     -29.531  31.809  -2.029  1.00  0.00     0.000 C 
BRANCH  11  12
ATOM     12  C   UNL     1     -30.945  31.394  -2.474  1.00  0.00    -0.000 C 
BRANCH  12  13
ATOM     13  C   UNL     1     -31.731  30.685  -1.360  1.00  0.00    -0.000 C 
BRANCH  13  14
ATOM     14  C   UNL     1     -32.968  29.938  -1.887  1.00  0.00    -0.000 C 
BRANCH  14  15
ATOM     15  C   UNL     1     -33.114  30.031  -3.416  1.00  0.00    -0.000 C 
BRANCH  15  16
ATOM     16  C   UNL     1     -34.539  30.401  -3.879  1.00  0.00    -0.000 C 
BRANCH  16  17
ATOM     17  C   UNL     1     -35.549  30.393  -2.722  1.00  0.00    -0.003 C 
ATOM     18  C   UNL     1     -36.739  29.490  -3.034  1.00  0.00     0.004 C 
ENDBRANCH  16  17
ENDBRANCH  15  16
ENDBRANCH  14  15
ENDBRANCH  13  14
ENDBRANCH  12  13
ENDBRANCH  11  12
ENDBRANCH   1  11
TORSDOF 14
ENDMDL
