MODEL 1
REMARK VINA RESULT:    -6.850      0.000      0.000
REMARK INTER + INTRA:          -8.086
REMARK INTER:                  -8.051
REMARK INTRA:                  -0.035
REMARK UNBOUND:                -0.035
REMARK SMILES O=c1c(O)c(-c2ccc(O)cc2)oc2cc(O)cc(O)c12
REMARK SMILES IDX 5 1 3 2 2 3 1 4 21 5 19 6 18 7 16 8 15 9 14 10 13 11 6 12
REMARK SMILES IDX 7 13 8 14 9 15 12 16 11 17 10 18 4 20 20 22 17 24
REMARK H PARENT 10 19 4 21 20 23 17 25
REMARK Flexibility Score: inf
ROOT
ATOM      1  C   UNL     1     -22.527  85.337 -23.036  1.00  0.00     0.180 A 
ATOM      2  C   UNL     1     -21.866  86.534 -23.363  1.00  0.00     0.208 A 
ATOM      3  C   UNL     1     -22.264  87.241 -24.508  1.00  0.00     0.238 A 
ATOM      4  O   UNL     1     -21.705  88.340 -24.765  1.00  0.00    -0.285 OA
ATOM      5  C   UNL     1     -23.307  86.736 -25.322  1.00  0.00     0.111 A 
ATOM      6  C   UNL     1     -23.765  87.349 -26.525  1.00  0.00     0.134 A 
ATOM      7  C   UNL     1     -24.891  86.832 -27.180  1.00  0.00     0.093 A 
ATOM      8  C   UNL     1     -25.534  85.685 -26.708  1.00  0.00     0.123 A 
ATOM      9  C   UNL     1     -25.059  85.046 -25.566  1.00  0.00     0.094 A 
ATOM     10  C   UNL     1     -23.960  85.559 -24.871  1.00  0.00     0.146 A 
ATOM     11  O   UNL     1     -23.545  84.923 -23.782  1.00  0.00    -0.452 OA
ENDROOT
BRANCH   1  12
ATOM     12  C   UNL     1     -22.147  84.522 -21.860  1.00  0.00     0.021 A 
ATOM     13  C   UNL     1     -22.201  85.092 -20.577  1.00  0.00     0.016 A 
ATOM     14  C   UNL     1     -21.867  84.335 -19.450  1.00  0.00     0.047 A 
ATOM     15  C   UNL     1     -21.491  82.996 -19.588  1.00  0.00     0.115 A 
ATOM     16  C   UNL     1     -21.786  83.168 -21.991  1.00  0.00     0.016 A 
ATOM     17  C   UNL     1     -21.455  82.413 -20.863  1.00  0.00     0.047 A 
BRANCH  15  18
ATOM     18  O   UNL     1     -21.161  82.252 -18.458  1.00  0.00    -0.508 OA
ATOM     19  H   UNL     1     -21.420  82.559 -17.528  1.00  0.00     0.293 HD
ENDBRANCH  15  18
ENDBRANCH   1  12
BRANCH   2  20
ATOM     20  O   UNL     1     -20.853  87.026 -22.534  1.00  0.00    -0.502 OA
ATOM     21  H   UNL     1     -20.331  86.430 -21.903  1.00  0.00     0.293 HD
ENDBRANCH   2  20
BRANCH   6  22
ATOM     22  O   UNL     1     -23.139  88.442 -27.132  1.00  0.00    -0.507 OA
ATOM     23  H   UNL     1     -22.154  88.496 -27.345  1.00  0.00     0.293 HD
ENDBRANCH   6  22
BRANCH   8  24
ATOM     24  O   UNL     1     -26.643  85.168 -27.373  1.00  0.00    -0.508 OA
ATOM     25  H   UNL     1     -27.469  85.731 -27.543  1.00  0.00     0.293 HD
ENDBRANCH   8  24
TORSDOF 5
ENDMDL
MODEL 2
REMARK VINA RESULT:    -6.832      1.303      2.915
REMARK INTER + INTRA:          -8.066
REMARK INTER:                  -8.355
REMARK INTRA:                   0.289
REMARK UNBOUND:                -0.035
REMARK SMILES O=c1c(O)c(-c2ccc(O)cc2)oc2cc(O)cc(O)c12
REMARK SMILES IDX 5 1 3 2 2 3 1 4 21 5 19 6 18 7 16 8 15 9 14 10 13 11 6 12
REMARK SMILES IDX 7 13 8 14 9 15 12 16 11 17 10 18 4 20 20 22 17 24
REMARK H PARENT 10 19 4 21 20 23 17 25
REMARK Flexibility Score: inf
ROOT
ATOM      1  C   UNL     1     -22.950  84.975 -23.264  1.00  0.00     0.180 A 
ATOM      2  C   UNL     1     -23.737  84.328 -24.233  1.00  0.00     0.208 A 
ATOM      3  C   UNL     1     -24.178  85.057 -25.349  1.00  0.00     0.238 A 
ATOM      4  O   UNL     1     -24.836  84.458 -26.241  1.00  0.00    -0.285 OA
ATOM      5  C   UNL     1     -23.841  86.426 -25.476  1.00  0.00     0.111 A 
ATOM      6  C   UNL     1     -24.266  87.270 -26.544  1.00  0.00     0.134 A 
ATOM      7  C   UNL     1     -23.766  88.575 -26.636  1.00  0.00     0.093 A 
ATOM      8  C   UNL     1     -22.906  89.086 -25.661  1.00  0.00     0.123 A 
ATOM      9  C   UNL     1     -22.531  88.289 -24.583  1.00  0.00     0.094 A 
ATOM     10  C   UNL     1     -22.985  86.971 -24.483  1.00  0.00     0.146 A 
ATOM     11  O   UNL     1     -22.596  86.242 -23.444  1.00  0.00    -0.452 OA
ENDROOT
BRANCH   1  12
ATOM     12  C   UNL     1     -22.470  84.282 -22.048  1.00  0.00     0.021 A 
ATOM     13  C   UNL     1     -22.366  84.994 -20.841  1.00  0.00     0.016 A 
ATOM     14  C   UNL     1     -21.935  84.354 -19.675  1.00  0.00     0.047 A 
ATOM     15  C   UNL     1     -21.617  82.992 -19.696  1.00  0.00     0.115 A 
ATOM     16  C   UNL     1     -22.167  82.907 -22.058  1.00  0.00     0.016 A 
ATOM     17  C   UNL     1     -21.738  82.269 -20.891  1.00  0.00     0.047 A 
BRANCH  15  18
ATOM     18  O   UNL     1     -21.189  82.366 -18.527  1.00  0.00    -0.508 OA
ATOM     19  H   UNL     1     -20.961  81.379 -18.508  1.00  0.00     0.293 HD
ENDBRANCH  15  18
ENDBRANCH   1  12
BRANCH   2  20
ATOM     20  O   UNL     1     -24.040  82.970 -24.100  1.00  0.00    -0.502 OA
ATOM     21  H   UNL     1     -23.882  82.303 -24.845  1.00  0.00     0.293 HD
ENDBRANCH   2  20
BRANCH   6  22
ATOM     22  O   UNL     1     -25.194  86.889 -27.519  1.00  0.00    -0.507 OA
ATOM     23  H   UNL     1     -25.936  86.220 -27.375  1.00  0.00     0.293 HD
ENDBRANCH   6  22
BRANCH   8  24
ATOM     24  O   UNL     1     -22.424  90.390 -25.751  1.00  0.00    -0.508 OA
ATOM     25  H   UNL     1     -22.710  91.009 -26.500  1.00  0.00     0.293 HD
ENDBRANCH   8  24
TORSDOF 5
ENDMDL
MODEL 3
REMARK VINA RESULT:    -6.704      6.448      9.563
REMARK INTER + INTRA:          -7.916
REMARK INTER:                  -7.627
REMARK INTRA:                  -0.289
REMARK UNBOUND:                -0.035
REMARK SMILES O=c1c(O)c(-c2ccc(O)cc2)oc2cc(O)cc(O)c12
REMARK SMILES IDX 5 1 3 2 2 3 1 4 21 5 19 6 18 7 16 8 15 9 14 10 13 11 6 12
REMARK SMILES IDX 7 13 8 14 9 15 12 16 11 17 10 18 4 20 20 22 17 24
REMARK H PARENT 10 19 4 21 20 23 17 25
REMARK Flexibility Score: inf
ROOT
ATOM      1  C   UNL     1     -24.900  91.980 -28.269  1.00  0.00     0.180 A 
ATOM      2  C   UNL     1     -25.657  92.795 -27.410  1.00  0.00     0.208 A 
ATOM      3  C   UNL     1     -25.710  94.177 -27.652  1.00  0.00     0.238 A 
ATOM      4  O   UNL     1     -26.434  94.894 -26.912  1.00  0.00    -0.285 OA
ATOM      5  C   UNL     1     -24.992  94.729 -28.741  1.00  0.00     0.111 A 
ATOM      6  C   UNL     1     -24.943  96.120 -29.056  1.00  0.00     0.134 A 
ATOM      7  C   UNL     1     -24.308  96.539 -30.233  1.00  0.00     0.093 A 
ATOM      8  C   UNL     1     -23.666  95.624 -31.070  1.00  0.00     0.123 A 
ATOM      9  C   UNL     1     -23.659  94.271 -30.740  1.00  0.00     0.094 A 
ATOM     10  C   UNL     1     -24.314  93.818 -29.592  1.00  0.00     0.146 A 
ATOM     11  O   UNL     1     -24.292  92.519 -29.319  1.00  0.00    -0.452 OA
ENDROOT
BRANCH   1  12
ATOM     12  C   UNL     1     -24.775  90.520 -28.063  1.00  0.00     0.021 A 
ATOM     13  C   UNL     1     -23.774  90.025 -27.209  1.00  0.00     0.016 A 
ATOM     14  C   UNL     1     -23.652  88.650 -26.983  1.00  0.00     0.047 A 
ATOM     15  C   UNL     1     -24.535  87.755 -27.593  1.00  0.00     0.115 A 
ATOM     16  C   UNL     1     -25.673  89.615 -28.659  1.00  0.00     0.016 A 
ATOM     17  C   UNL     1     -25.549  88.242 -28.430  1.00  0.00     0.047 A 
BRANCH  15  18
ATOM     18  O   UNL     1     -24.402  86.388 -27.360  1.00  0.00    -0.508 OA
ATOM     19  H   UNL     1     -25.200  85.812 -27.116  1.00  0.00     0.293 HD
ENDBRANCH  15  18
ENDBRANCH   1  12
BRANCH   2  20
ATOM     20  O   UNL     1     -26.375  92.226 -26.354  1.00  0.00    -0.502 OA
ATOM     21  H   UNL     1     -27.327  92.496 -26.136  1.00  0.00     0.293 HD
ENDBRANCH   2  20
BRANCH   6  22
ATOM     22  O   UNL     1     -25.472  97.125 -28.241  1.00  0.00    -0.507 OA
ATOM     23  H   UNL     1     -26.439  97.189 -27.961  1.00  0.00     0.293 HD
ENDBRANCH   6  22
BRANCH   8  24
ATOM     24  O   UNL     1     -23.024  96.051 -32.230  1.00  0.00    -0.508 OA
ATOM     25  H   UNL     1     -22.015  96.013 -32.321  1.00  0.00     0.293 HD
ENDBRANCH   8  24
TORSDOF 5
ENDMDL
MODEL 4
REMARK VINA RESULT:    -6.583      6.606     10.018
REMARK INTER + INTRA:          -7.772
REMARK INTER:                  -7.495
REMARK INTRA:                  -0.278
REMARK UNBOUND:                -0.035
REMARK SMILES O=c1c(O)c(-c2ccc(O)cc2)oc2cc(O)cc(O)c12
REMARK SMILES IDX 5 1 3 2 2 3 1 4 21 5 19 6 18 7 16 8 15 9 14 10 13 11 6 12
REMARK SMILES IDX 7 13 8 14 9 15 12 16 11 17 10 18 4 20 20 22 17 24
REMARK H PARENT 10 19 4 21 20 23 17 25
REMARK Flexibility Score: inf
ROOT
ATOM      1  C   UNL     1     -24.074  91.595 -29.918  1.00  0.00     0.180 A 
ATOM      2  C   UNL     1     -23.400  91.888 -31.116  1.00  0.00     0.208 A 
ATOM      3  C   UNL     1     -23.289  93.225 -31.526  1.00  0.00     0.238 A 
ATOM      4  O   UNL     1     -22.637  93.486 -32.572  1.00  0.00    -0.285 OA
ATOM      5  C   UNL     1     -23.865  94.254 -30.741  1.00  0.00     0.111 A 
ATOM      6  C   UNL     1     -23.846  95.639 -31.081  1.00  0.00     0.134 A 
ATOM      7  C   UNL     1     -24.334  96.582 -30.166  1.00  0.00     0.093 A 
ATOM      8  C   UNL     1     -24.898  96.182 -28.953  1.00  0.00     0.123 A 
ATOM      9  C   UNL     1     -24.973  94.828 -28.638  1.00  0.00     0.094 A 
ATOM     10  C   UNL     1     -24.463  93.866 -29.514  1.00  0.00     0.146 A 
ATOM     11  O   UNL     1     -24.546  92.587 -29.170  1.00  0.00    -0.452 OA
ENDROOT
BRANCH   1  12
ATOM     12  C   UNL     1     -24.255  90.208 -29.433  1.00  0.00     0.021 A 
ATOM     13  C   UNL     1     -23.240  89.603 -28.673  1.00  0.00     0.016 A 
ATOM     14  C   UNL     1     -23.399  88.302 -28.186  1.00  0.00     0.047 A 
ATOM     15  C   UNL     1     -24.578  87.594 -28.440  1.00  0.00     0.115 A 
ATOM     16  C   UNL     1     -25.447  89.498 -29.669  1.00  0.00     0.016 A 
ATOM     17  C   UNL     1     -25.604  88.198 -29.180  1.00  0.00     0.047 A 
BRANCH  15  18
ATOM     18  O   UNL     1     -24.723  86.299 -27.950  1.00  0.00    -0.508 OA
ATOM     19  H   UNL     1     -25.424  85.668 -28.321  1.00  0.00     0.293 HD
ENDBRANCH  15  18
ENDBRANCH   1  12
BRANCH   2  20
ATOM     20  O   UNL     1     -22.819  90.859 -31.865  1.00  0.00    -0.502 OA
ATOM     21  H   UNL     1     -22.576  89.964 -31.460  1.00  0.00     0.293 HD
ENDBRANCH   2  20
BRANCH   6  22
ATOM     22  O   UNL     1     -23.391  96.137 -32.306  1.00  0.00    -0.507 OA
ATOM     23  H   UNL     1     -22.772  96.928 -32.410  1.00  0.00     0.293 HD
ENDBRANCH   6  22
BRANCH   8  24
ATOM     24  O   UNL     1     -25.394  97.124 -28.055  1.00  0.00    -0.508 OA
ATOM     25  H   UNL     1     -25.455  98.106 -28.298  1.00  0.00     0.293 HD
ENDBRANCH   8  24
TORSDOF 5
ENDMDL
MODEL 5
REMARK VINA RESULT:    -6.548      2.060      6.795
REMARK INTER + INTRA:          -7.732
REMARK INTER:                  -7.466
REMARK INTRA:                  -0.266
REMARK UNBOUND:                -0.035
REMARK SMILES O=c1c(O)c(-c2ccc(O)cc2)oc2cc(O)cc(O)c12
REMARK SMILES IDX 5 1 3 2 2 3 1 4 21 5 19 6 18 7 16 8 15 9 14 10 13 11 6 12
REMARK SMILES IDX 7 13 8 14 9 15 12 16 11 17 10 18 4 20 20 22 17 24
REMARK H PARENT 10 19 4 21 20 23 17 25
REMARK Flexibility Score: inf
ROOT
ATOM      1  C   UNL     1     -23.433  85.178 -23.873  1.00  0.00     0.180 A 
ATOM      2  C   UNL     1     -23.490  84.018 -24.666  1.00  0.00     0.208 A 
ATOM      3  C   UNL     1     -23.063  82.798 -24.119  1.00  0.00     0.238 A 
ATOM      4  O   UNL     1     -23.168  81.753 -24.815  1.00  0.00    -0.285 OA
ATOM      5  C   UNL     1     -22.569  82.754 -22.793  1.00  0.00     0.111 A 
ATOM      6  C   UNL     1     -22.074  81.579 -22.151  1.00  0.00     0.134 A 
ATOM      7  C   UNL     1     -21.732  81.626 -20.794  1.00  0.00     0.093 A 
ATOM      8  C   UNL     1     -21.807  82.820 -20.073  1.00  0.00     0.123 A 
ATOM      9  C   UNL     1     -22.235  83.984 -20.706  1.00  0.00     0.094 A 
ATOM     10  C   UNL     1     -22.617  83.962 -22.050  1.00  0.00     0.146 A 
ATOM     11  O   UNL     1     -23.027  85.092 -22.612  1.00  0.00    -0.452 OA
ENDROOT
BRANCH   1  12
ATOM     12  C   UNL     1     -23.840  86.505 -24.387  1.00  0.00     0.021 A 
ATOM     13  C   UNL     1     -25.200  86.858 -24.390  1.00  0.00     0.016 A 
ATOM     14  C   UNL     1     -25.606  88.114 -24.850  1.00  0.00     0.047 A 
ATOM     15  C   UNL     1     -24.658  89.039 -25.300  1.00  0.00     0.115 A 
ATOM     16  C   UNL     1     -22.889  87.447 -24.823  1.00  0.00     0.016 A 
ATOM     17  C   UNL     1     -23.297  88.702 -25.281  1.00  0.00     0.047 A 
BRANCH  15  18
ATOM     18  O   UNL     1     -25.075  90.287 -25.756  1.00  0.00    -0.508 OA
ATOM     19  H   UNL     1     -25.946  90.403 -26.260  1.00  0.00     0.293 HD
ENDBRANCH  15  18
ENDBRANCH   1  12
BRANCH   2  20
ATOM     20  O   UNL     1     -24.001  84.080 -25.966  1.00  0.00    -0.502 OA
ATOM     21  H   UNL     1     -23.649  84.731 -26.657  1.00  0.00     0.293 HD
ENDBRANCH   2  20
BRANCH   6  22
ATOM     22  O   UNL     1     -21.872  80.359 -22.804  1.00  0.00    -0.507 OA
ATOM     23  H   UNL     1     -21.231  80.216 -23.570  1.00  0.00     0.293 HD
ENDBRANCH   6  22
BRANCH   8  24
ATOM     24  O   UNL     1     -21.451  82.861 -18.727  1.00  0.00    -0.508 OA
ATOM     25  H   UNL     1     -21.930  83.467 -18.071  1.00  0.00     0.293 HD
ENDBRANCH   8  24
TORSDOF 5
ENDMDL
MODEL 6
REMARK VINA RESULT:    -6.280      2.481      6.360
REMARK INTER + INTRA:          -7.417
REMARK INTER:                  -7.194
REMARK INTRA:                  -0.223
REMARK UNBOUND:                -0.035
REMARK SMILES O=c1c(O)c(-c2ccc(O)cc2)oc2cc(O)cc(O)c12
REMARK SMILES IDX 5 1 3 2 2 3 1 4 21 5 19 6 18 7 16 8 15 9 14 10 13 11 6 12
REMARK SMILES IDX 7 13 8 14 9 15 12 16 11 17 10 18 4 20 20 22 17 24
REMARK H PARENT 10 19 4 21 20 23 17 25
REMARK Flexibility Score: inf
ROOT
ATOM      1  C   UNL     1     -22.280  84.698 -23.375  1.00  0.00     0.180 A 
ATOM      2  C   UNL     1     -22.000  84.488 -22.014  1.00  0.00     0.208 A 
ATOM      3  C   UNL     1     -21.637  83.203 -21.584  1.00  0.00     0.238 A 
ATOM      4  O   UNL     1     -21.335  83.033 -20.372  1.00  0.00    -0.285 OA
ATOM      5  C   UNL     1     -21.572  82.139 -22.516  1.00  0.00     0.111 A 
ATOM      6  C   UNL     1     -21.252  80.789 -22.184  1.00  0.00     0.134 A 
ATOM      7  C   UNL     1     -21.090  79.846 -23.207  1.00  0.00     0.093 A 
ATOM      8  C   UNL     1     -21.299  80.191 -24.544  1.00  0.00     0.123 A 
ATOM      9  C   UNL     1     -21.667  81.493 -24.873  1.00  0.00     0.094 A 
ATOM     10  C   UNL     1     -21.802  82.465 -23.878  1.00  0.00     0.146 A 
ATOM     11  O   UNL     1     -22.146  83.696 -24.236  1.00  0.00    -0.452 OA
ENDROOT
BRANCH   1  12
ATOM     12  C   UNL     1     -22.695  86.019 -23.900  1.00  0.00     0.021 A 
ATOM     13  C   UNL     1     -24.047  86.248 -24.204  1.00  0.00     0.016 A 
ATOM     14  C   UNL     1     -24.466  87.495 -24.680  1.00  0.00     0.047 A 
ATOM     15  C   UNL     1     -23.542  88.531 -24.845  1.00  0.00     0.115 A 
ATOM     16  C   UNL     1     -21.773  87.072 -24.050  1.00  0.00     0.016 A 
ATOM     17  C   UNL     1     -22.194  88.317 -24.525  1.00  0.00     0.047 A 
BRANCH  15  18
ATOM     18  O   UNL     1     -23.971  89.768 -25.320  1.00  0.00    -0.508 OA
ATOM     19  H   UNL     1     -23.664  90.635 -24.894  1.00  0.00     0.293 HD
ENDBRANCH  15  18
ENDBRANCH   1  12
BRANCH   2  20
ATOM     20  O   UNL     1     -22.049  85.557 -21.113  1.00  0.00    -0.502 OA
ATOM     21  H   UNL     1     -21.970  86.522 -21.411  1.00  0.00     0.293 HD
ENDBRANCH   2  20
BRANCH   6  22
ATOM     22  O   UNL     1     -21.114  80.318 -20.875  1.00  0.00    -0.507 OA
ATOM     23  H   UNL     1     -21.035  79.345 -20.619  1.00  0.00     0.293 HD
ENDBRANCH   6  22
BRANCH   8  24
ATOM     24  O   UNL     1     -21.150  79.244 -25.554  1.00  0.00    -0.508 OA
ATOM     25  H   UNL     1     -21.929  78.677 -25.868  1.00  0.00     0.293 HD
ENDBRANCH   8  24
TORSDOF 5
ENDMDL
MODEL 7
REMARK VINA RESULT:    -6.261      2.579      4.126
REMARK INTER + INTRA:          -7.395
REMARK INTER:                  -7.121
REMARK INTRA:                  -0.274
REMARK UNBOUND:                -0.035
REMARK SMILES O=c1c(O)c(-c2ccc(O)cc2)oc2cc(O)cc(O)c12
REMARK SMILES IDX 5 1 3 2 2 3 1 4 21 5 19 6 18 7 16 8 15 9 14 10 13 11 6 12
REMARK SMILES IDX 7 13 8 14 9 15 12 16 11 17 10 18 4 20 20 22 17 24
REMARK H PARENT 10 19 4 21 20 23 17 25
REMARK Flexibility Score: inf
ROOT
ATOM      1  C   UNL     1     -23.182  84.084 -23.914  1.00  0.00     0.180 A 
ATOM      2  C   UNL     1     -24.587  84.074 -23.862  1.00  0.00     0.208 A 
ATOM      3  C   UNL     1     -25.282  85.283 -24.015  1.00  0.00     0.238 A 
ATOM      4  O   UNL     1     -26.542  85.260 -24.022  1.00  0.00    -0.285 OA
ATOM      5  C   UNL     1     -24.566  86.490 -24.204  1.00  0.00     0.111 A 
ATOM      6  C   UNL     1     -25.167  87.777 -24.332  1.00  0.00     0.134 A 
ATOM      7  C   UNL     1     -24.369  88.885 -24.646  1.00  0.00     0.093 A 
ATOM      8  C   UNL     1     -22.983  88.760 -24.772  1.00  0.00     0.123 A 
ATOM      9  C   UNL     1     -22.381  87.518 -24.591  1.00  0.00     0.094 A 
ATOM     10  C   UNL     1     -23.155  86.388 -24.313  1.00  0.00     0.146 A 
ATOM     11  O   UNL     1     -22.541  85.221 -24.158  1.00  0.00    -0.452 OA
ENDROOT
BRANCH   1  12
ATOM     12  C   UNL     1     -22.378  82.854 -23.734  1.00  0.00     0.021 A 
ATOM     13  C   UNL     1     -21.804  82.233 -24.856  1.00  0.00     0.016 A 
ATOM     14  C   UNL     1     -21.022  81.083 -24.708  1.00  0.00     0.047 A 
ATOM     15  C   UNL     1     -20.792  80.548 -23.437  1.00  0.00     0.115 A 
ATOM     16  C   UNL     1     -22.126  82.322 -22.455  1.00  0.00     0.016 A 
ATOM     17  C   UNL     1     -21.343  81.173 -22.310  1.00  0.00     0.047 A 
BRANCH  15  18
ATOM     18  O   UNL     1     -20.012  79.402 -23.302  1.00  0.00    -0.508 OA
ATOM     19  H   UNL     1     -19.076  79.350 -23.686  1.00  0.00     0.293 HD
ENDBRANCH  15  18
ENDBRANCH   1  12
BRANCH   2  20
ATOM     20  O   UNL     1     -25.275  82.868 -23.696  1.00  0.00    -0.502 OA
ATOM     21  H   UNL     1     -25.522  82.272 -24.477  1.00  0.00     0.293 HD
ENDBRANCH   2  20
BRANCH   6  22
ATOM     22  O   UNL     1     -26.529  88.027 -24.134  1.00  0.00    -0.507 OA
ATOM     23  H   UNL     1     -27.022  88.835 -24.485  1.00  0.00     0.293 HD
ENDBRANCH   6  22
BRANCH   8  24
ATOM     24  O   UNL     1     -22.194  89.869 -25.068  1.00  0.00    -0.508 OA
ATOM     25  H   UNL     1     -22.335  90.408 -25.915  1.00  0.00     0.293 HD
ENDBRANCH   8  24
TORSDOF 5
ENDMDL
MODEL 8
REMARK VINA RESULT:    -6.220      5.792      8.672
REMARK INTER + INTRA:          -7.347
REMARK INTER:                  -7.100
REMARK INTRA:                  -0.247
REMARK UNBOUND:                -0.035
REMARK SMILES O=c1c(O)c(-c2ccc(O)cc2)oc2cc(O)cc(O)c12
REMARK SMILES IDX 5 1 3 2 2 3 1 4 21 5 19 6 18 7 16 8 15 9 14 10 13 11 6 12
REMARK SMILES IDX 7 13 8 14 9 15 12 16 11 17 10 18 4 20 20 22 17 24
REMARK H PARENT 10 19 4 21 20 23 17 25
REMARK Flexibility Score: inf
ROOT
ATOM      1  C   UNL     1     -24.212  91.278 -28.089  1.00  0.00     0.180 A 
ATOM      2  C   UNL     1     -23.605  91.069 -29.340  1.00  0.00     0.208 A 
ATOM      3  C   UNL     1     -23.515  92.141 -30.241  1.00  0.00     0.238 A 
ATOM      4  O   UNL     1     -22.922  91.962 -31.337  1.00  0.00    -0.285 OA
ATOM      5  C   UNL     1     -24.046  93.405 -29.888  1.00  0.00     0.111 A 
ATOM      6  C   UNL     1     -24.045  94.551 -30.738  1.00  0.00     0.134 A 
ATOM      7  C   UNL     1     -24.480  95.784 -30.237  1.00  0.00     0.093 A 
ATOM      8  C   UNL     1     -24.977  95.898 -28.936  1.00  0.00     0.123 A 
ATOM      9  C   UNL     1     -25.036  94.773 -28.118  1.00  0.00     0.094 A 
ATOM     10  C   UNL     1     -24.576  93.536 -28.577  1.00  0.00     0.146 A 
ATOM     11  O   UNL     1     -24.642  92.491 -27.761  1.00  0.00    -0.452 OA
ENDROOT
BRANCH   1  12
ATOM     12  C   UNL     1     -24.368  90.190 -27.097  1.00  0.00     0.021 A 
ATOM     13  C   UNL     1     -25.604  89.533 -26.979  1.00  0.00     0.016 A 
ATOM     14  C   UNL     1     -25.768  88.489 -26.064  1.00  0.00     0.047 A 
ATOM     15  C   UNL     1     -24.696  88.078 -25.266  1.00  0.00     0.115 A 
ATOM     16  C   UNL     1     -23.287  89.759 -26.305  1.00  0.00     0.016 A 
ATOM     17  C   UNL     1     -23.453  88.714 -25.392  1.00  0.00     0.047 A 
BRANCH  15  18
ATOM     18  O   UNL     1     -24.871  87.036 -24.358  1.00  0.00    -0.508 OA
ATOM     19  H   UNL     1     -25.728  86.935 -23.827  1.00  0.00     0.293 HD
ENDBRANCH  15  18
ENDBRANCH   1  12
BRANCH   2  20
ATOM     20  O   UNL     1     -23.068  89.818 -29.659  1.00  0.00    -0.502 OA
ATOM     21  H   UNL     1     -22.241  89.713 -30.234  1.00  0.00     0.293 HD
ENDBRANCH   2  20
BRANCH   6  22
ATOM     22  O   UNL     1     -23.657  94.526 -32.081  1.00  0.00    -0.507 OA
ATOM     23  H   UNL     1     -24.289  94.603 -32.864  1.00  0.00     0.293 HD
ENDBRANCH   6  22
BRANCH   8  24
ATOM     24  O   UNL     1     -25.422  97.124 -28.450  1.00  0.00    -0.508 OA
ATOM     25  H   UNL     1     -25.046  97.525 -27.599  1.00  0.00     0.293 HD
ENDBRANCH   8  24
TORSDOF 5
ENDMDL
MODEL 9
REMARK VINA RESULT:    -6.196      5.034      9.537
REMARK INTER + INTRA:          -7.318
REMARK INTER:                  -7.018
REMARK INTRA:                  -0.300
REMARK UNBOUND:                -0.035
REMARK SMILES O=c1c(O)c(-c2ccc(O)cc2)oc2cc(O)cc(O)c12
REMARK SMILES IDX 5 1 3 2 2 3 1 4 21 5 19 6 18 7 16 8 15 9 14 10 13 11 6 12
REMARK SMILES IDX 7 13 8 14 9 15 12 16 11 17 10 18 4 20 20 22 17 24
REMARK H PARENT 10 19 4 21 20 23 17 25
REMARK Flexibility Score: inf
ROOT
ATOM      1  C   UNL     1     -24.967  91.479 -27.920  1.00  0.00     0.180 A 
ATOM      2  C   UNL     1     -25.748  90.557 -28.639  1.00  0.00     0.208 A 
ATOM      3  C   UNL     1     -25.543  89.184 -28.433  1.00  0.00     0.238 A 
ATOM      4  O   UNL     1     -26.282  88.364 -29.038  1.00  0.00    -0.285 OA
ATOM      5  C   UNL     1     -24.548  88.748 -27.523  1.00  0.00     0.111 A 
ATOM      6  C   UNL     1     -24.228  87.382 -27.266  1.00  0.00     0.134 A 
ATOM      7  C   UNL     1     -23.317  87.065 -26.251  1.00  0.00     0.093 A 
ATOM      8  C   UNL     1     -22.667  88.068 -25.528  1.00  0.00     0.123 A 
ATOM      9  C   UNL     1     -22.930  89.406 -25.811  1.00  0.00     0.094 A 
ATOM     10  C   UNL     1     -23.861  89.753 -26.794  1.00  0.00     0.146 A 
ATOM     11  O   UNL     1     -24.089  91.040 -27.026  1.00  0.00    -0.452 OA
ENDROOT
BRANCH   1  12
ATOM     12  C   UNL     1     -25.108  92.941 -28.102  1.00  0.00     0.021 A 
ATOM     13  C   UNL     1     -25.946  93.668 -27.240  1.00  0.00     0.016 A 
ATOM     14  C   UNL     1     -26.076  95.053 -27.379  1.00  0.00     0.047 A 
ATOM     15  C   UNL     1     -25.361  95.732 -28.371  1.00  0.00     0.115 A 
ATOM     16  C   UNL     1     -24.375  93.632 -29.086  1.00  0.00     0.016 A 
ATOM     17  C   UNL     1     -24.507  95.017 -29.222  1.00  0.00     0.047 A 
BRANCH  15  18
ATOM     18  O   UNL     1     -25.500  97.112 -28.500  1.00  0.00    -0.508 OA
ATOM     19  H   UNL     1     -24.699  97.713 -28.652  1.00  0.00     0.293 HD
ENDBRANCH  15  18
ENDBRANCH   1  12
BRANCH   2  20
ATOM     20  O   UNL     1     -26.739  91.009 -29.515  1.00  0.00    -0.502 OA
ATOM     21  H   UNL     1     -27.080  91.962 -29.505  1.00  0.00     0.293 HD
ENDBRANCH   2  20
BRANCH   6  22
ATOM     22  O   UNL     1     -24.750  86.307 -27.992  1.00  0.00    -0.507 OA
ATOM     23  H   UNL     1     -25.727  86.186 -28.219  1.00  0.00     0.293 HD
ENDBRANCH   6  22
BRANCH   8  24
ATOM     24  O   UNL     1     -21.751  87.745 -24.530  1.00  0.00    -0.508 OA
ATOM     25  H   UNL     1     -21.054  88.411 -24.215  1.00  0.00     0.293 HD
ENDBRANCH   8  24
TORSDOF 5
ENDMDL
