MODEL 1
REMARK VINA RESULT:    -6.861      0.000      0.000
REMARK INTER + INTRA:         -11.406
REMARK INTER:                 -10.070
REMARK INTRA:                  -1.336
REMARK UNBOUND:                -1.336
REMARK SMILES O=c1c(O[C@H]2O[C@@H](CO)[C@H](O)[C@H](O)[C@@H]2O)c(-c2ccc(O)c(O)c2)oc2cc(O)cc(O)c12
REMARK SMILES IDX 4 1 3 2 16 3 25 4 2 5 26 6 1 7 33 8 27 9 31 10 28 11 30 12
REMARK SMILES IDX 17 13 18 14 19 15 20 16 24 17 22 18 21 19 23 21 32 23 29 25
REMARK SMILES IDX 5 27 14 28 6 29 12 30 7 31 10 32 15 33 13 35 8 37 9 38 11 40
REMARK H PARENT 21 20 23 22 32 24 29 26 15 34 13 36 9 39 11 41
REMARK Flexibility Score: inf
ROOT
ATOM      1  O   UNL     1       6.543   8.821 -21.631  1.00  0.00    -0.454 OA
ENDROOT
BRANCH   1   2
ATOM      2  C   UNL     1       6.541   7.672 -20.814  1.00  0.00     0.214 A 
ATOM      3  C   UNL     1       7.093   7.783 -19.522  1.00  0.00     0.180 A 
ATOM      4  O   UNL     1       7.059   6.750 -18.687  1.00  0.00    -0.452 OA
ATOM      5  C   UNL     1       5.985   6.430 -21.199  1.00  0.00     0.239 A 
ATOM      6  C   UNL     1       6.541   5.571 -19.006  1.00  0.00     0.146 A 
ATOM      7  O   UNL     1       5.491   6.281 -22.349  1.00  0.00    -0.285 OA
ATOM      8  C   UNL     1       5.982   5.353 -20.286  1.00  0.00     0.111 A 
ATOM      9  C   UNL     1       6.557   4.545 -18.057  1.00  0.00     0.094 A 
ATOM     10  C   UNL     1       5.439   4.080 -20.590  1.00  0.00     0.134 A 
ATOM     11  C   UNL     1       6.020   3.291 -18.364  1.00  0.00     0.123 A 
ATOM     12  C   UNL     1       5.465   3.062 -19.625  1.00  0.00     0.093 A 
BRANCH   3  13
ATOM     13  C   UNL     1       7.685   9.050 -19.037  1.00  0.00     0.025 A 
ATOM     14  C   UNL     1       6.898  10.034 -18.420  1.00  0.00     0.016 A 
ATOM     15  C   UNL     1       7.480  11.219 -17.966  1.00  0.00     0.051 A 
ATOM     16  C   UNL     1       8.849  11.451 -18.130  1.00  0.00     0.157 A 
ATOM     17  C   UNL     1       9.055   9.287 -19.223  1.00  0.00     0.062 A 
ATOM     18  C   UNL     1       9.648  10.473 -18.771  1.00  0.00     0.158 A 
BRANCH  16  19
ATOM     19  O   UNL     1       9.370  12.653 -17.650  1.00  0.00    -0.504 OA
ATOM     20  H   UNL     1      10.214  12.724 -17.098  1.00  0.00     0.293 HD
ENDBRANCH  16  19
BRANCH  18  21
ATOM     21  O   UNL     1      11.019  10.636 -18.978  1.00  0.00    -0.504 OA
ATOM     22  H   UNL     1      11.573  10.043 -19.578  1.00  0.00     0.293 HD
ENDBRANCH  18  21
ENDBRANCH   3  13
BRANCH  10  23
ATOM     23  O   UNL     1       4.875   3.819 -21.840  1.00  0.00    -0.507 OA
ATOM     24  H   UNL     1       4.110   3.165 -21.953  1.00  0.00     0.293 HD
ENDBRANCH  10  23
BRANCH  11  25
ATOM     25  O   UNL     1       6.033   2.263 -17.423  1.00  0.00    -0.508 OA
ATOM     26  H   UNL     1       5.555   2.354 -16.535  1.00  0.00     0.293 HD
ENDBRANCH  11  25
ENDBRANCH   1   2
BRANCH   1  27
ATOM     27  C   UNL     1       7.188   8.993 -22.893  1.00  0.00     0.339 C 
ATOM     28  C   UNL     1       8.526   9.739 -22.701  1.00  0.00     0.214 C 
ATOM     29  O   UNL     1       6.330   9.624 -23.840  1.00  0.00    -0.332 OA
ATOM     30  C   UNL     1       8.278  11.221 -22.375  1.00  0.00     0.180 C 
ATOM     31  C   UNL     1       6.050  10.999 -23.575  1.00  0.00     0.179 C 
ATOM     32  C   UNL     1       7.317  11.868 -23.389  1.00  0.00     0.177 C 
BRANCH  28  33
ATOM     33  O   UNL     1       9.372   9.579 -23.817  1.00  0.00    -0.384 OA
ATOM     34  H   UNL     1      10.001   8.835 -23.634  1.00  0.00     0.211 HD
ENDBRANCH  28  33
BRANCH  30  35
ATOM     35  O   UNL     1       9.480  11.944 -22.258  1.00  0.00    -0.387 OA
ATOM     36  H   UNL     1       9.653  12.407 -23.117  1.00  0.00     0.211 HD
ENDBRANCH  30  35
BRANCH  31  37
ATOM     37  C   UNL     1       5.011  11.204 -22.455  1.00  0.00     0.191 C 
BRANCH  37  38
ATOM     38  O   UNL     1       4.902  12.568 -22.151  1.00  0.00    -0.394 OA
ATOM     39  H   UNL     1       4.902  13.046 -23.021  1.00  0.00     0.210 HD
ENDBRANCH  37  38
ENDBRANCH  31  37
BRANCH  32  40
ATOM     40  O   UNL     1       7.943  12.033 -24.638  1.00  0.00    -0.387 OA
ATOM     41  H   UNL     1       7.323  12.558 -25.211  1.00  0.00     0.211 HD
ENDBRANCH  32  40
ENDBRANCH   1  27
TORSDOF 12
ENDMDL
MODEL 2
REMARK VINA RESULT:    -6.834      1.703      4.740
REMARK INTER + INTRA:         -11.366
REMARK INTER:                  -9.858
REMARK INTRA:                  -1.508
REMARK UNBOUND:                -1.336
REMARK SMILES O=c1c(O[C@H]2O[C@@H](CO)[C@H](O)[C@H](O)[C@@H]2O)c(-c2ccc(O)c(O)c2)oc2cc(O)cc(O)c12
REMARK SMILES IDX 4 1 3 2 16 3 25 4 2 5 26 6 1 7 33 8 27 9 31 10 28 11 30 12
REMARK SMILES IDX 17 13 18 14 19 15 20 16 24 17 22 18 21 19 23 21 32 23 29 25
REMARK SMILES IDX 5 27 14 28 6 29 12 30 7 31 10 32 15 33 13 35 8 37 9 38 11 40
REMARK H PARENT 21 20 23 22 32 24 29 26 15 34 13 36 9 39 11 41
REMARK Flexibility Score: inf
ROOT
ATOM      1  O   UNL     1       8.128   9.894 -18.927  1.00  0.00    -0.454 OA
ENDROOT
BRANCH   1   2
ATOM      2  C   UNL     1       7.529   8.635 -19.139  1.00  0.00     0.214 A 
ATOM      3  C   UNL     1       7.198   8.279 -20.461  1.00  0.00     0.180 A 
ATOM      4  O   UNL     1       6.690   7.080 -20.726  1.00  0.00    -0.452 OA
ATOM      5  C   UNL     1       7.277   7.698 -18.111  1.00  0.00     0.239 A 
ATOM      6  C   UNL     1       6.446   6.169 -19.793  1.00  0.00     0.146 A 
ATOM      7  O   UNL     1       7.546   7.977 -16.912  1.00  0.00    -0.285 OA
ATOM      8  C   UNL     1       6.724   6.439 -18.434  1.00  0.00     0.111 A 
ATOM      9  C   UNL     1       5.907   4.937 -20.174  1.00  0.00     0.094 A 
ATOM     10  C   UNL     1       6.448   5.443 -17.465  1.00  0.00     0.134 A 
ATOM     11  C   UNL     1       5.636   3.958 -19.213  1.00  0.00     0.123 A 
ATOM     12  C   UNL     1       5.906   4.212 -17.866  1.00  0.00     0.093 A 
BRANCH   3  13
ATOM     13  C   UNL     1       7.438   9.198 -21.597  1.00  0.00     0.025 A 
ATOM     14  C   UNL     1       8.739   9.521 -22.011  1.00  0.00     0.016 A 
ATOM     15  C   UNL     1       8.941  10.387 -23.088  1.00  0.00     0.051 A 
ATOM     16  C   UNL     1       7.854  10.955 -23.760  1.00  0.00     0.157 A 
ATOM     17  C   UNL     1       6.346   9.782 -22.255  1.00  0.00     0.062 A 
ATOM     18  C   UNL     1       6.538  10.651 -23.336  1.00  0.00     0.158 A 
BRANCH  16  19
ATOM     19  O   UNL     1       8.123  11.808 -24.832  1.00  0.00    -0.504 OA
ATOM     20  H   UNL     1       7.922  12.798 -24.831  1.00  0.00     0.293 HD
ENDBRANCH  16  19
BRANCH  18  21
ATOM     21  O   UNL     1       5.405  11.186 -23.953  1.00  0.00    -0.504 OA
ATOM     22  H   UNL     1       5.389  11.532 -24.900  1.00  0.00     0.293 HD
ENDBRANCH  18  21
ENDBRANCH   3  13
BRANCH  10  23
ATOM     23  O   UNL     1       6.707   5.663 -16.112  1.00  0.00    -0.507 OA
ATOM     24  H   UNL     1       6.824   4.897 -15.459  1.00  0.00     0.293 HD
ENDBRANCH  10  23
BRANCH  11  25
ATOM     25  O   UNL     1       5.099   2.727 -19.584  1.00  0.00    -0.508 OA
ATOM     26  H   UNL     1       4.098   2.584 -19.646  1.00  0.00     0.293 HD
ENDBRANCH  11  25
ENDBRANCH   1   2
BRANCH   1  27
ATOM     27  C   UNL     1       7.620  10.984 -18.157  1.00  0.00     0.339 C 
ATOM     28  C   UNL     1       6.500  11.703 -18.938  1.00  0.00     0.214 C 
ATOM     29  O   UNL     1       8.662  11.862 -17.740  1.00  0.00    -0.332 OA
ATOM     30  C   UNL     1       7.089  12.514 -20.105  1.00  0.00     0.180 C 
ATOM     31  C   UNL     1       9.259  12.627 -18.789  1.00  0.00     0.179 C 
ATOM     32  C   UNL     1       8.239  13.424 -19.636  1.00  0.00     0.177 C 
BRANCH  28  33
ATOM     33  O   UNL     1       5.709  12.503 -18.089  1.00  0.00    -0.384 OA
ATOM     34  H   UNL     1       6.107  12.490 -17.180  1.00  0.00     0.211 HD
ENDBRANCH  28  33
BRANCH  30  35
ATOM     35  O   UNL     1       6.099  13.234 -20.799  1.00  0.00    -0.387 OA
ATOM     36  H   UNL     1       5.641  13.835 -20.158  1.00  0.00     0.211 HD
ENDBRANCH  30  35
BRANCH  31  37
ATOM     37  C   UNL     1      10.249  11.815 -19.647  1.00  0.00     0.191 C 
BRANCH  37  38
ATOM     38  O   UNL     1      10.901  10.865 -18.850  1.00  0.00    -0.394 OA
ATOM     39  H   UNL     1      11.708  10.587 -19.355  1.00  0.00     0.210 HD
ENDBRANCH  37  38
ENDBRANCH  31  37
BRANCH  32  40
ATOM     40  O   UNL     1       7.748  14.496 -18.868  1.00  0.00    -0.387 OA
ATOM     41  H   UNL     1       8.342  14.588 -18.077  1.00  0.00     0.211 HD
ENDBRANCH  32  40
ENDBRANCH   1  27
TORSDOF 12
ENDMDL
MODEL 3
REMARK VINA RESULT:    -6.129      2.975      4.486
REMARK INTER + INTRA:         -10.331
REMARK INTER:                  -8.790
REMARK INTRA:                  -1.541
REMARK UNBOUND:                -1.336
REMARK SMILES O=c1c(O[C@H]2O[C@@H](CO)[C@H](O)[C@H](O)[C@@H]2O)c(-c2ccc(O)c(O)c2)oc2cc(O)cc(O)c12
REMARK SMILES IDX 4 1 3 2 16 3 25 4 2 5 26 6 1 7 33 8 27 9 31 10 28 11 30 12
REMARK SMILES IDX 17 13 18 14 19 15 20 16 24 17 22 18 21 19 23 21 32 23 29 25
REMARK SMILES IDX 5 27 14 28 6 29 12 30 7 31 10 32 15 33 13 35 8 37 9 38 11 40
REMARK H PARENT 21 20 23 22 32 24 29 26 15 34 13 36 9 39 11 41
REMARK Flexibility Score: inf
ROOT
ATOM      1  O   UNL     1       7.730  10.886 -21.390  1.00  0.00    -0.454 OA
ENDROOT
BRANCH   1   2
ATOM      2  C   UNL     1       7.274  10.449 -20.130  1.00  0.00     0.214 A 
ATOM      3  C   UNL     1       6.412  11.302 -19.412  1.00  0.00     0.180 A 
ATOM      4  O   UNL     1       5.901  10.913 -18.248  1.00  0.00    -0.452 OA
ATOM      5  C   UNL     1       7.599   9.195 -19.564  1.00  0.00     0.239 A 
ATOM      6  C   UNL     1       6.174   9.744 -17.686  1.00  0.00     0.146 A 
ATOM      7  O   UNL     1       8.376   8.406 -20.165  1.00  0.00    -0.285 OA
ATOM      8  C   UNL     1       7.045   8.827 -18.318  1.00  0.00     0.111 A 
ATOM      9  C   UNL     1       5.588   9.429 -16.456  1.00  0.00     0.094 A 
ATOM     10  C   UNL     1       7.314   7.588 -17.687  1.00  0.00     0.134 A 
ATOM     11  C   UNL     1       5.858   8.204 -15.838  1.00  0.00     0.123 A 
ATOM     12  C   UNL     1       6.717   7.290 -16.452  1.00  0.00     0.093 A 
BRANCH   3  13
ATOM     13  C   UNL     1       6.014  12.627 -19.937  1.00  0.00     0.025 A 
ATOM     14  C   UNL     1       5.242  12.747 -21.103  1.00  0.00     0.016 A 
ATOM     15  C   UNL     1       4.875  14.008 -21.578  1.00  0.00     0.051 A 
ATOM     16  C   UNL     1       5.280  15.168 -20.910  1.00  0.00     0.157 A 
ATOM     17  C   UNL     1       6.440  13.788 -19.276  1.00  0.00     0.062 A 
ATOM     18  C   UNL     1       6.076  15.057 -19.745  1.00  0.00     0.158 A 
BRANCH  16  19
ATOM     19  O   UNL     1       4.875  16.398 -21.432  1.00  0.00    -0.504 OA
ATOM     20  H   UNL     1       5.441  17.234 -21.413  1.00  0.00     0.293 HD
ENDBRANCH  16  19
BRANCH  18  21
ATOM     21  O   UNL     1       6.525  16.169 -19.029  1.00  0.00    -0.504 OA
ATOM     22  H   UNL     1       6.513  16.234 -18.022  1.00  0.00     0.293 HD
ENDBRANCH  18  21
ENDBRANCH   3  13
BRANCH  10  23
ATOM     23  O   UNL     1       8.166   6.651 -18.274  1.00  0.00    -0.507 OA
ATOM     24  H   UNL     1       8.754   6.042 -17.717  1.00  0.00     0.293 HD
ENDBRANCH  10  23
BRANCH  11  25
ATOM     25  O   UNL     1       5.278   7.884 -14.613  1.00  0.00    -0.508 OA
ATOM     26  H   UNL     1       4.442   7.315 -14.556  1.00  0.00     0.293 HD
ENDBRANCH  11  25
ENDBRANCH   1   2
BRANCH   1  27
ATOM     27  C   UNL     1       9.056  11.273 -21.753  1.00  0.00     0.339 C 
ATOM     28  C   UNL     1       9.248  12.785 -21.509  1.00  0.00     0.214 C 
ATOM     29  O   UNL     1       9.372  10.879 -23.085  1.00  0.00    -0.332 OA
ATOM     30  C   UNL     1       8.483  13.604 -22.563  1.00  0.00     0.180 C 
ATOM     31  C   UNL     1       8.675  11.595 -24.105  1.00  0.00     0.179 C 
ATOM     32  C   UNL     1       8.811  13.132 -23.991  1.00  0.00     0.177 C 
BRANCH  28  33
ATOM     33  O   UNL     1      10.613  13.133 -21.461  1.00  0.00    -0.384 OA
ATOM     34  H   UNL     1      11.131  12.449 -21.958  1.00  0.00     0.211 HD
ENDBRANCH  28  33
BRANCH  30  35
ATOM     35  O   UNL     1       8.689  14.988 -22.407  1.00  0.00    -0.387 OA
ATOM     36  H   UNL     1       9.657  15.147 -22.265  1.00  0.00     0.211 HD
ENDBRANCH  30  35
BRANCH  31  37
ATOM     37  C   UNL     1       7.216  11.133 -24.285  1.00  0.00     0.191 C 
BRANCH  37  38
ATOM     38  O   UNL     1       7.114   9.763 -24.007  1.00  0.00    -0.394 OA
ATOM     39  H   UNL     1       7.155   9.677 -23.020  1.00  0.00     0.210 HD
ENDBRANCH  37  38
ENDBRANCH  31  37
BRANCH  32  40
ATOM     40  O   UNL     1      10.119  13.502 -24.352  1.00  0.00    -0.387 OA
ATOM     41  H   UNL     1      10.422  14.189 -23.701  1.00  0.00     0.211 HD
ENDBRANCH  32  40
ENDBRANCH   1  27
TORSDOF 12
ENDMDL
MODEL 4
REMARK VINA RESULT:    -6.066      2.229      7.559
REMARK INTER + INTRA:         -10.239
REMARK INTER:                  -8.920
REMARK INTRA:                  -1.319
REMARK UNBOUND:                -1.336
REMARK SMILES O=c1c(O[C@H]2O[C@@H](CO)[C@H](O)[C@H](O)[C@@H]2O)c(-c2ccc(O)c(O)c2)oc2cc(O)cc(O)c12
REMARK SMILES IDX 4 1 3 2 16 3 25 4 2 5 26 6 1 7 33 8 27 9 31 10 28 11 30 12
REMARK SMILES IDX 17 13 18 14 19 15 20 16 24 17 22 18 21 19 23 21 32 23 29 25
REMARK SMILES IDX 5 27 14 28 6 29 12 30 7 31 10 32 15 33 13 35 8 37 9 38 11 40
REMARK H PARENT 21 20 23 22 32 24 29 26 15 34 13 36 9 39 11 41
REMARK Flexibility Score: inf
ROOT
ATOM      1  O   UNL     1       6.509  11.765 -20.466  1.00  0.00    -0.454 OA
ENDROOT
BRANCH   1   2
ATOM      2  C   UNL     1       7.161  11.884 -21.710  1.00  0.00     0.214 A 
ATOM      3  C   UNL     1       7.386  10.706 -22.450  1.00  0.00     0.180 A 
ATOM      4  O   UNL     1       7.939  10.767 -23.657  1.00  0.00    -0.452 OA
ATOM      5  C   UNL     1       7.568  13.115 -22.274  1.00  0.00     0.239 A 
ATOM      6  C   UNL     1       8.327  11.901 -24.225  1.00  0.00     0.146 A 
ATOM      7  O   UNL     1       7.398  14.193 -21.644  1.00  0.00    -0.285 OA
ATOM      8  C   UNL     1       8.164  13.134 -23.554  1.00  0.00     0.111 A 
ATOM      9  C   UNL     1       8.902  11.859 -25.498  1.00  0.00     0.094 A 
ATOM     10  C   UNL     1       8.592  14.325 -24.192  1.00  0.00     0.134 A 
ATOM     11  C   UNL     1       9.323  13.038 -26.121  1.00  0.00     0.123 A 
ATOM     12  C   UNL     1       9.168  14.263 -25.469  1.00  0.00     0.093 A 
BRANCH   3  13
ATOM     13  C   UNL     1       6.982   9.378 -21.938  1.00  0.00     0.025 A 
ATOM     14  C   UNL     1       5.725   8.831 -22.238  1.00  0.00     0.016 A 
ATOM     15  C   UNL     1       5.368   7.574 -21.746  1.00  0.00     0.051 A 
ATOM     16  C   UNL     1       6.248   6.847 -20.938  1.00  0.00     0.157 A 
ATOM     17  C   UNL     1       7.859   8.661 -21.110  1.00  0.00     0.062 A 
ATOM     18  C   UNL     1       7.510   7.399 -20.613  1.00  0.00     0.158 A 
BRANCH  16  19
ATOM     19  O   UNL     1       5.833   5.594 -20.484  1.00  0.00    -0.504 OA
ATOM     20  H   UNL     1       4.963   5.428 -19.998  1.00  0.00     0.293 HD
ENDBRANCH  16  19
BRANCH  18  21
ATOM     21  O   UNL     1       8.437   6.737 -19.806  1.00  0.00    -0.504 OA
ATOM     22  H   UNL     1       8.312   5.799 -19.456  1.00  0.00     0.293 HD
ENDBRANCH  18  21
ENDBRANCH   3  13
BRANCH  10  23
ATOM     23  O   UNL     1       8.450  15.566 -23.569  1.00  0.00    -0.507 OA
ATOM     24  H   UNL     1       8.751  15.721 -22.613  1.00  0.00     0.293 HD
ENDBRANCH  10  23
BRANCH  11  25
ATOM     25  O   UNL     1       9.898  13.004 -27.391  1.00  0.00    -0.508 OA
ATOM     26  H   UNL     1       9.511  12.430 -28.131  1.00  0.00     0.293 HD
ENDBRANCH  11  25
ENDBRANCH   1   2
BRANCH   1  27
ATOM     27  C   UNL     1       6.911  12.317 -19.213  1.00  0.00     0.339 C 
ATOM     28  C   UNL     1       8.309  11.787 -18.830  1.00  0.00     0.214 C 
ATOM     29  O   UNL     1       5.934  12.092 -18.202  1.00  0.00    -0.332 OA
ATOM     30  C   UNL     1       8.231  10.310 -18.405  1.00  0.00     0.180 C 
ATOM     31  C   UNL     1       5.805  10.732 -17.782  1.00  0.00     0.179 C 
ATOM     32  C   UNL     1       7.140  10.087 -17.342  1.00  0.00     0.177 C 
BRANCH  28  33
ATOM     33  O   UNL     1       8.913  12.587 -17.839  1.00  0.00    -0.384 OA
ATOM     34  H   UNL     1       9.645  12.068 -17.415  1.00  0.00     0.211 HD
ENDBRANCH  28  33
BRANCH  30  35
ATOM     35  O   UNL     1       9.480   9.814 -17.988  1.00  0.00    -0.387 OA
ATOM     36  H   UNL     1      10.059   9.711 -18.786  1.00  0.00     0.211 HD
ENDBRANCH  30  35
BRANCH  31  37
ATOM     37  C   UNL     1       5.015   9.860 -18.778  1.00  0.00     0.191 C 
BRANCH  37  38
ATOM     38  O   UNL     1       4.905   8.554 -18.284  1.00  0.00    -0.394 OA
ATOM     39  H   UNL     1       4.049   8.196 -18.636  1.00  0.00     0.210 HD
ENDBRANCH  37  38
ENDBRANCH  31  37
BRANCH  32  40
ATOM     40  O   UNL     1       7.526  10.636 -16.106  1.00  0.00    -0.387 OA
ATOM     41  H   UNL     1       8.244  11.299 -16.288  1.00  0.00     0.211 HD
ENDBRANCH  32  40
ENDBRANCH   1  27
TORSDOF 12
ENDMDL
MODEL 5
REMARK VINA RESULT:    -6.066      2.846      5.717
REMARK INTER + INTRA:         -10.238
REMARK INTER:                  -9.747
REMARK INTRA:                  -0.491
REMARK UNBOUND:                -1.336
REMARK SMILES O=c1c(O[C@H]2O[C@@H](CO)[C@H](O)[C@H](O)[C@@H]2O)c(-c2ccc(O)c(O)c2)oc2cc(O)cc(O)c12
REMARK SMILES IDX 4 1 3 2 16 3 25 4 2 5 26 6 1 7 33 8 27 9 31 10 28 11 30 12
REMARK SMILES IDX 17 13 18 14 19 15 20 16 24 17 22 18 21 19 23 21 32 23 29 25
REMARK SMILES IDX 5 27 14 28 6 29 12 30 7 31 10 32 15 33 13 35 8 37 9 38 11 40
REMARK H PARENT 21 20 23 22 32 24 29 26 15 34 13 36 9 39 11 41
REMARK Flexibility Score: inf
ROOT
ATOM      1  O   UNL     1       7.548  11.610 -21.004  1.00  0.00    -0.454 OA
ENDROOT
BRANCH   1   2
ATOM      2  C   UNL     1       7.036  10.800 -19.970  1.00  0.00     0.214 A 
ATOM      3  C   UNL     1       6.212   9.715 -20.333  1.00  0.00     0.180 A 
ATOM      4  O   UNL     1       5.755   8.881 -19.405  1.00  0.00    -0.452 OA
ATOM      5  C   UNL     1       7.331  10.987 -18.600  1.00  0.00     0.239 A 
ATOM      6  C   UNL     1       6.014   9.016 -18.112  1.00  0.00     0.146 A 
ATOM      7  O   UNL     1       8.054  11.950 -18.228  1.00  0.00    -0.285 OA
ATOM      8  C   UNL     1       6.814  10.084 -17.645  1.00  0.00     0.111 A 
ATOM      9  C   UNL     1       5.482   8.086 -17.213  1.00  0.00     0.094 A 
ATOM     10  C   UNL     1       7.067  10.197 -16.256  1.00  0.00     0.134 A 
ATOM     11  C   UNL     1       5.735   8.204 -15.843  1.00  0.00     0.123 A 
ATOM     12  C   UNL     1       6.523   9.255 -15.370  1.00  0.00     0.093 A 
BRANCH   3  13
ATOM     13  C   UNL     1       5.864   9.443 -21.745  1.00  0.00     0.025 A 
ATOM     14  C   UNL     1       5.486  10.476 -22.616  1.00  0.00     0.016 A 
ATOM     15  C   UNL     1       5.166  10.195 -23.946  1.00  0.00     0.051 A 
ATOM     16  C   UNL     1       5.201   8.882 -24.427  1.00  0.00     0.157 A 
ATOM     17  C   UNL     1       5.880   8.122 -22.218  1.00  0.00     0.062 A 
ATOM     18  C   UNL     1       5.560   7.830 -23.550  1.00  0.00     0.158 A 
BRANCH  16  19
ATOM     19  O   UNL     1       4.875   8.669 -25.767  1.00  0.00    -0.504 OA
ATOM     20  H   UNL     1       5.375   8.038 -26.377  1.00  0.00     0.293 HD
ENDBRANCH  16  19
BRANCH  18  21
ATOM     21  O   UNL     1       5.610   6.495 -23.954  1.00  0.00    -0.504 OA
ATOM     22  H   UNL     1       4.815   5.873 -23.947  1.00  0.00     0.293 HD
ENDBRANCH  18  21
ENDBRANCH   3  13
BRANCH  10  23
ATOM     23  O   UNL     1       7.852  11.234 -15.749  1.00  0.00    -0.507 OA
ATOM     24  H   UNL     1       7.447  12.006 -15.233  1.00  0.00     0.293 HD
ENDBRANCH  10  23
BRANCH  11  25
ATOM     25  O   UNL     1       5.209   7.281 -14.942  1.00  0.00    -0.508 OA
ATOM     26  H   UNL     1       5.806   6.641 -14.430  1.00  0.00     0.293 HD
ENDBRANCH  11  25
ENDBRANCH   1   2
BRANCH   1  27
ATOM     27  C   UNL     1       7.581  13.037 -21.059  1.00  0.00     0.339 C 
ATOM     28  C   UNL     1       7.555  13.507 -22.529  1.00  0.00     0.214 C 
ATOM     29  O   UNL     1       8.682  13.565 -20.325  1.00  0.00    -0.332 OA
ATOM     30  C   UNL     1       8.905  13.228 -23.211  1.00  0.00     0.180 C 
ATOM     31  C   UNL     1       9.964  13.318 -20.904  1.00  0.00     0.179 C 
ATOM     32  C   UNL     1      10.080  13.773 -22.379  1.00  0.00     0.177 C 
BRANCH  28  33
ATOM     33  O   UNL     1       7.183  14.862 -22.633  1.00  0.00    -0.384 OA
ATOM     34  H   UNL     1       7.276  15.144 -23.579  1.00  0.00     0.211 HD
ENDBRANCH  28  33
BRANCH  30  35
ATOM     35  O   UNL     1       8.935  13.703 -24.536  1.00  0.00    -0.387 OA
ATOM     36  H   UNL     1       9.598  14.438 -24.590  1.00  0.00     0.211 HD
ENDBRANCH  30  35
BRANCH  31  37
ATOM     37  C   UNL     1      10.468  11.880 -20.677  1.00  0.00     0.191 C 
BRANCH  37  38
ATOM     38  O   UNL     1      10.736  11.678 -19.317  1.00  0.00    -0.394 OA
ATOM     39  H   UNL     1       9.868  11.441 -18.897  1.00  0.00     0.210 HD
ENDBRANCH  37  38
ENDBRANCH  31  37
BRANCH  32  40
ATOM     40  O   UNL     1      10.114  15.178 -22.421  1.00  0.00    -0.387 OA
ATOM     41  H   UNL     1      10.965  15.440 -22.863  1.00  0.00     0.211 HD
ENDBRANCH  32  40
ENDBRANCH   1  27
TORSDOF 12
ENDMDL
MODEL 6
REMARK VINA RESULT:    -6.064      2.497      3.586
REMARK INTER + INTRA:         -10.236
REMARK INTER:                  -8.751
REMARK INTRA:                  -1.485
REMARK UNBOUND:                -1.336
REMARK SMILES O=c1c(O[C@H]2O[C@@H](CO)[C@H](O)[C@H](O)[C@@H]2O)c(-c2ccc(O)c(O)c2)oc2cc(O)cc(O)c12
REMARK SMILES IDX 4 1 3 2 16 3 25 4 2 5 26 6 1 7 33 8 27 9 31 10 28 11 30 12
REMARK SMILES IDX 17 13 18 14 19 15 20 16 24 17 22 18 21 19 23 21 32 23 29 25
REMARK SMILES IDX 5 27 14 28 6 29 12 30 7 31 10 32 15 33 13 35 8 37 9 38 11 40
REMARK H PARENT 21 20 23 22 32 24 29 26 15 34 13 36 9 39 11 41
REMARK Flexibility Score: inf
ROOT
ATOM      1  O   UNL     1       6.389   9.182 -20.578  1.00  0.00    -0.454 OA
ENDROOT
BRANCH   1   2
ATOM      2  C   UNL     1       6.327   8.961 -19.187  1.00  0.00     0.214 A 
ATOM      3  C   UNL     1       6.489  10.073 -18.337  1.00  0.00     0.180 A 
ATOM      4  O   UNL     1       6.376   9.933 -17.020  1.00  0.00    -0.452 OA
ATOM      5  C   UNL     1       6.074   7.700 -18.598  1.00  0.00     0.239 A 
ATOM      6  C   UNL     1       6.132   8.771 -16.429  1.00  0.00     0.146 A 
ATOM      7  O   UNL     1       5.934   6.676 -19.319  1.00  0.00    -0.285 OA
ATOM      8  C   UNL     1       5.975   7.593 -17.194  1.00  0.00     0.111 A 
ATOM      9  C   UNL     1       6.035   8.727 -15.035  1.00  0.00     0.094 A 
ATOM     10  C   UNL     1       5.717   6.370 -16.527  1.00  0.00     0.134 A 
ATOM     11  C   UNL     1       5.781   7.517 -14.383  1.00  0.00     0.123 A 
ATOM     12  C   UNL     1       5.624   6.346 -15.127  1.00  0.00     0.093 A 
BRANCH   3  13
ATOM     13  C   UNL     1       6.746  11.429 -18.871  1.00  0.00     0.025 A 
ATOM     14  C   UNL     1       7.986  12.061 -18.691  1.00  0.00     0.016 A 
ATOM     15  C   UNL     1       8.207  13.339 -19.208  1.00  0.00     0.051 A 
ATOM     16  C   UNL     1       7.195  14.014 -19.900  1.00  0.00     0.157 A 
ATOM     17  C   UNL     1       5.723  12.111 -19.546  1.00  0.00     0.062 A 
ATOM     18  C   UNL     1       5.935  13.393 -20.068  1.00  0.00     0.158 A 
BRANCH  16  19
ATOM     19  O   UNL     1       7.482  15.287 -20.396  1.00  0.00    -0.504 OA
ATOM     20  H   UNL     1       6.779  15.969 -20.643  1.00  0.00     0.293 HD
ENDBRANCH  16  19
BRANCH  18  21
ATOM     21  O   UNL     1       4.875  14.006 -20.740  1.00  0.00    -0.504 OA
ATOM     22  H   UNL     1       4.826  14.996 -20.931  1.00  0.00     0.293 HD
ENDBRANCH  18  21
ENDBRANCH   3  13
BRANCH  10  23
ATOM     23  O   UNL     1       5.553   5.181 -17.240  1.00  0.00    -0.507 OA
ATOM     24  H   UNL     1       6.145   4.376 -17.078  1.00  0.00     0.293 HD
ENDBRANCH  10  23
BRANCH  11  25
ATOM     25  O   UNL     1       5.682   7.465 -12.994  1.00  0.00    -0.508 OA
ATOM     26  H   UNL     1       4.921   6.978 -12.535  1.00  0.00     0.293 HD
ENDBRANCH  11  25
ENDBRANCH   1   2
BRANCH   1  27
ATOM     27  C   UNL     1       7.348   8.667 -21.501  1.00  0.00     0.339 C 
ATOM     28  C   UNL     1       8.675   9.444 -21.369  1.00  0.00     0.214 C 
ATOM     29  O   UNL     1       6.841   8.654 -22.833  1.00  0.00    -0.332 OA
ATOM     30  C   UNL     1       8.536  10.858 -21.960  1.00  0.00     0.180 C 
ATOM     31  C   UNL     1       6.673   9.943 -23.425  1.00  0.00     0.179 C 
ATOM     32  C   UNL     1       7.949  10.819 -23.382  1.00  0.00     0.177 C 
BRANCH  28  33
ATOM     33  O   UNL     1       9.749   8.736 -21.945  1.00  0.00    -0.384 OA
ATOM     34  H   UNL     1      10.581   9.260 -21.811  1.00  0.00     0.211 HD
ENDBRANCH  28  33
BRANCH  30  35
ATOM     35  O   UNL     1       9.749  11.571 -21.913  1.00  0.00    -0.387 OA
ATOM     36  H   UNL     1      10.166  11.421 -21.026  1.00  0.00     0.211 HD
ENDBRANCH  30  35
BRANCH  31  37
ATOM     37  C   UNL     1       5.419  10.685 -22.924  1.00  0.00     0.191 C 
BRANCH  37  38
ATOM     38  O   UNL     1       5.577  12.065 -23.106  1.00  0.00    -0.394 OA
ATOM     39  H   UNL     1       5.601  12.214 -24.087  1.00  0.00     0.210 HD
ENDBRANCH  37  38
ENDBRANCH  31  37
BRANCH  32  40
ATOM     40  O   UNL     1       8.885  10.304 -24.297  1.00  0.00    -0.387 OA
ATOM     41  H   UNL     1       8.419  10.198 -25.168  1.00  0.00     0.211 HD
ENDBRANCH  32  40
ENDBRANCH   1  27
TORSDOF 12
ENDMDL
MODEL 7
REMARK VINA RESULT:    -5.875      3.472      8.414
REMARK INTER + INTRA:          -9.958
REMARK INTER:                  -9.349
REMARK INTRA:                  -0.609
REMARK UNBOUND:                -1.336
REMARK SMILES O=c1c(O[C@H]2O[C@@H](CO)[C@H](O)[C@H](O)[C@@H]2O)c(-c2ccc(O)c(O)c2)oc2cc(O)cc(O)c12
REMARK SMILES IDX 4 1 3 2 16 3 25 4 2 5 26 6 1 7 33 8 27 9 31 10 28 11 30 12
REMARK SMILES IDX 17 13 18 14 19 15 20 16 24 17 22 18 21 19 23 21 32 23 29 25
REMARK SMILES IDX 5 27 14 28 6 29 12 30 7 31 10 32 15 33 13 35 8 37 9 38 11 40
REMARK H PARENT 21 20 23 22 32 24 29 26 15 34 13 36 9 39 11 41
REMARK Flexibility Score: inf
ROOT
ATOM      1  O   UNL     1       6.038  12.171 -20.487  1.00  0.00    -0.454 OA
ENDROOT
BRANCH   1   2
ATOM      2  C   UNL     1       6.706  13.373 -20.798  1.00  0.00     0.214 A 
ATOM      3  C   UNL     1       7.805  13.305 -21.677  1.00  0.00     0.180 A 
ATOM      4  O   UNL     1       8.431  14.415 -22.055  1.00  0.00    -0.452 OA
ATOM      5  C   UNL     1       6.315  14.642 -20.312  1.00  0.00     0.239 A 
ATOM      6  C   UNL     1       8.092  15.624 -21.629  1.00  0.00     0.146 A 
ATOM      7  O   UNL     1       5.345  14.750 -19.515  1.00  0.00    -0.285 OA
ATOM      8  C   UNL     1       7.016  15.795 -20.728  1.00  0.00     0.111 A 
ATOM      9  C   UNL     1       8.816  16.731 -22.083  1.00  0.00     0.094 A 
ATOM     10  C   UNL     1       6.684  17.102 -20.294  1.00  0.00     0.134 A 
ATOM     11  C   UNL     1       8.484  18.018 -21.650  1.00  0.00     0.123 A 
ATOM     12  C   UNL     1       7.423  18.200 -20.760  1.00  0.00     0.093 A 
BRANCH   3  13
ATOM     13  C   UNL     1       8.273  12.018 -22.239  1.00  0.00     0.025 A 
ATOM     14  C   UNL     1       8.094  11.707 -23.595  1.00  0.00     0.016 A 
ATOM     15  C   UNL     1       8.548  10.488 -24.104  1.00  0.00     0.051 A 
ATOM     16  C   UNL     1       9.172   9.555 -23.270  1.00  0.00     0.157 A 
ATOM     17  C   UNL     1       8.879  11.076 -21.395  1.00  0.00     0.062 A 
ATOM     18  C   UNL     1       9.337   9.851 -21.896  1.00  0.00     0.158 A 
BRANCH  16  19
ATOM     19  O   UNL     1       9.607   8.358 -23.841  1.00  0.00    -0.504 OA
ATOM     20  H   UNL     1       9.579   8.160 -24.831  1.00  0.00     0.293 HD
ENDBRANCH  16  19
BRANCH  18  21
ATOM     21  O   UNL     1       9.943   8.967 -21.001  1.00  0.00    -0.504 OA
ATOM     22  H   UNL     1       9.911   9.070 -19.997  1.00  0.00     0.293 HD
ENDBRANCH  18  21
ENDBRANCH   3  13
BRANCH  10  23
ATOM     23  O   UNL     1       5.629  17.320 -19.407  1.00  0.00    -0.507 OA
ATOM     24  H   UNL     1       5.679  17.030 -18.437  1.00  0.00     0.293 HD
ENDBRANCH  10  23
BRANCH  11  25
ATOM     25  O   UNL     1       9.202  19.125 -22.098  1.00  0.00    -0.508 OA
ATOM     26  H   UNL     1       8.937  20.068 -21.838  1.00  0.00     0.293 HD
ENDBRANCH  11  25
ENDBRANCH   1   2
BRANCH   1  27
ATOM     27  C   UNL     1       5.678  11.681 -19.194  1.00  0.00     0.339 C 
ATOM     28  C   UNL     1       6.945  11.492 -18.333  1.00  0.00     0.214 C 
ATOM     29  O   UNL     1       4.883  10.503 -19.282  1.00  0.00    -0.332 OA
ATOM     30  C   UNL     1       7.750  10.274 -18.815  1.00  0.00     0.180 C 
ATOM     31  C   UNL     1       5.577   9.342 -19.743  1.00  0.00     0.179 C 
ATOM     32  C   UNL     1       6.861   9.024 -18.939  1.00  0.00     0.177 C 
BRANCH  28  33
ATOM     33  O   UNL     1       6.631  11.407 -16.962  1.00  0.00    -0.384 OA
ATOM     34  H   UNL     1       5.683  11.673 -16.837  1.00  0.00     0.211 HD
ENDBRANCH  28  33
BRANCH  30  35
ATOM     35  O   UNL     1       8.880  10.035 -18.009  1.00  0.00    -0.387 OA
ATOM     36  H   UNL     1       9.575  10.704 -18.238  1.00  0.00     0.211 HD
ENDBRANCH  30  35
BRANCH  31  37
ATOM     37  C   UNL     1       5.805   9.335 -21.268  1.00  0.00     0.191 C 
BRANCH  37  38
ATOM     38  O   UNL     1       5.035   8.325 -21.859  1.00  0.00    -0.394 OA
ATOM     39  H   UNL     1       4.653   7.795 -21.112  1.00  0.00     0.210 HD
ENDBRANCH  37  38
ENDBRANCH  31  37
BRANCH  32  40
ATOM     40  O   UNL     1       6.495   8.540 -17.670  1.00  0.00    -0.387 OA
ATOM     41  H   UNL     1       7.266   8.023 -17.318  1.00  0.00     0.211 HD
ENDBRANCH  32  40
ENDBRANCH   1  27
TORSDOF 12
ENDMDL
MODEL 8
REMARK VINA RESULT:    -5.612      3.393      7.818
REMARK INTER + INTRA:          -9.572
REMARK INTER:                  -8.150
REMARK INTRA:                  -1.423
REMARK UNBOUND:                -1.336
REMARK SMILES O=c1c(O[C@H]2O[C@@H](CO)[C@H](O)[C@H](O)[C@@H]2O)c(-c2ccc(O)c(O)c2)oc2cc(O)cc(O)c12
REMARK SMILES IDX 4 1 3 2 16 3 25 4 2 5 26 6 1 7 33 8 27 9 31 10 28 11 30 12
REMARK SMILES IDX 17 13 18 14 19 15 20 16 24 17 22 18 21 19 23 21 32 23 29 25
REMARK SMILES IDX 5 27 14 28 6 29 12 30 7 31 10 32 15 33 13 35 8 37 9 38 11 40
REMARK H PARENT 21 20 23 22 32 24 29 26 15 34 13 36 9 39 11 41
REMARK Flexibility Score: inf
ROOT
ATOM      1  O   UNL     1       8.375  12.139 -21.512  1.00  0.00    -0.454 OA
ENDROOT
BRANCH   1   2
ATOM      2  C   UNL     1       7.776  13.347 -21.101  1.00  0.00     0.214 A 
ATOM      3  C   UNL     1       6.893  13.302 -20.004  1.00  0.00     0.180 A 
ATOM      4  O   UNL     1       6.350  14.420 -19.533  1.00  0.00    -0.452 OA
ATOM      5  C   UNL     1       8.038  14.601 -21.698  1.00  0.00     0.239 A 
ATOM      6  C   UNL     1       6.575  15.617 -20.058  1.00  0.00     0.146 A 
ATOM      7  O   UNL     1       8.812  14.688 -22.688  1.00  0.00    -0.285 OA
ATOM      8  C   UNL     1       7.430  15.764 -21.175  1.00  0.00     0.111 A 
ATOM      9  C   UNL     1       5.952  16.733 -19.493  1.00  0.00     0.094 A 
ATOM     10  C   UNL     1       7.645  17.058 -21.709  1.00  0.00     0.134 A 
ATOM     11  C   UNL     1       6.169  18.007 -20.026  1.00  0.00     0.123 A 
ATOM     12  C   UNL     1       7.010  18.166 -21.128  1.00  0.00     0.093 A 
BRANCH   3  13
ATOM     13  C   UNL     1       6.572  12.031 -19.316  1.00  0.00     0.025 A 
ATOM     14  C   UNL     1       5.490  11.234 -19.721  1.00  0.00     0.016 A 
ATOM     15  C   UNL     1       5.210  10.037 -19.060  1.00  0.00     0.051 A 
ATOM     16  C   UNL     1       5.990   9.620 -17.976  1.00  0.00     0.157 A 
ATOM     17  C   UNL     1       7.344  11.627 -18.217  1.00  0.00     0.062 A 
ATOM     18  C   UNL     1       7.071  10.428 -17.546  1.00  0.00     0.158 A 
BRANCH  16  19
ATOM     19  O   UNL     1       5.661   8.412 -17.361  1.00  0.00    -0.504 OA
ATOM     20  H   UNL     1       4.806   7.903 -17.535  1.00  0.00     0.293 HD
ENDBRANCH  16  19
BRANCH  18  21
ATOM     21  O   UNL     1       7.889  10.083 -16.469  1.00  0.00    -0.504 OA
ATOM     22  H   UNL     1       7.819   9.211 -15.965  1.00  0.00     0.293 HD
ENDBRANCH  18  21
ENDBRANCH   3  13
BRANCH  10  23
ATOM     23  O   UNL     1       8.482  17.252 -22.809  1.00  0.00    -0.507 OA
ATOM     24  H   UNL     1       8.456  16.637 -23.614  1.00  0.00     0.293 HD
ENDBRANCH  10  23
BRANCH  11  25
ATOM     25  O   UNL     1       5.551  19.125 -19.467  1.00  0.00    -0.508 OA
ATOM     26  H   UNL     1       4.567  19.314 -19.614  1.00  0.00     0.293 HD
ENDBRANCH  11  25
ENDBRANCH   1   2
BRANCH   1  27
ATOM     27  C   UNL     1       8.429  11.596 -22.832  1.00  0.00     0.339 C 
ATOM     28  C   UNL     1       7.004  11.485 -23.413  1.00  0.00     0.214 C 
ATOM     29  O   UNL     1       9.142  10.363 -22.864  1.00  0.00    -0.332 OA
ATOM     30  C   UNL     1       6.231  10.340 -22.736  1.00  0.00     0.180 C 
ATOM     31  C   UNL     1       8.478   9.268 -22.231  1.00  0.00     0.179 C 
ATOM     32  C   UNL     1       7.039   9.030 -22.748  1.00  0.00     0.177 C 
BRANCH  28  33
ATOM     33  O   UNL     1       7.026  11.347 -24.816  1.00  0.00    -0.384 OA
ATOM     34  H   UNL     1       6.211  11.773 -25.188  1.00  0.00     0.211 HD
ENDBRANCH  28  33
BRANCH  30  35
ATOM     35  O   UNL     1       4.947  10.170 -23.289  1.00  0.00    -0.387 OA
ATOM     36  H   UNL     1       4.566  11.066 -23.476  1.00  0.00     0.211 HD
ENDBRANCH  30  35
BRANCH  31  37
ATOM     37  C   UNL     1       8.564   9.310 -20.693  1.00  0.00     0.191 C 
BRANCH  37  38
ATOM     38  O   UNL     1       9.818   9.797 -20.300  1.00  0.00    -0.394 OA
ATOM     39  H   UNL     1      10.165   9.157 -19.626  1.00  0.00     0.210 HD
ENDBRANCH  37  38
ENDBRANCH  31  37
BRANCH  32  40
ATOM     40  O   UNL     1       7.104   8.494 -24.047  1.00  0.00    -0.387 OA
ATOM     41  H   UNL     1       7.369   9.232 -24.657  1.00  0.00     0.211 HD
ENDBRANCH  32  40
ENDBRANCH   1  27
TORSDOF 12
ENDMDL
MODEL 9
REMARK VINA RESULT:    -4.715      2.807      7.505
REMARK INTER + INTRA:          -8.256
REMARK INTER:                  -6.921
REMARK INTRA:                  -1.335
REMARK UNBOUND:                -1.336
REMARK SMILES O=c1c(O[C@H]2O[C@@H](CO)[C@H](O)[C@H](O)[C@@H]2O)c(-c2ccc(O)c(O)c2)oc2cc(O)cc(O)c12
REMARK SMILES IDX 4 1 3 2 16 3 25 4 2 5 26 6 1 7 33 8 27 9 31 10 28 11 30 12
REMARK SMILES IDX 17 13 18 14 19 15 20 16 24 17 22 18 21 19 23 21 32 23 29 25
REMARK SMILES IDX 5 27 14 28 6 29 12 30 7 31 10 32 15 33 13 35 8 37 9 38 11 40
REMARK H PARENT 21 20 23 22 32 24 29 26 15 34 13 36 9 39 11 41
REMARK Flexibility Score: inf
ROOT
ATOM      1  O   UNL     1       8.594  10.494 -20.629  1.00  0.00    -0.454 OA
ENDROOT
BRANCH   1   2
ATOM      2  C   UNL     1       8.206  11.844 -20.748  1.00  0.00     0.214 A 
ATOM      3  C   UNL     1       7.255  12.337 -19.831  1.00  0.00     0.180 A 
ATOM      4  O   UNL     1       6.901  13.618 -19.856  1.00  0.00    -0.452 OA
ATOM      5  C   UNL     1       8.740  12.739 -21.704  1.00  0.00     0.239 A 
ATOM      6  C   UNL     1       7.383  14.491 -20.730  1.00  0.00     0.146 A 
ATOM      7  O   UNL     1       9.584  12.340 -22.550  1.00  0.00    -0.285 OA
ATOM      8  C   UNL     1       8.326  14.089 -21.704  1.00  0.00     0.111 A 
ATOM      9  C   UNL     1       6.944  15.817 -20.677  1.00  0.00     0.094 A 
ATOM     10  C   UNL     1       8.817  15.050 -22.622  1.00  0.00     0.134 A 
ATOM     11  C   UNL     1       7.432  16.760 -21.586  1.00  0.00     0.123 A 
ATOM     12  C   UNL     1       8.364  16.376 -22.553  1.00  0.00     0.093 A 
BRANCH   3  13
ATOM     13  C   UNL     1       6.655  11.470 -18.793  1.00  0.00     0.025 A 
ATOM     14  C   UNL     1       5.420  10.835 -18.998  1.00  0.00     0.016 A 
ATOM     15  C   UNL     1       4.875  10.018 -18.005  1.00  0.00     0.051 A 
ATOM     16  C   UNL     1       5.540   9.831 -16.789  1.00  0.00     0.157 A 
ATOM     17  C   UNL     1       7.315  11.302 -17.567  1.00  0.00     0.062 A 
ATOM     18  C   UNL     1       6.776  10.485 -16.566  1.00  0.00     0.158 A 
BRANCH  16  19
ATOM     19  O   UNL     1       4.945   8.998 -15.841  1.00  0.00    -0.504 OA
ATOM     20  H   UNL     1       4.537   9.326 -14.977  1.00  0.00     0.293 HD
ENDBRANCH  16  19
BRANCH  18  21
ATOM     21  O   UNL     1       7.494  10.353 -15.375  1.00  0.00    -0.504 OA
ATOM     22  H   UNL     1       7.771   9.467 -14.979  1.00  0.00     0.293 HD
ENDBRANCH  18  21
ENDBRANCH   3  13
BRANCH  10  23
ATOM     23  O   UNL     1       9.751  14.700 -23.599  1.00  0.00    -0.507 OA
ATOM     24  H   UNL     1       9.466  14.374 -24.516  1.00  0.00     0.293 HD
ENDBRANCH  10  23
BRANCH  11  25
ATOM     25  O   UNL     1       6.999  18.083 -21.538  1.00  0.00    -0.508 OA
ATOM     26  H   UNL     1       6.173  18.388 -22.041  1.00  0.00     0.293 HD
ENDBRANCH  11  25
ENDBRANCH   1   2
BRANCH   1  27
ATOM     27  C   UNL     1       8.472   9.462 -21.608  1.00  0.00     0.339 C 
ATOM     28  C   UNL     1       7.018   8.947 -21.650  1.00  0.00     0.214 C 
ATOM     29  O   UNL     1       9.425   8.424 -21.398  1.00  0.00    -0.332 OA
ATOM     30  C   UNL     1       6.706   8.105 -20.401  1.00  0.00     0.180 C 
ATOM     31  C   UNL     1       9.194   7.621 -20.239  1.00  0.00     0.179 C 
ATOM     32  C   UNL     1       7.771   7.017 -20.174  1.00  0.00     0.177 C 
BRANCH  28  33
ATOM     33  O   UNL     1       6.753   8.240 -22.841  1.00  0.00    -0.384 OA
ATOM     34  H   UNL     1       6.548   8.895 -23.558  1.00  0.00     0.211 HD
ENDBRANCH  28  33
BRANCH  30  35
ATOM     35  O   UNL     1       5.406   7.566 -20.439  1.00  0.00    -0.387 OA
ATOM     36  H   UNL     1       5.144   7.446 -21.388  1.00  0.00     0.211 HD
ENDBRANCH  30  35
BRANCH  31  37
ATOM     37  C   UNL     1       9.615   8.311 -18.927  1.00  0.00     0.191 C 
BRANCH  37  38
ATOM     38  O   UNL     1      10.805   9.024 -19.125  1.00  0.00    -0.394 OA
ATOM     39  H   UNL     1      10.840   9.239 -20.093  1.00  0.00     0.210 HD
ENDBRANCH  37  38
ENDBRANCH  31  37
BRANCH  32  40
ATOM     40  O   UNL     1       7.663   6.000 -21.140  1.00  0.00    -0.387 OA
ATOM     41  H   UNL     1       7.850   6.413 -22.024  1.00  0.00     0.211 HD
ENDBRANCH  32  40
ENDBRANCH   1  27
TORSDOF 12
ENDMDL
