MODEL 1
REMARK VINA RESULT:    -4.968      0.000      0.000
REMARK INTER + INTRA:          -5.449
REMARK INTER:                  -5.403
REMARK INTRA:                  -0.046
REMARK UNBOUND:                -0.046
REMARK SMILES COc1cc2ccc(=O)oc2cc1O
REMARK SMILES IDX 3 1 13 2 12 3 11 4 5 5 4 6 6 7 7 8 8 9 9 10 10 11 2 12 1 13
REMARK SMILES IDX 14 14
REMARK H PARENT 14 15
REMARK Flexibility Score: inf
ROOT
ATOM      1  C   UNL     1      10.716 -18.187   7.287  1.00  0.00     0.161 A 
ATOM      2  C   UNL     1      10.518 -19.465   6.739  1.00  0.00     0.161 A 
ATOM      3  C   UNL     1       9.271 -20.095   6.845  1.00  0.00     0.098 A 
ATOM      4  C   UNL     1       8.211 -19.458   7.497  1.00  0.00     0.142 A 
ATOM      5  C   UNL     1       8.401 -18.174   8.049  1.00  0.00     0.022 A 
ATOM      6  C   UNL     1       9.647 -17.542   7.944  1.00  0.00     0.062 A 
ATOM      7  C   UNL     1       7.322 -17.561   8.695  1.00  0.00     0.019 A 
ATOM      8  C   UNL     1       6.101 -18.230   8.773  1.00  0.00     0.094 A 
ATOM      9  C   UNL     1       5.988 -19.502   8.202  1.00  0.00     0.336 A 
ATOM     10  O   UNL     1       4.894 -20.122   8.262  1.00  0.00    -0.246 OA
ATOM     11  O   UNL     1       7.030 -20.062   7.594  1.00  0.00    -0.423 OA
ENDROOT
BRANCH   1  12
ATOM     12  O   UNL     1      11.981 -17.593   7.157  1.00  0.00    -0.493 OA
ATOM     13  C   UNL     1      12.406 -16.437   7.872  1.00  0.00     0.278 C 
ENDBRANCH   1  12
BRANCH   2  14
ATOM     14  O   UNL     1      11.574 -20.103   6.090  1.00  0.00    -0.504 OA
ATOM     15  H   UNL     1      11.559 -20.267   5.090  1.00  0.00     0.293 HD
ENDBRANCH   2  14
TORSDOF 2
ENDMDL
MODEL 2
REMARK VINA RESULT:    -4.534      1.883      2.858
REMARK INTER + INTRA:          -4.977
REMARK INTER:                  -4.914
REMARK INTRA:                  -0.064
REMARK UNBOUND:                -0.046
REMARK SMILES COc1cc2ccc(=O)oc2cc1O
REMARK SMILES IDX 3 1 13 2 12 3 11 4 5 5 4 6 6 7 7 8 8 9 9 10 10 11 2 12 1 13
REMARK SMILES IDX 14 14
REMARK H PARENT 14 15
REMARK Flexibility Score: inf
ROOT
ATOM      1  C   UNL     1      12.323 -16.530   7.998  1.00  0.00     0.161 A 
ATOM      2  C   UNL     1      12.380 -17.507   9.005  1.00  0.00     0.161 A 
ATOM      3  C   UNL     1      11.334 -18.427   9.158  1.00  0.00     0.098 A 
ATOM      4  C   UNL     1      10.225 -18.382   8.309  1.00  0.00     0.142 A 
ATOM      5  C   UNL     1      10.160 -17.405   7.294  1.00  0.00     0.022 A 
ATOM      6  C   UNL     1      11.204 -16.484   7.140  1.00  0.00     0.062 A 
ATOM      7  C   UNL     1       9.037 -17.385   6.459  1.00  0.00     0.019 A 
ATOM      8  C   UNL     1       8.025 -18.324   6.652  1.00  0.00     0.094 A 
ATOM      9  C   UNL     1       8.158 -19.263   7.680  1.00  0.00     0.336 A 
ATOM     10  O   UNL     1       7.254 -20.119   7.871  1.00  0.00    -0.246 OA
ATOM     11  O   UNL     1       9.236 -19.260   8.460  1.00  0.00    -0.423 OA
ENDROOT
BRANCH   1  12
ATOM     12  O   UNL     1      13.392 -15.628   7.881  1.00  0.00    -0.493 OA
ATOM     13  C   UNL     1      14.312 -15.605   6.795  1.00  0.00     0.278 C 
ENDBRANCH   1  12
BRANCH   2  14
ATOM     14  O   UNL     1      13.484 -17.552   9.854  1.00  0.00    -0.504 OA
ATOM     15  H   UNL     1      13.385 -17.746  10.844  1.00  0.00     0.293 HD
ENDBRANCH   2  14
TORSDOF 2
ENDMDL
MODEL 3
REMARK VINA RESULT:    -4.205      1.959      5.520
REMARK INTER + INTRA:          -4.619
REMARK INTER:                  -4.712
REMARK INTRA:                   0.093
REMARK UNBOUND:                -0.046
REMARK SMILES COc1cc2ccc(=O)oc2cc1O
REMARK SMILES IDX 3 1 13 2 12 3 11 4 5 5 4 6 6 7 7 8 8 9 9 10 10 11 2 12 1 13
REMARK SMILES IDX 14 14
REMARK H PARENT 14 15
REMARK Flexibility Score: inf
ROOT
ATOM      1  C   UNL     1       9.205 -18.903   8.136  1.00  0.00     0.161 A 
ATOM      2  C   UNL     1       9.051 -18.010   7.063  1.00  0.00     0.161 A 
ATOM      3  C   UNL     1      10.049 -17.069   6.776  1.00  0.00     0.098 A 
ATOM      4  C   UNL     1      11.208 -17.010   7.556  1.00  0.00     0.142 A 
ATOM      5  C   UNL     1      11.371 -17.904   8.634  1.00  0.00     0.022 A 
ATOM      6  C   UNL     1      10.374 -18.846   8.922  1.00  0.00     0.062 A 
ATOM      7  C   UNL     1      12.542 -17.821   9.396  1.00  0.00     0.019 A 
ATOM      8  C   UNL     1      13.505 -16.868   9.069  1.00  0.00     0.094 A 
ATOM      9  C   UNL     1      13.274 -16.015   7.986  1.00  0.00     0.336 A 
ATOM     10  O   UNL     1      14.131 -15.146   7.675  1.00  0.00    -0.246 OA
ATOM     11  O   UNL     1      12.152 -16.114   7.278  1.00  0.00    -0.423 OA
ENDROOT
BRANCH   1  12
ATOM     12  O   UNL     1       8.181 -19.829   8.386  1.00  0.00    -0.493 OA
ATOM     13  C   UNL     1       6.919 -19.500   8.959  1.00  0.00     0.278 C 
ENDBRANCH   1  12
BRANCH   2  14
ATOM     14  O   UNL     1       7.896 -18.066   6.285  1.00  0.00    -0.504 OA
ATOM     15  H   UNL     1       7.733 -17.410   5.530  1.00  0.00     0.293 HD
ENDBRANCH   2  14
TORSDOF 2
ENDMDL
MODEL 4
REMARK VINA RESULT:    -3.758      1.424      5.401
REMARK INTER + INTRA:          -4.133
REMARK INTER:                  -4.466
REMARK INTRA:                   0.333
REMARK UNBOUND:                -0.046
REMARK SMILES COc1cc2ccc(=O)oc2cc1O
REMARK SMILES IDX 3 1 13 2 12 3 11 4 5 5 4 6 6 7 7 8 8 9 9 10 10 11 2 12 1 13
REMARK SMILES IDX 14 14
REMARK H PARENT 14 15
REMARK Flexibility Score: inf
ROOT
ATOM      1  C   UNL     1       6.875 -19.154   7.966  1.00  0.00     0.161 A 
ATOM      2  C   UNL     1       6.879 -17.869   8.532  1.00  0.00     0.161 A 
ATOM      3  C   UNL     1       8.073 -17.140   8.624  1.00  0.00     0.098 A 
ATOM      4  C   UNL     1       9.270 -17.684   8.152  1.00  0.00     0.142 A 
ATOM      5  C   UNL     1       9.274 -18.974   7.581  1.00  0.00     0.022 A 
ATOM      6  C   UNL     1       8.083 -19.704   7.488  1.00  0.00     0.062 A 
ATOM      7  C   UNL     1      10.489 -19.493   7.118  1.00  0.00     0.019 A 
ATOM      8  C   UNL     1      11.648 -18.726   7.232  1.00  0.00     0.094 A 
ATOM      9  C   UNL     1      11.567 -17.456   7.810  1.00  0.00     0.336 A 
ATOM     10  O   UNL     1      12.603 -16.748   7.922  1.00  0.00    -0.246 OA
ATOM     11  O   UNL     1      10.400 -16.986   8.243  1.00  0.00    -0.423 OA
ENDROOT
BRANCH   1  12
ATOM     12  O   UNL     1       5.657 -19.848   7.894  1.00  0.00    -0.493 OA
ATOM     13  C   UNL     1       4.820 -20.125   9.011  1.00  0.00     0.278 C 
ENDBRANCH   1  12
BRANCH   2  14
ATOM     14  O   UNL     1       5.686 -17.324   9.004  1.00  0.00    -0.504 OA
ATOM     15  H   UNL     1       5.603 -16.337   9.220  1.00  0.00     0.293 HD
ENDBRANCH   2  14
TORSDOF 2
ENDMDL
MODEL 5
REMARK VINA RESULT:    -3.346      1.901      2.944
REMARK INTER + INTRA:          -3.685
REMARK INTER:                  -3.640
REMARK INTRA:                  -0.045
REMARK UNBOUND:                -0.046
REMARK SMILES COc1cc2ccc(=O)oc2cc1O
REMARK SMILES IDX 3 1 13 2 12 3 11 4 5 5 4 6 6 7 7 8 8 9 9 10 10 11 2 12 1 13
REMARK SMILES IDX 14 14
REMARK H PARENT 14 15
REMARK Flexibility Score: inf
ROOT
ATOM      1  C   UNL     1      12.321 -17.231   8.566  1.00  0.00     0.161 A 
ATOM      2  C   UNL     1      11.709 -16.424   7.595  1.00  0.00     0.161 A 
ATOM      3  C   UNL     1      10.441 -16.754   7.095  1.00  0.00     0.098 A 
ATOM      4  C   UNL     1       9.776 -17.892   7.560  1.00  0.00     0.142 A 
ATOM      5  C   UNL     1      10.383 -18.708   8.536  1.00  0.00     0.022 A 
ATOM      6  C   UNL     1      11.650 -18.379   9.037  1.00  0.00     0.062 A 
ATOM      7  C   UNL     1       9.692 -19.840   8.983  1.00  0.00     0.019 A 
ATOM      8  C   UNL     1       8.433 -20.125   8.455  1.00  0.00     0.094 A 
ATOM      9  C   UNL     1       7.894 -19.270   7.489  1.00  0.00     0.336 A 
ATOM     10  O   UNL     1       6.759 -19.510   7.000  1.00  0.00    -0.246 OA
ATOM     11  O   UNL     1       8.572 -18.200   7.082  1.00  0.00    -0.423 OA
ENDROOT
BRANCH   1  12
ATOM     12  O   UNL     1      13.591 -16.862   9.038  1.00  0.00    -0.493 OA
ATOM     13  C   UNL     1      14.258 -17.486  10.130  1.00  0.00     0.278 C 
ENDBRANCH   1  12
BRANCH   2  14
ATOM     14  O   UNL     1      12.372 -15.289   7.129  1.00  0.00    -0.504 OA
ATOM     15  H   UNL     1      13.382 -15.259   7.056  1.00  0.00     0.293 HD
ENDBRANCH   2  14
TORSDOF 2
ENDMDL
MODEL 6
REMARK VINA RESULT:    -3.246      2.360      5.322
REMARK INTER + INTRA:          -3.576
REMARK INTER:                  -3.537
REMARK INTRA:                  -0.039
REMARK UNBOUND:                -0.046
REMARK SMILES COc1cc2ccc(=O)oc2cc1O
REMARK SMILES IDX 3 1 13 2 12 3 11 4 5 5 4 6 6 7 7 8 8 9 9 10 10 11 2 12 1 13
REMARK SMILES IDX 14 14
REMARK H PARENT 14 15
REMARK Flexibility Score: inf
ROOT
ATOM      1  C   UNL     1       9.151 -18.218   7.125  1.00  0.00     0.161 A 
ATOM      2  C   UNL     1       9.343 -19.142   8.166  1.00  0.00     0.161 A 
ATOM      3  C   UNL     1      10.492 -19.079   8.966  1.00  0.00     0.098 A 
ATOM      4  C   UNL     1      11.457 -18.095   8.737  1.00  0.00     0.142 A 
ATOM      5  C   UNL     1      11.272 -17.163   7.695  1.00  0.00     0.022 A 
ATOM      6  C   UNL     1      10.125 -17.225   6.893  1.00  0.00     0.062 A 
ATOM      7  C   UNL     1      12.257 -16.189   7.489  1.00  0.00     0.019 A 
ATOM      8  C   UNL     1      13.380 -16.168   8.314  1.00  0.00     0.094 A 
ATOM      9  C   UNL     1      13.496 -17.125   9.327  1.00  0.00     0.336 A 
ATOM     10  O   UNL     1      14.504 -17.123  10.082  1.00  0.00    -0.246 OA
ATOM     11  O   UNL     1      12.546 -18.040   9.501  1.00  0.00    -0.423 OA
ENDROOT
BRANCH   1  12
ATOM     12  O   UNL     1       7.987 -18.319   6.349  1.00  0.00    -0.493 OA
ATOM     13  C   UNL     1       7.874 -19.095   5.160  1.00  0.00     0.278 C 
ENDBRANCH   1  12
BRANCH   2  14
ATOM     14  O   UNL     1       8.382 -20.125   8.395  1.00  0.00    -0.504 OA
ATOM     15  H   UNL     1       7.396 -19.897   8.463  1.00  0.00     0.293 HD
ENDBRANCH   2  14
TORSDOF 2
ENDMDL
MODEL 7
REMARK VINA RESULT:    -3.036      1.414      2.562
REMARK INTER + INTRA:          -3.348
REMARK INTER:                  -3.285
REMARK INTRA:                  -0.063
REMARK UNBOUND:                -0.046
REMARK SMILES COc1cc2ccc(=O)oc2cc1O
REMARK SMILES IDX 3 1 13 2 12 3 11 4 5 5 4 6 6 7 7 8 8 9 9 10 10 11 2 12 1 13
REMARK SMILES IDX 14 14
REMARK H PARENT 14 15
REMARK Flexibility Score: inf
ROOT
ATOM      1  C   UNL     1      11.027 -19.213   6.854  1.00  0.00     0.161 A 
ATOM      2  C   UNL     1      11.117 -17.915   7.380  1.00  0.00     0.161 A 
ATOM      3  C   UNL     1       9.987 -17.292   7.927  1.00  0.00     0.098 A 
ATOM      4  C   UNL     1       8.759 -17.958   7.953  1.00  0.00     0.142 A 
ATOM      5  C   UNL     1       8.659 -19.263   7.427  1.00  0.00     0.022 A 
ATOM      6  C   UNL     1       9.788 -19.887   6.881  1.00  0.00     0.062 A 
ATOM      7  C   UNL     1       7.416 -19.904   7.468  1.00  0.00     0.019 A 
ATOM      8  C   UNL     1       6.322 -19.242   8.023  1.00  0.00     0.094 A 
ATOM      9  C   UNL     1       6.497 -17.948   8.525  1.00  0.00     0.336 A 
ATOM     10  O   UNL     1       5.521 -17.333   9.030  1.00  0.00    -0.246 OA
ATOM     11  O   UNL     1       7.689 -17.361   8.473  1.00  0.00    -0.423 OA
ENDROOT
BRANCH   1  12
ATOM     12  O   UNL     1      12.184 -19.799   6.317  1.00  0.00    -0.493 OA
ATOM     13  C   UNL     1      12.359 -20.125   4.942  1.00  0.00     0.278 C 
ENDBRANCH   1  12
BRANCH   2  14
ATOM     14  O   UNL     1      12.341 -17.248   7.354  1.00  0.00    -0.504 OA
ATOM     15  H   UNL     1      12.430 -16.290   7.673  1.00  0.00     0.293 HD
ENDBRANCH   2  14
TORSDOF 2
ENDMDL
MODEL 8
REMARK VINA RESULT:    -2.275      1.328      4.740
REMARK INTER + INTRA:          -2.520
REMARK INTER:                  -2.462
REMARK INTRA:                  -0.058
REMARK UNBOUND:                -0.046
REMARK SMILES COc1cc2ccc(=O)oc2cc1O
REMARK SMILES IDX 3 1 13 2 12 3 11 4 5 5 4 6 6 7 7 8 8 9 9 10 10 11 2 12 1 13
REMARK SMILES IDX 14 14
REMARK H PARENT 14 15
REMARK Flexibility Score: inf
ROOT
ATOM      1  C   UNL     1       6.872 -17.899   8.426  1.00  0.00     0.161 A 
ATOM      2  C   UNL     1       6.672 -19.170   7.862  1.00  0.00     0.161 A 
ATOM      3  C   UNL     1       7.740 -19.859   7.272  1.00  0.00     0.098 A 
ATOM      4  C   UNL     1       9.015 -19.288   7.239  1.00  0.00     0.142 A 
ATOM      5  C   UNL     1       9.225 -18.013   7.803  1.00  0.00     0.022 A 
ATOM      6  C   UNL     1       8.159 -17.322   8.394  1.00  0.00     0.062 A 
ATOM      7  C   UNL     1      10.513 -17.467   7.754  1.00  0.00     0.019 A 
ATOM      8  C   UNL     1      11.542 -18.194   7.157  1.00  0.00     0.094 A 
ATOM      9  C   UNL     1      11.258 -19.453   6.618  1.00  0.00     0.336 A 
ATOM     10  O   UNL     1      12.174 -20.125   6.073  1.00  0.00    -0.246 OA
ATOM     11  O   UNL     1      10.025 -19.949   6.677  1.00  0.00    -0.423 OA
ENDROOT
BRANCH   1  12
ATOM     12  O   UNL     1       5.775 -17.245   9.006  1.00  0.00    -0.493 OA
ATOM     13  C   UNL     1       5.326 -15.944   8.642  1.00  0.00     0.278 C 
ENDBRANCH   1  12
BRANCH   2  14
ATOM     14  O   UNL     1       5.400 -19.740   7.893  1.00  0.00    -0.504 OA
ATOM     15  H   UNL     1       4.967 -20.116   7.058  1.00  0.00     0.293 HD
ENDBRANCH   2  14
TORSDOF 2
ENDMDL
