MODEL 1
REMARK VINA RESULT:    -5.366      0.000      0.000
REMARK INTER + INTRA:          -6.778
REMARK INTER:                  -6.464
REMARK INTRA:                  -0.314
REMARK UNBOUND:                -0.314
REMARK SMILES O=c1c(O)c(-c2ccc(O)c(O)c2)oc2cc(O)cc(O)c12
REMARK SMILES IDX 5 1 3 2 2 3 1 4 22 5 20 6 19 7 17 8 16 9 15 10 14 11 6 12
REMARK SMILES IDX 7 13 8 14 9 15 13 16 11 17 10 18 12 20 4 22 21 24 18 26
REMARK H PARENT 10 19 12 21 4 23 21 25 18 27
REMARK Flexibility Score: inf
ROOT
ATOM      1  C   UNL     1     124.654 131.817 120.683  1.00  0.00     0.180 A 
ATOM      2  C   UNL     1     126.019 131.842 121.028  1.00  0.00     0.208 A 
ATOM      3  C   UNL     1     126.650 133.082 121.217  1.00  0.00     0.238 A 
ATOM      4  O   UNL     1     127.869 133.116 121.537  1.00  0.00    -0.285 OA
ATOM      5  C   UNL     1     125.915 134.272 121.036  1.00  0.00     0.111 A 
ATOM      6  C   UNL     1     126.476 135.561 121.202  1.00  0.00     0.134 A 
ATOM      7  C   UNL     1     125.680 136.698 120.996  1.00  0.00     0.093 A 
ATOM      8  C   UNL     1     124.339 136.572 120.628  1.00  0.00     0.123 A 
ATOM      9  C   UNL     1     123.779 135.300 120.463  1.00  0.00     0.094 A 
ATOM     10  C   UNL     1     124.555 134.156 120.666  1.00  0.00     0.146 A 
ATOM     11  O   UNL     1     123.997 132.960 120.508  1.00  0.00    -0.452 OA
ENDROOT
BRANCH   1  12
ATOM     12  C   UNL     1     123.915 130.550 120.487  1.00  0.00     0.025 A 
ATOM     13  C   UNL     1     123.652 130.099 119.184  1.00  0.00     0.016 A 
ATOM     14  C   UNL     1     122.938 128.916 118.975  1.00  0.00     0.051 A 
ATOM     15  C   UNL     1     122.464 128.175 120.065  1.00  0.00     0.157 A 
ATOM     16  C   UNL     1     123.419 129.814 121.579  1.00  0.00     0.062 A 
ATOM     17  C   UNL     1     122.702 128.628 121.370  1.00  0.00     0.158 A 
BRANCH  15  18
ATOM     18  O   UNL     1     121.753 126.994 119.861  1.00  0.00    -0.504 OA
ATOM     19  H   UNL     1     120.838 126.995 119.426  1.00  0.00     0.293 HD
ENDBRANCH  15  18
BRANCH  17  20
ATOM     20  O   UNL     1     122.216 127.896 122.453  1.00  0.00    -0.504 OA
ATOM     21  H   UNL     1     122.332 126.892 122.508  1.00  0.00     0.293 HD
ENDBRANCH  17  20
ENDBRANCH   1  12
BRANCH   2  22
ATOM     22  O   UNL     1     126.737 130.650 121.153  1.00  0.00    -0.502 OA
ATOM     23  H   UNL     1     126.894 130.026 120.370  1.00  0.00     0.293 HD
ENDBRANCH   2  22
BRANCH   6  24
ATOM     24  O   UNL     1     127.812 135.721 121.569  1.00  0.00    -0.507 OA
ATOM     25  H   UNL     1     128.079 136.222 122.409  1.00  0.00     0.293 HD
ENDBRANCH   6  24
BRANCH   8  26
ATOM     26  O   UNL     1     123.570 137.716 120.427  1.00  0.00    -0.508 OA
ATOM     27  H   UNL     1     123.762 138.577 120.925  1.00  0.00     0.293 HD
ENDBRANCH   8  26
TORSDOF 6
ENDMDL
MODEL 2
REMARK VINA RESULT:    -5.332      1.260      2.926
REMARK INTER + INTRA:          -6.737
REMARK INTER:                  -6.420
REMARK INTRA:                  -0.317
REMARK UNBOUND:                -0.314
REMARK SMILES O=c1c(O)c(-c2ccc(O)c(O)c2)oc2cc(O)cc(O)c12
REMARK SMILES IDX 5 1 3 2 2 3 1 4 22 5 20 6 19 7 17 8 16 9 15 10 14 11 6 12
REMARK SMILES IDX 7 13 8 14 9 15 13 16 11 17 10 18 12 20 4 22 21 24 18 26
REMARK H PARENT 10 19 12 21 4 23 21 25 18 27
REMARK Flexibility Score: inf
ROOT
ATOM      1  C   UNL     1     124.717 131.963 120.720  1.00  0.00     0.180 A 
ATOM      2  C   UNL     1     123.998 133.154 120.497  1.00  0.00     0.208 A 
ATOM      3  C   UNL     1     124.636 134.384 120.720  1.00  0.00     0.238 A 
ATOM      4  O   UNL     1     124.005 135.457 120.514  1.00  0.00    -0.285 OA
ATOM      5  C   UNL     1     125.968 134.405 121.181  1.00  0.00     0.111 A 
ATOM      6  C   UNL     1     126.681 135.601 121.435  1.00  0.00     0.134 A 
ATOM      7  C   UNL     1     128.003 135.538 121.901  1.00  0.00     0.093 A 
ATOM      8  C   UNL     1     128.624 134.306 122.118  1.00  0.00     0.123 A 
ATOM      9  C   UNL     1     127.924 133.121 121.868  1.00  0.00     0.094 A 
ATOM     10  C   UNL     1     126.608 133.163 121.402  1.00  0.00     0.146 A 
ATOM     11  O   UNL     1     125.968 132.021 121.168  1.00  0.00    -0.452 OA
ENDROOT
BRANCH   1  12
ATOM     12  C   UNL     1     124.121 130.628 120.487  1.00  0.00     0.025 A 
ATOM     13  C   UNL     1     124.123 130.088 119.191  1.00  0.00     0.016 A 
ATOM     14  C   UNL     1     123.546 128.839 118.945  1.00  0.00     0.051 A 
ATOM     15  C   UNL     1     122.947 128.120 119.986  1.00  0.00     0.157 A 
ATOM     16  C   UNL     1     123.499 129.913 121.526  1.00  0.00     0.062 A 
ATOM     17  C   UNL     1     122.920 128.659 121.279  1.00  0.00     0.158 A 
BRANCH  15  18
ATOM     18  O   UNL     1     122.373 126.873 119.745  1.00  0.00    -0.504 OA
ATOM     19  H   UNL     1     121.469 126.784 119.295  1.00  0.00     0.293 HD
ENDBRANCH  15  18
BRANCH  17  20
ATOM     20  O   UNL     1     122.310 127.948 122.311  1.00  0.00    -0.504 OA
ATOM     21  H   UNL     1     122.227 126.939 122.281  1.00  0.00     0.293 HD
ENDBRANCH  17  20
ENDBRANCH   1  12
BRANCH   2  22
ATOM     22  O   UNL     1     122.663 133.105 120.087  1.00  0.00    -0.502 OA
ATOM     23  H   UNL     1     121.893 133.106 120.746  1.00  0.00     0.293 HD
ENDBRANCH   2  22
BRANCH   6  24
ATOM     24  O   UNL     1     126.089 136.848 121.228  1.00  0.00    -0.507 OA
ATOM     25  H   UNL     1     125.487 137.274 121.923  1.00  0.00     0.293 HD
ENDBRANCH   6  24
BRANCH   8  26
ATOM     26  O   UNL     1     129.937 134.271 122.582  1.00  0.00    -0.508 OA
ATOM     27  H   UNL     1     130.232 134.820 123.381  1.00  0.00     0.293 HD
ENDBRANCH   8  26
TORSDOF 6
ENDMDL
MODEL 3
REMARK VINA RESULT:    -5.253      2.231      7.341
REMARK INTER + INTRA:          -6.642
REMARK INTER:                  -6.318
REMARK INTRA:                  -0.324
REMARK UNBOUND:                -0.314
REMARK SMILES O=c1c(O)c(-c2ccc(O)c(O)c2)oc2cc(O)cc(O)c12
REMARK SMILES IDX 5 1 3 2 2 3 1 4 22 5 20 6 19 7 17 8 16 9 15 10 14 11 6 12
REMARK SMILES IDX 7 13 8 14 9 15 13 16 11 17 10 18 12 20 4 22 21 24 18 26
REMARK H PARENT 10 19 12 21 4 23 21 25 18 27
REMARK Flexibility Score: inf
ROOT
ATOM      1  C   UNL     1     126.063 131.614 120.978  1.00  0.00     0.180 A 
ATOM      2  C   UNL     1     124.816 131.368 121.586  1.00  0.00     0.208 A 
ATOM      3  C   UNL     1     124.195 130.125 121.380  1.00  0.00     0.238 A 
ATOM      4  O   UNL     1     123.084 129.889 121.927  1.00  0.00    -0.285 OA
ATOM      5  C   UNL     1     124.816 129.164 120.557  1.00  0.00     0.111 A 
ATOM      6  C   UNL     1     124.256 127.890 120.295  1.00  0.00     0.134 A 
ATOM      7  C   UNL     1     124.932 126.991 119.458  1.00  0.00     0.093 A 
ATOM      8  C   UNL     1     126.154 127.338 118.879  1.00  0.00     0.123 A 
ATOM      9  C   UNL     1     126.714 128.594 119.135  1.00  0.00     0.094 A 
ATOM     10  C   UNL     1     126.056 129.504 119.967  1.00  0.00     0.146 A 
ATOM     11  O   UNL     1     126.612 130.689 120.198  1.00  0.00    -0.452 OA
ENDROOT
BRANCH   1  12
ATOM     12  C   UNL     1     126.789 132.891 121.164  1.00  0.00     0.025 A 
ATOM     13  C   UNL     1     126.714 133.879 120.169  1.00  0.00     0.016 A 
ATOM     14  C   UNL     1     127.409 135.083 120.313  1.00  0.00     0.051 A 
ATOM     15  C   UNL     1     128.199 135.311 121.446  1.00  0.00     0.157 A 
ATOM     16  C   UNL     1     127.601 133.115 122.291  1.00  0.00     0.062 A 
ATOM     17  C   UNL     1     128.298 134.324 122.436  1.00  0.00     0.158 A 
BRANCH  15  18
ATOM     18  O   UNL     1     128.891 136.511 121.595  1.00  0.00    -0.504 OA
ATOM     19  H   UNL     1     129.695 136.734 121.021  1.00  0.00     0.293 HD
ENDBRANCH  15  18
BRANCH  17  20
ATOM     20  O   UNL     1     129.098 134.547 123.556  1.00  0.00    -0.504 OA
ATOM     21  H   UNL     1     129.972 134.053 123.690  1.00  0.00     0.293 HD
ENDBRANCH  17  20
ENDBRANCH   1  12
BRANCH   2  22
ATOM     22  O   UNL     1     124.199 132.356 122.356  1.00  0.00    -0.502 OA
ATOM     23  H   UNL     1     124.386 132.469 123.345  1.00  0.00     0.293 HD
ENDBRANCH   2  22
BRANCH   6  24
ATOM     24  O   UNL     1     123.036 127.513 120.858  1.00  0.00    -0.507 OA
ATOM     25  H   UNL     1     122.269 127.171 120.291  1.00  0.00     0.293 HD
ENDBRANCH   6  24
BRANCH   8  26
ATOM     26  O   UNL     1     126.806 126.427 118.050  1.00  0.00    -0.508 OA
ATOM     27  H   UNL     1     127.707 126.636 117.637  1.00  0.00     0.293 HD
ENDBRANCH   8  26
TORSDOF 6
ENDMDL
MODEL 4
REMARK VINA RESULT:    -5.041      5.670      7.439
REMARK INTER + INTRA:          -6.386
REMARK INTER:                  -6.076
REMARK INTRA:                  -0.310
REMARK UNBOUND:                -0.314
REMARK SMILES O=c1c(O)c(-c2ccc(O)c(O)c2)oc2cc(O)cc(O)c12
REMARK SMILES IDX 5 1 3 2 2 3 1 4 22 5 20 6 19 7 17 8 16 9 15 10 14 11 6 12
REMARK SMILES IDX 7 13 8 14 9 15 13 16 11 17 10 18 12 20 4 22 21 24 18 26
REMARK H PARENT 10 19 12 21 4 23 21 25 18 27
REMARK Flexibility Score: inf
ROOT
ATOM      1  C   UNL     1     121.608 128.475 118.225  1.00  0.00     0.180 A 
ATOM      2  C   UNL     1     121.599 128.444 119.633  1.00  0.00     0.208 A 
ATOM      3  C   UNL     1     122.760 128.038 120.311  1.00  0.00     0.238 A 
ATOM      4  O   UNL     1     122.767 128.016 121.572  1.00  0.00    -0.285 OA
ATOM      5  C   UNL     1     123.897 127.649 119.573  1.00  0.00     0.111 A 
ATOM      6  C   UNL     1     125.104 127.223 120.178  1.00  0.00     0.134 A 
ATOM      7  C   UNL     1     126.189 126.845 119.375  1.00  0.00     0.093 A 
ATOM      8  C   UNL     1     126.093 126.883 117.982  1.00  0.00     0.123 A 
ATOM      9  C   UNL     1     124.903 127.305 117.379  1.00  0.00     0.094 A 
ATOM     10  C   UNL     1     123.811 127.688 118.162  1.00  0.00     0.146 A 
ATOM     11  O   UNL     1     122.695 128.089 117.563  1.00  0.00    -0.452 OA
ENDROOT
BRANCH   1  12
ATOM     12  C   UNL     1     120.431 128.912 117.440  1.00  0.00     0.025 A 
ATOM     13  C   UNL     1     119.625 127.948 116.813  1.00  0.00     0.016 A 
ATOM     14  C   UNL     1     118.521 128.338 116.050  1.00  0.00     0.051 A 
ATOM     15  C   UNL     1     118.216 129.695 115.891  1.00  0.00     0.157 A 
ATOM     16  C   UNL     1     120.134 130.274 117.261  1.00  0.00     0.062 A 
ATOM     17  C   UNL     1     119.026 130.666 116.495  1.00  0.00     0.158 A 
BRANCH  15  18
ATOM     18  O   UNL     1     117.115 130.088 115.133  1.00  0.00    -0.504 OA
ATOM     19  H   UNL     1     116.218 129.626 115.223  1.00  0.00     0.293 HD
ENDBRANCH  15  18
BRANCH  17  20
ATOM     20  O   UNL     1     118.729 132.017 116.323  1.00  0.00    -0.504 OA
ATOM     21  H   UNL     1     119.096 132.544 115.540  1.00  0.00     0.293 HD
ENDBRANCH  17  20
ENDBRANCH   1  12
BRANCH   2  22
ATOM     22  O   UNL     1     120.443 128.787 120.339  1.00  0.00    -0.502 OA
ATOM     23  H   UNL     1     120.123 129.744 120.425  1.00  0.00     0.293 HD
ENDBRANCH   2  22
BRANCH   6  24
ATOM     24  O   UNL     1     125.232 127.172 121.567  1.00  0.00    -0.507 OA
ATOM     25  H   UNL     1     125.901 127.750 122.062  1.00  0.00     0.293 HD
ENDBRANCH   6  24
BRANCH   8  26
ATOM     26  O   UNL     1     127.185 126.501 117.206  1.00  0.00    -0.508 OA
ATOM     27  H   UNL     1     127.077 126.228 116.237  1.00  0.00     0.293 HD
ENDBRANCH   8  26
TORSDOF 6
ENDMDL
MODEL 5
REMARK VINA RESULT:    -5.036      5.698      9.270
REMARK INTER + INTRA:          -6.381
REMARK INTER:                  -6.049
REMARK INTRA:                  -0.331
REMARK UNBOUND:                -0.314
REMARK SMILES O=c1c(O)c(-c2ccc(O)c(O)c2)oc2cc(O)cc(O)c12
REMARK SMILES IDX 5 1 3 2 2 3 1 4 22 5 20 6 19 7 17 8 16 9 15 10 14 11 6 12
REMARK SMILES IDX 7 13 8 14 9 15 13 16 11 17 10 18 12 20 4 22 21 24 18 26
REMARK H PARENT 10 19 12 21 4 23 21 25 18 27
REMARK Flexibility Score: inf
ROOT
ATOM      1  C   UNL     1     120.382 128.186 117.715  1.00  0.00     0.180 A 
ATOM      2  C   UNL     1     120.085 129.415 117.094  1.00  0.00     0.208 A 
ATOM      3  C   UNL     1     118.984 129.488 116.226  1.00  0.00     0.238 A 
ATOM      4  O   UNL     1     118.701 130.586 115.673  1.00  0.00    -0.285 OA
ATOM      5  C   UNL     1     118.215 128.332 115.977  1.00  0.00     0.111 A 
ATOM      6  C   UNL     1     117.094 128.320 115.113  1.00  0.00     0.134 A 
ATOM      7  C   UNL     1     116.385 127.126 114.911  1.00  0.00     0.093 A 
ATOM      8  C   UNL     1     116.774 125.949 115.552  1.00  0.00     0.123 A 
ATOM      9  C   UNL     1     117.881 125.955 116.407  1.00  0.00     0.094 A 
ATOM     10  C   UNL     1     118.599 127.134 116.624  1.00  0.00     0.146 A 
ATOM     11  O   UNL     1     119.644 127.114 117.445  1.00  0.00    -0.452 OA
ENDROOT
BRANCH   1  12
ATOM     12  C   UNL     1     121.514 128.035 118.658  1.00  0.00     0.025 A 
ATOM     13  C   UNL     1     122.768 127.634 118.171  1.00  0.00     0.016 A 
ATOM     14  C   UNL     1     123.845 127.464 119.045  1.00  0.00     0.051 A 
ATOM     15  C   UNL     1     123.680 127.679 120.419  1.00  0.00     0.157 A 
ATOM     16  C   UNL     1     121.347 128.229 120.040  1.00  0.00     0.062 A 
ATOM     17  C   UNL     1     122.427 128.058 120.918  1.00  0.00     0.158 A 
BRANCH  15  18
ATOM     18  O   UNL     1     124.752 127.513 121.294  1.00  0.00    -0.504 OA
ATOM     19  H   UNL     1     125.611 127.064 121.000  1.00  0.00     0.293 HD
ENDBRANCH  15  18
BRANCH  17  20
ATOM     20  O   UNL     1     122.262 128.256 122.288  1.00  0.00    -0.504 OA
ATOM     21  H   UNL     1     122.184 129.186 122.683  1.00  0.00     0.293 HD
ENDBRANCH  17  20
ENDBRANCH   1  12
BRANCH   2  22
ATOM     22  O   UNL     1     120.892 130.533 117.319  1.00  0.00    -0.502 OA
ATOM     23  H   UNL     1     121.768 130.678 116.831  1.00  0.00     0.293 HD
ENDBRANCH   2  22
BRANCH   6  24
ATOM     24  O   UNL     1     116.680 129.479 114.457  1.00  0.00    -0.507 OA
ATOM     25  H   UNL     1     117.342 130.172 114.128  1.00  0.00     0.293 HD
ENDBRANCH   6  24
BRANCH   8  26
ATOM     26  O   UNL     1     116.055 124.776 115.332  1.00  0.00    -0.508 OA
ATOM     27  H   UNL     1     115.048 124.744 115.441  1.00  0.00     0.293 HD
ENDBRANCH   8  26
TORSDOF 6
ENDMDL
MODEL 6
REMARK VINA RESULT:    -5.035      2.102      7.019
REMARK INTER + INTRA:          -6.380
REMARK INTER:                  -6.295
REMARK INTRA:                  -0.085
REMARK UNBOUND:                -0.314
REMARK SMILES O=c1c(O)c(-c2ccc(O)c(O)c2)oc2cc(O)cc(O)c12
REMARK SMILES IDX 5 1 3 2 2 3 1 4 22 5 20 6 19 7 17 8 16 9 15 10 14 11 6 12
REMARK SMILES IDX 7 13 8 14 9 15 13 16 11 17 10 18 12 20 4 22 21 24 18 26
REMARK H PARENT 10 19 12 21 4 23 21 25 18 27
REMARK Flexibility Score: inf
ROOT
ATOM      1  C   UNL     1     124.270 131.788 120.027  1.00  0.00     0.180 A 
ATOM      2  C   UNL     1     123.195 131.081 119.456  1.00  0.00     0.208 A 
ATOM      3  C   UNL     1     123.283 129.684 119.344  1.00  0.00     0.238 A 
ATOM      4  O   UNL     1     122.322 129.039 118.844  1.00  0.00    -0.285 OA
ATOM      5  C   UNL     1     124.449 129.023 119.783  1.00  0.00     0.111 A 
ATOM      6  C   UNL     1     124.620 127.620 119.702  1.00  0.00     0.134 A 
ATOM      7  C   UNL     1     125.814 127.038 120.153  1.00  0.00     0.093 A 
ATOM      8  C   UNL     1     126.837 127.828 120.681  1.00  0.00     0.123 A 
ATOM      9  C   UNL     1     126.673 129.215 120.764  1.00  0.00     0.094 A 
ATOM     10  C   UNL     1     125.491 129.814 120.322  1.00  0.00     0.146 A 
ATOM     11  O   UNL     1     125.359 131.133 120.417  1.00  0.00    -0.452 OA
ENDROOT
BRANCH   1  12
ATOM     12  C   UNL     1     124.242 133.259 120.197  1.00  0.00     0.025 A 
ATOM     13  C   UNL     1     125.305 134.031 119.701  1.00  0.00     0.016 A 
ATOM     14  C   UNL     1     125.311 135.418 119.869  1.00  0.00     0.051 A 
ATOM     15  C   UNL     1     124.262 136.051 120.547  1.00  0.00     0.157 A 
ATOM     16  C   UNL     1     123.202 133.896 120.896  1.00  0.00     0.062 A 
ATOM     17  C   UNL     1     123.207 135.289 121.065  1.00  0.00     0.158 A 
BRANCH  15  18
ATOM     18  O   UNL     1     124.263 137.435 120.715  1.00  0.00    -0.504 OA
ATOM     19  H   UNL     1     124.850 138.037 120.149  1.00  0.00     0.293 HD
ENDBRANCH  15  18
BRANCH  17  20
ATOM     20  O   UNL     1     122.172 135.920 121.752  1.00  0.00    -0.504 OA
ATOM     21  H   UNL     1     121.290 135.453 121.928  1.00  0.00     0.293 HD
ENDBRANCH  17  20
ENDBRANCH   1  12
BRANCH   2  22
ATOM     22  O   UNL     1     122.071 131.765 118.983  1.00  0.00    -0.502 OA
ATOM     23  H   UNL     1     121.835 132.700 119.294  1.00  0.00     0.293 HD
ENDBRANCH   2  22
BRANCH   6  24
ATOM     24  O   UNL     1     123.617 126.803 119.180  1.00  0.00    -0.507 OA
ATOM     25  H   UNL     1     123.380 125.913 119.602  1.00  0.00     0.293 HD
ENDBRANCH   6  24
BRANCH   8  26
ATOM     26  O   UNL     1     128.014 127.225 121.121  1.00  0.00    -0.508 OA
ATOM     27  H   UNL     1     128.018 126.574 121.897  1.00  0.00     0.293 HD
ENDBRANCH   8  26
TORSDOF 6
ENDMDL
MODEL 7
REMARK VINA RESULT:    -4.999      5.486      7.612
REMARK INTER + INTRA:          -6.336
REMARK INTER:                  -6.236
REMARK INTRA:                  -0.099
REMARK UNBOUND:                -0.314
REMARK SMILES O=c1c(O)c(-c2ccc(O)c(O)c2)oc2cc(O)cc(O)c12
REMARK SMILES IDX 5 1 3 2 2 3 1 4 22 5 20 6 19 7 17 8 16 9 15 10 14 11 6 12
REMARK SMILES IDX 7 13 8 14 9 15 13 16 11 17 10 18 12 20 4 22 21 24 18 26
REMARK H PARENT 10 19 12 21 4 23 21 25 18 27
REMARK Flexibility Score: inf
ROOT
ATOM      1  C   UNL     1     120.608 129.091 118.071  1.00  0.00     0.180 A 
ATOM      2  C   UNL     1     120.028 128.242 117.107  1.00  0.00     0.208 A 
ATOM      3  C   UNL     1     118.955 128.720 116.339  1.00  0.00     0.238 A 
ATOM      4  O   UNL     1     118.435 127.973 115.466  1.00  0.00    -0.285 OA
ATOM      5  C   UNL     1     118.466 130.024 116.561  1.00  0.00     0.111 A 
ATOM      6  C   UNL     1     117.386 130.580 115.834  1.00  0.00     0.134 A 
ATOM      7  C   UNL     1     116.952 131.883 116.120  1.00  0.00     0.093 A 
ATOM      8  C   UNL     1     117.574 132.639 117.116  1.00  0.00     0.123 A 
ATOM      9  C   UNL     1     118.642 132.095 117.837  1.00  0.00     0.094 A 
ATOM     10  C   UNL     1     119.090 130.800 117.566  1.00  0.00     0.146 A 
ATOM     11  O   UNL     1     120.111 130.309 118.262  1.00  0.00    -0.452 OA
ENDROOT
BRANCH   1  12
ATOM     12  C   UNL     1     121.755 128.666 118.905  1.00  0.00     0.025 A 
ATOM     13  C   UNL     1     122.948 128.266 118.284  1.00  0.00     0.016 A 
ATOM     14  C   UNL     1     124.037 127.841 119.050  1.00  0.00     0.051 A 
ATOM     15  C   UNL     1     123.943 127.796 120.446  1.00  0.00     0.157 A 
ATOM     16  C   UNL     1     121.657 128.599 120.306  1.00  0.00     0.062 A 
ATOM     17  C   UNL     1     122.749 128.172 121.076  1.00  0.00     0.158 A 
BRANCH  15  18
ATOM     18  O   UNL     1     125.027 127.375 121.214  1.00  0.00    -0.504 OA
ATOM     19  H   UNL     1     125.144 127.674 122.175  1.00  0.00     0.293 HD
ENDBRANCH  15  18
BRANCH  17  20
ATOM     20  O   UNL     1     122.653 128.112 122.465  1.00  0.00    -0.504 OA
ATOM     21  H   UNL     1     123.114 128.793 123.057  1.00  0.00     0.293 HD
ENDBRANCH  17  20
ENDBRANCH   1  12
BRANCH   2  22
ATOM     22  O   UNL     1     120.500 126.937 116.941  1.00  0.00    -0.502 OA
ATOM     23  H   UNL     1     120.497 126.259 117.694  1.00  0.00     0.293 HD
ENDBRANCH   2  22
BRANCH   6  24
ATOM     24  O   UNL     1     116.743 129.851 114.833  1.00  0.00    -0.507 OA
ATOM     25  H   UNL     1     117.087 128.949 114.525  1.00  0.00     0.293 HD
ENDBRANCH   6  24
BRANCH   8  26
ATOM     26  O   UNL     1     117.123 133.930 117.382  1.00  0.00    -0.508 OA
ATOM     27  H   UNL     1     116.229 134.260 117.039  1.00  0.00     0.293 HD
ENDBRANCH   8  26
TORSDOF 6
ENDMDL
MODEL 8
REMARK VINA RESULT:    -4.982      2.026      6.532
REMARK INTER + INTRA:          -6.316
REMARK INTER:                  -6.049
REMARK INTRA:                  -0.267
REMARK UNBOUND:                -0.314
REMARK SMILES O=c1c(O)c(-c2ccc(O)c(O)c2)oc2cc(O)cc(O)c12
REMARK SMILES IDX 5 1 3 2 2 3 1 4 22 5 20 6 19 7 17 8 16 9 15 10 14 11 6 12
REMARK SMILES IDX 7 13 8 14 9 15 13 16 11 17 10 18 12 20 4 22 21 24 18 26
REMARK H PARENT 10 19 12 21 4 23 21 25 18 27
REMARK Flexibility Score: inf
ROOT
ATOM      1  C   UNL     1     123.907 132.158 120.011  1.00  0.00     0.180 A 
ATOM      2  C   UNL     1     125.199 131.884 120.500  1.00  0.00     0.208 A 
ATOM      3  C   UNL     1     125.609 130.546 120.622  1.00  0.00     0.238 A 
ATOM      4  O   UNL     1     126.768 130.289 121.048  1.00  0.00    -0.285 OA
ATOM      5  C   UNL     1     124.718 129.510 120.277  1.00  0.00     0.111 A 
ATOM      6  C   UNL     1     125.051 128.138 120.374  1.00  0.00     0.134 A 
ATOM      7  C   UNL     1     124.104 127.165 120.019  1.00  0.00     0.093 A 
ATOM      8  C   UNL     1     122.835 127.536 119.570  1.00  0.00     0.123 A 
ATOM      9  C   UNL     1     122.501 128.891 119.470  1.00  0.00     0.094 A 
ATOM     10  C   UNL     1     123.430 129.875 119.818  1.00  0.00     0.146 A 
ATOM     11  O   UNL     1     123.089 131.155 119.709  1.00  0.00    -0.452 OA
ENDROOT
BRANCH   1  12
ATOM     12  C   UNL     1     123.410 133.541 119.836  1.00  0.00     0.025 A 
ATOM     13  C   UNL     1     123.388 134.108 118.551  1.00  0.00     0.016 A 
ATOM     14  C   UNL     1     122.943 135.420 118.364  1.00  0.00     0.051 A 
ATOM     15  C   UNL     1     122.527 136.187 119.460  1.00  0.00     0.157 A 
ATOM     16  C   UNL     1     123.012 134.322 120.935  1.00  0.00     0.062 A 
ATOM     17  C   UNL     1     122.566 135.639 120.748  1.00  0.00     0.158 A 
BRANCH  15  18
ATOM     18  O   UNL     1     122.081 137.495 119.277  1.00  0.00    -0.504 OA
ATOM     19  H   UNL     1     122.689 138.289 119.435  1.00  0.00     0.293 HD
ENDBRANCH  15  18
BRANCH  17  20
ATOM     20  O   UNL     1     122.166 136.410 121.839  1.00  0.00    -0.504 OA
ATOM     21  H   UNL     1     122.841 136.835 122.463  1.00  0.00     0.293 HD
ENDBRANCH  17  20
ENDBRANCH   1  12
BRANCH   2  22
ATOM     22  O   UNL     1     126.046 132.928 120.882  1.00  0.00    -0.502 OA
ATOM     23  H   UNL     1     125.796 133.902 120.760  1.00  0.00     0.293 HD
ENDBRANCH   2  22
BRANCH   6  24
ATOM     24  O   UNL     1     126.310 127.734 120.820  1.00  0.00    -0.507 OA
ATOM     25  H   UNL     1     127.024 128.404 121.082  1.00  0.00     0.293 HD
ENDBRANCH   6  24
BRANCH   8  26
ATOM     26  O   UNL     1     121.913 126.551 119.224  1.00  0.00    -0.508 OA
ATOM     27  H   UNL     1     122.204 125.606 119.005  1.00  0.00     0.293 HD
ENDBRANCH   8  26
TORSDOF 6
ENDMDL
MODEL 9
REMARK VINA RESULT:    -4.838      3.871      6.351
REMARK INTER + INTRA:          -6.142
REMARK INTER:                  -5.931
REMARK INTRA:                  -0.211
REMARK UNBOUND:                -0.314
REMARK SMILES O=c1c(O)c(-c2ccc(O)c(O)c2)oc2cc(O)cc(O)c12
REMARK SMILES IDX 5 1 3 2 2 3 1 4 22 5 20 6 19 7 17 8 16 9 15 10 14 11 6 12
REMARK SMILES IDX 7 13 8 14 9 15 13 16 11 17 10 18 12 20 4 22 21 24 18 26
REMARK H PARENT 10 19 12 21 4 23 21 25 18 27
REMARK Flexibility Score: inf
ROOT
ATOM      1  C   UNL     1     122.500 128.785 118.273  1.00  0.00     0.180 A 
ATOM      2  C   UNL     1     122.617 130.048 118.886  1.00  0.00     0.208 A 
ATOM      3  C   UNL     1     123.738 130.312 119.690  1.00  0.00     0.238 A 
ATOM      4  O   UNL     1     123.858 131.442 120.236  1.00  0.00    -0.285 OA
ATOM      5  C   UNL     1     124.707 129.307 119.885  1.00  0.00     0.111 A 
ATOM      6  C   UNL     1     125.862 129.489 120.682  1.00  0.00     0.134 A 
ATOM      7  C   UNL     1     126.777 128.437 120.833  1.00  0.00     0.093 A 
ATOM      8  C   UNL     1     126.561 127.208 120.206  1.00  0.00     0.123 A 
ATOM      9  C   UNL     1     125.421 127.022 119.415  1.00  0.00     0.094 A 
ATOM     10  C   UNL     1     124.499 128.059 119.251  1.00  0.00     0.146 A 
ATOM     11  O   UNL     1     123.428 127.857 118.491  1.00  0.00    -0.452 OA
ENDROOT
BRANCH   1  12
ATOM     12  C   UNL     1     121.359 128.439 117.396  1.00  0.00     0.025 A 
ATOM     13  C   UNL     1     121.234 129.068 116.147  1.00  0.00     0.016 A 
ATOM     14  C   UNL     1     120.154 128.773 115.311  1.00  0.00     0.051 A 
ATOM     15  C   UNL     1     119.176 127.857 115.718  1.00  0.00     0.157 A 
ATOM     16  C   UNL     1     120.364 127.536 117.810  1.00  0.00     0.062 A 
ATOM     17  C   UNL     1     119.279 127.240 116.972  1.00  0.00     0.158 A 
BRANCH  15  18
ATOM     18  O   UNL     1     118.098 127.558 114.887  1.00  0.00    -0.504 OA
ATOM     19  H   UNL     1     117.377 126.904 115.169  1.00  0.00     0.293 HD
ENDBRANCH  15  18
BRANCH  17  20
ATOM     20  O   UNL     1     118.296 126.340 117.381  1.00  0.00    -0.504 OA
ATOM     21  H   UNL     1     118.254 125.398 117.012  1.00  0.00     0.293 HD
ENDBRANCH  17  20
ENDBRANCH   1  12
BRANCH   2  22
ATOM     22  O   UNL     1     121.618 131.010 118.718  1.00  0.00    -0.502 OA
ATOM     23  H   UNL     1     121.608 131.880 119.237  1.00  0.00     0.293 HD
ENDBRANCH   2  22
BRANCH   6  24
ATOM     24  O   UNL     1     126.108 130.704 121.323  1.00  0.00    -0.507 OA
ATOM     25  H   UNL     1     125.357 131.268 121.703  1.00  0.00     0.293 HD
ENDBRANCH   6  24
BRANCH   8  26
ATOM     26  O   UNL     1     127.484 126.178 120.373  1.00  0.00    -0.508 OA
ATOM     27  H   UNL     1     128.472 126.319 120.201  1.00  0.00     0.293 HD
ENDBRANCH   8  26
TORSDOF 6
ENDMDL
