MODEL 1
REMARK VINA RESULT:    -4.470      0.000      0.000
REMARK INTER + INTRA:         -10.604
REMARK INTER:                  -8.652
REMARK INTRA:                  -1.953
REMARK UNBOUND:                -1.953
REMARK SMILES CCCCCCCCCCCCCCCCCC(=O)[O-]
REMARK SMILES IDX 10 1 11 2 12 3 13 4 14 5 15 6 16 7 17 8 18 9 19 10 20 11
REMARK SMILES IDX 9 12 8 13 7 14 6 15 5 16 4 17 3 18 2 19 1 20
REMARK H PARENT
REMARK Flexibility Score: inf
ROOT
ATOM      1  C   UNL     1      -1.840   2.581  -4.107  1.00  0.00     0.000 C 
ENDROOT
BRANCH   1   2
ATOM      2  C   UNL     1      -1.934   2.141  -2.640  1.00  0.00     0.000 C 
BRANCH   2   3
ATOM      3  C   UNL     1      -3.249   2.612  -2.008  1.00  0.00     0.000 C 
BRANCH   3   4
ATOM      4  C   UNL     1      -4.287   2.953  -3.085  1.00  0.00     0.000 C 
BRANCH   4   5
ATOM      5  C   UNL     1      -5.365   1.866  -3.174  1.00  0.00     0.000 C 
BRANCH   5   6
ATOM      6  C   UNL     1      -5.113   0.938  -4.370  1.00  0.00     0.000 C 
BRANCH   6   7
ATOM      7  C   UNL     1      -5.055  -0.551  -3.978  1.00  0.00     0.006 C 
BRANCH   7   8
ATOM      8  C   UNL     1      -3.710  -0.983  -3.368  1.00  0.00     0.053 C 
BRANCH   8   9
ATOM      9  C   UNL     1      -3.524  -2.470  -3.381  1.00  0.00     0.041 C 
ATOM     10  O   UNL     1      -2.487  -2.973  -3.887  1.00  0.00    -0.550 OA
ATOM     11  O   UNL     1      -4.476  -3.299  -2.802  1.00  0.00    -0.550 OA
ENDBRANCH   8   9
ENDBRANCH   7   8
ENDBRANCH   6   7
ENDBRANCH   5   6
ENDBRANCH   4   5
ENDBRANCH   3   4
ENDBRANCH   2   3
ENDBRANCH   1   2
BRANCH   1  12
ATOM     12  C   UNL     1      -0.409   3.015  -4.460  1.00  0.00     0.000 C 
BRANCH  12  13
ATOM     13  C   UNL     1       0.195   3.965  -3.415  1.00  0.00    -0.000 C 
BRANCH  13  14
ATOM     14  C   UNL     1       1.683   3.677  -3.144  1.00  0.00    -0.000 C 
BRANCH  14  15
ATOM     15  C   UNL     1       2.056   2.210  -3.411  1.00  0.00    -0.000 C 
BRANCH  15  16
ATOM     16  C   UNL     1       3.509   2.048  -3.889  1.00  0.00    -0.000 C 
BRANCH  16  17
ATOM     17  C   UNL     1       4.018   3.270  -4.675  1.00  0.00    -0.000 C 
BRANCH  17  18
ATOM     18  C   UNL     1       4.419   2.983  -6.133  1.00  0.00    -0.000 C 
BRANCH  18  19
ATOM     19  C   UNL     1       3.233   3.063  -7.105  1.00  0.00    -0.003 C 
ATOM     20  C   UNL     1       2.301   4.215  -6.741  1.00  0.00     0.004 C 
ENDBRANCH  18  19
ENDBRANCH  17  18
ENDBRANCH  16  17
ENDBRANCH  15  16
ENDBRANCH  14  15
ENDBRANCH  13  14
ENDBRANCH  12  13
ENDBRANCH   1  12
TORSDOF 16
ENDMDL
MODEL 2
REMARK VINA RESULT:    -4.419      3.473      7.653
REMARK INTER + INTRA:         -10.505
REMARK INTER:                  -8.693
REMARK INTRA:                  -1.812
REMARK UNBOUND:                -1.953
REMARK SMILES CCCCCCCCCCCCCCCCCC(=O)[O-]
REMARK SMILES IDX 10 1 11 2 12 3 13 4 14 5 15 6 16 7 17 8 18 9 19 10 20 11
REMARK SMILES IDX 9 12 8 13 7 14 6 15 5 16 4 17 3 18 2 19 1 20
REMARK H PARENT
REMARK Flexibility Score: inf
ROOT
ATOM      1  C   UNL     1      -0.728   3.164  -5.535  1.00  0.00     0.000 C 
ENDROOT
BRANCH   1   2
ATOM      2  C   UNL     1      -0.308   3.874  -6.828  1.00  0.00     0.000 C 
BRANCH   2   3
ATOM      3  C   UNL     1       1.009   4.637  -6.634  1.00  0.00     0.000 C 
BRANCH   3   4
ATOM      4  C   UNL     1       2.208   3.680  -6.659  1.00  0.00     0.000 C 
BRANCH   4   5
ATOM      5  C   UNL     1       3.234   4.055  -5.583  1.00  0.00     0.000 C 
BRANCH   5   6
ATOM      6  C   UNL     1       4.207   2.897  -5.324  1.00  0.00     0.000 C 
BRANCH   6   7
ATOM      7  C   UNL     1       3.569   1.734  -4.543  1.00  0.00     0.006 C 
BRANCH   7   8
ATOM      8  C   UNL     1       3.276   2.060  -3.068  1.00  0.00     0.053 C 
BRANCH   8   9
ATOM      9  C   UNL     1       4.463   2.641  -2.360  1.00  0.00     0.041 C 
ATOM     10  O   UNL     1       4.410   3.808  -1.891  1.00  0.00    -0.550 OA
ATOM     11  O   UNL     1       5.613   1.883  -2.187  1.00  0.00    -0.550 OA
ENDBRANCH   8   9
ENDBRANCH   7   8
ENDBRANCH   6   7
ENDBRANCH   5   6
ENDBRANCH   4   5
ENDBRANCH   3   4
ENDBRANCH   2   3
ENDBRANCH   1   2
BRANCH   1  12
ATOM     12  C   UNL     1      -0.559   4.088  -4.320  1.00  0.00     0.000 C 
BRANCH  12  13
ATOM     13  C   UNL     1      -0.363   3.312  -3.009  1.00  0.00    -0.000 C 
BRANCH  13  14
ATOM     14  C   UNL     1      -1.368   2.157  -2.849  1.00  0.00    -0.000 C 
BRANCH  14  15
ATOM     15  C   UNL     1      -2.650   2.591  -2.122  1.00  0.00    -0.000 C 
BRANCH  15  16
ATOM     16  C   UNL     1      -3.913   2.378  -2.975  1.00  0.00    -0.000 C 
BRANCH  16  17
ATOM     17  C   UNL     1      -3.661   1.482  -4.201  1.00  0.00    -0.000 C 
BRANCH  17  18
ATOM     18  C   UNL     1      -4.385   0.124  -4.170  1.00  0.00    -0.000 C 
BRANCH  18  19
ATOM     19  C   UNL     1      -3.629  -0.938  -3.359  1.00  0.00    -0.003 C 
ATOM     20  C   UNL     1      -3.975  -2.345  -3.837  1.00  0.00     0.004 C 
ENDBRANCH  18  19
ENDBRANCH  17  18
ENDBRANCH  16  17
ENDBRANCH  15  16
ENDBRANCH  14  15
ENDBRANCH  13  14
ENDBRANCH  12  13
ENDBRANCH   1  12
TORSDOF 16
ENDMDL
MODEL 3
REMARK VINA RESULT:    -4.323      3.609      7.674
REMARK INTER + INTRA:         -10.320
REMARK INTER:                  -8.584
REMARK INTRA:                  -1.736
REMARK UNBOUND:                -1.953
REMARK SMILES CCCCCCCCCCCCCCCCCC(=O)[O-]
REMARK SMILES IDX 10 1 11 2 12 3 13 4 14 5 15 6 16 7 17 8 18 9 19 10 20 11
REMARK SMILES IDX 9 12 8 13 7 14 6 15 5 16 4 17 3 18 2 19 1 20
REMARK H PARENT
REMARK Flexibility Score: inf
ROOT
ATOM      1  C   UNL     1      -2.227   3.382  -4.169  1.00  0.00     0.000 C 
ENDROOT
BRANCH   1   2
ATOM      2  C   UNL     1      -1.676   2.712  -2.904  1.00  0.00     0.000 C 
BRANCH   2   3
ATOM      3  C   UNL     1      -0.142   2.708  -2.907  1.00  0.00     0.000 C 
BRANCH   3   4
ATOM      4  C   UNL     1       0.411   4.137  -2.974  1.00  0.00     0.000 C 
BRANCH   4   5
ATOM      5  C   UNL     1       1.876   4.140  -3.428  1.00  0.00     0.000 C 
BRANCH   5   6
ATOM      6  C   UNL     1       2.045   3.371  -4.746  1.00  0.00     0.000 C 
BRANCH   6   7
ATOM      7  C   UNL     1       3.326   2.517  -4.787  1.00  0.00     0.006 C 
BRANCH   7   8
ATOM      8  C   UNL     1       3.730   1.932  -3.423  1.00  0.00     0.053 C 
BRANCH   8   9
ATOM      9  C   UNL     1       5.057   2.443  -2.948  1.00  0.00     0.041 C 
ATOM     10  O   UNL     1       5.656   1.864  -2.004  1.00  0.00    -0.550 OA
ATOM     11  O   UNL     1       5.649   3.534  -3.570  1.00  0.00    -0.550 OA
ENDBRANCH   8   9
ENDBRANCH   7   8
ENDBRANCH   6   7
ENDBRANCH   5   6
ENDBRANCH   4   5
ENDBRANCH   3   4
ENDBRANCH   2   3
ENDBRANCH   1   2
BRANCH   1  12
ATOM     12  C   UNL     1      -1.793   2.618  -5.429  1.00  0.00     0.000 C 
BRANCH  12  13
ATOM     13  C   UNL     1      -2.893   2.572  -6.501  1.00  0.00    -0.000 C 
BRANCH  13  14
ATOM     14  C   UNL     1      -4.258   2.145  -5.929  1.00  0.00    -0.000 C 
BRANCH  14  15
ATOM     15  C   UNL     1      -4.295   0.657  -5.547  1.00  0.00    -0.000 C 
BRANCH  15  16
ATOM     16  C   UNL     1      -4.579   0.440  -4.051  1.00  0.00    -0.000 C 
BRANCH  16  17
ATOM     17  C   UNL     1      -3.559  -0.499  -3.380  1.00  0.00    -0.000 C 
BRANCH  17  18
ATOM     18  C   UNL     1      -4.011  -1.965  -3.258  1.00  0.00    -0.000 C 
BRANCH  18  19
ATOM     19  C   UNL     1      -3.088  -2.939  -4.004  1.00  0.00    -0.003 C 
ATOM     20  C   UNL     1      -3.691  -3.351  -5.344  1.00  0.00     0.004 C 
ENDBRANCH  18  19
ENDBRANCH  17  18
ENDBRANCH  16  17
ENDBRANCH  15  16
ENDBRANCH  14  15
ENDBRANCH  13  14
ENDBRANCH  12  13
ENDBRANCH   1  12
TORSDOF 16
ENDMDL
MODEL 4
REMARK VINA RESULT:    -4.310      3.417      8.173
REMARK INTER + INTRA:         -10.293
REMARK INTER:                  -9.092
REMARK INTRA:                  -1.201
REMARK UNBOUND:                -1.953
REMARK SMILES CCCCCCCCCCCCCCCCCC(=O)[O-]
REMARK SMILES IDX 10 1 11 2 12 3 13 4 14 5 15 6 16 7 17 8 18 9 19 10 20 11
REMARK SMILES IDX 9 12 8 13 7 14 6 15 5 16 4 17 3 18 2 19 1 20
REMARK H PARENT
REMARK Flexibility Score: inf
ROOT
ATOM      1  C   UNL     1      -0.600   3.204  -4.406  1.00  0.00     0.000 C 
ENDROOT
BRANCH   1   2
ATOM      2  C   UNL     1       0.200   3.554  -3.144  1.00  0.00     0.000 C 
BRANCH   2   3
ATOM      3  C   UNL     1       1.707   3.543  -3.426  1.00  0.00     0.000 C 
BRANCH   3   4
ATOM      4  C   UNL     1       2.285   2.130  -3.273  1.00  0.00     0.000 C 
BRANCH   4   5
ATOM      5  C   UNL     1       3.533   1.948  -4.145  1.00  0.00     0.000 C 
BRANCH   5   6
ATOM      6  C   UNL     1       3.461   2.829  -5.400  1.00  0.00     0.000 C 
BRANCH   6   7
ATOM      7  C   UNL     1       4.451   2.399  -6.498  1.00  0.00     0.006 C 
BRANCH   7   8
ATOM      8  C   UNL     1       3.802   2.195  -7.878  1.00  0.00     0.053 C 
BRANCH   8   9
ATOM      9  C   UNL     1       4.709   1.493  -8.843  1.00  0.00     0.041 C 
ATOM     10  O   UNL     1       4.707   0.236  -8.913  1.00  0.00    -0.550 OA
ATOM     11  O   UNL     1       5.530   2.226  -9.690  1.00  0.00    -0.550 OA
ENDBRANCH   8   9
ENDBRANCH   7   8
ENDBRANCH   6   7
ENDBRANCH   5   6
ENDBRANCH   4   5
ENDBRANCH   3   4
ENDBRANCH   2   3
ENDBRANCH   1   2
BRANCH   1  12
ATOM     12  C   UNL     1      -1.824   2.345  -4.059  1.00  0.00     0.000 C 
BRANCH  12  13
ATOM     13  C   UNL     1      -2.158   2.368  -2.560  1.00  0.00    -0.000 C 
BRANCH  13  14
ATOM     14  C   UNL     1      -3.618   2.774  -2.286  1.00  0.00    -0.000 C 
BRANCH  14  15
ATOM     15  C   UNL     1      -4.538   2.506  -3.487  1.00  0.00    -0.000 C 
BRANCH  15  16
ATOM     16  C   UNL     1      -5.352   1.210  -3.329  1.00  0.00    -0.000 C 
BRANCH  16  17
ATOM     17  C   UNL     1      -4.726   0.018  -4.075  1.00  0.00    -0.000 C 
BRANCH  17  18
ATOM     18  C   UNL     1      -3.707  -0.796  -3.257  1.00  0.00    -0.000 C 
BRANCH  18  19
ATOM     19  C   UNL     1      -4.040  -2.295  -3.210  1.00  0.00    -0.003 C 
ATOM     20  C   UNL     1      -3.133  -3.088  -4.145  1.00  0.00     0.004 C 
ENDBRANCH  18  19
ENDBRANCH  17  18
ENDBRANCH  16  17
ENDBRANCH  15  16
ENDBRANCH  14  15
ENDBRANCH  13  14
ENDBRANCH  12  13
ENDBRANCH   1  12
TORSDOF 16
ENDMDL
MODEL 5
REMARK VINA RESULT:    -4.300      3.391      7.272
REMARK INTER + INTRA:         -10.274
REMARK INTER:                  -7.880
REMARK INTRA:                  -2.394
REMARK UNBOUND:                -1.953
REMARK SMILES CCCCCCCCCCCCCCCCCC(=O)[O-]
REMARK SMILES IDX 10 1 11 2 12 3 13 4 14 5 15 6 16 7 17 8 18 9 19 10 20 11
REMARK SMILES IDX 9 12 8 13 7 14 6 15 5 16 4 17 3 18 2 19 1 20
REMARK H PARENT
REMARK Flexibility Score: inf
ROOT
ATOM      1  C   UNL     1      -2.526   2.646  -6.291  1.00  0.00     0.000 C 
ENDROOT
BRANCH   1   2
ATOM      2  C   UNL     1      -1.271   3.496  -6.525  1.00  0.00     0.000 C 
BRANCH   2   3
ATOM      3  C   UNL     1      -0.255   3.302  -5.393  1.00  0.00     0.000 C 
BRANCH   3   4
ATOM      4  C   UNL     1      -0.490   4.314  -4.264  1.00  0.00     0.000 C 
BRANCH   4   5
ATOM      5  C   UNL     1       0.322   3.946  -3.017  1.00  0.00     0.000 C 
BRANCH   5   6
ATOM      6  C   UNL     1       1.092   2.635  -3.228  1.00  0.00     0.000 C 
BRANCH   6   7
ATOM      7  C   UNL     1       2.619   2.830  -3.259  1.00  0.00     0.006 C 
BRANCH   7   8
ATOM      8  C   UNL     1       3.336   1.972  -4.316  1.00  0.00     0.053 C 
BRANCH   8   9
ATOM      9  C   UNL     1       3.679   2.750  -5.551  1.00  0.00     0.041 C 
ATOM     10  O   UNL     1       4.399   2.231  -6.445  1.00  0.00    -0.550 OA
ATOM     11  O   UNL     1       3.176   4.031  -5.733  1.00  0.00    -0.550 OA
ENDBRANCH   8   9
ENDBRANCH   7   8
ENDBRANCH   6   7
ENDBRANCH   5   6
ENDBRANCH   4   5
ENDBRANCH   3   4
ENDBRANCH   2   3
ENDBRANCH   1   2
BRANCH   1  12
ATOM     12  C   UNL     1      -3.799   3.491  -6.443  1.00  0.00     0.000 C 
BRANCH  12  13
ATOM     13  C   UNL     1      -5.064   2.740  -6.000  1.00  0.00    -0.000 C 
BRANCH  13  14
ATOM     14  C   UNL     1      -5.854   3.499  -4.919  1.00  0.00    -0.000 C 
BRANCH  14  15
ATOM     15  C   UNL     1      -4.961   3.972  -3.761  1.00  0.00    -0.000 C 
BRANCH  15  16
ATOM     16  C   UNL     1      -4.691   2.861  -2.732  1.00  0.00    -0.000 C 
BRANCH  16  17
ATOM     17  C   UNL     1      -3.193   2.551  -2.566  1.00  0.00    -0.000 C 
BRANCH  17  18
ATOM     18  C   UNL     1      -2.760   1.160  -3.064  1.00  0.00    -0.000 C 
BRANCH  18  19
ATOM     19  C   UNL     1      -3.936   0.316  -3.574  1.00  0.00    -0.003 C 
ATOM     20  C   UNL     1      -3.641  -1.175  -3.439  1.00  0.00     0.004 C 
ENDBRANCH  18  19
ENDBRANCH  17  18
ENDBRANCH  16  17
ENDBRANCH  15  16
ENDBRANCH  14  15
ENDBRANCH  13  14
ENDBRANCH  12  13
ENDBRANCH   1  12
TORSDOF 16
ENDMDL
MODEL 6
REMARK VINA RESULT:    -4.289      3.244      7.573
REMARK INTER + INTRA:         -10.253
REMARK INTER:                  -8.817
REMARK INTRA:                  -1.436
REMARK UNBOUND:                -1.953
REMARK SMILES CCCCCCCCCCCCCCCCCC(=O)[O-]
REMARK SMILES IDX 10 1 11 2 12 3 13 4 14 5 15 6 16 7 17 8 18 9 19 10 20 11
REMARK SMILES IDX 9 12 8 13 7 14 6 15 5 16 4 17 3 18 2 19 1 20
REMARK H PARENT
REMARK Flexibility Score: inf
ROOT
ATOM      1  C   UNL     1      -4.132   2.975  -3.294  1.00  0.00     0.000 C 
ENDROOT
BRANCH   1   2
ATOM      2  C   UNL     1      -3.088   2.667  -2.213  1.00  0.00     0.000 C 
BRANCH   2   3
ATOM      3  C   UNL     1      -1.882   1.928  -2.806  1.00  0.00     0.000 C 
BRANCH   3   4
ATOM      4  C   UNL     1      -1.185   2.781  -3.873  1.00  0.00     0.000 C 
BRANCH   4   5
ATOM      5  C   UNL     1      -0.045   3.605  -3.262  1.00  0.00     0.000 C 
BRANCH   5   6
ATOM      6  C   UNL     1       1.252   2.788  -3.201  1.00  0.00     0.000 C 
BRANCH   6   7
ATOM      7  C   UNL     1       2.161   3.003  -4.425  1.00  0.00     0.006 C 
BRANCH   7   8
ATOM      8  C   UNL     1       3.422   2.122  -4.428  1.00  0.00     0.053 C 
BRANCH   8   9
ATOM      9  C   UNL     1       4.420   2.542  -3.391  1.00  0.00     0.041 C 
ATOM     10  O   UNL     1       4.452   1.963  -2.273  1.00  0.00    -0.550 OA
ATOM     11  O   UNL     1       5.338   3.546  -3.669  1.00  0.00    -0.550 OA
ENDBRANCH   8   9
ENDBRANCH   7   8
ENDBRANCH   6   7
ENDBRANCH   5   6
ENDBRANCH   4   5
ENDBRANCH   3   4
ENDBRANCH   2   3
ENDBRANCH   1   2
BRANCH   1  12
ATOM     12  C   UNL     1      -5.514   2.439  -2.892  1.00  0.00     0.000 C 
BRANCH  12  13
ATOM     13  C   UNL     1      -5.872   1.129  -3.611  1.00  0.00    -0.000 C 
BRANCH  13  14
ATOM     14  C   UNL     1      -5.010   0.887  -4.864  1.00  0.00    -0.000 C 
BRANCH  14  15
ATOM     15  C   UNL     1      -4.274  -0.461  -4.819  1.00  0.00    -0.000 C 
BRANCH  15  16
ATOM     16  C   UNL     1      -4.027  -0.950  -3.381  1.00  0.00    -0.000 C 
BRANCH  16  17
ATOM     17  C   UNL     1      -3.480  -2.388  -3.325  1.00  0.00    -0.000 C 
BRANCH  17  18
ATOM     18  C   UNL     1      -3.375  -3.095  -4.689  1.00  0.00    -0.000 C 
BRANCH  18  19
ATOM     19  C   UNL     1      -2.162  -4.031  -4.785  1.00  0.00    -0.003 C 
ATOM     20  C   UNL     1      -2.011  -4.592  -6.196  1.00  0.00     0.004 C 
ENDBRANCH  18  19
ENDBRANCH  17  18
ENDBRANCH  16  17
ENDBRANCH  15  16
ENDBRANCH  14  15
ENDBRANCH  13  14
ENDBRANCH  12  13
ENDBRANCH   1  12
TORSDOF 16
ENDMDL
MODEL 7
REMARK VINA RESULT:    -4.261      1.829      3.069
REMARK INTER + INTRA:         -10.198
REMARK INTER:                  -7.835
REMARK INTRA:                  -2.363
REMARK UNBOUND:                -1.953
REMARK SMILES CCCCCCCCCCCCCCCCCC(=O)[O-]
REMARK SMILES IDX 10 1 11 2 12 3 13 4 14 5 15 6 16 7 17 8 18 9 19 10 20 11
REMARK SMILES IDX 9 12 8 13 7 14 6 15 5 16 4 17 3 18 2 19 1 20
REMARK H PARENT
REMARK Flexibility Score: inf
ROOT
ATOM      1  C   UNL     1       0.913   5.202  -5.066  1.00  0.00     0.000 C 
ENDROOT
BRANCH   1   2
ATOM      2  C   UNL     1      -0.266   5.255  -6.045  1.00  0.00     0.000 C 
BRANCH   2   3
ATOM      3  C   UNL     1      -0.358   3.962  -6.866  1.00  0.00     0.000 C 
BRANCH   3   4
ATOM      4  C   UNL     1      -1.764   3.354  -6.778  1.00  0.00     0.000 C 
BRANCH   4   5
ATOM      5  C   UNL     1      -1.960   2.610  -5.452  1.00  0.00     0.000 C 
BRANCH   5   6
ATOM      6  C   UNL     1      -2.922   3.371  -4.531  1.00  0.00     0.000 C 
BRANCH   6   7
ATOM      7  C   UNL     1      -3.077   2.717  -3.145  1.00  0.00     0.006 C 
BRANCH   7   8
ATOM      8  C   UNL     1      -2.683   1.230  -3.110  1.00  0.00     0.053 C 
BRANCH   8   9
ATOM      9  C   UNL     1      -3.864   0.319  -3.263  1.00  0.00     0.041 C 
ATOM     10  O   UNL     1      -3.701  -0.930  -3.275  1.00  0.00    -0.550 OA
ATOM     11  O   UNL     1      -5.146   0.844  -3.355  1.00  0.00    -0.550 OA
ENDBRANCH   8   9
ENDBRANCH   7   8
ENDBRANCH   6   7
ENDBRANCH   5   6
ENDBRANCH   4   5
ENDBRANCH   3   4
ENDBRANCH   2   3
ENDBRANCH   1   2
BRANCH   1  12
ATOM     12  C   UNL     1       0.418   5.114  -3.614  1.00  0.00     0.000 C 
BRANCH  12  13
ATOM     13  C   UNL     1       0.575   3.706  -3.020  1.00  0.00    -0.000 C 
BRANCH  13  14
ATOM     14  C   UNL     1       1.425   2.780  -3.910  1.00  0.00    -0.000 C 
BRANCH  14  15
ATOM     15  C   UNL     1       2.525   2.054  -3.119  1.00  0.00    -0.000 C 
BRANCH  15  16
ATOM     16  C   UNL     1       3.752   1.721  -3.986  1.00  0.00    -0.000 C 
BRANCH  16  17
ATOM     17  C   UNL     1       3.870   2.626  -5.226  1.00  0.00    -0.000 C 
BRANCH  17  18
ATOM     18  C   UNL     1       4.141   1.883  -6.547  1.00  0.00    -0.000 C 
BRANCH  18  19
ATOM     19  C   UNL     1       4.281   2.830  -7.747  1.00  0.00    -0.003 C 
ATOM     20  C   UNL     1       3.248   3.951  -7.687  1.00  0.00     0.004 C 
ENDBRANCH  18  19
ENDBRANCH  17  18
ENDBRANCH  16  17
ENDBRANCH  15  16
ENDBRANCH  14  15
ENDBRANCH  13  14
ENDBRANCH  12  13
ENDBRANCH   1  12
TORSDOF 16
ENDMDL
MODEL 8
REMARK VINA RESULT:    -4.234      3.334      7.795
REMARK INTER + INTRA:         -10.146
REMARK INTER:                  -8.364
REMARK INTRA:                  -1.782
REMARK UNBOUND:                -1.953
REMARK SMILES CCCCCCCCCCCCCCCCCC(=O)[O-]
REMARK SMILES IDX 10 1 11 2 12 3 13 4 14 5 15 6 16 7 17 8 18 9 19 10 20 11
REMARK SMILES IDX 9 12 8 13 7 14 6 15 5 16 4 17 3 18 2 19 1 20
REMARK H PARENT
REMARK Flexibility Score: inf
ROOT
ATOM      1  C   UNL     1       0.130   4.194  -3.943  1.00  0.00     0.000 C 
ENDROOT
BRANCH   1   2
ATOM      2  C   UNL     1       0.824   3.151  -3.058  1.00  0.00     0.000 C 
BRANCH   2   3
ATOM      3  C   UNL     1       2.350   3.259  -3.174  1.00  0.00     0.000 C 
BRANCH   3   4
ATOM      4  C   UNL     1       2.986   1.876  -3.363  1.00  0.00     0.000 C 
BRANCH   4   5
ATOM      5  C   UNL     1       3.694   1.776  -4.719  1.00  0.00     0.000 C 
BRANCH   5   6
ATOM      6  C   UNL     1       4.240   3.142  -5.156  1.00  0.00     0.000 C 
BRANCH   6   7
ATOM      7  C   UNL     1       4.766   3.148  -6.604  1.00  0.00     0.006 C 
BRANCH   7   8
ATOM      8  C   UNL     1       3.796   2.521  -7.621  1.00  0.00     0.053 C 
BRANCH   8   9
ATOM      9  C   UNL     1       4.427   1.413  -8.410  1.00  0.00     0.041 C 
ATOM     10  O   UNL     1       4.371   0.227  -7.990  1.00  0.00    -0.550 OA
ATOM     11  O   UNL     1       5.045   1.682  -9.624  1.00  0.00    -0.550 OA
ENDBRANCH   8   9
ENDBRANCH   7   8
ENDBRANCH   6   7
ENDBRANCH   5   6
ENDBRANCH   4   5
ENDBRANCH   3   4
ENDBRANCH   2   3
ENDBRANCH   1   2
BRANCH   1  12
ATOM     12  C   UNL     1      -0.269   3.589  -5.297  1.00  0.00     0.000 C 
BRANCH  12  13
ATOM     13  C   UNL     1      -1.546   2.741  -5.212  1.00  0.00    -0.000 C 
BRANCH  13  14
ATOM     14  C   UNL     1      -2.740   3.525  -4.637  1.00  0.00    -0.000 C 
BRANCH  14  15
ATOM     15  C   UNL     1      -3.320   2.870  -3.374  1.00  0.00    -0.000 C 
BRANCH  15  16
ATOM     16  C   UNL     1      -2.520   1.633  -2.931  1.00  0.00    -0.000 C 
BRANCH  16  17
ATOM     17  C   UNL     1      -3.205   0.310  -3.316  1.00  0.00    -0.000 C 
BRANCH  17  18
ATOM     18  C   UNL     1      -4.637   0.456  -3.862  1.00  0.00    -0.000 C 
BRANCH  18  19
ATOM     19  C   UNL     1      -4.831  -0.227  -5.223  1.00  0.00    -0.003 C 
ATOM     20  C   UNL     1      -4.526   0.733  -6.369  1.00  0.00     0.004 C 
ENDBRANCH  18  19
ENDBRANCH  17  18
ENDBRANCH  16  17
ENDBRANCH  15  16
ENDBRANCH  14  15
ENDBRANCH  13  14
ENDBRANCH  12  13
ENDBRANCH   1  12
TORSDOF 16
ENDMDL
MODEL 9
REMARK VINA RESULT:    -4.222      3.616      7.256
REMARK INTER + INTRA:         -10.123
REMARK INTER:                  -7.719
REMARK INTRA:                  -2.404
REMARK UNBOUND:                -1.953
REMARK SMILES CCCCCCCCCCCCCCCCCC(=O)[O-]
REMARK SMILES IDX 10 1 11 2 12 3 13 4 14 5 15 6 16 7 17 8 18 9 19 10 20 11
REMARK SMILES IDX 9 12 8 13 7 14 6 15 5 16 4 17 3 18 2 19 1 20
REMARK H PARENT
REMARK Flexibility Score: inf
ROOT
ATOM      1  C   UNL     1      -0.180   6.808  -5.832  1.00  0.00     0.000 C 
ENDROOT
BRANCH   1   2
ATOM      2  C   UNL     1      -0.389   6.271  -4.410  1.00  0.00     0.000 C 
BRANCH   2   3
ATOM      3  C   UNL     1       0.845   5.502  -3.925  1.00  0.00     0.000 C 
BRANCH   3   4
ATOM      4  C   UNL     1       0.440   4.296  -3.068  1.00  0.00     0.000 C 
BRANCH   4   5
ATOM      5  C   UNL     1       1.141   3.019  -3.547  1.00  0.00     0.000 C 
BRANCH   5   6
ATOM      6  C   UNL     1       2.121   3.324  -4.687  1.00  0.00     0.000 C 
BRANCH   6   7
ATOM      7  C   UNL     1       3.342   2.385  -4.703  1.00  0.00     0.006 C 
BRANCH   7   8
ATOM      8  C   UNL     1       3.692   1.795  -3.326  1.00  0.00     0.053 C 
BRANCH   8   9
ATOM      9  C   UNL     1       4.803   2.539  -2.647  1.00  0.00     0.041 C 
ATOM     10  O   UNL     1       5.025   2.363  -1.420  1.00  0.00    -0.550 OA
ATOM     11  O   UNL     1       5.615   3.399  -3.374  1.00  0.00    -0.550 OA
ENDBRANCH   8   9
ENDBRANCH   7   8
ENDBRANCH   6   7
ENDBRANCH   5   6
ENDBRANCH   4   5
ENDBRANCH   3   4
ENDBRANCH   2   3
ENDBRANCH   1   2
BRANCH   1  12
ATOM     12  C   UNL     1      -0.258   5.673  -6.864  1.00  0.00     0.000 C 
BRANCH  12  13
ATOM     13  C   UNL     1      -1.506   4.796  -6.685  1.00  0.00    -0.000 C 
BRANCH  13  14
ATOM     14  C   UNL     1      -1.158   3.314  -6.447  1.00  0.00    -0.000 C 
BRANCH  14  15
ATOM     15  C   UNL     1      -2.212   2.594  -5.592  1.00  0.00    -0.000 C 
BRANCH  15  16
ATOM     16  C   UNL     1      -2.775   3.487  -4.473  1.00  0.00    -0.000 C 
BRANCH  16  17
ATOM     17  C   UNL     1      -3.060   2.710  -3.175  1.00  0.00    -0.000 C 
BRANCH  17  18
ATOM     18  C   UNL     1      -2.760   1.201  -3.244  1.00  0.00    -0.000 C 
BRANCH  18  19
ATOM     19  C   UNL     1      -4.028   0.347  -3.391  1.00  0.00    -0.003 C 
ATOM     20  C   UNL     1      -3.693  -1.142  -3.371  1.00  0.00     0.004 C 
ENDBRANCH  18  19
ENDBRANCH  17  18
ENDBRANCH  16  17
ENDBRANCH  15  16
ENDBRANCH  14  15
ENDBRANCH  13  14
ENDBRANCH  12  13
ENDBRANCH   1  12
TORSDOF 16
ENDMDL
