MODEL 1
REMARK VINA RESULT:    -6.910      0.000      0.000
REMARK INTER + INTRA:         -10.485
REMARK INTER:                 -10.142
REMARK INTRA:                  -0.343
REMARK UNBOUND:                -0.343
REMARK SMILES O=c1c(O[C@@H]2O[C@@H](CO)[C@@H](O)[C@@H](O)[C@H]2O)c(-c2ccc(O)c(O)c2)oc2cc(O)cc(O)c12
REMARK SMILES IDX 4 1 3 2 16 3 25 4 2 5 26 6 1 7 33 8 27 9 31 10 28 11 30 12
REMARK SMILES IDX 17 13 18 14 19 15 20 16 24 17 22 18 21 19 23 21 32 23 29 25
REMARK SMILES IDX 5 27 14 28 6 29 12 30 7 31 10 32 15 33 13 35 8 37 9 38 11 40
REMARK H PARENT 21 20 23 22 32 24 29 26 15 34 13 36 9 39 11 41
REMARK Flexibility Score: inf
ROOT
ATOM      1  O   UNL     1      61.288 152.667   6.908  1.00  0.00    -0.454 OA
ENDROOT
BRANCH   1   2
ATOM      2  C   UNL     1      60.930 152.886   5.562  1.00  0.00     0.214 A 
ATOM      3  C   UNL     1      61.594 152.136   4.569  1.00  0.00     0.180 A 
ATOM      4  O   UNL     1      61.256 152.266   3.291  1.00  0.00    -0.452 OA
ATOM      5  C   UNL     1      59.923 153.791   5.151  1.00  0.00     0.239 A 
ATOM      6  C   UNL     1      60.318 153.101   2.866  1.00  0.00     0.146 A 
ATOM      7  O   UNL     1      59.300 154.481   6.001  1.00  0.00    -0.285 OA
ATOM      8  C   UNL     1      59.609 153.911   3.780  1.00  0.00     0.111 A 
ATOM      9  C   UNL     1      60.041 153.169   1.497  1.00  0.00     0.094 A 
ATOM     10  C   UNL     1      58.616 154.796   3.288  1.00  0.00     0.134 A 
ATOM     11  C   UNL     1      59.060 154.044   1.018  1.00  0.00     0.123 A 
ATOM     12  C   UNL     1      58.353 154.851   1.911  1.00  0.00     0.093 A 
BRANCH   3  13
ATOM     13  C   UNL     1      62.662 151.170   4.907  1.00  0.00     0.025 A 
ATOM     14  C   UNL     1      63.984 151.619   5.040  1.00  0.00     0.016 A 
ATOM     15  C   UNL     1      65.006 150.722   5.364  1.00  0.00     0.051 A 
ATOM     16  C   UNL     1      64.721 149.370   5.573  1.00  0.00     0.157 A 
ATOM     17  C   UNL     1      62.373 149.815   5.144  1.00  0.00     0.062 A 
ATOM     18  C   UNL     1      63.397 148.913   5.466  1.00  0.00     0.158 A 
BRANCH  16  19
ATOM     19  O   UNL     1      65.761 148.497   5.888  1.00  0.00    -0.504 OA
ATOM     20  H   UNL     1      66.663 148.547   5.429  1.00  0.00     0.293 HD
ENDBRANCH  16  19
BRANCH  18  21
ATOM     21  O   UNL     1      63.101 147.568   5.681  1.00  0.00    -0.504 OA
ATOM     22  H   UNL     1      63.475 147.062   6.476  1.00  0.00     0.293 HD
ENDBRANCH  18  21
ENDBRANCH   3  13
BRANCH  10  23
ATOM     23  O   UNL     1      57.891 155.618   4.152  1.00  0.00    -0.507 OA
ATOM     24  H   UNL     1      57.386 156.430   3.818  1.00  0.00     0.293 HD
ENDBRANCH  10  23
BRANCH  11  25
ATOM     25  O   UNL     1      58.780 154.117  -0.344  1.00  0.00    -0.508 OA
ATOM     26  H   UNL     1      58.953 153.334  -0.964  1.00  0.00     0.293 HD
ENDBRANCH  11  25
ENDBRANCH   1   2
BRANCH   1  27
ATOM     27  C   UNL     1      60.419 152.369   8.006  1.00  0.00     0.339 C 
ATOM     28  C   UNL     1      59.042 151.924   7.480  1.00  0.00     0.214 C 
ATOM     29  O   UNL     1      60.983 151.393   8.872  1.00  0.00    -0.332 OA
ATOM     30  C   UNL     1      59.149 150.539   6.806  1.00  0.00     0.180 C 
ATOM     31  C   UNL     1      61.202 150.162   8.201  1.00  0.00     0.179 C 
ATOM     32  C   UNL     1      59.868 149.540   7.730  1.00  0.00     0.177 C 
BRANCH  28  33
ATOM     33  O   UNL     1      58.132 151.886   8.552  1.00  0.00    -0.384 OA
ATOM     34  H   UNL     1      58.595 152.273   9.339  1.00  0.00     0.211 HD
ENDBRANCH  28  33
BRANCH  30  35
ATOM     35  O   UNL     1      57.876 150.049   6.467  1.00  0.00    -0.387 OA
ATOM     36  H   UNL     1      57.307 150.841   6.277  1.00  0.00     0.211 HD
ENDBRANCH  30  35
BRANCH  31  37
ATOM     37  C   UNL     1      61.982 149.216   9.125  1.00  0.00     0.191 C 
BRANCH  37  38
ATOM     38  O   UNL     1      61.412 147.935   9.119  1.00  0.00    -0.394 OA
ATOM     39  H   UNL     1      60.555 148.018   8.624  1.00  0.00     0.210 HD
ENDBRANCH  37  38
ENDBRANCH  31  37
BRANCH  32  40
ATOM     40  O   UNL     1      59.059 149.231   8.839  1.00  0.00    -0.387 OA
ATOM     41  H   UNL     1      58.364 148.598   8.523  1.00  0.00     0.211 HD
ENDBRANCH  32  40
ENDBRANCH   1  27
TORSDOF 12
ENDMDL
MODEL 2
REMARK VINA RESULT:    -6.276      1.818      6.195
REMARK INTER + INTRA:          -9.555
REMARK INTER:                 -10.662
REMARK INTRA:                   1.108
REMARK UNBOUND:                -0.343
REMARK SMILES O=c1c(O[C@@H]2O[C@@H](CO)[C@@H](O)[C@@H](O)[C@H]2O)c(-c2ccc(O)c(O)c2)oc2cc(O)cc(O)c12
REMARK SMILES IDX 4 1 3 2 16 3 25 4 2 5 26 6 1 7 33 8 27 9 31 10 28 11 30 12
REMARK SMILES IDX 17 13 18 14 19 15 20 16 24 17 22 18 21 19 23 21 32 23 29 25
REMARK SMILES IDX 5 27 14 28 6 29 12 30 7 31 10 32 15 33 13 35 8 37 9 38 11 40
REMARK H PARENT 21 20 23 22 32 24 29 26 15 34 13 36 9 39 11 41
REMARK Flexibility Score: inf
ROOT
ATOM      1  O   UNL     1      59.347 152.549   5.291  1.00  0.00    -0.454 OA
ENDROOT
BRANCH   1   2
ATOM      2  C   UNL     1      60.529 151.833   5.011  1.00  0.00     0.214 A 
ATOM      3  C   UNL     1      61.083 151.947   3.719  1.00  0.00     0.180 A 
ATOM      4  O   UNL     1      62.224 151.336   3.422  1.00  0.00    -0.452 OA
ATOM      5  C   UNL     1      61.209 151.033   5.960  1.00  0.00     0.239 A 
ATOM      6  C   UNL     1      62.891 150.578   4.281  1.00  0.00     0.146 A 
ATOM      7  O   UNL     1      60.754 150.902   7.127  1.00  0.00    -0.285 OA
ATOM      8  C   UNL     1      62.409 150.385   5.595  1.00  0.00     0.111 A 
ATOM      9  C   UNL     1      64.081 149.971   3.869  1.00  0.00     0.094 A 
ATOM     10  C   UNL     1      63.146 149.564   6.485  1.00  0.00     0.134 A 
ATOM     11  C   UNL     1      64.805 149.162   4.751  1.00  0.00     0.123 A 
ATOM     12  C   UNL     1      64.338 148.962   6.052  1.00  0.00     0.093 A 
BRANCH   3  13
ATOM     13  C   UNL     1      60.438 152.760   2.665  1.00  0.00     0.025 A 
ATOM     14  C   UNL     1      59.106 153.170   2.826  1.00  0.00     0.016 A 
ATOM     15  C   UNL     1      58.481 153.942   1.842  1.00  0.00     0.051 A 
ATOM     16  C   UNL     1      59.180 154.326   0.694  1.00  0.00     0.157 A 
ATOM     17  C   UNL     1      61.147 153.169   1.523  1.00  0.00     0.062 A 
ATOM     18  C   UNL     1      60.521 153.940   0.533  1.00  0.00     0.158 A 
BRANCH  16  19
ATOM     19  O   UNL     1      58.529 155.090  -0.273  1.00  0.00    -0.504 OA
ATOM     20  H   UNL     1      58.328 156.074  -0.136  1.00  0.00     0.293 HD
ENDBRANCH  16  19
BRANCH  18  21
ATOM     21  O   UNL     1      61.229 154.326  -0.604  1.00  0.00    -0.504 OA
ATOM     22  H   UNL     1      61.094 153.864  -1.497  1.00  0.00     0.293 HD
ENDBRANCH  18  21
ENDBRANCH   3  13
BRANCH  10  23
ATOM     23  O   UNL     1      62.708 149.341   7.791  1.00  0.00    -0.507 OA
ATOM     24  H   UNL     1      61.902 148.763   7.992  1.00  0.00     0.293 HD
ENDBRANCH  10  23
BRANCH  11  25
ATOM     25  O   UNL     1      65.990 148.554   4.346  1.00  0.00    -0.508 OA
ATOM     26  H   UNL     1      65.991 147.657   3.873  1.00  0.00     0.293 HD
ENDBRANCH  11  25
ENDBRANCH   1   2
BRANCH   1  27
ATOM     27  C   UNL     1      59.216 153.949   5.559  1.00  0.00     0.339 C 
ATOM     28  C   UNL     1      58.182 154.174   6.679  1.00  0.00     0.214 C 
ATOM     29  O   UNL     1      60.467 154.542   5.882  1.00  0.00    -0.332 OA
ATOM     30  C   UNL     1      58.736 153.667   8.028  1.00  0.00     0.180 C 
ATOM     31  C   UNL     1      61.030 153.970   7.053  1.00  0.00     0.179 C 
ATOM     32  C   UNL     1      60.141 154.241   8.288  1.00  0.00     0.177 C 
BRANCH  28  33
ATOM     33  O   UNL     1      57.876 155.545   6.751  1.00  0.00    -0.384 OA
ATOM     34  H   UNL     1      58.040 155.829   7.688  1.00  0.00     0.211 HD
ENDBRANCH  28  33
BRANCH  30  35
ATOM     35  O   UNL     1      57.875 154.012   9.082  1.00  0.00    -0.387 OA
ATOM     36  H   UNL     1      56.962 154.073   8.697  1.00  0.00     0.211 HD
ENDBRANCH  30  35
BRANCH  31  37
ATOM     37  C   UNL     1      62.455 154.510   7.242  1.00  0.00     0.191 C 
BRANCH  37  38
ATOM     38  O   UNL     1      62.529 155.858   6.866  1.00  0.00    -0.394 OA
ATOM     39  H   UNL     1      61.671 156.270   7.150  1.00  0.00     0.210 HD
ENDBRANCH  37  38
ENDBRANCH  31  37
BRANCH  32  40
ATOM     40  O   UNL     1      60.066 155.623   8.536  1.00  0.00    -0.387 OA
ATOM     41  H   UNL     1      60.634 156.071   7.857  1.00  0.00     0.211 HD
ENDBRANCH  32  40
ENDBRANCH   1  27
TORSDOF 12
ENDMDL
MODEL 3
REMARK VINA RESULT:    -5.954      1.750      6.581
REMARK INTER + INTRA:          -9.082
REMARK INTER:                 -10.521
REMARK INTRA:                   1.439
REMARK UNBOUND:                -0.343
REMARK SMILES O=c1c(O[C@@H]2O[C@@H](CO)[C@@H](O)[C@@H](O)[C@H]2O)c(-c2ccc(O)c(O)c2)oc2cc(O)cc(O)c12
REMARK SMILES IDX 4 1 3 2 16 3 25 4 2 5 26 6 1 7 33 8 27 9 31 10 28 11 30 12
REMARK SMILES IDX 17 13 18 14 19 15 20 16 24 17 22 18 21 19 23 21 32 23 29 25
REMARK SMILES IDX 5 27 14 28 6 29 12 30 7 31 10 32 15 33 13 35 8 37 9 38 11 40
REMARK H PARENT 21 20 23 22 32 24 29 26 15 34 13 36 9 39 11 41
REMARK Flexibility Score: inf
ROOT
ATOM      1  O   UNL     1      59.262 152.531   5.519  1.00  0.00    -0.454 OA
ENDROOT
BRANCH   1   2
ATOM      2  C   UNL     1      60.441 151.842   5.169  1.00  0.00     0.214 A 
ATOM      3  C   UNL     1      60.952 152.023   3.866  1.00  0.00     0.180 A 
ATOM      4  O   UNL     1      62.089 151.439   3.505  1.00  0.00    -0.452 OA
ATOM      5  C   UNL     1      61.159 151.007   6.056  1.00  0.00     0.239 A 
ATOM      6  C   UNL     1      62.792 150.651   4.306  1.00  0.00     0.146 A 
ATOM      7  O   UNL     1      60.744 150.817   7.230  1.00  0.00    -0.285 OA
ATOM      8  C   UNL     1      62.353 150.391   5.624  1.00  0.00     0.111 A 
ATOM      9  C   UNL     1      63.974 150.077   3.828  1.00  0.00     0.094 A 
ATOM     10  C   UNL     1      63.128 149.538   6.450  1.00  0.00     0.134 A 
ATOM     11  C   UNL     1      64.734 149.237   4.648  1.00  0.00     0.123 A 
ATOM     12  C   UNL     1      64.311 148.971   5.951  1.00  0.00     0.093 A 
BRANCH   3  13
ATOM     13  C   UNL     1      60.265 152.876   2.872  1.00  0.00     0.025 A 
ATOM     14  C   UNL     1      59.040 153.474   3.203  1.00  0.00     0.016 A 
ATOM     15  C   UNL     1      58.378 154.287   2.279  1.00  0.00     0.051 A 
ATOM     16  C   UNL     1      58.936 154.525   1.019  1.00  0.00     0.157 A 
ATOM     17  C   UNL     1      60.837 153.138   1.616  1.00  0.00     0.062 A 
ATOM     18  C   UNL     1      60.174 153.950   0.685  1.00  0.00     0.158 A 
BRANCH  16  19
ATOM     19  O   UNL     1      58.250 155.335   0.115  1.00  0.00    -0.504 OA
ATOM     20  H   UNL     1      58.639 156.203  -0.232  1.00  0.00     0.293 HD
ENDBRANCH  16  19
BRANCH  18  21
ATOM     21  O   UNL     1      60.742 154.189  -0.565  1.00  0.00    -0.504 OA
ATOM     22  H   UNL     1      60.917 153.438  -1.222  1.00  0.00     0.293 HD
ENDBRANCH  18  21
ENDBRANCH   3  13
BRANCH  10  23
ATOM     23  O   UNL     1      62.735 149.249   7.758  1.00  0.00    -0.507 OA
ATOM     24  H   UNL     1      62.712 148.300   8.111  1.00  0.00     0.293 HD
ENDBRANCH  10  23
BRANCH  11  25
ATOM     25  O   UNL     1      65.912 148.662   4.177  1.00  0.00    -0.508 OA
ATOM     26  H   UNL     1      66.468 148.043   4.756  1.00  0.00     0.293 HD
ENDBRANCH  11  25
ENDBRANCH   1   2
BRANCH   1  27
ATOM     27  C   UNL     1      58.954 153.159   6.768  1.00  0.00     0.339 C 
ATOM     28  C   UNL     1      60.254 153.473   7.531  1.00  0.00     0.214 C 
ATOM     29  O   UNL     1      58.164 154.326   6.588  1.00  0.00    -0.332 OA
ATOM     30  C   UNL     1      61.033 154.600   6.820  1.00  0.00     0.180 C 
ATOM     31  C   UNL     1      58.842 155.304   5.815  1.00  0.00     0.179 C 
ATOM     32  C   UNL     1      60.113 155.803   6.539  1.00  0.00     0.177 C 
BRANCH  28  33
ATOM     33  O   UNL     1      59.934 153.846   8.849  1.00  0.00    -0.384 OA
ATOM     34  H   UNL     1      60.706 154.362   9.200  1.00  0.00     0.211 HD
ENDBRANCH  28  33
BRANCH  30  35
ATOM     35  O   UNL     1      62.135 155.009   7.589  1.00  0.00    -0.387 OA
ATOM     36  H   UNL     1      62.201 155.995   7.492  1.00  0.00     0.211 HD
ENDBRANCH  30  35
BRANCH  31  37
ATOM     37  C   UNL     1      57.876 156.453   5.494  1.00  0.00     0.191 C 
BRANCH  37  38
ATOM     38  O   UNL     1      58.235 157.084   4.295  1.00  0.00    -0.394 OA
ATOM     39  H   UNL     1      57.521 156.860   3.642  1.00  0.00     0.210 HD
ENDBRANCH  37  38
ENDBRANCH  31  37
BRANCH  32  40
ATOM     40  O   UNL     1      59.765 156.442   7.742  1.00  0.00    -0.387 OA
ATOM     41  H   UNL     1      60.532 157.019   7.997  1.00  0.00     0.211 HD
ENDBRANCH  32  40
ENDBRANCH   1  27
TORSDOF 12
ENDMDL
MODEL 4
REMARK VINA RESULT:    -3.960      2.139      5.009
REMARK INTER + INTRA:          -6.155
REMARK INTER:                  -6.248
REMARK INTRA:                   0.093
REMARK UNBOUND:                -0.343
REMARK SMILES O=c1c(O[C@@H]2O[C@@H](CO)[C@@H](O)[C@@H](O)[C@H]2O)c(-c2ccc(O)c(O)c2)oc2cc(O)cc(O)c12
REMARK SMILES IDX 4 1 3 2 16 3 25 4 2 5 26 6 1 7 33 8 27 9 31 10 28 11 30 12
REMARK SMILES IDX 17 13 18 14 19 15 20 16 24 17 22 18 21 19 23 21 32 23 29 25
REMARK SMILES IDX 5 27 14 28 6 29 12 30 7 31 10 32 15 33 13 35 8 37 9 38 11 40
REMARK H PARENT 21 20 23 22 32 24 29 26 15 34 13 36 9 39 11 41
REMARK Flexibility Score: inf
ROOT
ATOM      1  O   UNL     1      60.481 150.979   4.831  1.00  0.00    -0.454 OA
ENDROOT
BRANCH   1   2
ATOM      2  C   UNL     1      59.972 152.011   5.646  1.00  0.00     0.214 A 
ATOM      3  C   UNL     1      59.723 151.720   7.004  1.00  0.00     0.180 A 
ATOM      4  O   UNL     1      59.295 152.671   7.826  1.00  0.00    -0.452 OA
ATOM      5  C   UNL     1      59.728 153.328   5.191  1.00  0.00     0.239 A 
ATOM      6  C   UNL     1      59.054 153.916   7.439  1.00  0.00     0.146 A 
ATOM      7  O   UNL     1      59.938 153.636   3.988  1.00  0.00    -0.285 OA
ATOM      8  C   UNL     1      59.254 154.303   6.095  1.00  0.00     0.111 A 
ATOM      9  C   UNL     1      58.597 154.843   8.381  1.00  0.00     0.094 A 
ATOM     10  C   UNL     1      58.981 155.642   5.717  1.00  0.00     0.134 A 
ATOM     11  C   UNL     1      58.330 156.163   8.002  1.00  0.00     0.123 A 
ATOM     12  C   UNL     1      58.522 156.557   6.677  1.00  0.00     0.093 A 
BRANCH   3  13
ATOM     13  C   UNL     1      59.948 150.370   7.565  1.00  0.00     0.025 A 
ATOM     14  C   UNL     1      58.905 149.431   7.546  1.00  0.00     0.016 A 
ATOM     15  C   UNL     1      59.100 148.148   8.066  1.00  0.00     0.051 A 
ATOM     16  C   UNL     1      60.339 147.782   8.600  1.00  0.00     0.157 A 
ATOM     17  C   UNL     1      61.200 149.991   8.077  1.00  0.00     0.062 A 
ATOM     18  C   UNL     1      61.397 148.707   8.603  1.00  0.00     0.158 A 
BRANCH  16  19
ATOM     19  O   UNL     1      60.502 146.498   9.119  1.00  0.00    -0.504 OA
ATOM     20  H   UNL     1      60.042 146.200   9.971  1.00  0.00     0.293 HD
ENDBRANCH  16  19
BRANCH  18  21
ATOM     21  O   UNL     1      62.638 148.348   9.125  1.00  0.00    -0.504 OA
ATOM     22  H   UNL     1      62.988 147.398   9.062  1.00  0.00     0.293 HD
ENDBRANCH  18  21
ENDBRANCH   3  13
BRANCH  10  23
ATOM     23  O   UNL     1      59.161 156.070   4.401  1.00  0.00    -0.507 OA
ATOM     24  H   UNL     1      58.377 156.293   3.800  1.00  0.00     0.293 HD
ENDBRANCH  10  23
BRANCH  11  25
ATOM     25  O   UNL     1      57.875 157.090   8.936  1.00  0.00    -0.508 OA
ATOM     26  H   UNL     1      58.237 157.111   9.883  1.00  0.00     0.293 HD
ENDBRANCH  11  25
ENDBRANCH   1   2
BRANCH   1  27
ATOM     27  C   UNL     1      61.655 151.011   4.012  1.00  0.00     0.339 C 
ATOM     28  C   UNL     1      62.492 152.261   4.343  1.00  0.00     0.214 C 
ATOM     29  O   UNL     1      62.422 149.823   4.147  1.00  0.00    -0.332 OA
ATOM     30  C   UNL     1      63.118 152.128   5.748  1.00  0.00     0.180 C 
ATOM     31  C   UNL     1      62.879 149.643   5.479  1.00  0.00     0.179 C 
ATOM     32  C   UNL     1      63.843 150.778   5.894  1.00  0.00     0.177 C 
BRANCH  28  33
ATOM     33  O   UNL     1      63.493 152.415   3.366  1.00  0.00    -0.384 OA
ATOM     34  H   UNL     1      63.261 153.224   2.839  1.00  0.00     0.211 HD
ENDBRANCH  28  33
BRANCH  30  35
ATOM     35  O   UNL     1      64.013 153.182   5.997  1.00  0.00    -0.387 OA
ATOM     36  H   UNL     1      64.000 153.764   5.193  1.00  0.00     0.211 HD
ENDBRANCH  30  35
BRANCH  31  37
ATOM     37  C   UNL     1      63.533 148.260   5.606  1.00  0.00     0.191 C 
BRANCH  37  38
ATOM     38  O   UNL     1      62.561 147.250   5.604  1.00  0.00    -0.394 OA
ATOM     39  H   UNL     1      62.576 146.852   6.513  1.00  0.00     0.210 HD
ENDBRANCH  37  38
ENDBRANCH  31  37
BRANCH  32  40
ATOM     40  O   UNL     1      64.996 150.753   5.089  1.00  0.00    -0.387 OA
ATOM     41  H   UNL     1      64.697 150.877   4.151  1.00  0.00     0.211 HD
ENDBRANCH  32  40
ENDBRANCH   1  27
TORSDOF 12
ENDMDL
MODEL 5
REMARK VINA RESULT:    -3.928      2.749      7.460
REMARK INTER + INTRA:          -6.108
REMARK INTER:                  -7.213
REMARK INTRA:                   1.104
REMARK UNBOUND:                -0.343
REMARK SMILES O=c1c(O[C@@H]2O[C@@H](CO)[C@@H](O)[C@@H](O)[C@H]2O)c(-c2ccc(O)c(O)c2)oc2cc(O)cc(O)c12
REMARK SMILES IDX 4 1 3 2 16 3 25 4 2 5 26 6 1 7 33 8 27 9 31 10 28 11 30 12
REMARK SMILES IDX 17 13 18 14 19 15 20 16 24 17 22 18 21 19 23 21 32 23 29 25
REMARK SMILES IDX 5 27 14 28 6 29 12 30 7 31 10 32 15 33 13 35 8 37 9 38 11 40
REMARK H PARENT 21 20 23 22 32 24 29 26 15 34 13 36 9 39 11 41
REMARK Flexibility Score: inf
ROOT
ATOM      1  O   UNL     1      61.515 150.765   6.173  1.00  0.00    -0.454 OA
ENDROOT
BRANCH   1   2
ATOM      2  C   UNL     1      60.821 149.702   6.787  1.00  0.00     0.214 A 
ATOM      3  C   UNL     1      59.770 150.020   7.672  1.00  0.00     0.180 A 
ATOM      4  O   UNL     1      59.051 149.056   8.234  1.00  0.00    -0.452 OA
ATOM      5  C   UNL     1      61.096 148.336   6.542  1.00  0.00     0.239 A 
ATOM      6  C   UNL     1      59.275 147.765   8.031  1.00  0.00     0.146 A 
ATOM      7  O   UNL     1      62.023 148.002   5.757  1.00  0.00    -0.285 OA
ATOM      8  C   UNL     1      60.318 147.343   7.176  1.00  0.00     0.111 A 
ATOM      9  C   UNL     1      58.466 146.826   8.676  1.00  0.00     0.094 A 
ATOM     10  C   UNL     1      60.532 145.954   6.987  1.00  0.00     0.134 A 
ATOM     11  C   UNL     1      58.681 145.457   8.485  1.00  0.00     0.123 A 
ATOM     12  C   UNL     1      59.709 145.027   7.644  1.00  0.00     0.093 A 
BRANCH   3  13
ATOM     13  C   UNL     1      59.416 151.422   7.988  1.00  0.00     0.025 A 
ATOM     14  C   UNL     1      58.260 151.691   8.736  1.00  0.00     0.016 A 
ATOM     15  C   UNL     1      57.912 153.008   9.049  1.00  0.00     0.051 A 
ATOM     16  C   UNL     1      58.718 154.071   8.630  1.00  0.00     0.157 A 
ATOM     17  C   UNL     1      60.239 152.489   7.592  1.00  0.00     0.062 A 
ATOM     18  C   UNL     1      59.890 153.812   7.900  1.00  0.00     0.158 A 
BRANCH  16  19
ATOM     19  O   UNL     1      58.341 155.375   8.950  1.00  0.00    -0.504 OA
ATOM     20  H   UNL     1      58.979 156.025   9.394  1.00  0.00     0.293 HD
ENDBRANCH  16  19
BRANCH  18  21
ATOM     21  O   UNL     1      60.704 154.865   7.487  1.00  0.00    -0.504 OA
ATOM     22  H   UNL     1      61.608 154.701   7.059  1.00  0.00     0.293 HD
ENDBRANCH  18  21
ENDBRANCH   3  13
BRANCH  10  23
ATOM     23  O   UNL     1      61.551 145.489   6.154  1.00  0.00    -0.507 OA
ATOM     24  H   UNL     1      61.366 144.852   5.389  1.00  0.00     0.293 HD
ENDBRANCH  10  23
BRANCH  11  25
ATOM     25  O   UNL     1      57.878 144.516   9.125  1.00  0.00    -0.508 OA
ATOM     26  H   UNL     1      58.038 144.253  10.091  1.00  0.00     0.293 HD
ENDBRANCH  11  25
ENDBRANCH   1   2
BRANCH   1  27
ATOM     27  C   UNL     1      62.102 150.788   4.867  1.00  0.00     0.339 C 
ATOM     28  C   UNL     1      62.576 152.214   4.530  1.00  0.00     0.214 C 
ATOM     29  O   UNL     1      63.163 149.849   4.752  1.00  0.00    -0.332 OA
ATOM     30  C   UNL     1      63.790 152.595   5.405  1.00  0.00     0.180 C 
ATOM     31  C   UNL     1      64.216 150.133   5.660  1.00  0.00     0.179 C 
ATOM     32  C   UNL     1      64.869 151.498   5.344  1.00  0.00     0.177 C 
BRANCH  28  33
ATOM     33  O   UNL     1      62.909 152.276   3.165  1.00  0.00    -0.384 OA
ATOM     34  H   UNL     1      62.683 151.393   2.771  1.00  0.00     0.211 HD
ENDBRANCH  28  33
BRANCH  30  35
ATOM     35  O   UNL     1      64.333 153.825   4.997  1.00  0.00    -0.387 OA
ATOM     36  H   UNL     1      64.507 153.751   4.022  1.00  0.00     0.211 HD
ENDBRANCH  30  35
BRANCH  31  37
ATOM     37  C   UNL     1      65.236 148.987   5.625  1.00  0.00     0.191 C 
BRANCH  37  38
ATOM     38  O   UNL     1      65.383 148.493   4.321  1.00  0.00    -0.394 OA
ATOM     39  H   UNL     1      65.385 147.504   4.400  1.00  0.00     0.210 HD
ENDBRANCH  37  38
ENDBRANCH  31  37
BRANCH  32  40
ATOM     40  O   UNL     1      65.462 151.467   4.069  1.00  0.00    -0.387 OA
ATOM     41  H   UNL     1      66.443 151.411   4.207  1.00  0.00     0.211 HD
ENDBRANCH  32  40
ENDBRANCH   1  27
TORSDOF 12
ENDMDL
