MODEL 1
REMARK VINA RESULT:    -3.054      0.000      0.000
REMARK INTER + INTRA:          -8.199
REMARK INTER:                  -5.910
REMARK INTRA:                  -2.289
REMARK UNBOUND:                -2.289
REMARK SMILES CCCCCCCCCCCCCCCCCC(=O)[O-]
REMARK SMILES IDX 10 1 11 2 12 3 13 4 14 5 15 6 16 7 17 8 18 9 19 10 20 11
REMARK SMILES IDX 9 12 8 13 7 14 6 15 5 16 4 17 3 18 2 19 1 20
REMARK H PARENT
REMARK Flexibility Score: inf
ROOT
ATOM      1  C   UNL     1       2.153  20.688   5.254  1.00  0.00     0.000 C 
ENDROOT
BRANCH   1   2
ATOM      2  C   UNL     1       3.604  20.172   5.176  1.00  0.00     0.000 C 
BRANCH   2   3
ATOM      3  C   UNL     1       3.877  18.861   5.940  1.00  0.00     0.000 C 
BRANCH   3   4
ATOM      4  C   UNL     1       5.237  18.799   6.657  1.00  0.00     0.000 C 
BRANCH   4   5
ATOM      5  C   UNL     1       5.371  17.575   7.575  1.00  0.00     0.000 C 
BRANCH   5   6
ATOM      6  C   UNL     1       4.041  16.809   7.666  1.00  0.00     0.000 C 
BRANCH   6   7
ATOM      7  C   UNL     1       4.191  15.440   8.347  1.00  0.00     0.006 C 
BRANCH   7   8
ATOM      8  C   UNL     1       5.406  14.655   7.836  1.00  0.00     0.053 C 
BRANCH   8   9
ATOM      9  C   UNL     1       4.970  13.566   6.908  1.00  0.00     0.041 C 
ATOM     10  O   UNL     1       5.824  12.815   6.366  1.00  0.00    -0.550 OA
ATOM     11  O   UNL     1       3.623  13.405   6.608  1.00  0.00    -0.550 OA
ENDBRANCH   8   9
ENDBRANCH   7   8
ENDBRANCH   6   7
ENDBRANCH   5   6
ENDBRANCH   4   5
ENDBRANCH   3   4
ENDBRANCH   2   3
ENDBRANCH   1   2
BRANCH   1  12
ATOM     12  C   UNL     1       1.312  20.093   6.397  1.00  0.00     0.000 C 
BRANCH  12  13
ATOM     13  C   UNL     1       0.662  21.172   7.284  1.00  0.00    -0.000 C 
BRANCH  13  14
ATOM     14  C   UNL     1       1.113  21.076   8.751  1.00  0.00    -0.000 C 
BRANCH  14  15
ATOM     15  C   UNL     1       2.600  21.427   8.932  1.00  0.00    -0.000 C 
BRANCH  15  16
ATOM     16  C   UNL     1       3.429  20.244   9.459  1.00  0.00    -0.000 C 
BRANCH  16  17
ATOM     17  C   UNL     1       2.579  19.225  10.239  1.00  0.00    -0.000 C 
BRANCH  17  18
ATOM     18  C   UNL     1       3.438  18.204  11.001  1.00  0.00    -0.000 C 
BRANCH  18  19
ATOM     19  C   UNL     1       2.959  17.987  12.444  1.00  0.00    -0.003 C 
ATOM     20  C   UNL     1       1.714  18.818  12.741  1.00  0.00     0.004 C 
ENDBRANCH  18  19
ENDBRANCH  17  18
ENDBRANCH  16  17
ENDBRANCH  15  16
ENDBRANCH  14  15
ENDBRANCH  13  14
ENDBRANCH  12  13
ENDBRANCH   1  12
TORSDOF 16
ENDMDL
MODEL 2
REMARK VINA RESULT:    -2.963      1.276      2.252
REMARK INTER + INTRA:          -8.024
REMARK INTER:                  -5.661
REMARK INTRA:                  -2.363
REMARK UNBOUND:                -2.289
REMARK SMILES CCCCCCCCCCCCCCCCCC(=O)[O-]
REMARK SMILES IDX 10 1 11 2 12 3 13 4 14 5 15 6 16 7 17 8 18 9 19 10 20 11
REMARK SMILES IDX 9 12 8 13 7 14 6 15 5 16 4 17 3 18 2 19 1 20
REMARK H PARENT
REMARK Flexibility Score: inf
ROOT
ATOM      1  C   UNL     1       1.084  20.107   6.293  1.00  0.00     0.000 C 
ENDROOT
BRANCH   1   2
ATOM      2  C   UNL     1       2.050  20.756   5.281  1.00  0.00     0.000 C 
BRANCH   2   3
ATOM      3  C   UNL     1       3.464  20.145   5.239  1.00  0.00     0.000 C 
BRANCH   3   4
ATOM      4  C   UNL     1       3.688  18.959   6.193  1.00  0.00     0.000 C 
BRANCH   4   5
ATOM      5  C   UNL     1       5.161  18.784   6.591  1.00  0.00     0.000 C 
BRANCH   5   6
ATOM      6  C   UNL     1       5.336  17.581   7.531  1.00  0.00     0.000 C 
BRANCH   6   7
ATOM      7  C   UNL     1       4.049  16.756   7.683  1.00  0.00     0.006 C 
BRANCH   7   8
ATOM      8  C   UNL     1       4.263  15.468   8.489  1.00  0.00     0.053 C 
BRANCH   8   9
ATOM      9  C   UNL     1       4.638  14.340   7.582  1.00  0.00     0.041 C 
ATOM     10  O   UNL     1       5.826  13.923   7.546  1.00  0.00    -0.550 OA
ATOM     11  O   UNL     1       3.685  13.776   6.743  1.00  0.00    -0.550 OA
ENDBRANCH   8   9
ENDBRANCH   7   8
ENDBRANCH   6   7
ENDBRANCH   5   6
ENDBRANCH   4   5
ENDBRANCH   3   4
ENDBRANCH   2   3
ENDBRANCH   1   2
BRANCH   1  12
ATOM     12  C   UNL     1       0.680  21.005   7.476  1.00  0.00     0.000 C 
BRANCH  12  13
ATOM     13  C   UNL     1       1.850  21.291   8.435  1.00  0.00    -0.000 C 
BRANCH  13  14
ATOM     14  C   UNL     1       1.698  20.561   9.780  1.00  0.00    -0.000 C 
BRANCH  14  15
ATOM     15  C   UNL     1       2.667  19.373   9.915  1.00  0.00    -0.000 C 
BRANCH  15  16
ATOM     16  C   UNL     1       2.554  18.667  11.276  1.00  0.00    -0.000 C 
BRANCH  16  17
ATOM     17  C   UNL     1       3.673  17.634  11.503  1.00  0.00    -0.000 C 
BRANCH  17  18
ATOM     18  C   UNL     1       5.068  18.202  11.198  1.00  0.00    -0.000 C 
BRANCH  18  19
ATOM     19  C   UNL     1       6.178  17.150  11.333  1.00  0.00    -0.003 C 
ATOM     20  C   UNL     1       7.423  17.562  10.552  1.00  0.00     0.004 C 
ENDBRANCH  18  19
ENDBRANCH  17  18
ENDBRANCH  16  17
ENDBRANCH  15  16
ENDBRANCH  14  15
ENDBRANCH  13  14
ENDBRANCH  12  13
ENDBRANCH   1  12
TORSDOF 16
ENDMDL
MODEL 3
REMARK VINA RESULT:    -2.936      1.508      3.738
REMARK INTER + INTRA:          -7.971
REMARK INTER:                  -5.274
REMARK INTRA:                  -2.697
REMARK UNBOUND:                -2.289
REMARK SMILES CCCCCCCCCCCCCCCCCC(=O)[O-]
REMARK SMILES IDX 10 1 11 2 12 3 13 4 14 5 15 6 16 7 17 8 18 9 19 10 20 11
REMARK SMILES IDX 9 12 8 13 7 14 6 15 5 16 4 17 3 18 2 19 1 20
REMARK H PARENT
REMARK Flexibility Score: inf
ROOT
ATOM      1  C   UNL     1       1.832  20.920   8.616  1.00  0.00     0.000 C 
ENDROOT
BRANCH   1   2
ATOM      2  C   UNL     1       1.207  20.898  10.025  1.00  0.00     0.000 C 
BRANCH   2   3
ATOM      3  C   UNL     1       1.668  19.738  10.929  1.00  0.00     0.000 C 
BRANCH   3   4
ATOM      4  C   UNL     1       2.869  18.936  10.396  1.00  0.00     0.000 C 
BRANCH   4   5
ATOM      5  C   UNL     1       3.475  17.999  11.452  1.00  0.00     0.000 C 
BRANCH   5   6
ATOM      6  C   UNL     1       4.201  16.820  10.785  1.00  0.00     0.000 C 
BRANCH   6   7
ATOM      7  C   UNL     1       4.202  16.915   9.251  1.00  0.00     0.006 C 
BRANCH   7   8
ATOM      8  C   UNL     1       5.023  15.801   8.590  1.00  0.00     0.053 C 
BRANCH   8   9
ATOM      9  C   UNL     1       4.427  15.426   7.270  1.00  0.00     0.041 C 
ATOM     10  O   UNL     1       3.591  14.488   7.196  1.00  0.00    -0.550 OA
ATOM     11  O   UNL     1       4.828  16.085   6.114  1.00  0.00    -0.550 OA
ENDBRANCH   8   9
ENDBRANCH   7   8
ENDBRANCH   6   7
ENDBRANCH   5   6
ENDBRANCH   4   5
ENDBRANCH   3   4
ENDBRANCH   2   3
ENDBRANCH   1   2
BRANCH   1  12
ATOM     12  C   UNL     1       0.824  20.852   7.455  1.00  0.00     0.000 C 
BRANCH  12  13
ATOM     13  C   UNL     1       1.322  19.990   6.282  1.00  0.00    -0.000 C 
BRANCH  13  14
ATOM     14  C   UNL     1       2.671  19.313   6.580  1.00  0.00    -0.000 C 
BRANCH  14  15
ATOM     15  C   UNL     1       3.774  19.748   5.600  1.00  0.00    -0.000 C 
BRANCH  15  16
ATOM     16  C   UNL     1       4.988  20.370   6.310  1.00  0.00    -0.000 C 
BRANCH  16  17
ATOM     17  C   UNL     1       5.667  19.394   7.288  1.00  0.00    -0.000 C 
BRANCH  17  18
ATOM     18  C   UNL     1       6.054  20.066   8.614  1.00  0.00    -0.000 C 
BRANCH  18  19
ATOM     19  C   UNL     1       5.297  21.379   8.856  1.00  0.00    -0.003 C 
ATOM     20  C   UNL     1       5.227  21.708  10.345  1.00  0.00     0.004 C 
ENDBRANCH  18  19
ENDBRANCH  17  18
ENDBRANCH  16  17
ENDBRANCH  15  16
ENDBRANCH  14  15
ENDBRANCH  13  14
ENDBRANCH  12  13
ENDBRANCH   1  12
TORSDOF 16
ENDMDL
MODEL 4
REMARK VINA RESULT:    -2.906      1.357      1.987
REMARK INTER + INTRA:          -7.913
REMARK INTER:                  -6.276
REMARK INTRA:                  -1.637
REMARK UNBOUND:                -2.289
REMARK SMILES CCCCCCCCCCCCCCCCCC(=O)[O-]
REMARK SMILES IDX 10 1 11 2 12 3 13 4 14 5 15 6 16 7 17 8 18 9 19 10 20 11
REMARK SMILES IDX 9 12 8 13 7 14 6 15 5 16 4 17 3 18 2 19 1 20
REMARK H PARENT
REMARK Flexibility Score: inf
ROOT
ATOM      1  C   UNL     1       2.250  20.095   5.913  1.00  0.00     0.000 C 
ENDROOT
BRANCH   1   2
ATOM      2  C   UNL     1       2.805  18.934   6.762  1.00  0.00     0.000 C 
BRANCH   2   3
ATOM      3  C   UNL     1       4.342  18.862   6.852  1.00  0.00     0.000 C 
BRANCH   3   4
ATOM      4  C   UNL     1       5.064  18.693   5.503  1.00  0.00     0.000 C 
BRANCH   4   5
ATOM      5  C   UNL     1       5.150  17.226   5.053  1.00  0.00     0.000 C 
BRANCH   5   6
ATOM      6  C   UNL     1       5.180  16.282   6.265  1.00  0.00     0.000 C 
BRANCH   6   7
ATOM      7  C   UNL     1       4.979  14.810   5.874  1.00  0.00     0.006 C 
BRANCH   7   8
ATOM      8  C   UNL     1       4.205  14.017   6.935  1.00  0.00     0.053 C 
BRANCH   8   9
ATOM      9  C   UNL     1       4.220  12.557   6.610  1.00  0.00     0.041 C 
ATOM     10  O   UNL     1       3.309  12.056   5.899  1.00  0.00    -0.550 OA
ATOM     11  O   UNL     1       5.218  11.740   7.127  1.00  0.00    -0.550 OA
ENDBRANCH   8   9
ENDBRANCH   7   8
ENDBRANCH   6   7
ENDBRANCH   5   6
ENDBRANCH   4   5
ENDBRANCH   3   4
ENDBRANCH   2   3
ENDBRANCH   1   2
BRANCH   1  12
ATOM     12  C   UNL     1       0.836  20.565   6.299  1.00  0.00     0.000 C 
BRANCH  12  13
ATOM     13  C   UNL     1       0.847  21.703   7.335  1.00  0.00    -0.000 C 
BRANCH  13  14
ATOM     14  C   UNL     1       0.389  21.236   8.726  1.00  0.00    -0.000 C 
BRANCH  14  15
ATOM     15  C   UNL     1       1.571  20.855   9.635  1.00  0.00    -0.000 C 
BRANCH  15  16
ATOM     16  C   UNL     1       1.119  20.329  11.007  1.00  0.00    -0.000 C 
BRANCH  16  17
ATOM     17  C   UNL     1       2.000  19.174  11.518  1.00  0.00    -0.000 C 
BRANCH  17  18
ATOM     18  C   UNL     1       2.952  18.638  10.438  1.00  0.00    -0.000 C 
BRANCH  18  19
ATOM     19  C   UNL     1       4.018  17.690  11.006  1.00  0.00    -0.003 C 
ATOM     20  C   UNL     1       4.461  16.671   9.960  1.00  0.00     0.004 C 
ENDBRANCH  18  19
ENDBRANCH  17  18
ENDBRANCH  16  17
ENDBRANCH  15  16
ENDBRANCH  14  15
ENDBRANCH  13  14
ENDBRANCH  12  13
ENDBRANCH   1  12
TORSDOF 16
ENDMDL
MODEL 5
REMARK VINA RESULT:    -2.871      1.263      4.004
REMARK INTER + INTRA:          -7.845
REMARK INTER:                  -5.785
REMARK INTRA:                  -2.060
REMARK UNBOUND:                -2.289
REMARK SMILES CCCCCCCCCCCCCCCCCC(=O)[O-]
REMARK SMILES IDX 10 1 11 2 12 3 13 4 14 5 15 6 16 7 17 8 18 9 19 10 20 11
REMARK SMILES IDX 9 12 8 13 7 14 6 15 5 16 4 17 3 18 2 19 1 20
REMARK H PARENT
REMARK Flexibility Score: inf
ROOT
ATOM      1  C   UNL     1       2.360  21.543   9.788  1.00  0.00     0.000 C 
ENDROOT
BRANCH   1   2
ATOM      2  C   UNL     1       1.893  20.340  10.632  1.00  0.00     0.000 C 
BRANCH   2   3
ATOM      3  C   UNL     1       2.534  18.989  10.261  1.00  0.00     0.000 C 
BRANCH   3   4
ATOM      4  C   UNL     1       3.742  18.584  11.126  1.00  0.00     0.000 C 
BRANCH   4   5
ATOM      5  C   UNL     1       4.755  17.716  10.364  1.00  0.00     0.000 C 
BRANCH   5   6
ATOM      6  C   UNL     1       4.292  16.252  10.311  1.00  0.00     0.000 C 
BRANCH   6   7
ATOM      7  C   UNL     1       5.062  15.425   9.269  1.00  0.00     0.006 C 
BRANCH   7   8
ATOM      8  C   UNL     1       4.354  15.381   7.908  1.00  0.00     0.053 C 
BRANCH   8   9
ATOM      9  C   UNL     1       4.513  14.033   7.281  1.00  0.00     0.041 C 
ATOM     10  O   UNL     1       3.633  13.592   6.495  1.00  0.00    -0.550 OA
ATOM     11  O   UNL     1       5.612  13.244   7.596  1.00  0.00    -0.550 OA
ENDBRANCH   8   9
ENDBRANCH   7   8
ENDBRANCH   6   7
ENDBRANCH   5   6
ENDBRANCH   4   5
ENDBRANCH   3   4
ENDBRANCH   2   3
ENDBRANCH   1   2
BRANCH   1  12
ATOM     12  C   UNL     1       1.240  22.290   9.044  1.00  0.00     0.000 C 
BRANCH  12  13
ATOM     13  C   UNL     1      -0.006  21.418   8.810  1.00  0.00    -0.000 C 
BRANCH  13  14
ATOM     14  C   UNL     1      -0.526  21.511   7.365  1.00  0.00    -0.000 C 
BRANCH  14  15
ATOM     15  C   UNL     1       0.135  20.478   6.436  1.00  0.00    -0.000 C 
BRANCH  15  16
ATOM     16  C   UNL     1       1.189  21.103   5.507  1.00  0.00    -0.000 C 
BRANCH  16  17
ATOM     17  C   UNL     1       2.489  20.282   5.448  1.00  0.00    -0.000 C 
BRANCH  17  18
ATOM     18  C   UNL     1       2.624  19.309   6.630  1.00  0.00    -0.000 C 
BRANCH  18  19
ATOM     19  C   UNL     1       4.067  18.826   6.837  1.00  0.00    -0.003 C 
ATOM     20  C   UNL     1       4.749  18.541   5.503  1.00  0.00     0.004 C 
ENDBRANCH  18  19
ENDBRANCH  17  18
ENDBRANCH  16  17
ENDBRANCH  15  16
ENDBRANCH  14  15
ENDBRANCH  13  14
ENDBRANCH  12  13
ENDBRANCH   1  12
TORSDOF 16
ENDMDL
MODEL 6
REMARK VINA RESULT:    -2.858      2.354      4.228
REMARK INTER + INTRA:          -7.821
REMARK INTER:                  -5.605
REMARK INTRA:                  -2.216
REMARK UNBOUND:                -2.289
REMARK SMILES CCCCCCCCCCCCCCCCCC(=O)[O-]
REMARK SMILES IDX 10 1 11 2 12 3 13 4 14 5 15 6 16 7 17 8 18 9 19 10 20 11
REMARK SMILES IDX 9 12 8 13 7 14 6 15 5 16 4 17 3 18 2 19 1 20
REMARK H PARENT
REMARK Flexibility Score: inf
ROOT
ATOM      1  C   UNL     1       1.029  21.606   7.838  1.00  0.00     0.000 C 
ENDROOT
BRANCH   1   2
ATOM      2  C   UNL     1       0.711  20.503   6.808  1.00  0.00     0.000 C 
BRANCH   2   3
ATOM      3  C   UNL     1       1.930  19.713   6.294  1.00  0.00     0.000 C 
BRANCH   3   4
ATOM      4  C   UNL     1       2.775  20.439   5.232  1.00  0.00     0.000 C 
BRANCH   4   5
ATOM      5  C   UNL     1       4.199  19.876   5.116  1.00  0.00     0.000 C 
BRANCH   5   6
ATOM      6  C   UNL     1       4.327  18.548   5.878  1.00  0.00     0.000 C 
BRANCH   6   7
ATOM      7  C   UNL     1       5.215  17.529   5.147  1.00  0.00     0.006 C 
BRANCH   7   8
ATOM      8  C   UNL     1       6.458  17.139   5.958  1.00  0.00     0.053 C 
BRANCH   8   9
ATOM      9  C   UNL     1       7.305  18.342   6.225  1.00  0.00     0.041 C 
ATOM     10  O   UNL     1       7.465  18.756   7.404  1.00  0.00    -0.550 OA
ATOM     11  O   UNL     1       7.885  19.034   5.168  1.00  0.00    -0.550 OA
ENDBRANCH   8   9
ENDBRANCH   7   8
ENDBRANCH   6   7
ENDBRANCH   5   6
ENDBRANCH   4   5
ENDBRANCH   3   4
ENDBRANCH   2   3
ENDBRANCH   1   2
BRANCH   1  12
ATOM     12  C   UNL     1       2.013  21.196   8.947  1.00  0.00     0.000 C 
BRANCH  12  13
ATOM     13  C   UNL     1       1.316  20.519  10.142  1.00  0.00    -0.000 C 
BRANCH  13  14
ATOM     14  C   UNL     1       2.134  19.348  10.712  1.00  0.00    -0.000 C 
BRANCH  14  15
ATOM     15  C   UNL     1       3.234  18.875   9.746  1.00  0.00    -0.000 C 
BRANCH  15  16
ATOM     16  C   UNL     1       4.079  17.728  10.323  1.00  0.00    -0.000 C 
BRANCH  16  17
ATOM     17  C   UNL     1       4.866  16.968   9.240  1.00  0.00    -0.000 C 
BRANCH  17  18
ATOM     18  C   UNL     1       4.397  15.512   9.086  1.00  0.00    -0.000 C 
BRANCH  18  19
ATOM     19  C   UNL     1       3.787  15.229   7.705  1.00  0.00    -0.003 C 
ATOM     20  C   UNL     1       4.441  14.014   7.054  1.00  0.00     0.004 C 
ENDBRANCH  18  19
ENDBRANCH  17  18
ENDBRANCH  16  17
ENDBRANCH  15  16
ENDBRANCH  14  15
ENDBRANCH  13  14
ENDBRANCH  12  13
ENDBRANCH   1  12
TORSDOF 16
ENDMDL
MODEL 7
REMARK VINA RESULT:    -2.843      1.657      4.369
REMARK INTER + INTRA:          -7.791
REMARK INTER:                  -5.590
REMARK INTRA:                  -2.201
REMARK UNBOUND:                -2.289
REMARK SMILES CCCCCCCCCCCCCCCCCC(=O)[O-]
REMARK SMILES IDX 10 1 11 2 12 3 13 4 14 5 15 6 16 7 17 8 18 9 19 10 20 11
REMARK SMILES IDX 9 12 8 13 7 14 6 15 5 16 4 17 3 18 2 19 1 20
REMARK H PARENT
REMARK Flexibility Score: inf
ROOT
ATOM      1  C   UNL     1       0.513  21.290   7.942  1.00  0.00     0.000 C 
ENDROOT
BRANCH   1   2
ATOM      2  C   UNL     1       1.734  20.947   8.819  1.00  0.00     0.000 C 
BRANCH   2   3
ATOM      3  C   UNL     1       1.402  20.410  10.225  1.00  0.00     0.000 C 
BRANCH   3   4
ATOM      4  C   UNL     1       2.334  19.294  10.731  1.00  0.00     0.000 C 
BRANCH   4   5
ATOM      5  C   UNL     1       3.326  18.816   9.661  1.00  0.00     0.000 C 
BRANCH   5   6
ATOM      6  C   UNL     1       4.107  17.585  10.148  1.00  0.00     0.000 C 
BRANCH   6   7
ATOM      7  C   UNL     1       4.220  16.492   9.074  1.00  0.00     0.006 C 
BRANCH   7   8
ATOM      8  C   UNL     1       5.615  15.855   9.023  1.00  0.00     0.053 C 
BRANCH   8   9
ATOM      9  C   UNL     1       5.521  14.376   9.222  1.00  0.00     0.041 C 
ATOM     10  O   UNL     1       5.285  13.618   8.245  1.00  0.00    -0.550 OA
ATOM     11  O   UNL     1       5.652  13.837  10.496  1.00  0.00    -0.550 OA
ENDBRANCH   8   9
ENDBRANCH   7   8
ENDBRANCH   6   7
ENDBRANCH   5   6
ENDBRANCH   4   5
ENDBRANCH   3   4
ENDBRANCH   2   3
ENDBRANCH   1   2
BRANCH   1  12
ATOM     12  C   UNL     1       0.434  20.525   6.609  1.00  0.00     0.000 C 
BRANCH  12  13
ATOM     13  C   UNL     1       1.782  19.911   6.192  1.00  0.00    -0.000 C 
BRANCH  13  14
ATOM     14  C   UNL     1       2.446  20.680   5.037  1.00  0.00    -0.000 C 
BRANCH  14  15
ATOM     15  C   UNL     1       3.961  20.419   4.954  1.00  0.00    -0.000 C 
BRANCH  15  16
ATOM     16  C   UNL     1       4.601  20.190   6.333  1.00  0.00    -0.000 C 
BRANCH  16  17
ATOM     17  C   UNL     1       5.408  18.881   6.402  1.00  0.00    -0.000 C 
BRANCH  17  18
ATOM     18  C   UNL     1       4.705  17.719   5.683  1.00  0.00    -0.000 C 
BRANCH  18  19
ATOM     19  C   UNL     1       5.693  16.755   5.010  1.00  0.00    -0.003 C 
ATOM     20  C   UNL     1       5.214  15.310   5.121  1.00  0.00     0.004 C 
ENDBRANCH  18  19
ENDBRANCH  17  18
ENDBRANCH  16  17
ENDBRANCH  15  16
ENDBRANCH  14  15
ENDBRANCH  13  14
ENDBRANCH  12  13
ENDBRANCH   1  12
TORSDOF 16
ENDMDL
MODEL 8
REMARK VINA RESULT:    -2.836      1.560      3.124
REMARK INTER + INTRA:          -7.778
REMARK INTER:                  -5.262
REMARK INTRA:                  -2.515
REMARK UNBOUND:                -2.289
REMARK SMILES CCCCCCCCCCCCCCCCCC(=O)[O-]
REMARK SMILES IDX 10 1 11 2 12 3 13 4 14 5 15 6 16 7 17 8 18 9 19 10 20 11
REMARK SMILES IDX 9 12 8 13 7 14 6 15 5 16 4 17 3 18 2 19 1 20
REMARK H PARENT
REMARK Flexibility Score: inf
ROOT
ATOM      1  C   UNL     1       1.538  22.235   7.781  1.00  0.00     0.000 C 
ENDROOT
BRANCH   1   2
ATOM      2  C   UNL     1       0.465  21.307   7.178  1.00  0.00     0.000 C 
BRANCH   2   3
ATOM      3  C   UNL     1       0.999  20.211   6.235  1.00  0.00     0.000 C 
BRANCH   3   4
ATOM      4  C   UNL     1       2.268  20.591   5.451  1.00  0.00     0.000 C 
BRANCH   4   5
ATOM      5  C   UNL     1       3.440  19.634   5.716  1.00  0.00     0.000 C 
BRANCH   5   6
ATOM      6  C   UNL     1       3.104  18.658   6.854  1.00  0.00     0.000 C 
BRANCH   6   7
ATOM      7  C   UNL     1       4.358  18.084   7.531  1.00  0.00     0.006 C 
BRANCH   7   8
ATOM      8  C   UNL     1       4.276  16.565   7.738  1.00  0.00     0.053 C 
BRANCH   8   9
ATOM      9  C   UNL     1       4.865  15.847   6.566  1.00  0.00     0.041 C 
ATOM     10  O   UNL     1       4.648  14.617   6.401  1.00  0.00    -0.550 OA
ATOM     11  O   UNL     1       5.692  16.525   5.679  1.00  0.00    -0.550 OA
ENDBRANCH   8   9
ENDBRANCH   7   8
ENDBRANCH   6   7
ENDBRANCH   5   6
ENDBRANCH   4   5
ENDBRANCH   3   4
ENDBRANCH   2   3
ENDBRANCH   1   2
BRANCH   1  12
ATOM     12  C   UNL     1       2.328  21.639   8.959  1.00  0.00     0.000 C 
BRANCH  12  13
ATOM     13  C   UNL     1       1.468  20.727   9.853  1.00  0.00    -0.000 C 
BRANCH  13  14
ATOM     14  C   UNL     1       2.229  19.474  10.319  1.00  0.00    -0.000 C 
BRANCH  14  15
ATOM     15  C   UNL     1       1.956  19.138  11.796  1.00  0.00    -0.000 C 
BRANCH  15  16
ATOM     16  C   UNL     1       2.895  18.050  12.341  1.00  0.00    -0.000 C 
BRANCH  16  17
ATOM     17  C   UNL     1       3.805  17.453  11.253  1.00  0.00    -0.000 C 
BRANCH  17  18
ATOM     18  C   UNL     1       5.277  17.385  11.689  1.00  0.00    -0.000 C 
BRANCH  18  19
ATOM     19  C   UNL     1       5.895  18.774  11.905  1.00  0.00    -0.003 C 
ATOM     20  C   UNL     1       5.897  19.583  10.611  1.00  0.00     0.004 C 
ENDBRANCH  18  19
ENDBRANCH  17  18
ENDBRANCH  16  17
ENDBRANCH  15  16
ENDBRANCH  14  15
ENDBRANCH  13  14
ENDBRANCH  12  13
ENDBRANCH   1  12
TORSDOF 16
ENDMDL
MODEL 9
REMARK VINA RESULT:    -2.822      1.191      3.996
REMARK INTER + INTRA:          -7.751
REMARK INTER:                  -5.188
REMARK INTRA:                  -2.562
REMARK UNBOUND:                -2.289
REMARK SMILES CCCCCCCCCCCCCCCCCC(=O)[O-]
REMARK SMILES IDX 10 1 11 2 12 3 13 4 14 5 15 6 16 7 17 8 18 9 19 10 20 11
REMARK SMILES IDX 9 12 8 13 7 14 6 15 5 16 4 17 3 18 2 19 1 20
REMARK H PARENT
REMARK Flexibility Score: inf
ROOT
ATOM      1  C   UNL     1       2.350  21.416   8.430  1.00  0.00     0.000 C 
ENDROOT
BRANCH   1   2
ATOM      2  C   UNL     1       2.797  20.858   9.796  1.00  0.00     0.000 C 
BRANCH   2   3
ATOM      3  C   UNL     1       2.440  19.381  10.051  1.00  0.00     0.000 C 
BRANCH   3   4
ATOM      4  C   UNL     1       3.453  18.608  10.916  1.00  0.00     0.000 C 
BRANCH   4   5
ATOM      5  C   UNL     1       4.070  17.408  10.181  1.00  0.00     0.000 C 
BRANCH   5   6
ATOM      6  C   UNL     1       4.339  17.748   8.707  1.00  0.00     0.000 C 
BRANCH   6   7
ATOM      7  C   UNL     1       3.932  16.613   7.754  1.00  0.00     0.006 C 
BRANCH   7   8
ATOM      8  C   UNL     1       5.141  15.877   7.161  1.00  0.00     0.053 C 
BRANCH   8   9
ATOM      9  C   UNL     1       4.899  14.402   7.148  1.00  0.00     0.041 C 
ATOM     10  O   UNL     1       5.836  13.603   7.412  1.00  0.00    -0.550 OA
ATOM     11  O   UNL     1       3.648  13.905   6.802  1.00  0.00    -0.550 OA
ENDBRANCH   8   9
ENDBRANCH   7   8
ENDBRANCH   6   7
ENDBRANCH   5   6
ENDBRANCH   4   5
ENDBRANCH   3   4
ENDBRANCH   2   3
ENDBRANCH   1   2
BRANCH   1  12
ATOM     12  C   UNL     1       0.964  20.944   7.957  1.00  0.00     0.000 C 
BRANCH  12  13
ATOM     13  C   UNL     1       1.020  20.162   6.632  1.00  0.00    -0.000 C 
BRANCH  13  14
ATOM     14  C   UNL     1       2.461  19.870   6.182  1.00  0.00    -0.000 C 
BRANCH  14  15
ATOM     15  C   UNL     1       2.837  20.624   4.894  1.00  0.00    -0.000 C 
BRANCH  15  16
ATOM     16  C   UNL     1       4.273  20.329   4.431  1.00  0.00    -0.000 C 
BRANCH  16  17
ATOM     17  C   UNL     1       4.835  19.029   5.033  1.00  0.00    -0.000 C 
BRANCH  17  18
ATOM     18  C   UNL     1       6.121  19.262   5.841  1.00  0.00    -0.000 C 
BRANCH  18  19
ATOM     19  C   UNL     1       6.284  20.723   6.285  1.00  0.00    -0.003 C 
ATOM     20  C   UNL     1       5.984  20.884   7.772  1.00  0.00     0.004 C 
ENDBRANCH  18  19
ENDBRANCH  17  18
ENDBRANCH  16  17
ENDBRANCH  15  16
ENDBRANCH  14  15
ENDBRANCH  13  14
ENDBRANCH  12  13
ENDBRANCH   1  12
TORSDOF 16
ENDMDL
