MODEL 1
REMARK VINA RESULT:    -6.192      0.000      0.000
REMARK INTER + INTRA:          -7.485
REMARK INTER:                  -7.278
REMARK INTRA:                  -0.207
REMARK UNBOUND:                -0.207
REMARK SMILES O=C([O-])C=Cc1ccc(O)c(O)c1
REMARK SMILES IDX 6 1 13 2 7 3 11 4 8 5 9 6 5 7 4 8 2 9 1 10 3 11 12 12 10 14
REMARK H PARENT 12 13 10 15
REMARK Flexibility Score: inf
ROOT
ATOM      1  C   UNL     1     -14.412 -27.346 -12.234  1.00  0.00    -0.022 A 
ATOM      2  C   UNL     1     -14.456 -28.653 -12.747  1.00  0.00     0.058 A 
ATOM      3  C   UNL     1     -14.392 -26.262 -13.119  1.00  0.00     0.012 A 
ATOM      4  C   UNL     1     -14.426 -28.881 -14.129  1.00  0.00     0.157 A 
ATOM      5  C   UNL     1     -14.360 -26.479 -14.498  1.00  0.00     0.051 A 
ATOM      6  C   UNL     1     -14.370 -27.779 -15.016  1.00  0.00     0.157 A 
ENDROOT
BRANCH   1   7
ATOM      7  C   UNL     1     -14.497 -27.093 -10.780  1.00  0.00     0.010 C 
ATOM      8  C   UNL     1     -13.547 -27.397  -9.882  1.00  0.00     0.025 C 
BRANCH   8   9
ATOM      9  C   UNL     1     -12.184 -27.860 -10.201  1.00  0.00     0.064 C 
ATOM     10  O   UNL     1     -11.296 -27.014 -10.484  1.00  0.00    -0.545 OA
ATOM     11  O   UNL     1     -11.874 -29.214 -10.267  1.00  0.00    -0.545 OA
ENDBRANCH   8   9
ENDBRANCH   1   7
BRANCH   4  12
ATOM     12  O   UNL     1     -14.459 -30.205 -14.573  1.00  0.00    -0.504 OA
ATOM     13  H   UNL     1     -14.599 -31.000 -13.967  1.00  0.00     0.293 HD
ENDBRANCH   4  12
BRANCH   6  14
ATOM     14  O   UNL     1     -14.329 -27.929 -16.404  1.00  0.00    -0.504 OA
ATOM     15  H   UNL     1     -13.475 -27.996 -16.940  1.00  0.00     0.293 HD
ENDBRANCH   6  14
TORSDOF 4
ENDMDL
MODEL 2
REMARK VINA RESULT:    -6.038      1.832      5.022
REMARK INTER + INTRA:          -7.303
REMARK INTER:                  -7.097
REMARK INTRA:                  -0.207
REMARK UNBOUND:                -0.207
REMARK SMILES O=C([O-])C=Cc1ccc(O)c(O)c1
REMARK SMILES IDX 6 1 13 2 7 3 11 4 8 5 9 6 5 7 4 8 2 9 1 10 3 11 12 12 10 14
REMARK H PARENT 12 13 10 15
REMARK Flexibility Score: inf
ROOT
ATOM      1  C   UNL     1     -13.201 -28.910 -11.417  1.00  0.00    -0.022 A 
ATOM      2  C   UNL     1     -14.040 -27.998 -10.755  1.00  0.00     0.058 A 
ATOM      3  C   UNL     1     -11.816 -28.820 -11.240  1.00  0.00     0.012 A 
ATOM      4  C   UNL     1     -13.502 -26.972  -9.967  1.00  0.00     0.157 A 
ATOM      5  C   UNL     1     -11.270 -27.800 -10.458  1.00  0.00     0.051 A 
ATOM      6  C   UNL     1     -12.098 -26.867  -9.822  1.00  0.00     0.157 A 
ENDROOT
BRANCH   1   7
ATOM      7  C   UNL     1     -13.759 -30.027 -12.206  1.00  0.00     0.010 C 
ATOM      8  C   UNL     1     -14.418 -29.904 -13.369  1.00  0.00     0.025 C 
BRANCH   8   9
ATOM      9  C   UNL     1     -14.538 -28.663 -14.157  1.00  0.00     0.064 C 
ATOM     10  O   UNL     1     -13.601 -28.330 -14.929  1.00  0.00    -0.545 OA
ATOM     11  O   UNL     1     -15.630 -27.815 -14.014  1.00  0.00    -0.545 OA
ENDBRANCH   8   9
ENDBRANCH   1   7
BRANCH   4  12
ATOM     12  O   UNL     1     -14.391 -26.090  -9.348  1.00  0.00    -0.504 OA
ATOM     13  H   UNL     1     -14.159 -25.526  -8.544  1.00  0.00     0.293 HD
ENDBRANCH   4  12
BRANCH   6  14
ATOM     14  O   UNL     1     -11.490 -25.867  -9.062  1.00  0.00    -0.504 OA
ATOM     15  H   UNL     1     -10.671 -25.353  -9.354  1.00  0.00     0.293 HD
ENDBRANCH   6  14
TORSDOF 4
ENDMDL
MODEL 3
REMARK VINA RESULT:    -6.031      0.961      2.062
REMARK INTER + INTRA:          -7.296
REMARK INTER:                  -7.235
REMARK INTRA:                  -0.061
REMARK UNBOUND:                -0.207
REMARK SMILES O=C([O-])C=Cc1ccc(O)c(O)c1
REMARK SMILES IDX 6 1 13 2 7 3 11 4 8 5 9 6 5 7 4 8 2 9 1 10 3 11 12 12 10 14
REMARK H PARENT 12 13 10 15
REMARK Flexibility Score: inf
ROOT
ATOM      1  C   UNL     1     -14.261 -28.186 -11.807  1.00  0.00    -0.022 A 
ATOM      2  C   UNL     1     -14.470 -27.610 -13.070  1.00  0.00     0.058 A 
ATOM      3  C   UNL     1     -13.957 -29.550 -11.717  1.00  0.00     0.012 A 
ATOM      4  C   UNL     1     -14.432 -28.394 -14.231  1.00  0.00     0.157 A 
ATOM      5  C   UNL     1     -13.918 -30.340 -12.867  1.00  0.00     0.051 A 
ATOM      6  C   UNL     1     -14.159 -29.779 -14.127  1.00  0.00     0.157 A 
ENDROOT
BRANCH   1   7
ATOM      7  C   UNL     1     -14.247 -27.359 -10.582  1.00  0.00     0.010 C 
ATOM      8  C   UNL     1     -13.203 -27.222  -9.750  1.00  0.00     0.025 C 
BRANCH   8   9
ATOM      9  C   UNL     1     -11.836 -27.715 -10.003  1.00  0.00     0.064 C 
ATOM     10  O   UNL     1     -11.118 -27.131 -10.856  1.00  0.00    -0.545 OA
ATOM     11  O   UNL     1     -11.347 -28.854  -9.373  1.00  0.00    -0.545 OA
ENDBRANCH   8   9
ENDBRANCH   1   7
BRANCH   4  12
ATOM     12  O   UNL     1     -14.662 -27.761 -15.454  1.00  0.00    -0.504 OA
ATOM     13  H   UNL     1     -15.576 -27.647 -15.868  1.00  0.00     0.293 HD
ENDBRANCH   4  12
BRANCH   6  14
ATOM     14  O   UNL     1     -14.113 -30.624 -15.237  1.00  0.00    -0.504 OA
ATOM     15  H   UNL     1     -14.483 -31.564 -15.248  1.00  0.00     0.293 HD
ENDBRANCH   6  14
TORSDOF 4
ENDMDL
MODEL 4
REMARK VINA RESULT:    -5.847      2.036      3.115
REMARK INTER + INTRA:          -7.080
REMARK INTER:                  -6.860
REMARK INTRA:                  -0.219
REMARK UNBOUND:                -0.207
REMARK SMILES O=C([O-])C=Cc1ccc(O)c(O)c1
REMARK SMILES IDX 6 1 13 2 7 3 11 4 8 5 9 6 5 7 4 8 2 9 1 10 3 11 12 12 10 14
REMARK H PARENT 12 13 10 15
REMARK Flexibility Score: inf
ROOT
ATOM      1  C   UNL     1     -13.024 -29.039 -12.529  1.00  0.00    -0.022 A 
ATOM      2  C   UNL     1     -13.214 -28.550 -13.832  1.00  0.00     0.058 A 
ATOM      3  C   UNL     1     -13.439 -30.339 -12.218  1.00  0.00     0.012 A 
ATOM      4  C   UNL     1     -13.860 -29.327 -14.803  1.00  0.00     0.157 A 
ATOM      5  C   UNL     1     -14.085 -31.120 -13.178  1.00  0.00     0.051 A 
ATOM      6  C   UNL     1     -14.308 -30.627 -14.469  1.00  0.00     0.157 A 
ENDROOT
BRANCH   1   7
ATOM      7  C   UNL     1     -12.297 -28.249 -11.515  1.00  0.00     0.010 C 
ATOM      8  C   UNL     1     -12.785 -27.180 -10.866  1.00  0.00     0.025 C 
BRANCH   8   9
ATOM      9  C   UNL     1     -14.185 -26.719 -10.908  1.00  0.00     0.064 C 
ATOM     10  O   UNL     1     -14.972 -27.054  -9.984  1.00  0.00    -0.545 OA
ATOM     11  O   UNL     1     -14.675 -25.985 -11.982  1.00  0.00    -0.545 OA
ENDBRANCH   8   9
ENDBRANCH   1   7
BRANCH   4  12
ATOM     12  O   UNL     1     -14.028 -28.775 -16.075  1.00  0.00    -0.504 OA
ATOM     13  H   UNL     1     -13.322 -28.793 -16.796  1.00  0.00     0.293 HD
ENDBRANCH   4  12
BRANCH   6  14
ATOM     14  O   UNL     1     -14.966 -31.455 -15.380  1.00  0.00    -0.504 OA
ATOM     15  H   UNL     1     -15.949 -31.382 -15.603  1.00  0.00     0.293 HD
ENDBRANCH   6  14
TORSDOF 4
ENDMDL
MODEL 5
REMARK VINA RESULT:    -5.774      1.921      4.852
REMARK INTER + INTRA:          -6.993
REMARK INTER:                  -6.752
REMARK INTRA:                  -0.241
REMARK UNBOUND:                -0.207
REMARK SMILES O=C([O-])C=Cc1ccc(O)c(O)c1
REMARK SMILES IDX 6 1 13 2 7 3 11 4 8 5 9 6 5 7 4 8 2 9 1 10 3 11 12 12 10 14
REMARK H PARENT 12 13 10 15
REMARK Flexibility Score: inf
ROOT
ATOM      1  C   UNL     1     -13.467 -27.580 -12.092  1.00  0.00    -0.022 A 
ATOM      2  C   UNL     1     -12.199 -27.267 -11.576  1.00  0.00     0.058 A 
ATOM      3  C   UNL     1     -14.591 -27.459 -11.267  1.00  0.00     0.012 A 
ATOM      4  C   UNL     1     -12.043 -26.889 -10.236  1.00  0.00     0.157 A 
ATOM      5  C   UNL     1     -14.446 -27.085  -9.929  1.00  0.00     0.051 A 
ATOM      6  C   UNL     1     -13.181 -26.803  -9.400  1.00  0.00     0.157 A 
ENDROOT
BRANCH   1   7
ATOM      7  C   UNL     1     -13.648 -27.928 -13.516  1.00  0.00     0.010 C 
ATOM      8  C   UNL     1     -13.554 -29.163 -14.033  1.00  0.00     0.025 C 
BRANCH   8   9
ATOM      9  C   UNL     1     -13.441 -30.410 -13.253  1.00  0.00     0.064 C 
ATOM     10  O   UNL     1     -14.434 -31.180 -13.176  1.00  0.00    -0.545 OA
ATOM     11  O   UNL     1     -12.287 -30.720 -12.543  1.00  0.00    -0.545 OA
ENDBRANCH   8   9
ENDBRANCH   1   7
BRANCH   4  12
ATOM     12  O   UNL     1     -10.752 -26.604  -9.784  1.00  0.00    -0.504 OA
ATOM     13  H   UNL     1     -10.307 -27.077  -9.012  1.00  0.00     0.293 HD
ENDBRANCH   4  12
BRANCH   6  14
ATOM     14  O   UNL     1     -13.103 -26.443  -8.053  1.00  0.00    -0.504 OA
ATOM     15  H   UNL     1     -12.479 -25.736  -7.693  1.00  0.00     0.293 HD
ENDBRANCH   6  14
TORSDOF 4
ENDMDL
MODEL 6
REMARK VINA RESULT:    -5.723      2.577      3.918
REMARK INTER + INTRA:          -6.933
REMARK INTER:                  -6.849
REMARK INTRA:                  -0.084
REMARK UNBOUND:                -0.207
REMARK SMILES O=C([O-])C=Cc1ccc(O)c(O)c1
REMARK SMILES IDX 6 1 13 2 7 3 11 4 8 5 9 6 5 7 4 8 2 9 1 10 3 11 12 12 10 14
REMARK H PARENT 12 13 10 15
REMARK Flexibility Score: inf
ROOT
ATOM      1  C   UNL     1     -13.369 -29.354 -11.612  1.00  0.00    -0.022 A 
ATOM      2  C   UNL     1     -13.956 -30.139 -12.618  1.00  0.00     0.058 A 
ATOM      3  C   UNL     1     -12.042 -29.596 -11.241  1.00  0.00     0.012 A 
ATOM      4  C   UNL     1     -13.247 -31.190 -13.212  1.00  0.00     0.157 A 
ATOM      5  C   UNL     1     -11.327 -30.642 -11.827  1.00  0.00     0.051 A 
ATOM      6  C   UNL     1     -11.916 -31.450 -12.806  1.00  0.00     0.157 A 
ENDROOT
BRANCH   1   7
ATOM      7  C   UNL     1     -14.090 -28.210 -11.016  1.00  0.00     0.010 C 
ATOM      8  C   UNL     1     -14.354 -27.050 -11.638  1.00  0.00     0.025 C 
BRANCH   8   9
ATOM      9  C   UNL     1     -14.143 -26.780 -13.073  1.00  0.00     0.064 C 
ATOM     10  O   UNL     1     -12.970 -26.636 -13.506  1.00  0.00    -0.545 OA
ATOM     11  O   UNL     1     -15.212 -26.611 -13.945  1.00  0.00    -0.545 OA
ENDBRANCH   8   9
ENDBRANCH   1   7
BRANCH   4  12
ATOM     12  O   UNL     1     -13.895 -31.940 -14.197  1.00  0.00    -0.504 OA
ATOM     13  H   UNL     1     -14.873 -32.183 -14.169  1.00  0.00     0.293 HD
ENDBRANCH   4  12
BRANCH   6  14
ATOM     14  O   UNL     1     -11.151 -32.485 -13.347  1.00  0.00    -0.504 OA
ATOM     15  H   UNL     1     -10.208 -32.703 -13.055  1.00  0.00     0.293 HD
ENDBRANCH   6  14
TORSDOF 4
ENDMDL
MODEL 7
REMARK VINA RESULT:    -5.671      1.786      5.032
REMARK INTER + INTRA:          -6.873
REMARK INTER:                  -6.650
REMARK INTRA:                  -0.223
REMARK UNBOUND:                -0.207
REMARK SMILES O=C([O-])C=Cc1ccc(O)c(O)c1
REMARK SMILES IDX 6 1 13 2 7 3 11 4 8 5 9 6 5 7 4 8 2 9 1 10 3 11 12 12 10 14
REMARK H PARENT 12 13 10 15
REMARK Flexibility Score: inf
ROOT
ATOM      1  C   UNL     1     -13.091 -28.826 -11.157  1.00  0.00    -0.022 A 
ATOM      2  C   UNL     1     -11.752 -28.410 -11.231  1.00  0.00     0.058 A 
ATOM      3  C   UNL     1     -13.988 -28.110 -10.357  1.00  0.00     0.012 A 
ATOM      4  C   UNL     1     -11.295 -27.324 -10.472  1.00  0.00     0.157 A 
ATOM      5  C   UNL     1     -13.543 -27.027  -9.596  1.00  0.00     0.051 A 
ATOM      6  C   UNL     1     -12.202 -26.627  -9.638  1.00  0.00     0.157 A 
ENDROOT
BRANCH   1   7
ATOM      7  C   UNL     1     -13.594 -29.935 -11.994  1.00  0.00     0.010 C 
ATOM      8  C   UNL     1     -14.354 -29.798 -13.092  1.00  0.00     0.025 C 
BRANCH   8   9
ATOM      9  C   UNL     1     -14.664 -28.522 -13.763  1.00  0.00     0.064 C 
ATOM     10  O   UNL     1     -15.838 -28.070 -13.715  1.00  0.00    -0.545 OA
ATOM     11  O   UNL     1     -13.707 -27.843 -14.509  1.00  0.00    -0.545 OA
ENDBRANCH   8   9
ENDBRANCH   1   7
BRANCH   4  12
ATOM     12  O   UNL     1      -9.948 -26.972 -10.581  1.00  0.00    -0.504 OA
ATOM     13  H   UNL     1      -9.354 -26.760  -9.793  1.00  0.00     0.293 HD
ENDBRANCH   4  12
BRANCH   6  14
ATOM     14  O   UNL     1     -11.819 -25.543  -8.847  1.00  0.00    -0.504 OA
ATOM     15  H   UNL     1     -11.263 -24.768  -9.181  1.00  0.00     0.293 HD
ENDBRANCH   6  14
TORSDOF 4
ENDMDL
MODEL 8
REMARK VINA RESULT:    -5.657      2.914      3.981
REMARK INTER + INTRA:          -6.855
REMARK INTER:                  -6.707
REMARK INTRA:                  -0.148
REMARK UNBOUND:                -0.207
REMARK SMILES O=C([O-])C=Cc1ccc(O)c(O)c1
REMARK SMILES IDX 6 1 13 2 7 3 11 4 8 5 9 6 5 7 4 8 2 9 1 10 3 11 12 12 10 14
REMARK H PARENT 12 13 10 15
REMARK Flexibility Score: inf
ROOT
ATOM      1  C   UNL     1     -13.303 -30.019 -12.194  1.00  0.00    -0.022 A 
ATOM      2  C   UNL     1     -12.086 -30.719 -12.243  1.00  0.00     0.058 A 
ATOM      3  C   UNL     1     -14.358 -30.420 -13.022  1.00  0.00     0.012 A 
ATOM      4  C   UNL     1     -11.902 -31.774 -13.146  1.00  0.00     0.157 A 
ATOM      5  C   UNL     1     -14.184 -31.470 -13.926  1.00  0.00     0.051 A 
ATOM      6  C   UNL     1     -12.963 -32.150 -14.004  1.00  0.00     0.157 A 
ENDROOT
BRANCH   1   7
ATOM      7  C   UNL     1     -13.525 -28.940 -11.209  1.00  0.00     0.010 C 
ATOM      8  C   UNL     1     -13.649 -27.636 -11.500  1.00  0.00     0.025 C 
BRANCH   8   9
ATOM      9  C   UNL     1     -13.774 -27.070 -12.856  1.00  0.00     0.064 C 
ATOM     10  O   UNL     1     -12.742 -26.661 -13.450  1.00  0.00    -0.545 OA
ATOM     11  O   UNL     1     -15.013 -26.912 -13.466  1.00  0.00    -0.545 OA
ENDBRANCH   8   9
ENDBRANCH   1   7
BRANCH   4  12
ATOM     12  O   UNL     1     -10.663 -32.419 -13.152  1.00  0.00    -0.504 OA
ATOM     13  H   UNL     1      -9.777 -31.938 -13.176  1.00  0.00     0.293 HD
ENDBRANCH   4  12
BRANCH   6  14
ATOM     14  O   UNL     1     -12.851 -33.185 -14.934  1.00  0.00    -0.504 OA
ATOM     15  H   UNL     1     -12.141 -33.225 -15.652  1.00  0.00     0.293 HD
ENDBRANCH   6  14
TORSDOF 4
ENDMDL
MODEL 9
REMARK VINA RESULT:    -5.562      1.260      1.995
REMARK INTER + INTRA:          -6.744
REMARK INTER:                  -6.886
REMARK INTRA:                   0.142
REMARK UNBOUND:                -0.207
REMARK SMILES O=C([O-])C=Cc1ccc(O)c(O)c1
REMARK SMILES IDX 6 1 13 2 7 3 11 4 8 5 9 6 5 7 4 8 2 9 1 10 3 11 12 12 10 14
REMARK H PARENT 12 13 10 15
REMARK Flexibility Score: inf
ROOT
ATOM      1  C   UNL     1     -13.914 -28.276 -12.723  1.00  0.00    -0.022 A 
ATOM      2  C   UNL     1     -13.960 -28.492 -14.110  1.00  0.00     0.058 A 
ATOM      3  C   UNL     1     -14.331 -27.044 -12.207  1.00  0.00     0.012 A 
ATOM      4  C   UNL     1     -14.365 -27.473 -14.982  1.00  0.00     0.157 A 
ATOM      5  C   UNL     1     -14.735 -26.021 -13.068  1.00  0.00     0.051 A 
ATOM      6  C   UNL     1     -14.751 -26.218 -14.453  1.00  0.00     0.157 A 
ENDROOT
BRANCH   1   7
ATOM      7  C   UNL     1     -13.540 -29.361 -11.792  1.00  0.00     0.010 C 
ATOM      8  C   UNL     1     -12.654 -29.254 -10.790  1.00  0.00     0.025 C 
BRANCH   8   9
ATOM      9  C   UNL     1     -12.040 -27.997 -10.322  1.00  0.00     0.064 C 
ATOM     10  O   UNL     1     -12.510 -27.424  -9.304  1.00  0.00    -0.545 OA
ATOM     11  O   UNL     1     -11.000 -27.393 -11.019  1.00  0.00    -0.545 OA
ENDBRANCH   8   9
ENDBRANCH   1   7
BRANCH   4  12
ATOM     12  O   UNL     1     -14.375 -27.750 -16.351  1.00  0.00    -0.504 OA
ATOM     13  H   UNL     1     -14.986 -27.298 -17.014  1.00  0.00     0.293 HD
ENDBRANCH   4  12
BRANCH   6  14
ATOM     14  O   UNL     1     -15.157 -25.153 -15.260  1.00  0.00    -0.504 OA
ATOM     15  H   UNL     1     -15.942 -25.191 -15.895  1.00  0.00     0.293 HD
ENDBRANCH   6  14
TORSDOF 4
ENDMDL
