MODEL 1
REMARK VINA RESULT:    -7.654      0.000      0.000
REMARK INTER + INTRA:          -9.067
REMARK INTER:                  -9.220
REMARK INTRA:                   0.154
REMARK UNBOUND:                 0.154
REMARK SMILES O=c1c(O)c(-c2ccc(O)c(O)c2)oc2cc(O)cc(O)c12
REMARK SMILES IDX 5 1 3 2 2 3 1 4 22 5 20 6 19 7 17 8 16 9 15 10 14 11 6 12
REMARK SMILES IDX 7 13 8 14 9 15 13 16 11 17 10 18 12 20 4 22 21 24 18 26
REMARK H PARENT 10 19 12 21 4 23 21 25 18 27
REMARK Flexibility Score: inf
ROOT
ATOM      1  C   UNL     1      26.793  22.800  34.013  1.00  0.00     0.180 A 
ATOM      2  C   UNL     1      27.318  21.568  34.450  1.00  0.00     0.208 A 
ATOM      3  C   UNL     1      26.478  20.679  35.139  1.00  0.00     0.238 A 
ATOM      4  O   UNL     1      26.933  19.569  35.527  1.00  0.00    -0.285 OA
ATOM      5  C   UNL     1      25.140  21.043  35.397  1.00  0.00     0.111 A 
ATOM      6  C   UNL     1      24.230  20.207  36.088  1.00  0.00     0.134 A 
ATOM      7  C   UNL     1      22.916  20.644  36.313  1.00  0.00     0.093 A 
ATOM      8  C   UNL     1      22.497  21.901  35.861  1.00  0.00     0.123 A 
ATOM      9  C   UNL     1      23.390  22.727  35.178  1.00  0.00     0.094 A 
ATOM     10  C   UNL     1      24.703  22.309  34.943  1.00  0.00     0.146 A 
ATOM     11  O   UNL     1      25.531  23.115  34.287  1.00  0.00    -0.452 OA
ENDROOT
BRANCH   1  12
ATOM     12  C   UNL     1      27.611  23.781  33.264  1.00  0.00     0.025 A 
ATOM     13  C   UNL     1      28.572  23.369  32.325  1.00  0.00     0.016 A 
ATOM     14  C   UNL     1      29.314  24.314  31.613  1.00  0.00     0.051 A 
ATOM     15  C   UNL     1      29.098  25.683  31.817  1.00  0.00     0.157 A 
ATOM     16  C   UNL     1      27.383  25.155  33.449  1.00  0.00     0.062 A 
ATOM     17  C   UNL     1      28.125  26.104  32.738  1.00  0.00     0.158 A 
BRANCH  15  18
ATOM     18  O   UNL     1      29.842  26.624  31.105  1.00  0.00    -0.504 OA
ATOM     19  H   UNL     1      29.646  27.616  31.172  1.00  0.00     0.293 HD
ENDBRANCH  15  18
BRANCH  17  20
ATOM     20  O   UNL     1      27.881  27.460  32.959  1.00  0.00    -0.504 OA
ATOM     21  H   UNL     1      27.998  27.886  33.870  1.00  0.00     0.293 HD
ENDBRANCH  17  20
ENDBRANCH   1  12
BRANCH   2  22
ATOM     22  O   UNL     1      28.661  21.253  34.226  1.00  0.00    -0.502 OA
ATOM     23  H   UNL     1      29.348  21.246  34.970  1.00  0.00     0.293 HD
ENDBRANCH   2  22
BRANCH   6  24
ATOM     24  O   UNL     1      24.619  18.950  36.552  1.00  0.00    -0.507 OA
ATOM     25  H   UNL     1      25.582  18.639  36.509  1.00  0.00     0.293 HD
ENDBRANCH   6  24
BRANCH   8  26
ATOM     26  O   UNL     1      21.192  22.336  36.084  1.00  0.00    -0.508 OA
ATOM     27  H   UNL     1      20.594  22.631  35.321  1.00  0.00     0.293 HD
ENDBRANCH   8  26
TORSDOF 6
ENDMDL
MODEL 2
REMARK VINA RESULT:    -7.431      1.140      6.575
REMARK INTER + INTRA:          -8.798
REMARK INTER:                  -8.714
REMARK INTRA:                  -0.083
REMARK UNBOUND:                 0.154
REMARK SMILES O=c1c(O)c(-c2ccc(O)c(O)c2)oc2cc(O)cc(O)c12
REMARK SMILES IDX 5 1 3 2 2 3 1 4 22 5 20 6 19 7 17 8 16 9 15 10 14 11 6 12
REMARK SMILES IDX 7 13 8 14 9 15 13 16 11 17 10 18 12 20 4 22 21 24 18 26
REMARK H PARENT 10 19 12 21 4 23 21 25 18 27
REMARK Flexibility Score: inf
ROOT
ATOM      1  C   UNL     1      25.844  22.196  34.706  1.00  0.00     0.180 A 
ATOM      2  C   UNL     1      26.762  21.200  34.321  1.00  0.00     0.208 A 
ATOM      3  C   UNL     1      27.895  21.572  33.581  1.00  0.00     0.238 A 
ATOM      4  O   UNL     1      28.731  20.691  33.239  1.00  0.00    -0.285 OA
ATOM      5  C   UNL     1      28.080  22.923  33.222  1.00  0.00     0.111 A 
ATOM      6  C   UNL     1      29.192  23.380  32.473  1.00  0.00     0.134 A 
ATOM      7  C   UNL     1      29.301  24.740  32.148  1.00  0.00     0.093 A 
ATOM      8  C   UNL     1      28.318  25.651  32.556  1.00  0.00     0.123 A 
ATOM      9  C   UNL     1      27.222  25.204  33.294  1.00  0.00     0.094 A 
ATOM     10  C   UNL     1      27.096  23.854  33.630  1.00  0.00     0.146 A 
ATOM     11  O   UNL     1      26.044  23.458  34.337  1.00  0.00    -0.452 OA
ENDROOT
BRANCH   1  12
ATOM     12  C   UNL     1      24.636  21.885  35.504  1.00  0.00     0.025 A 
ATOM     13  C   UNL     1      24.724  21.217  36.737  1.00  0.00     0.016 A 
ATOM     14  C   UNL     1      23.572  20.956  37.483  1.00  0.00     0.051 A 
ATOM     15  C   UNL     1      22.318  21.370  37.016  1.00  0.00     0.157 A 
ATOM     16  C   UNL     1      23.378  22.317  35.051  1.00  0.00     0.062 A 
ATOM     17  C   UNL     1      22.223  22.057  35.795  1.00  0.00     0.158 A 
BRANCH  15  18
ATOM     18  O   UNL     1      21.170  21.107  37.763  1.00  0.00    -0.504 OA
ATOM     19  H   UNL     1      21.030  21.511  38.682  1.00  0.00     0.293 HD
ENDBRANCH  15  18
BRANCH  17  20
ATOM     20  O   UNL     1      20.990  22.490  35.306  1.00  0.00    -0.504 OA
ATOM     21  H   UNL     1      20.607  22.147  34.433  1.00  0.00     0.293 HD
ENDBRANCH  17  20
ENDBRANCH   1  12
BRANCH   2  22
ATOM     22  O   UNL     1      26.530  19.861  34.647  1.00  0.00    -0.502 OA
ATOM     23  H   UNL     1      26.518  19.530  35.604  1.00  0.00     0.293 HD
ENDBRANCH   2  22
BRANCH   6  24
ATOM     24  O   UNL     1      30.187  22.497  32.052  1.00  0.00    -0.507 OA
ATOM     25  H   UNL     1      29.975  21.546  31.777  1.00  0.00     0.293 HD
ENDBRANCH   6  24
BRANCH   8  26
ATOM     26  O   UNL     1      28.425  27.001  32.233  1.00  0.00    -0.508 OA
ATOM     27  H   UNL     1      27.948  27.393  31.429  1.00  0.00     0.293 HD
ENDBRANCH   8  26
TORSDOF 6
ENDMDL
MODEL 3
REMARK VINA RESULT:    -7.349      1.445      1.659
REMARK INTER + INTRA:          -8.699
REMARK INTER:                  -8.369
REMARK INTRA:                  -0.330
REMARK UNBOUND:                 0.154
REMARK SMILES O=c1c(O)c(-c2ccc(O)c(O)c2)oc2cc(O)cc(O)c12
REMARK SMILES IDX 5 1 3 2 2 3 1 4 22 5 20 6 19 7 17 8 16 9 15 10 14 11 6 12
REMARK SMILES IDX 7 13 8 14 9 15 13 16 11 17 10 18 12 20 4 22 21 24 18 26
REMARK H PARENT 10 19 12 21 4 23 21 25 18 27
REMARK Flexibility Score: inf
ROOT
ATOM      1  C   UNL     1      26.198  22.961  35.028  1.00  0.00     0.180 A 
ATOM      2  C   UNL     1      26.586  21.606  35.031  1.00  0.00     0.208 A 
ATOM      3  C   UNL     1      25.652  20.635  35.424  1.00  0.00     0.238 A 
ATOM      4  O   UNL     1      25.984  19.418  35.422  1.00  0.00    -0.285 OA
ATOM      5  C   UNL     1      24.359  21.033  35.825  1.00  0.00     0.111 A 
ATOM      6  C   UNL     1      23.362  20.117  36.240  1.00  0.00     0.134 A 
ATOM      7  C   UNL     1      22.101  20.592  36.632  1.00  0.00     0.093 A 
ATOM      8  C   UNL     1      21.821  21.963  36.619  1.00  0.00     0.123 A 
ATOM      9  C   UNL     1      22.802  22.868  36.211  1.00  0.00     0.094 A 
ATOM     10  C   UNL     1      24.063  22.416  35.814  1.00  0.00     0.146 A 
ATOM     11  O   UNL     1      24.975  23.299  35.426  1.00  0.00    -0.452 OA
ENDROOT
BRANCH   1  12
ATOM     12  C   UNL     1      27.119  24.041  34.608  1.00  0.00     0.025 A 
ATOM     13  C   UNL     1      27.260  24.399  33.256  1.00  0.00     0.016 A 
ATOM     14  C   UNL     1      28.118  25.438  32.887  1.00  0.00     0.051 A 
ATOM     15  C   UNL     1      28.837  26.143  33.861  1.00  0.00     0.157 A 
ATOM     16  C   UNL     1      27.826  24.765  35.583  1.00  0.00     0.062 A 
ATOM     17  C   UNL     1      28.686  25.805  35.216  1.00  0.00     0.158 A 
BRANCH  15  18
ATOM     18  O   UNL     1      29.693  27.179  33.489  1.00  0.00    -0.504 OA
ATOM     19  H   UNL     1      29.566  28.123  33.834  1.00  0.00     0.293 HD
ENDBRANCH  15  18
BRANCH  17  20
ATOM     20  O   UNL     1      29.381  26.493  36.212  1.00  0.00    -0.504 OA
ATOM     21  H   UNL     1      30.028  27.242  35.997  1.00  0.00     0.293 HD
ENDBRANCH  17  20
ENDBRANCH   1  12
BRANCH   2  22
ATOM     22  O   UNL     1      27.888  21.244  34.677  1.00  0.00    -0.502 OA
ATOM     23  H   UNL     1      28.288  20.348  34.927  1.00  0.00     0.293 HD
ENDBRANCH   2  22
BRANCH   6  24
ATOM     24  O   UNL     1      23.611  18.744  36.264  1.00  0.00    -0.507 OA
ATOM     25  H   UNL     1      24.185  18.319  36.982  1.00  0.00     0.293 HD
ENDBRANCH   6  24
BRANCH   8  26
ATOM     26  O   UNL     1      20.570  22.435  37.010  1.00  0.00    -0.508 OA
ATOM     27  H   UNL     1      19.961  21.890  37.607  1.00  0.00     0.293 HD
ENDBRANCH   8  26
TORSDOF 6
ENDMDL
MODEL 4
REMARK VINA RESULT:    -7.302      1.685      7.144
REMARK INTER + INTRA:          -8.642
REMARK INTER:                  -8.322
REMARK INTRA:                  -0.320
REMARK UNBOUND:                 0.154
REMARK SMILES O=c1c(O)c(-c2ccc(O)c(O)c2)oc2cc(O)cc(O)c12
REMARK SMILES IDX 5 1 3 2 2 3 1 4 22 5 20 6 19 7 17 8 16 9 15 10 14 11 6 12
REMARK SMILES IDX 7 13 8 14 9 15 13 16 11 17 10 18 12 20 4 22 21 24 18 26
REMARK H PARENT 10 19 12 21 4 23 21 25 18 27
REMARK Flexibility Score: inf
ROOT
ATOM      1  C   UNL     1      26.958  23.606  34.708  1.00  0.00     0.180 A 
ATOM      2  C   UNL     1      27.528  24.509  35.627  1.00  0.00     0.208 A 
ATOM      3  C   UNL     1      28.349  25.539  35.143  1.00  0.00     0.238 A 
ATOM      4  O   UNL     1      28.857  26.361  35.955  1.00  0.00    -0.285 OA
ATOM      5  C   UNL     1      28.602  25.638  33.759  1.00  0.00     0.111 A 
ATOM      6  C   UNL     1      29.421  26.644  33.192  1.00  0.00     0.134 A 
ATOM      7  C   UNL     1      29.631  26.670  31.805  1.00  0.00     0.093 A 
ATOM      8  C   UNL     1      29.039  25.709  30.977  1.00  0.00     0.123 A 
ATOM      9  C   UNL     1      28.231  24.717  31.532  1.00  0.00     0.094 A 
ATOM     10  C   UNL     1      28.007  24.675  32.911  1.00  0.00     0.146 A 
ATOM     11  O   UNL     1      27.230  23.722  33.412  1.00  0.00    -0.452 OA
ENDROOT
BRANCH   1  12
ATOM     12  C   UNL     1      26.066  22.505  35.139  1.00  0.00     0.025 A 
ATOM     13  C   UNL     1      24.667  22.644  35.116  1.00  0.00     0.016 A 
ATOM     14  C   UNL     1      23.846  21.582  35.504  1.00  0.00     0.051 A 
ATOM     15  C   UNL     1      24.408  20.364  35.908  1.00  0.00     0.157 A 
ATOM     16  C   UNL     1      26.623  21.275  35.524  1.00  0.00     0.062 A 
ATOM     17  C   UNL     1      25.804  20.210  35.914  1.00  0.00     0.158 A 
BRANCH  15  18
ATOM     18  O   UNL     1      23.585  19.307  36.296  1.00  0.00    -0.504 OA
ATOM     19  H   UNL     1      23.293  19.188  37.260  1.00  0.00     0.293 HD
ENDBRANCH  15  18
BRANCH  17  20
ATOM     20  O   UNL     1      26.394  19.007  36.304  1.00  0.00    -0.504 OA
ATOM     21  H   UNL     1      26.893  18.416  35.650  1.00  0.00     0.293 HD
ENDBRANCH  17  20
ENDBRANCH   1  12
BRANCH   2  22
ATOM     22  O   UNL     1      27.302  24.359  36.998  1.00  0.00    -0.502 OA
ATOM     23  H   UNL     1      28.058  24.276  37.666  1.00  0.00     0.293 HD
ENDBRANCH   2  22
BRANCH   6  24
ATOM     24  O   UNL     1      30.025  27.615  33.991  1.00  0.00    -0.507 OA
ATOM     25  H   UNL     1      29.849  27.671  34.987  1.00  0.00     0.293 HD
ENDBRANCH   6  24
BRANCH   8  26
ATOM     26  O   UNL     1      29.247  25.735  29.600  1.00  0.00    -0.508 OA
ATOM     27  H   UNL     1      28.511  25.999  28.957  1.00  0.00     0.293 HD
ENDBRANCH   8  26
TORSDOF 6
ENDMDL
MODEL 5
REMARK VINA RESULT:    -7.288      1.252      1.577
REMARK INTER + INTRA:          -8.626
REMARK INTER:                  -8.301
REMARK INTRA:                  -0.325
REMARK UNBOUND:                 0.154
REMARK SMILES O=c1c(O)c(-c2ccc(O)c(O)c2)oc2cc(O)cc(O)c12
REMARK SMILES IDX 5 1 3 2 2 3 1 4 22 5 20 6 19 7 17 8 16 9 15 10 14 11 6 12
REMARK SMILES IDX 7 13 8 14 9 15 13 16 11 17 10 18 12 20 4 22 21 24 18 26
REMARK H PARENT 10 19 12 21 4 23 21 25 18 27
REMARK Flexibility Score: inf
ROOT
ATOM      1  C   UNL     1      26.229  23.036  34.966  1.00  0.00     0.180 A 
ATOM      2  C   UNL     1      26.615  21.681  34.992  1.00  0.00     0.208 A 
ATOM      3  C   UNL     1      25.687  20.721  35.425  1.00  0.00     0.238 A 
ATOM      4  O   UNL     1      26.017  19.503  35.443  1.00  0.00    -0.285 OA
ATOM      5  C   UNL     1      24.404  21.130  35.842  1.00  0.00     0.111 A 
ATOM      6  C   UNL     1      23.413  20.225  36.296  1.00  0.00     0.134 A 
ATOM      7  C   UNL     1      22.161  20.711  36.703  1.00  0.00     0.093 A 
ATOM      8  C   UNL     1      21.883  22.083  36.665  1.00  0.00     0.123 A 
ATOM      9  C   UNL     1      22.856  22.977  36.217  1.00  0.00     0.094 A 
ATOM     10  C   UNL     1      24.109  22.513  35.806  1.00  0.00     0.146 A 
ATOM     11  O   UNL     1      25.015  23.385  35.380  1.00  0.00    -0.452 OA
ENDROOT
BRANCH   1  12
ATOM     12  C   UNL     1      27.144  24.105  34.504  1.00  0.00     0.025 A 
ATOM     13  C   UNL     1      28.031  24.742  35.388  1.00  0.00     0.016 A 
ATOM     14  C   UNL     1      28.902  25.731  34.923  1.00  0.00     0.051 A 
ATOM     15  C   UNL     1      28.908  26.089  33.568  1.00  0.00     0.157 A 
ATOM     16  C   UNL     1      27.168  24.452  33.143  1.00  0.00     0.062 A 
ATOM     17  C   UNL     1      28.038  25.443  32.674  1.00  0.00     0.158 A 
BRANCH  15  18
ATOM     18  O   UNL     1      29.776  27.078  33.108  1.00  0.00    -0.504 OA
ATOM     19  H   UNL     1      29.562  27.633  32.287  1.00  0.00     0.293 HD
ENDBRANCH  15  18
BRANCH  17  20
ATOM     20  O   UNL     1      28.024  25.771  31.318  1.00  0.00    -0.504 OA
ATOM     21  H   UNL     1      28.526  26.571  30.953  1.00  0.00     0.293 HD
ENDBRANCH  17  20
ENDBRANCH   1  12
BRANCH   2  22
ATOM     22  O   UNL     1      27.909  21.308  34.620  1.00  0.00    -0.502 OA
ATOM     23  H   UNL     1      28.212  20.342  34.605  1.00  0.00     0.293 HD
ENDBRANCH   2  22
BRANCH   6  24
ATOM     24  O   UNL     1      23.661  18.853  36.346  1.00  0.00    -0.507 OA
ATOM     25  H   UNL     1      23.031  18.182  35.923  1.00  0.00     0.293 HD
ENDBRANCH   6  24
BRANCH   8  26
ATOM     26  O   UNL     1      20.641  22.566  37.069  1.00  0.00    -0.508 OA
ATOM     27  H   UNL     1      19.780  22.228  36.654  1.00  0.00     0.293 HD
ENDBRANCH   8  26
TORSDOF 6
ENDMDL
MODEL 6
REMARK VINA RESULT:    -7.131      1.868      6.961
REMARK INTER + INTRA:          -8.436
REMARK INTER:                  -8.118
REMARK INTRA:                  -0.318
REMARK UNBOUND:                 0.154
REMARK SMILES O=c1c(O)c(-c2ccc(O)c(O)c2)oc2cc(O)cc(O)c12
REMARK SMILES IDX 5 1 3 2 2 3 1 4 22 5 20 6 19 7 17 8 16 9 15 10 14 11 6 12
REMARK SMILES IDX 7 13 8 14 9 15 13 16 11 17 10 18 12 20 4 22 21 24 18 26
REMARK H PARENT 10 19 12 21 4 23 21 25 18 27
REMARK Flexibility Score: inf
ROOT
ATOM      1  C   UNL     1      26.140  23.330  35.315  1.00  0.00     0.180 A 
ATOM      2  C   UNL     1      26.774  24.088  36.319  1.00  0.00     0.208 A 
ATOM      3  C   UNL     1      27.778  24.997  35.950  1.00  0.00     0.238 A 
ATOM      4  O   UNL     1      28.347  25.688  36.839  1.00  0.00    -0.285 OA
ATOM      5  C   UNL     1      28.144  25.119  34.593  1.00  0.00     0.111 A 
ATOM      6  C   UNL     1      29.148  26.008  34.139  1.00  0.00     0.134 A 
ATOM      7  C   UNL     1      29.460  26.065  32.773  1.00  0.00     0.093 A 
ATOM      8  C   UNL     1      28.789  25.250  31.853  1.00  0.00     0.123 A 
ATOM      9  C   UNL     1      27.799  24.373  32.297  1.00  0.00     0.094 A 
ATOM     10  C   UNL     1      27.471  24.302  33.654  1.00  0.00     0.146 A 
ATOM     11  O   UNL     1      26.521  23.462  34.047  1.00  0.00    -0.452 OA
ENDROOT
BRANCH   1  12
ATOM     12  C   UNL     1      25.060  22.366  35.622  1.00  0.00     0.025 A 
ATOM     13  C   UNL     1      25.345  21.047  36.017  1.00  0.00     0.016 A 
ATOM     14  C   UNL     1      24.308  20.163  36.325  1.00  0.00     0.051 A 
ATOM     15  C   UNL     1      22.974  20.584  36.256  1.00  0.00     0.157 A 
ATOM     16  C   UNL     1      23.721  22.789  35.575  1.00  0.00     0.062 A 
ATOM     17  C   UNL     1      22.681  21.906  35.882  1.00  0.00     0.158 A 
BRANCH  15  18
ATOM     18  O   UNL     1      21.942  19.698  36.562  1.00  0.00    -0.504 OA
ATOM     19  H   UNL     1      21.537  19.092  35.859  1.00  0.00     0.293 HD
ENDBRANCH  15  18
BRANCH  17  20
ATOM     20  O   UNL     1      21.363  22.359  35.810  1.00  0.00    -0.504 OA
ATOM     21  H   UNL     1      21.057  23.200  36.284  1.00  0.00     0.293 HD
ENDBRANCH  17  20
ENDBRANCH   1  12
BRANCH   2  22
ATOM     22  O   UNL     1      26.428  23.911  37.661  1.00  0.00    -0.502 OA
ATOM     23  H   UNL     1      25.638  23.347  37.948  1.00  0.00     0.293 HD
ENDBRANCH   2  22
BRANCH   6  24
ATOM     24  O   UNL     1      29.835  26.832  35.031  1.00  0.00    -0.507 OA
ATOM     25  H   UNL     1      29.930  26.596  36.011  1.00  0.00     0.293 HD
ENDBRANCH   6  24
BRANCH   8  26
ATOM     26  O   UNL     1      29.099  25.306  30.497  1.00  0.00    -0.508 OA
ATOM     27  H   UNL     1      30.017  25.589  30.174  1.00  0.00     0.293 HD
ENDBRANCH   8  26
TORSDOF 6
ENDMDL
MODEL 7
REMARK VINA RESULT:    -7.072      1.600      2.409
REMARK INTER + INTRA:          -8.365
REMARK INTER:                  -8.736
REMARK INTRA:                   0.371
REMARK UNBOUND:                 0.154
REMARK SMILES O=c1c(O)c(-c2ccc(O)c(O)c2)oc2cc(O)cc(O)c12
REMARK SMILES IDX 5 1 3 2 2 3 1 4 22 5 20 6 19 7 17 8 16 9 15 10 14 11 6 12
REMARK SMILES IDX 7 13 8 14 9 15 13 16 11 17 10 18 12 20 4 22 21 24 18 26
REMARK H PARENT 10 19 12 21 4 23 21 25 18 27
REMARK Flexibility Score: inf
ROOT
ATOM      1  C   UNL     1      25.728  21.565  35.043  1.00  0.00     0.180 A 
ATOM      2  C   UNL     1      25.587  20.252  35.532  1.00  0.00     0.208 A 
ATOM      3  C   UNL     1      24.420  19.913  36.235  1.00  0.00     0.238 A 
ATOM      4  O   UNL     1      24.277  18.738  36.670  1.00  0.00    -0.285 OA
ATOM      5  C   UNL     1      23.429  20.892  36.454  1.00  0.00     0.111 A 
ATOM      6  C   UNL     1      22.227  20.633  37.157  1.00  0.00     0.134 A 
ATOM      7  C   UNL     1      21.292  21.663  37.340  1.00  0.00     0.093 A 
ATOM      8  C   UNL     1      21.538  22.946  36.836  1.00  0.00     0.123 A 
ATOM      9  C   UNL     1      22.721  23.205  36.143  1.00  0.00     0.094 A 
ATOM     10  C   UNL     1      23.664  22.192  35.948  1.00  0.00     0.146 A 
ATOM     11  O   UNL     1      24.779  22.466  35.280  1.00  0.00    -0.452 OA
ENDROOT
BRANCH   1  12
ATOM     12  C   UNL     1      26.920  21.994  34.275  1.00  0.00     0.025 A 
ATOM     13  C   UNL     1      27.783  21.058  33.679  1.00  0.00     0.016 A 
ATOM     14  C   UNL     1      28.888  21.488  32.939  1.00  0.00     0.051 A 
ATOM     15  C   UNL     1      29.139  22.856  32.773  1.00  0.00     0.157 A 
ATOM     16  C   UNL     1      27.165  23.364  34.087  1.00  0.00     0.062 A 
ATOM     17  C   UNL     1      28.270  23.798  33.347  1.00  0.00     0.158 A 
BRANCH  15  18
ATOM     18  O   UNL     1      30.244  23.281  32.035  1.00  0.00    -0.504 OA
ATOM     19  H   UNL     1      30.556  24.245  32.054  1.00  0.00     0.293 HD
ENDBRANCH  15  18
BRANCH  17  20
ATOM     20  O   UNL     1      28.489  25.167  33.194  1.00  0.00    -0.504 OA
ATOM     21  H   UNL     1      27.999  25.716  32.497  1.00  0.00     0.293 HD
ENDBRANCH  17  20
ENDBRANCH   1  12
BRANCH   2  22
ATOM     22  O   UNL     1      26.606  19.315  35.345  1.00  0.00    -0.502 OA
ATOM     23  H   UNL     1      27.482  19.549  34.893  1.00  0.00     0.293 HD
ENDBRANCH   2  22
BRANCH   6  24
ATOM     24  O   UNL     1      21.954  19.365  37.671  1.00  0.00    -0.507 OA
ATOM     25  H   UNL     1      22.114  18.524  37.130  1.00  0.00     0.293 HD
ENDBRANCH   6  24
BRANCH   8  26
ATOM     26  O   UNL     1      20.611  23.970  37.019  1.00  0.00    -0.508 OA
ATOM     27  H   UNL     1      20.451  24.673  36.308  1.00  0.00     0.293 HD
ENDBRANCH   8  26
TORSDOF 6
ENDMDL
MODEL 8
REMARK VINA RESULT:    -7.019      1.720      2.412
REMARK INTER + INTRA:          -8.302
REMARK INTER:                  -7.972
REMARK INTRA:                  -0.330
REMARK UNBOUND:                 0.154
REMARK SMILES O=c1c(O)c(-c2ccc(O)c(O)c2)oc2cc(O)cc(O)c12
REMARK SMILES IDX 5 1 3 2 2 3 1 4 22 5 20 6 19 7 17 8 16 9 15 10 14 11 6 12
REMARK SMILES IDX 7 13 8 14 9 15 13 16 11 17 10 18 12 20 4 22 21 24 18 26
REMARK H PARENT 10 19 12 21 4 23 21 25 18 27
REMARK Flexibility Score: inf
ROOT
ATOM      1  C   UNL     1      28.205  23.717  33.475  1.00  0.00     0.180 A 
ATOM      2  C   UNL     1      28.865  22.508  33.179  1.00  0.00     0.208 A 
ATOM      3  C   UNL     1      28.208  21.296  33.445  1.00  0.00     0.238 A 
ATOM      4  O   UNL     1      28.784  20.206  33.176  1.00  0.00    -0.285 OA
ATOM      5  C   UNL     1      26.920  21.312  34.019  1.00  0.00     0.111 A 
ATOM      6  C   UNL     1      26.193  20.135  34.322  1.00  0.00     0.134 A 
ATOM      7  C   UNL     1      24.918  20.234  34.899  1.00  0.00     0.093 A 
ATOM      8  C   UNL     1      24.359  21.486  35.180  1.00  0.00     0.123 A 
ATOM      9  C   UNL     1      25.072  22.648  34.882  1.00  0.00     0.094 A 
ATOM     10  C   UNL     1      26.342  22.571  34.305  1.00  0.00     0.146 A 
ATOM     11  O   UNL     1      26.996  23.693  34.027  1.00  0.00    -0.452 OA
ENDROOT
BRANCH   1  12
ATOM     12  C   UNL     1      28.823  25.036  33.205  1.00  0.00     0.025 A 
ATOM     13  C   UNL     1      28.694  25.662  31.953  1.00  0.00     0.016 A 
ATOM     14  C   UNL     1      29.266  26.918  31.730  1.00  0.00     0.051 A 
ATOM     15  C   UNL     1      29.962  27.571  32.756  1.00  0.00     0.157 A 
ATOM     16  C   UNL     1      29.504  25.704  34.236  1.00  0.00     0.062 A 
ATOM     17  C   UNL     1      30.078  26.960  34.016  1.00  0.00     0.158 A 
BRANCH  15  18
ATOM     18  O   UNL     1      30.533  28.823  32.529  1.00  0.00    -0.504 OA
ATOM     19  H   UNL     1      30.887  29.087  31.616  1.00  0.00     0.293 HD
ENDBRANCH  15  18
BRANCH  17  20
ATOM     20  O   UNL     1      30.759  27.587  35.060  1.00  0.00    -0.504 OA
ATOM     21  H   UNL     1      31.566  27.168  35.505  1.00  0.00     0.293 HD
ENDBRANCH  17  20
ENDBRANCH   1  12
BRANCH   2  22
ATOM     22  O   UNL     1      30.161  22.519  32.659  1.00  0.00    -0.502 OA
ATOM     23  H   UNL     1      30.353  22.356  31.678  1.00  0.00     0.293 HD
ENDBRANCH   2  22
BRANCH   6  24
ATOM     24  O   UNL     1      26.724  18.873  34.054  1.00  0.00    -0.507 OA
ATOM     25  H   UNL     1      26.791  18.160  34.770  1.00  0.00     0.293 HD
ENDBRANCH   6  24
BRANCH   8  26
ATOM     26  O   UNL     1      23.093  21.585  35.753  1.00  0.00    -0.508 OA
ATOM     27  H   UNL     1      22.952  22.030  36.653  1.00  0.00     0.293 HD
ENDBRANCH   8  26
TORSDOF 6
ENDMDL
MODEL 9
REMARK VINA RESULT:    -6.552      1.983      6.316
REMARK INTER + INTRA:          -7.739
REMARK INTER:                  -7.409
REMARK INTRA:                  -0.331
REMARK UNBOUND:                 0.154
REMARK SMILES O=c1c(O)c(-c2ccc(O)c(O)c2)oc2cc(O)cc(O)c12
REMARK SMILES IDX 5 1 3 2 2 3 1 4 22 5 20 6 19 7 17 8 16 9 15 10 14 11 6 12
REMARK SMILES IDX 7 13 8 14 9 15 13 16 11 17 10 18 12 20 4 22 21 24 18 26
REMARK H PARENT 10 19 12 21 4 23 21 25 18 27
REMARK Flexibility Score: inf
ROOT
ATOM      1  C   UNL     1      25.592  21.625  35.308  1.00  0.00     0.180 A 
ATOM      2  C   UNL     1      25.977  20.280  35.467  1.00  0.00     0.208 A 
ATOM      3  C   UNL     1      27.206  19.860  34.935  1.00  0.00     0.238 A 
ATOM      4  O   UNL     1      27.567  18.660  35.080  1.00  0.00    -0.285 OA
ATOM      5  C   UNL     1      28.016  20.781  34.239  1.00  0.00     0.111 A 
ATOM      6  C   UNL     1      29.266  20.437  33.669  1.00  0.00     0.134 A 
ATOM      7  C   UNL     1      30.009  21.409  32.983  1.00  0.00     0.093 A 
ATOM      8  C   UNL     1      29.526  22.717  32.856  1.00  0.00     0.123 A 
ATOM      9  C   UNL     1      28.295  23.060  33.417  1.00  0.00     0.094 A 
ATOM     10  C   UNL     1      27.540  22.106  34.106  1.00  0.00     0.146 A 
ATOM     11  O   UNL     1      26.375  22.462  34.633  1.00  0.00    -0.452 OA
ENDROOT
BRANCH   1  12
ATOM     12  C   UNL     1      24.320  22.149  35.858  1.00  0.00     0.025 A 
ATOM     13  C   UNL     1      24.228  22.603  37.185  1.00  0.00     0.016 A 
ATOM     14  C   UNL     1      23.023  23.115  37.673  1.00  0.00     0.051 A 
ATOM     15  C   UNL     1      21.898  23.194  36.841  1.00  0.00     0.157 A 
ATOM     16  C   UNL     1      23.196  22.250  35.022  1.00  0.00     0.062 A 
ATOM     17  C   UNL     1      21.988  22.762  35.508  1.00  0.00     0.158 A 
BRANCH  15  18
ATOM     18  O   UNL     1      20.697  23.704  37.333  1.00  0.00    -0.504 OA
ATOM     19  H   UNL     1      20.219  23.273  38.116  1.00  0.00     0.293 HD
ENDBRANCH  15  18
BRANCH  17  20
ATOM     20  O   UNL     1      20.889  22.833  34.652  1.00  0.00    -0.504 OA
ATOM     21  H   UNL     1      20.274  22.044  34.498  1.00  0.00     0.293 HD
ENDBRANCH  17  20
ENDBRANCH   1  12
BRANCH   2  22
ATOM     22  O   UNL     1      25.134  19.376  36.118  1.00  0.00    -0.502 OA
ATOM     23  H   UNL     1      25.476  18.708  36.799  1.00  0.00     0.293 HD
ENDBRANCH   2  22
BRANCH   6  24
ATOM     24  O   UNL     1      29.773  19.141  33.778  1.00  0.00    -0.507 OA
ATOM     25  H   UNL     1      30.706  18.905  33.462  1.00  0.00     0.293 HD
ENDBRANCH   6  24
BRANCH   8  26
ATOM     26  O   UNL     1      30.264  23.682  32.175  1.00  0.00    -0.508 OA
ATOM     27  H   UNL     1      31.275  23.643  32.131  1.00  0.00     0.293 HD
ENDBRANCH   8  26
TORSDOF 6
ENDMDL
