MODEL 1
REMARK VINA RESULT:    -7.541      0.000      0.000
REMARK INTER + INTRA:          -9.633
REMARK INTER:                  -9.304
REMARK INTRA:                  -0.329
REMARK UNBOUND:                -0.329
REMARK SMILES Oc1cc(O)c2cc(O)c(-c3cc(O)c(O)c(O)c3)[o+]c2c1
REMARK SMILES IDX 10 1 20 2 21 3 22 4 2 5 3 6 4 7 6 8 7 9 8 10 11 11 12 12
REMARK SMILES IDX 13 13 19 14 15 15 17 16 14 17 16 19 18 21 9 23 1 25 5 27
REMARK H PARENT 14 18 16 20 18 22 9 24 1 26 5 28
REMARK Flexibility Score: inf
ROOT
ATOM      1  C   UNL     1      21.719  -5.157 -27.559  1.00  0.00     0.402 A 
ATOM      2  O   UNL     1      21.787  -5.957 -28.620  1.00  0.00    -0.202 OA
ATOM      3  C   UNL     1      20.842  -6.840 -28.930  1.00  0.00     0.368 A 
ATOM      4  C   UNL     1      21.001  -7.634 -30.069  1.00  0.00     0.162 A 
ATOM      5  C   UNL     1      20.021  -8.568 -30.419  1.00  0.00     0.128 A 
ATOM      6  C   UNL     1      18.878  -8.706 -29.630  1.00  0.00     0.093 A 
ATOM      7  C   UNL     1      18.694  -7.922 -28.484  1.00  0.00     0.136 A 
ATOM      8  C   UNL     1      19.687  -6.974 -28.122  1.00  0.00     0.125 A 
ATOM      9  C   UNL     1      19.594  -6.155 -26.985  1.00  0.00     0.078 A 
ATOM     10  C   UNL     1      20.615  -5.247 -26.690  1.00  0.00     0.223 A 
ENDROOT
BRANCH   1  11
ATOM     11  C   UNL     1      22.831  -4.209 -27.326  1.00  0.00     0.091 A 
ATOM     12  C   UNL     1      22.679  -2.832 -27.556  1.00  0.00     0.068 A 
ATOM     13  C   UNL     1      23.744  -1.947 -27.356  1.00  0.00     0.162 A 
ATOM     14  C   UNL     1      24.080  -4.697 -26.921  1.00  0.00     0.068 A 
ATOM     15  C   UNL     1      24.997  -2.445 -26.920  1.00  0.00     0.200 A 
ATOM     16  C   UNL     1      25.154  -3.828 -26.712  1.00  0.00     0.162 A 
BRANCH  13  17
ATOM     17  O   UNL     1      23.517  -0.592 -27.606  1.00  0.00    -0.504 OA
ATOM     18  H   UNL     1      22.636  -0.214 -27.925  1.00  0.00     0.293 HD
ENDBRANCH  13  17
BRANCH  15  19
ATOM     19  O   UNL     1      26.092  -1.608 -26.690  1.00  0.00    -0.502 OA
ATOM     20  H   UNL     1      26.300  -0.783 -27.233  1.00  0.00     0.293 HD
ENDBRANCH  15  19
BRANCH  16  21
ATOM     21  O   UNL     1      26.374  -4.358 -26.292  1.00  0.00    -0.504 OA
ATOM     22  H   UNL     1      26.716  -4.247 -25.346  1.00  0.00     0.293 HD
ENDBRANCH  16  21
ENDBRANCH   1  11
BRANCH  10  23
ATOM     23  O   UNL     1      20.548  -4.468 -25.535  1.00  0.00    -0.500 OA
ATOM     24  H   UNL     1      21.301  -3.846 -25.268  1.00  0.00     0.294 HD
ENDBRANCH  10  23
BRANCH   5  25
ATOM     25  O   UNL     1      20.173  -9.364 -31.552  1.00  0.00    -0.507 OA
ATOM     26  H   UNL     1      21.069  -9.458 -32.019  1.00  0.00     0.293 HD
ENDBRANCH   5  25
BRANCH   7  27
ATOM     27  O   UNL     1      17.522  -8.119 -27.750  1.00  0.00    -0.507 OA
ATOM     28  H   UNL     1      16.591  -7.944 -28.102  1.00  0.00     0.293 HD
ENDBRANCH   7  27
TORSDOF 7
ENDMDL
MODEL 2
REMARK VINA RESULT:    -7.465      1.470      7.388
REMARK INTER + INTRA:          -9.540
REMARK INTER:                  -9.281
REMARK INTRA:                  -0.258
REMARK UNBOUND:                -0.329
REMARK SMILES Oc1cc(O)c2cc(O)c(-c3cc(O)c(O)c(O)c3)[o+]c2c1
REMARK SMILES IDX 10 1 20 2 21 3 22 4 2 5 3 6 4 7 6 8 7 9 8 10 11 11 12 12
REMARK SMILES IDX 13 13 19 14 15 15 17 16 14 17 16 19 18 21 9 23 1 25 5 27
REMARK H PARENT 14 18 16 20 18 22 9 24 1 26 5 28
REMARK Flexibility Score: inf
ROOT
ATOM      1  C   UNL     1      21.361  -6.452 -28.246  1.00  0.00     0.402 A 
ATOM      2  O   UNL     1      20.948  -5.270 -27.797  1.00  0.00    -0.202 OA
ATOM      3  C   UNL     1      21.771  -4.344 -27.315  1.00  0.00     0.368 A 
ATOM      4  C   UNL     1      21.241  -3.129 -26.870  1.00  0.00     0.162 A 
ATOM      5  C   UNL     1      22.084  -2.137 -26.361  1.00  0.00     0.128 A 
ATOM      6  C   UNL     1      23.461  -2.360 -26.299  1.00  0.00     0.093 A 
ATOM      7  C   UNL     1      24.017  -3.567 -26.738  1.00  0.00     0.136 A 
ATOM      8  C   UNL     1      23.166  -4.580 -27.253  1.00  0.00     0.125 A 
ATOM      9  C   UNL     1      23.632  -5.825 -27.704  1.00  0.00     0.078 A 
ATOM     10  C   UNL     1      22.731  -6.775 -28.194  1.00  0.00     0.223 A 
ENDROOT
BRANCH   1  11
ATOM     11  C   UNL     1      20.348  -7.397 -28.767  1.00  0.00     0.091 A 
ATOM     12  C   UNL     1      19.416  -8.013 -27.917  1.00  0.00     0.068 A 
ATOM     13  C   UNL     1      18.478  -8.923 -28.417  1.00  0.00     0.162 A 
ATOM     14  C   UNL     1      20.352  -7.731 -30.128  1.00  0.00     0.068 A 
ATOM     15  C   UNL     1      18.470  -9.235 -29.798  1.00  0.00     0.200 A 
ATOM     16  C   UNL     1      19.420  -8.634 -30.645  1.00  0.00     0.162 A 
BRANCH  13  17
ATOM     17  O   UNL     1      17.583  -9.495 -27.509  1.00  0.00    -0.504 OA
ATOM     18  H   UNL     1      16.596  -9.283 -27.476  1.00  0.00     0.293 HD
ENDBRANCH  13  17
BRANCH  15  19
ATOM     19  O   UNL     1      17.549 -10.125 -30.356  1.00  0.00    -0.502 OA
ATOM     20  H   UNL     1      17.606 -11.129 -30.269  1.00  0.00     0.293 HD
ENDBRANCH  15  19
BRANCH  16  21
ATOM     21  O   UNL     1      19.452  -8.923 -32.010  1.00  0.00    -0.504 OA
ATOM     22  H   UNL     1      19.644  -8.215 -32.709  1.00  0.00     0.293 HD
ENDBRANCH  16  21
ENDBRANCH   1  11
BRANCH  10  23
ATOM     23  O   UNL     1      23.187  -8.030 -28.596  1.00  0.00    -0.500 OA
ATOM     24  H   UNL     1      23.338  -8.254 -29.573  1.00  0.00     0.294 HD
ENDBRANCH  10  23
BRANCH   5  25
ATOM     25  O   UNL     1      21.564  -0.924 -25.915  1.00  0.00    -0.507 OA
ATOM     26  H   UNL     1      20.709  -0.539 -26.303  1.00  0.00     0.293 HD
ENDBRANCH   5  25
BRANCH   7  27
ATOM     27  O   UNL     1      25.404  -3.710 -26.645  1.00  0.00    -0.507 OA
ATOM     28  H   UNL     1      25.968  -3.327 -25.900  1.00  0.00     0.293 HD
ENDBRANCH   7  27
TORSDOF 7
ENDMDL
MODEL 3
REMARK VINA RESULT:    -7.306      3.855      5.111
REMARK INTER + INTRA:          -9.344
REMARK INTER:                  -8.977
REMARK INTRA:                  -0.367
REMARK UNBOUND:                -0.329
REMARK SMILES Oc1cc(O)c2cc(O)c(-c3cc(O)c(O)c(O)c3)[o+]c2c1
REMARK SMILES IDX 10 1 20 2 21 3 22 4 2 5 3 6 4 7 6 8 7 9 8 10 11 11 12 12
REMARK SMILES IDX 13 13 19 14 15 15 17 16 14 17 16 19 18 21 9 23 1 25 5 27
REMARK H PARENT 14 18 16 20 18 22 9 24 1 26 5 28
REMARK Flexibility Score: inf
ROOT
ATOM      1  C   UNL     1      24.763  -3.617 -27.326  1.00  0.00     0.402 A 
ATOM      2  O   UNL     1      25.068  -4.533 -26.411  1.00  0.00    -0.202 OA
ATOM      3  C   UNL     1      25.000  -5.842 -26.637  1.00  0.00     0.368 A 
ATOM      4  C   UNL     1      25.345  -6.728 -25.613  1.00  0.00     0.162 A 
ATOM      5  C   UNL     1      25.284  -8.108 -25.825  1.00  0.00     0.128 A 
ATOM      6  C   UNL     1      24.879  -8.604 -27.066  1.00  0.00     0.093 A 
ATOM      7  C   UNL     1      24.528  -7.738 -28.108  1.00  0.00     0.136 A 
ATOM      8  C   UNL     1      24.585  -6.335 -27.898  1.00  0.00     0.125 A 
ATOM      9  C   UNL     1      24.239  -5.393 -28.880  1.00  0.00     0.078 A 
ATOM     10  C   UNL     1      24.316  -4.026 -28.597  1.00  0.00     0.223 A 
ENDROOT
BRANCH   1  11
ATOM     11  C   UNL     1      24.889  -2.189 -26.957  1.00  0.00     0.091 A 
ATOM     12  C   UNL     1      26.123  -1.524 -27.018  1.00  0.00     0.068 A 
ATOM     13  C   UNL     1      26.236  -0.180 -26.643  1.00  0.00     0.162 A 
ATOM     14  C   UNL     1      23.767  -1.499 -26.479  1.00  0.00     0.068 A 
ATOM     15  C   UNL     1      25.092   0.519 -26.187  1.00  0.00     0.200 A 
ATOM     16  C   UNL     1      23.860  -0.157 -26.104  1.00  0.00     0.162 A 
BRANCH  13  17
ATOM     17  O   UNL     1      27.498   0.413 -26.732  1.00  0.00    -0.504 OA
ATOM     18  H   UNL     1      27.825   0.932 -27.534  1.00  0.00     0.293 HD
ENDBRANCH  13  17
BRANCH  15  19
ATOM     19  O   UNL     1      25.141   1.864 -25.812  1.00  0.00    -0.502 OA
ATOM     20  H   UNL     1      25.625   2.581 -26.332  1.00  0.00     0.293 HD
ENDBRANCH  15  19
BRANCH  16  21
ATOM     21  O   UNL     1      22.712   0.494 -25.651  1.00  0.00    -0.504 OA
ATOM     22  H   UNL     1      21.812   0.382 -26.101  1.00  0.00     0.293 HD
ENDBRANCH  16  21
ENDBRANCH   1  11
BRANCH  10  23
ATOM     23  O   UNL     1      23.927  -3.089 -29.555  1.00  0.00    -0.500 OA
ATOM     24  H   UNL     1      23.402  -2.259 -29.305  1.00  0.00     0.294 HD
ENDBRANCH  10  23
BRANCH   5  25
ATOM     25  O   UNL     1      25.626  -8.997 -24.809  1.00  0.00    -0.507 OA
ATOM     26  H   UNL     1      25.909  -8.671 -23.891  1.00  0.00     0.293 HD
ENDBRANCH   5  25
BRANCH   7  27
ATOM     27  O   UNL     1      24.136  -8.313 -29.320  1.00  0.00    -0.507 OA
ATOM     28  H   UNL     1      23.814  -7.792 -30.123  1.00  0.00     0.293 HD
ENDBRANCH   7  27
TORSDOF 7
ENDMDL
MODEL 4
REMARK VINA RESULT:    -7.289      1.513      1.973
REMARK INTER + INTRA:          -9.323
REMARK INTER:                  -9.204
REMARK INTRA:                  -0.119
REMARK UNBOUND:                -0.329
REMARK SMILES Oc1cc(O)c2cc(O)c(-c3cc(O)c(O)c(O)c3)[o+]c2c1
REMARK SMILES IDX 10 1 20 2 21 3 22 4 2 5 3 6 4 7 6 8 7 9 8 10 11 11 12 12
REMARK SMILES IDX 13 13 19 14 15 15 17 16 14 17 16 19 18 21 9 23 1 25 5 27
REMARK H PARENT 14 18 16 20 18 22 9 24 1 26 5 28
REMARK Flexibility Score: inf
ROOT
ATOM      1  C   UNL     1      20.777  -6.366 -28.094  1.00  0.00     0.402 A 
ATOM      2  O   UNL     1      21.217  -6.916 -29.223  1.00  0.00    -0.202 OA
ATOM      3  C   UNL     1      20.559  -7.870 -29.875  1.00  0.00     0.368 A 
ATOM      4  C   UNL     1      21.101  -8.383 -31.056  1.00  0.00     0.162 A 
ATOM      5  C   UNL     1      20.428  -9.385 -31.763  1.00  0.00     0.128 A 
ATOM      6  C   UNL     1      19.209  -9.872 -31.287  1.00  0.00     0.093 A 
ATOM      7  C   UNL     1      18.645  -9.374 -30.106  1.00  0.00     0.136 A 
ATOM      8  C   UNL     1      19.325  -8.360 -29.383  1.00  0.00     0.125 A 
ATOM      9  C   UNL     1      18.842  -7.811 -28.184  1.00  0.00     0.078 A 
ATOM     10  C   UNL     1      19.570  -6.816 -27.526  1.00  0.00     0.223 A 
ENDROOT
BRANCH   1  11
ATOM     11  C   UNL     1      21.596  -5.304 -27.467  1.00  0.00     0.091 A 
ATOM     12  C   UNL     1      21.041  -4.064 -27.114  1.00  0.00     0.068 A 
ATOM     13  C   UNL     1      21.829  -3.058 -26.543  1.00  0.00     0.162 A 
ATOM     14  C   UNL     1      22.967  -5.516 -27.272  1.00  0.00     0.068 A 
ATOM     15  C   UNL     1      23.209  -3.289 -26.325  1.00  0.00     0.200 A 
ATOM     16  C   UNL     1      23.769  -4.524 -26.701  1.00  0.00     0.162 A 
BRANCH  13  17
ATOM     17  O   UNL     1      21.205  -1.852 -26.219  1.00  0.00    -0.504 OA
ATOM     18  H   UNL     1      21.070  -1.090 -26.868  1.00  0.00     0.293 HD
ENDBRANCH  13  17
BRANCH  15  19
ATOM     19  O   UNL     1      24.043  -2.329 -25.747  1.00  0.00    -0.502 OA
ATOM     20  H   UNL     1      23.812  -1.349 -25.670  1.00  0.00     0.293 HD
ENDBRANCH  15  19
BRANCH  16  21
ATOM     21  O   UNL     1      25.126  -4.787 -26.511  1.00  0.00    -0.504 OA
ATOM     22  H   UNL     1      25.676  -5.312 -27.180  1.00  0.00     0.293 HD
ENDBRANCH  16  21
ENDBRANCH   1  11
BRANCH  10  23
ATOM     23  O   UNL     1      19.117  -6.305 -26.310  1.00  0.00    -0.500 OA
ATOM     24  H   UNL     1      19.757  -5.954 -25.607  1.00  0.00     0.294 HD
ENDBRANCH  10  23
BRANCH   5  25
ATOM     25  O   UNL     1      20.962  -9.902 -32.941  1.00  0.00    -0.507 OA
ATOM     26  H   UNL     1      21.248  -9.298 -33.704  1.00  0.00     0.293 HD
ENDBRANCH   5  25
BRANCH   7  27
ATOM     27  O   UNL     1      17.422  -9.913 -29.700  1.00  0.00    -0.507 OA
ATOM     28  H   UNL     1      16.530  -9.684 -30.116  1.00  0.00     0.293 HD
ENDBRANCH   7  27
TORSDOF 7
ENDMDL
MODEL 5
REMARK VINA RESULT:    -7.217      2.134      4.073
REMARK INTER + INTRA:          -9.234
REMARK INTER:                  -9.342
REMARK INTRA:                   0.108
REMARK UNBOUND:                -0.329
REMARK SMILES Oc1cc(O)c2cc(O)c(-c3cc(O)c(O)c(O)c3)[o+]c2c1
REMARK SMILES IDX 10 1 20 2 21 3 22 4 2 5 3 6 4 7 6 8 7 9 8 10 11 11 12 12
REMARK SMILES IDX 13 13 19 14 15 15 17 16 14 17 16 19 18 21 9 23 1 25 5 27
REMARK H PARENT 14 18 16 20 18 22 9 24 1 26 5 28
REMARK Flexibility Score: inf
ROOT
ATOM      1  C   UNL     1      24.234  -3.517 -27.166  1.00  0.00     0.402 A 
ATOM      2  O   UNL     1      23.086  -3.858 -27.746  1.00  0.00    -0.202 OA
ATOM      3  C   UNL     1      22.772  -5.111 -28.061  1.00  0.00     0.368 A 
ATOM      4  C   UNL     1      21.538  -5.371 -28.665  1.00  0.00     0.162 A 
ATOM      5  C   UNL     1      21.182  -6.680 -29.005  1.00  0.00     0.128 A 
ATOM      6  C   UNL     1      22.061  -7.731 -28.737  1.00  0.00     0.093 A 
ATOM      7  C   UNL     1      23.302  -7.497 -28.133  1.00  0.00     0.136 A 
ATOM      8  C   UNL     1      23.670  -6.171 -27.788  1.00  0.00     0.125 A 
ATOM      9  C   UNL     1      24.898  -5.841 -27.193  1.00  0.00     0.078 A 
ATOM     10  C   UNL     1      25.193  -4.509 -26.886  1.00  0.00     0.223 A 
ENDROOT
BRANCH   1  11
ATOM     11  C   UNL     1      24.464  -2.088 -26.855  1.00  0.00     0.091 A 
ATOM     12  C   UNL     1      25.728  -1.499 -27.016  1.00  0.00     0.068 A 
ATOM     13  C   UNL     1      25.941  -0.153 -26.696  1.00  0.00     0.162 A 
ATOM     14  C   UNL     1      23.416  -1.319 -26.334  1.00  0.00     0.068 A 
ATOM     15  C   UNL     1      24.870   0.626 -26.196  1.00  0.00     0.200 A 
ATOM     16  C   UNL     1      23.609   0.027 -26.013  1.00  0.00     0.162 A 
BRANCH  13  17
ATOM     17  O   UNL     1      27.226   0.362 -26.884  1.00  0.00    -0.504 OA
ATOM     18  H   UNL     1      27.675   1.009 -26.252  1.00  0.00     0.293 HD
ENDBRANCH  13  17
BRANCH  15  19
ATOM     19  O   UNL     1      25.018   1.977 -25.872  1.00  0.00    -0.502 OA
ATOM     20  H   UNL     1      24.442   2.467 -25.204  1.00  0.00     0.293 HD
ENDBRANCH  15  19
BRANCH  16  21
ATOM     21  O   UNL     1      22.531   0.759 -25.513  1.00  0.00    -0.504 OA
ATOM     22  H   UNL     1      21.570   0.474 -25.656  1.00  0.00     0.293 HD
ENDBRANCH  16  21
ENDBRANCH   1  11
BRANCH  10  23
ATOM     23  O   UNL     1      26.432  -4.174 -26.339  1.00  0.00    -0.500 OA
ATOM     24  H   UNL     1      26.511  -3.567 -25.532  1.00  0.00     0.294 HD
ENDBRANCH  10  23
BRANCH   5  25
ATOM     25  O   UNL     1      19.955  -6.946 -29.607  1.00  0.00    -0.507 OA
ATOM     26  H   UNL     1      19.104  -6.482 -29.307  1.00  0.00     0.293 HD
ENDBRANCH   5  25
BRANCH   7  27
ATOM     27  O   UNL     1      24.122  -8.604 -27.897  1.00  0.00    -0.507 OA
ATOM     28  H   UNL     1      24.688  -8.730 -27.070  1.00  0.00     0.293 HD
ENDBRANCH   7  27
TORSDOF 7
ENDMDL
MODEL 6
REMARK VINA RESULT:    -7.173      3.562      7.515
REMARK INTER + INTRA:          -9.180
REMARK INTER:                  -8.800
REMARK INTRA:                  -0.380
REMARK UNBOUND:                -0.329
REMARK SMILES Oc1cc(O)c2cc(O)c(-c3cc(O)c(O)c(O)c3)[o+]c2c1
REMARK SMILES IDX 10 1 20 2 21 3 22 4 2 5 3 6 4 7 6 8 7 9 8 10 11 11 12 12
REMARK SMILES IDX 13 13 19 14 15 15 17 16 14 17 16 19 18 21 9 23 1 25 5 27
REMARK H PARENT 14 18 16 20 18 22 9 24 1 26 5 28
REMARK Flexibility Score: inf
ROOT
ATOM      1  C   UNL     1      24.571  -4.189 -26.700  1.00  0.00     0.402 A 
ATOM      2  O   UNL     1      25.648  -3.434 -26.899  1.00  0.00    -0.202 OA
ATOM      3  C   UNL     1      25.646  -2.111 -26.769  1.00  0.00     0.368 A 
ATOM      4  C   UNL     1      26.830  -1.403 -26.995  1.00  0.00     0.162 A 
ATOM      5  C   UNL     1      26.856  -0.012 -26.863  1.00  0.00     0.128 A 
ATOM      6  C   UNL     1      25.694   0.674 -26.502  1.00  0.00     0.093 A 
ATOM      7  C   UNL     1      24.495  -0.011 -26.271  1.00  0.00     0.136 A 
ATOM      8  C   UNL     1      24.462  -1.424 -26.406  1.00  0.00     0.125 A 
ATOM      9  C   UNL     1      23.304  -2.192 -26.207  1.00  0.00     0.078 A 
ATOM     10  C   UNL     1      23.348  -3.580 -26.362  1.00  0.00     0.223 A 
ENDROOT
BRANCH   1  11
ATOM     11  C   UNL     1      24.703  -5.654 -26.866  1.00  0.00     0.091 A 
ATOM     12  C   UNL     1      25.113  -6.476 -25.804  1.00  0.00     0.068 A 
ATOM     13  C   UNL     1      25.258  -7.857 -25.978  1.00  0.00     0.162 A 
ATOM     14  C   UNL     1      24.471  -6.230 -28.122  1.00  0.00     0.068 A 
ATOM     15  C   UNL     1      24.995  -8.436 -27.243  1.00  0.00     0.200 A 
ATOM     16  C   UNL     1      24.607  -7.607 -28.313  1.00  0.00     0.162 A 
BRANCH  13  17
ATOM     17  O   UNL     1      25.669  -8.609 -24.875  1.00  0.00    -0.504 OA
ATOM     18  H   UNL     1      25.664  -9.618 -24.842  1.00  0.00     0.293 HD
ENDBRANCH  13  17
BRANCH  15  19
ATOM     19  O   UNL     1      25.110  -9.809 -27.473  1.00  0.00    -0.502 OA
ATOM     20  H   UNL     1      25.760 -10.224 -28.125  1.00  0.00     0.293 HD
ENDBRANCH  15  19
BRANCH  16  21
ATOM     21  O   UNL     1      24.349  -8.138 -29.577  1.00  0.00    -0.504 OA
ATOM     22  H   UNL     1      25.087  -8.339 -30.241  1.00  0.00     0.293 HD
ENDBRANCH  16  21
ENDBRANCH   1  11
BRANCH  10  23
ATOM     23  O   UNL     1      22.187  -4.339 -26.213  1.00  0.00    -0.500 OA
ATOM     24  H   UNL     1      22.212  -5.284 -25.848  1.00  0.00     0.294 HD
ENDBRANCH  10  23
BRANCH   5  25
ATOM     25  O   UNL     1      28.032   0.700 -27.086  1.00  0.00    -0.507 OA
ATOM     26  H   UNL     1      28.577   1.078 -26.319  1.00  0.00     0.293 HD
ENDBRANCH   5  25
BRANCH   7  27
ATOM     27  O   UNL     1      23.379   0.748 -25.912  1.00  0.00    -0.507 OA
ATOM     28  H   UNL     1      23.195   1.089 -24.979  1.00  0.00     0.293 HD
ENDBRANCH   7  27
TORSDOF 7
ENDMDL
MODEL 7
REMARK VINA RESULT:    -7.113      3.864      4.930
REMARK INTER + INTRA:          -9.106
REMARK INTER:                  -8.732
REMARK INTRA:                  -0.374
REMARK UNBOUND:                -0.329
REMARK SMILES Oc1cc(O)c2cc(O)c(-c3cc(O)c(O)c(O)c3)[o+]c2c1
REMARK SMILES IDX 10 1 20 2 21 3 22 4 2 5 3 6 4 7 6 8 7 9 8 10 11 11 12 12
REMARK SMILES IDX 13 13 19 14 15 15 17 16 14 17 16 19 18 21 9 23 1 25 5 27
REMARK H PARENT 14 18 16 20 18 22 9 24 1 26 5 28
REMARK Flexibility Score: inf
ROOT
ATOM      1  C   UNL     1      24.662  -3.612 -27.294  1.00  0.00     0.402 A 
ATOM      2  O   UNL     1      24.970  -4.534 -26.385  1.00  0.00    -0.202 OA
ATOM      3  C   UNL     1      24.942  -5.840 -26.633  1.00  0.00     0.368 A 
ATOM      4  C   UNL     1      25.287  -6.733 -25.614  1.00  0.00     0.162 A 
ATOM      5  C   UNL     1      25.268  -8.111 -25.848  1.00  0.00     0.128 A 
ATOM      6  C   UNL     1      24.906  -8.597 -27.106  1.00  0.00     0.093 A 
ATOM      7  C   UNL     1      24.557  -7.724 -28.144  1.00  0.00     0.136 A 
ATOM      8  C   UNL     1      24.571  -6.324 -27.911  1.00  0.00     0.125 A 
ATOM      9  C   UNL     1      24.223  -5.376 -28.886  1.00  0.00     0.078 A 
ATOM     10  C   UNL     1      24.257  -4.012 -28.581  1.00  0.00     0.223 A 
ENDROOT
BRANCH   1  11
ATOM     11  C   UNL     1      24.740  -2.187 -26.899  1.00  0.00     0.091 A 
ATOM     12  C   UNL     1      23.613  -1.496 -26.426  1.00  0.00     0.068 A 
ATOM     13  C   UNL     1      23.692  -0.143 -26.079  1.00  0.00     0.162 A 
ATOM     14  C   UNL     1      25.948  -1.494 -27.054  1.00  0.00     0.068 A 
ATOM     15  C   UNL     1      24.923   0.544 -26.212  1.00  0.00     0.200 A 
ATOM     16  C   UNL     1      26.046  -0.144 -26.709  1.00  0.00     0.162 A 
BRANCH  13  17
ATOM     17  O   UNL     1      22.528   0.476 -25.616  1.00  0.00    -0.504 OA
ATOM     18  H   UNL     1      22.413   1.476 -25.532  1.00  0.00     0.293 HD
ENDBRANCH  13  17
BRANCH  15  19
ATOM     19  O   UNL     1      25.066   1.891 -25.869  1.00  0.00    -0.502 OA
ATOM     20  H   UNL     1      25.498   2.217 -25.017  1.00  0.00     0.293 HD
ENDBRANCH  15  19
BRANCH  16  21
ATOM     21  O   UNL     1      27.274   0.500 -26.864  1.00  0.00    -0.504 OA
ATOM     22  H   UNL     1      27.708   1.026 -26.115  1.00  0.00     0.293 HD
ENDBRANCH  16  21
ENDBRANCH   1  11
BRANCH  10  23
ATOM     23  O   UNL     1      23.865  -3.071 -29.533  1.00  0.00    -0.500 OA
ATOM     24  H   UNL     1      23.519  -2.157 -29.268  1.00  0.00     0.294 HD
ENDBRANCH  10  23
BRANCH   5  25
ATOM     25  O   UNL     1      25.610  -9.006 -24.838  1.00  0.00    -0.507 OA
ATOM     26  H   UNL     1      25.742  -9.994 -25.027  1.00  0.00     0.293 HD
ENDBRANCH   5  25
BRANCH   7  27
ATOM     27  O   UNL     1      24.209  -8.291 -29.372  1.00  0.00    -0.507 OA
ATOM     28  H   UNL     1      24.555  -9.178 -29.711  1.00  0.00     0.293 HD
ENDBRANCH   7  27
TORSDOF 7
ENDMDL
MODEL 8
REMARK VINA RESULT:    -6.947      2.246      3.529
REMARK INTER + INTRA:          -8.900
REMARK INTER:                  -8.663
REMARK INTRA:                  -0.237
REMARK UNBOUND:                -0.329
REMARK SMILES Oc1cc(O)c2cc(O)c(-c3cc(O)c(O)c(O)c3)[o+]c2c1
REMARK SMILES IDX 10 1 20 2 21 3 22 4 2 5 3 6 4 7 6 8 7 9 8 10 11 11 12 12
REMARK SMILES IDX 13 13 19 14 15 15 17 16 14 17 16 19 18 21 9 23 1 25 5 27
REMARK H PARENT 14 18 16 20 18 22 9 24 1 26 5 28
REMARK Flexibility Score: inf
ROOT
ATOM      1  C   UNL     1      22.690  -2.458 -27.384  1.00  0.00     0.402 A 
ATOM      2  O   UNL     1      23.020  -3.536 -28.091  1.00  0.00    -0.202 OA
ATOM      3  C   UNL     1      22.322  -4.667 -28.066  1.00  0.00     0.368 A 
ATOM      4  C   UNL     1      22.746  -5.746 -28.847  1.00  0.00     0.162 A 
ATOM      5  C   UNL     1      22.029  -6.946 -28.841  1.00  0.00     0.128 A 
ATOM      6  C   UNL     1      20.883  -7.067 -28.052  1.00  0.00     0.093 A 
ATOM      7  C   UNL     1      20.437  -6.001 -27.261  1.00  0.00     0.136 A 
ATOM      8  C   UNL     1      21.162  -4.782 -27.261  1.00  0.00     0.125 A 
ATOM      9  C   UNL     1      20.797  -3.666 -26.490  1.00  0.00     0.078 A 
ATOM     10  C   UNL     1      21.565  -2.499 -26.539  1.00  0.00     0.223 A 
ENDROOT
BRANCH   1  11
ATOM     11  C   UNL     1      23.542  -1.254 -27.505  1.00  0.00     0.091 A 
ATOM     12  C   UNL     1      24.299  -0.782 -26.420  1.00  0.00     0.068 A 
ATOM     13  C   UNL     1      25.082   0.371 -26.537  1.00  0.00     0.162 A 
ATOM     14  C   UNL     1      23.553  -0.534 -28.707  1.00  0.00     0.068 A 
ATOM     15  C   UNL     1      25.110   1.079 -27.763  1.00  0.00     0.200 A 
ATOM     16  C   UNL     1      24.333   0.617 -28.842  1.00  0.00     0.162 A 
BRANCH  13  17
ATOM     17  O   UNL     1      25.807   0.779 -25.414  1.00  0.00    -0.504 OA
ATOM     18  H   UNL     1      25.393   0.999 -24.521  1.00  0.00     0.293 HD
ENDBRANCH  13  17
BRANCH  15  19
ATOM     19  O   UNL     1      25.884   2.228 -27.944  1.00  0.00    -0.502 OA
ATOM     20  H   UNL     1      26.183   2.835 -27.194  1.00  0.00     0.293 HD
ENDBRANCH  15  19
BRANCH  16  21
ATOM     21  O   UNL     1      24.325   1.292 -30.064  1.00  0.00    -0.504 OA
ATOM     22  H   UNL     1      23.613   1.972 -30.303  1.00  0.00     0.293 HD
ENDBRANCH  16  21
ENDBRANCH   1  11
BRANCH  10  23
ATOM     23  O   UNL     1      21.232  -1.408 -25.737  1.00  0.00    -0.500 OA
ATOM     24  H   UNL     1      20.611  -1.501 -24.941  1.00  0.00     0.294 HD
ENDBRANCH  10  23
BRANCH   5  25
ATOM     25  O   UNL     1      22.445  -8.025 -29.617  1.00  0.00    -0.507 OA
ATOM     26  H   UNL     1      22.871  -7.891 -30.528  1.00  0.00     0.293 HD
ENDBRANCH   5  25
BRANCH   7  27
ATOM     27  O   UNL     1      19.280  -6.202 -26.503  1.00  0.00    -0.507 OA
ATOM     28  H   UNL     1      18.800  -7.087 -26.418  1.00  0.00     0.293 HD
ENDBRANCH   7  27
TORSDOF 7
ENDMDL
MODEL 9
REMARK VINA RESULT:    -6.939      5.020     10.316
REMARK INTER + INTRA:          -8.891
REMARK INTER:                  -8.947
REMARK INTRA:                   0.056
REMARK UNBOUND:                -0.329
REMARK SMILES Oc1cc(O)c2cc(O)c(-c3cc(O)c(O)c(O)c3)[o+]c2c1
REMARK SMILES IDX 10 1 20 2 21 3 22 4 2 5 3 6 4 7 6 8 7 9 8 10 11 11 12 12
REMARK SMILES IDX 13 13 19 14 15 15 17 16 14 17 16 19 18 21 9 23 1 25 5 27
REMARK H PARENT 14 18 16 20 18 22 9 24 1 26 5 28
REMARK Flexibility Score: inf
ROOT
ATOM      1  C   UNL     1      24.497   1.531 -27.464  1.00  0.00     0.402 A 
ATOM      2  O   UNL     1      24.070   2.548 -26.721  1.00  0.00    -0.202 OA
ATOM      3  C   UNL     1      24.336   3.820 -27.001  1.00  0.00     0.368 A 
ATOM      4  C   UNL     1      23.838   4.820 -26.162  1.00  0.00     0.162 A 
ATOM      5  C   UNL     1      24.101   6.166 -26.435  1.00  0.00     0.128 A 
ATOM      6  C   UNL     1      24.862   6.512 -27.553  1.00  0.00     0.093 A 
ATOM      7  C   UNL     1      25.372   5.529 -28.410  1.00  0.00     0.136 A 
ATOM      8  C   UNL     1      25.111   4.161 -28.136  1.00  0.00     0.125 A 
ATOM      9  C   UNL     1      25.592   3.109 -28.932  1.00  0.00     0.078 A 
ATOM     10  C   UNL     1      25.296   1.785 -28.595  1.00  0.00     0.223 A 
ENDROOT
BRANCH   1  11
ATOM     11  C   UNL     1      24.126   0.158 -27.053  1.00  0.00     0.091 A 
ATOM     12  C   UNL     1      25.057  -0.893 -27.088  1.00  0.00     0.068 A 
ATOM     13  C   UNL     1      24.690  -2.192 -26.720  1.00  0.00     0.162 A 
ATOM     14  C   UNL     1      22.805  -0.115 -26.676  1.00  0.00     0.068 A 
ATOM     15  C   UNL     1      23.359  -2.455 -26.313  1.00  0.00     0.200 A 
ATOM     16  C   UNL     1      22.422  -1.406 -26.301  1.00  0.00     0.162 A 
BRANCH  13  17
ATOM     17  O   UNL     1      25.671  -3.184 -26.780  1.00  0.00    -0.504 OA
ATOM     18  H   UNL     1      25.676  -3.937 -27.453  1.00  0.00     0.293 HD
ENDBRANCH  13  17
BRANCH  15  19
ATOM     19  O   UNL     1      22.938  -3.729 -25.922  1.00  0.00    -0.502 OA
ATOM     20  H   UNL     1      22.572  -3.950 -25.008  1.00  0.00     0.293 HD
ENDBRANCH  15  19
BRANCH  16  21
ATOM     21  O   UNL     1      21.099  -1.627 -25.917  1.00  0.00    -0.504 OA
ATOM     22  H   UNL     1      20.421  -2.059 -26.533  1.00  0.00     0.293 HD
ENDBRANCH  16  21
ENDBRANCH   1  11
BRANCH  10  23
ATOM     23  O   UNL     1      25.814   0.736 -29.356  1.00  0.00    -0.500 OA
ATOM     24  H   UNL     1      25.446  -0.205 -29.286  1.00  0.00     0.294 HD
ENDBRANCH  10  23
BRANCH   5  25
ATOM     25  O   UNL     1      23.609   7.168 -25.602  1.00  0.00    -0.507 OA
ATOM     26  H   UNL     1      23.687   7.105 -24.593  1.00  0.00     0.293 HD
ENDBRANCH   5  25
BRANCH   7  27
ATOM     27  O   UNL     1      26.122   5.959 -29.509  1.00  0.00    -0.507 OA
ATOM     28  H   UNL     1      26.085   6.891 -29.896  1.00  0.00     0.293 HD
ENDBRANCH   7  27
TORSDOF 7
ENDMDL
