MODEL 1
REMARK VINA RESULT:    -5.055      0.000      0.000
REMARK INTER + INTRA:         -12.107
REMARK INTER:                  -9.783
REMARK INTRA:                  -2.324
REMARK UNBOUND:                -2.324
REMARK SMILES CCCCCCCCCCCCCCCCCC(=O)[O-]
REMARK SMILES IDX 10 1 11 2 12 3 13 4 14 5 15 6 16 7 17 8 18 9 19 10 20 11
REMARK SMILES IDX 9 12 8 13 7 14 6 15 5 16 4 17 3 18 2 19 1 20
REMARK H PARENT
REMARK Flexibility Score: inf
ROOT
ATOM      1  C   UNL     1      15.968  11.433  33.706  1.00  0.00     0.000 C 
ENDROOT
BRANCH   1   2
ATOM      2  C   UNL     1      16.573  11.509  35.119  1.00  0.00     0.000 C 
BRANCH   2   3
ATOM      3  C   UNL     1      16.802  12.956  35.583  1.00  0.00     0.000 C 
BRANCH   3   4
ATOM      4  C   UNL     1      16.743  13.966  34.427  1.00  0.00     0.000 C 
BRANCH   4   5
ATOM      5  C   UNL     1      18.034  14.791  34.352  1.00  0.00     0.000 C 
BRANCH   5   6
ATOM      6  C   UNL     1      18.991  14.422  35.495  1.00  0.00     0.000 C 
BRANCH   6   7
ATOM      7  C   UNL     1      20.423  14.139  35.006  1.00  0.00     0.006 C 
BRANCH   7   8
ATOM      8  C   UNL     1      20.509  13.144  33.838  1.00  0.00     0.053 C 
BRANCH   8   9
ATOM      9  C   UNL     1      21.233  13.722  32.662  1.00  0.00     0.041 C 
ATOM     10  O   UNL     1      20.795  14.756  32.093  1.00  0.00    -0.550 OA
ATOM     11  O   UNL     1      22.410  13.135  32.213  1.00  0.00    -0.550 OA
ENDBRANCH   8   9
ENDBRANCH   7   8
ENDBRANCH   6   7
ENDBRANCH   5   6
ENDBRANCH   4   5
ENDBRANCH   3   4
ENDBRANCH   2   3
ENDBRANCH   1   2
BRANCH   1  12
ATOM     12  C   UNL     1      14.668  10.611  33.653  1.00  0.00     0.000 C 
BRANCH  12  13
ATOM     13  C   UNL     1      13.424  11.378  33.166  1.00  0.00    -0.000 C 
BRANCH  13  14
ATOM     14  C   UNL     1      13.536  12.898  33.375  1.00  0.00    -0.000 C 
BRANCH  14  15
ATOM     15  C   UNL     1      12.498  13.433  34.376  1.00  0.00    -0.000 C 
BRANCH  15  16
ATOM     16  C   UNL     1      13.149  14.034  35.635  1.00  0.00    -0.000 C 
BRANCH  16  17
ATOM     17  C   UNL     1      13.385  12.989  36.739  1.00  0.00    -0.000 C 
BRANCH  17  18
ATOM     18  C   UNL     1      12.296  11.904  36.852  1.00  0.00    -0.000 C 
BRANCH  18  19
ATOM     19  C   UNL     1      11.589  11.870  38.223  1.00  0.00    -0.003 C 
ATOM     20  C   UNL     1      10.285  12.666  38.228  1.00  0.00     0.004 C 
ENDBRANCH  18  19
ENDBRANCH  17  18
ENDBRANCH  16  17
ENDBRANCH  15  16
ENDBRANCH  14  15
ENDBRANCH  13  14
ENDBRANCH  12  13
ENDBRANCH   1  12
TORSDOF 16
ENDMDL
MODEL 2
REMARK VINA RESULT:    -4.974      3.935      8.048
REMARK INTER + INTRA:         -11.951
REMARK INTER:                  -9.986
REMARK INTRA:                  -1.965
REMARK UNBOUND:                -2.324
REMARK SMILES CCCCCCCCCCCCCCCCCC(=O)[O-]
REMARK SMILES IDX 10 1 11 2 12 3 13 4 14 5 15 6 16 7 17 8 18 9 19 10 20 11
REMARK SMILES IDX 9 12 8 13 7 14 6 15 5 16 4 17 3 18 2 19 1 20
REMARK H PARENT
REMARK Flexibility Score: inf
ROOT
ATOM      1  C   UNL     1      15.583  11.050  34.045  1.00  0.00     0.000 C 
ENDROOT
BRANCH   1   2
ATOM      2  C   UNL     1      14.590  10.820  32.892  1.00  0.00     0.000 C 
BRANCH   2   3
ATOM      3  C   UNL     1      13.232  11.497  33.142  1.00  0.00     0.000 C 
BRANCH   3   4
ATOM      4  C   UNL     1      13.356  13.016  33.340  1.00  0.00     0.000 C 
BRANCH   4   5
ATOM      5  C   UNL     1      12.510  13.486  34.530  1.00  0.00     0.000 C 
BRANCH   5   6
ATOM      6  C   UNL     1      13.401  13.890  35.714  1.00  0.00     0.000 C 
BRANCH   6   7
ATOM      7  C   UNL     1      13.619  12.741  36.716  1.00  0.00     0.006 C 
BRANCH   7   8
ATOM      8  C   UNL     1      12.460  11.734  36.785  1.00  0.00     0.053 C 
BRANCH   8   9
ATOM      9  C   UNL     1      11.658  11.888  38.040  1.00  0.00     0.041 C 
ATOM     10  O   UNL     1      11.997  11.278  39.088  1.00  0.00    -0.550 OA
ATOM     11  O   UNL     1      10.553  12.731  38.060  1.00  0.00    -0.550 OA
ENDBRANCH   8   9
ENDBRANCH   7   8
ENDBRANCH   6   7
ENDBRANCH   5   6
ENDBRANCH   4   5
ENDBRANCH   3   4
ENDBRANCH   2   3
ENDBRANCH   1   2
BRANCH   1  12
ATOM     12  C   UNL     1      16.814  11.871  33.621  1.00  0.00     0.000 C 
BRANCH  12  13
ATOM     13  C   UNL     1      16.839  13.326  34.125  1.00  0.00    -0.000 C 
BRANCH  13  14
ATOM     14  C   UNL     1      17.409  13.458  35.548  1.00  0.00    -0.000 C 
BRANCH  14  15
ATOM     15  C   UNL     1      18.571  14.463  35.627  1.00  0.00    -0.000 C 
BRANCH  15  16
ATOM     16  C   UNL     1      19.891  13.879  35.094  1.00  0.00    -0.000 C 
BRANCH  16  17
ATOM     17  C   UNL     1      20.320  14.502  33.755  1.00  0.00    -0.000 C 
BRANCH  17  18
ATOM     18  C   UNL     1      20.562  13.494  32.615  1.00  0.00    -0.000 C 
BRANCH  18  19
ATOM     19  C   UNL     1      21.759  13.853  31.709  1.00  0.00    -0.003 C 
ATOM     20  C   UNL     1      23.047  14.073  32.501  1.00  0.00     0.004 C 
ENDBRANCH  18  19
ENDBRANCH  17  18
ENDBRANCH  16  17
ENDBRANCH  15  16
ENDBRANCH  14  15
ENDBRANCH  13  14
ENDBRANCH  12  13
ENDBRANCH   1  12
TORSDOF 16
ENDMDL
MODEL 3
REMARK VINA RESULT:    -4.973      3.997      7.665
REMARK INTER + INTRA:         -11.948
REMARK INTER:                  -9.430
REMARK INTRA:                  -2.519
REMARK UNBOUND:                -2.324
REMARK SMILES CCCCCCCCCCCCCCCCCC(=O)[O-]
REMARK SMILES IDX 10 1 11 2 12 3 13 4 14 5 15 6 16 7 17 8 18 9 19 10 20 11
REMARK SMILES IDX 9 12 8 13 7 14 6 15 5 16 4 17 3 18 2 19 1 20
REMARK H PARENT
REMARK Flexibility Score: inf
ROOT
ATOM      1  C   UNL     1      16.228  11.501  36.229  1.00  0.00     0.000 C 
ENDROOT
BRANCH   1   2
ATOM      2  C   UNL     1      15.524  10.762  35.078  1.00  0.00     0.000 C 
BRANCH   2   3
ATOM      3  C   UNL     1      15.454  11.605  33.794  1.00  0.00     0.000 C 
BRANCH   3   4
ATOM      4  C   UNL     1      15.105  13.076  34.070  1.00  0.00     0.000 C 
BRANCH   4   5
ATOM      5  C   UNL     1      13.586  13.283  34.104  1.00  0.00     0.000 C 
BRANCH   5   6
ATOM      6  C   UNL     1      13.177  14.161  35.296  1.00  0.00     0.000 C 
BRANCH   6   7
ATOM      7  C   UNL     1      13.106  13.375  36.618  1.00  0.00     0.006 C 
BRANCH   7   8
ATOM      8  C   UNL     1      12.049  12.259  36.635  1.00  0.00     0.053 C 
BRANCH   8   9
ATOM      9  C   UNL     1      11.442  12.082  37.993  1.00  0.00     0.041 C 
ATOM     10  O   UNL     1      12.039  11.403  38.869  1.00  0.00    -0.550 OA
ATOM     11  O   UNL     1      10.232  12.693  38.299  1.00  0.00    -0.550 OA
ENDBRANCH   8   9
ENDBRANCH   7   8
ENDBRANCH   6   7
ENDBRANCH   5   6
ENDBRANCH   4   5
ENDBRANCH   3   4
ENDBRANCH   2   3
ENDBRANCH   1   2
BRANCH   1  12
ATOM     12  C   UNL     1      17.705  11.098  36.387  1.00  0.00     0.000 C 
BRANCH  12  13
ATOM     13  C   UNL     1      18.684  12.264  36.621  1.00  0.00    -0.000 C 
BRANCH  13  14
ATOM     14  C   UNL     1      18.001  13.641  36.563  1.00  0.00    -0.000 C 
BRANCH  14  15
ATOM     15  C   UNL     1      18.375  14.432  35.299  1.00  0.00    -0.000 C 
BRANCH  15  16
ATOM     16  C   UNL     1      19.885  14.384  35.000  1.00  0.00    -0.000 C 
BRANCH  16  17
ATOM     17  C   UNL     1      20.196  13.821  33.603  1.00  0.00    -0.000 C 
BRANCH  17  18
ATOM     18  C   UNL     1      21.026  12.522  33.594  1.00  0.00    -0.000 C 
BRANCH  18  19
ATOM     19  C   UNL     1      20.177  11.240  33.464  1.00  0.00    -0.003 C 
ATOM     20  C   UNL     1      18.884  11.472  32.684  1.00  0.00     0.004 C 
ENDBRANCH  18  19
ENDBRANCH  17  18
ENDBRANCH  16  17
ENDBRANCH  15  16
ENDBRANCH  14  15
ENDBRANCH  13  14
ENDBRANCH  12  13
ENDBRANCH   1  12
TORSDOF 16
ENDMDL
MODEL 4
REMARK VINA RESULT:    -4.925      1.552      3.317
REMARK INTER + INTRA:         -11.856
REMARK INTER:                  -8.936
REMARK INTRA:                  -2.919
REMARK UNBOUND:                -2.324
REMARK SMILES CCCCCCCCCCCCCCCCCC(=O)[O-]
REMARK SMILES IDX 10 1 11 2 12 3 13 4 14 5 15 6 16 7 17 8 18 9 19 10 20 11
REMARK SMILES IDX 9 12 8 13 7 14 6 15 5 16 4 17 3 18 2 19 1 20
REMARK H PARENT
REMARK Flexibility Score: inf
ROOT
ATOM      1  C   UNL     1      17.175  11.708  34.941  1.00  0.00     0.000 C 
ENDROOT
BRANCH   1   2
ATOM      2  C   UNL     1      17.347  11.919  33.427  1.00  0.00     0.000 C 
BRANCH   2   3
ATOM      3  C   UNL     1      18.799  11.714  32.966  1.00  0.00     0.000 C 
BRANCH   3   4
ATOM      4  C   UNL     1      19.762  11.461  34.136  1.00  0.00     0.000 C 
BRANCH   4   5
ATOM      5  C   UNL     1      20.683  12.665  34.361  1.00  0.00     0.000 C 
BRANCH   5   6
ATOM      6  C   UNL     1      20.343  13.382  35.676  1.00  0.00     0.000 C 
BRANCH   6   7
ATOM      7  C   UNL     1      20.038  14.878  35.478  1.00  0.00     0.006 C 
BRANCH   7   8
ATOM      8  C   UNL     1      19.018  15.175  34.368  1.00  0.00     0.053 C 
BRANCH   8   9
ATOM      9  C   UNL     1      19.562  16.125  33.346  1.00  0.00     0.041 C 
ATOM     10  O   UNL     1      19.396  17.365  33.482  1.00  0.00    -0.550 OA
ATOM     11  O   UNL     1      20.281  15.642  32.259  1.00  0.00    -0.550 OA
ENDBRANCH   8   9
ENDBRANCH   7   8
ENDBRANCH   6   7
ENDBRANCH   5   6
ENDBRANCH   4   5
ENDBRANCH   3   4
ENDBRANCH   2   3
ENDBRANCH   1   2
BRANCH   1  12
ATOM     12  C   UNL     1      16.413  12.857  35.625  1.00  0.00     0.000 C 
BRANCH  12  13
ATOM     13  C   UNL     1      15.483  13.669  34.705  1.00  0.00    -0.000 C 
BRANCH  13  14
ATOM     14  C   UNL     1      14.042  13.759  35.237  1.00  0.00    -0.000 C 
BRANCH  14  15
ATOM     15  C   UNL     1      13.871  13.060  36.596  1.00  0.00    -0.000 C 
BRANCH  15  16
ATOM     16  C   UNL     1      12.789  11.965  36.563  1.00  0.00    -0.000 C 
BRANCH  16  17
ATOM     17  C   UNL     1      12.712  11.246  35.206  1.00  0.00    -0.000 C 
BRANCH  17  18
ATOM     18  C   UNL     1      13.733  10.109  35.012  1.00  0.00    -0.000 C 
BRANCH  18  19
ATOM     19  C   UNL     1      14.228   9.956  33.558  1.00  0.00    -0.003 C 
ATOM     20  C   UNL     1      13.728  11.078  32.650  1.00  0.00     0.004 C 
ENDBRANCH  18  19
ENDBRANCH  17  18
ENDBRANCH  16  17
ENDBRANCH  15  16
ENDBRANCH  14  15
ENDBRANCH  13  14
ENDBRANCH  12  13
ENDBRANCH   1  12
TORSDOF 16
ENDMDL
MODEL 5
REMARK VINA RESULT:    -4.880      1.546      2.671
REMARK INTER + INTRA:         -11.769
REMARK INTER:                  -9.373
REMARK INTRA:                  -2.396
REMARK UNBOUND:                -2.324
REMARK SMILES CCCCCCCCCCCCCCCCCC(=O)[O-]
REMARK SMILES IDX 10 1 11 2 12 3 13 4 14 5 15 6 16 7 17 8 18 9 19 10 20 11
REMARK SMILES IDX 9 12 8 13 7 14 6 15 5 16 4 17 3 18 2 19 1 20
REMARK H PARENT
REMARK Flexibility Score: inf
ROOT
ATOM      1  C   UNL     1      16.195  11.581  33.266  1.00  0.00     0.000 C 
ENDROOT
BRANCH   1   2
ATOM      2  C   UNL     1      16.125  12.801  34.201  1.00  0.00     0.000 C 
BRANCH   2   3
ATOM      3  C   UNL     1      16.874  12.572  35.523  1.00  0.00     0.000 C 
BRANCH   3   4
ATOM      4  C   UNL     1      17.648  11.245  35.543  1.00  0.00     0.000 C 
BRANCH   4   5
ATOM      5  C   UNL     1      19.162  11.492  35.554  1.00  0.00     0.000 C 
BRANCH   5   6
ATOM      6  C   UNL     1      19.774  11.220  34.171  1.00  0.00     0.000 C 
BRANCH   6   7
ATOM      7  C   UNL     1      20.022  12.509  33.365  1.00  0.00     0.006 C 
BRANCH   7   8
ATOM      8  C   UNL     1      21.496  12.936  33.292  1.00  0.00     0.053 C 
BRANCH   8   9
ATOM      9  C   UNL     1      21.727  13.978  32.242  1.00  0.00     0.041 C 
ATOM     10  O   UNL     1      22.740  13.915  31.497  1.00  0.00    -0.550 OA
ATOM     11  O   UNL     1      20.805  15.003  32.066  1.00  0.00    -0.550 OA
ENDBRANCH   8   9
ENDBRANCH   7   8
ENDBRANCH   6   7
ENDBRANCH   5   6
ENDBRANCH   4   5
ENDBRANCH   3   4
ENDBRANCH   2   3
ENDBRANCH   1   2
BRANCH   1  12
ATOM     12  C   UNL     1      14.807  11.026  32.899  1.00  0.00     0.000 C 
BRANCH  12  13
ATOM     13  C   UNL     1      14.346   9.810  33.723  1.00  0.00    -0.000 C 
BRANCH  13  14
ATOM     14  C   UNL     1      13.401  10.189  34.876  1.00  0.00    -0.000 C 
BRANCH  14  15
ATOM     15  C   UNL     1      14.026   9.935  36.258  1.00  0.00    -0.000 C 
BRANCH  15  16
ATOM     16  C   UNL     1      13.433  10.846  37.348  1.00  0.00    -0.000 C 
BRANCH  16  17
ATOM     17  C   UNL     1      13.635  12.341  37.049  1.00  0.00    -0.000 C 
BRANCH  17  18
ATOM     18  C   UNL     1      12.412  13.055  36.441  1.00  0.00    -0.000 C 
BRANCH  18  19
ATOM     19  C   UNL     1      12.769  14.074  35.338  1.00  0.00    -0.003 C 
ATOM     20  C   UNL     1      12.406  13.575  33.940  1.00  0.00     0.004 C 
ENDBRANCH  18  19
ENDBRANCH  17  18
ENDBRANCH  16  17
ENDBRANCH  15  16
ENDBRANCH  14  15
ENDBRANCH  13  14
ENDBRANCH  12  13
ENDBRANCH   1  12
TORSDOF 16
ENDMDL
MODEL 6
REMARK VINA RESULT:    -4.857      2.367      3.957
REMARK INTER + INTRA:         -11.724
REMARK INTER:                  -8.984
REMARK INTRA:                  -2.740
REMARK UNBOUND:                -2.324
REMARK SMILES CCCCCCCCCCCCCCCCCC(=O)[O-]
REMARK SMILES IDX 10 1 11 2 12 3 13 4 14 5 15 6 16 7 17 8 18 9 19 10 20 11
REMARK SMILES IDX 9 12 8 13 7 14 6 15 5 16 4 17 3 18 2 19 1 20
REMARK H PARENT
REMARK Flexibility Score: inf
ROOT
ATOM      1  C   UNL     1      17.915  13.464  36.356  1.00  0.00     0.000 C 
ENDROOT
BRANCH   1   2
ATOM      2  C   UNL     1      18.966  14.493  35.901  1.00  0.00     0.000 C 
BRANCH   2   3
ATOM      3  C   UNL     1      19.012  14.650  34.373  1.00  0.00     0.000 C 
BRANCH   3   4
ATOM      4  C   UNL     1      20.189  13.895  33.735  1.00  0.00     0.000 C 
BRANCH   4   5
ATOM      5  C   UNL     1      19.692  12.870  32.708  1.00  0.00     0.000 C 
BRANCH   5   6
ATOM      6  C   UNL     1      19.731  11.447  33.286  1.00  0.00     0.000 C 
BRANCH   6   7
ATOM      7  C   UNL     1      20.653  11.328  34.513  1.00  0.00     0.006 C 
BRANCH   7   8
ATOM      8  C   UNL     1      20.254  10.218  35.499  1.00  0.00     0.053 C 
BRANCH   8   9
ATOM      9  C   UNL     1      21.222   9.076  35.480  1.00  0.00     0.041 C 
ATOM     10  O   UNL     1      21.332   8.356  34.453  1.00  0.00    -0.550 OA
ATOM     11  O   UNL     1      22.025   8.825  36.586  1.00  0.00    -0.550 OA
ENDBRANCH   8   9
ENDBRANCH   7   8
ENDBRANCH   6   7
ENDBRANCH   5   6
ENDBRANCH   4   5
ENDBRANCH   3   4
ENDBRANCH   2   3
ENDBRANCH   1   2
BRANCH   1  12
ATOM     12  C   UNL     1      16.834  13.201  35.293  1.00  0.00     0.000 C 
BRANCH  12  13
ATOM     13  C   UNL     1      16.526  11.717  35.022  1.00  0.00    -0.000 C 
BRANCH  13  14
ATOM     14  C   UNL     1      15.973  11.467  33.608  1.00  0.00    -0.000 C 
BRANCH  14  15
ATOM     15  C   UNL     1      14.636  10.707  33.624  1.00  0.00    -0.000 C 
BRANCH  15  16
ATOM     16  C   UNL     1      13.498  11.503  32.960  1.00  0.00    -0.000 C 
BRANCH  16  17
ATOM     17  C   UNL     1      13.489  12.984  33.375  1.00  0.00    -0.000 C 
BRANCH  17  18
ATOM     18  C   UNL     1      12.509  13.337  34.511  1.00  0.00    -0.000 C 
BRANCH  18  19
ATOM     19  C   UNL     1      13.201  13.785  35.815  1.00  0.00    -0.003 C 
ATOM     20  C   UNL     1      13.393  12.634  36.801  1.00  0.00     0.004 C 
ENDBRANCH  18  19
ENDBRANCH  17  18
ENDBRANCH  16  17
ENDBRANCH  15  16
ENDBRANCH  14  15
ENDBRANCH  13  14
ENDBRANCH  12  13
ENDBRANCH   1  12
TORSDOF 16
ENDMDL
MODEL 7
REMARK VINA RESULT:    -4.822      1.826      2.313
REMARK INTER + INTRA:         -11.656
REMARK INTER:                  -8.992
REMARK INTRA:                  -2.664
REMARK UNBOUND:                -2.324
REMARK SMILES CCCCCCCCCCCCCCCCCC(=O)[O-]
REMARK SMILES IDX 10 1 11 2 12 3 13 4 14 5 15 6 16 7 17 8 18 9 19 10 20 11
REMARK SMILES IDX 9 12 8 13 7 14 6 15 5 16 4 17 3 18 2 19 1 20
REMARK H PARENT
REMARK Flexibility Score: inf
ROOT
ATOM      1  C   UNL     1      15.409  10.769  34.969  1.00  0.00     0.000 C 
ENDROOT
BRANCH   1   2
ATOM      2  C   UNL     1      15.962  11.149  36.354  1.00  0.00     0.000 C 
BRANCH   2   3
ATOM      3  C   UNL     1      17.458  10.827  36.498  1.00  0.00     0.000 C 
BRANCH   3   4
ATOM      4  C   UNL     1      18.260  11.993  37.095  1.00  0.00     0.000 C 
BRANCH   4   5
ATOM      5  C   UNL     1      17.693  13.342  36.635  1.00  0.00     0.000 C 
BRANCH   5   6
ATOM      6  C   UNL     1      18.810  14.260  36.115  1.00  0.00     0.000 C 
BRANCH   6   7
ATOM      7  C   UNL     1      19.735  13.559  35.103  1.00  0.00     0.006 C 
BRANCH   7   8
ATOM      8  C   UNL     1      19.047  13.162  33.786  1.00  0.00     0.053 C 
BRANCH   8   9
ATOM      9  C   UNL     1      19.339  11.743  33.407  1.00  0.00     0.041 C 
ATOM     10  O   UNL     1      18.809  11.239  32.382  1.00  0.00    -0.550 OA
ATOM     11  O   UNL     1      20.221  10.987  34.170  1.00  0.00    -0.550 OA
ENDBRANCH   8   9
ENDBRANCH   7   8
ENDBRANCH   6   7
ENDBRANCH   5   6
ENDBRANCH   4   5
ENDBRANCH   3   4
ENDBRANCH   2   3
ENDBRANCH   1   2
BRANCH   1  12
ATOM     12  C   UNL     1      15.594  11.882  33.922  1.00  0.00     0.000 C 
BRANCH  12  13
ATOM     13  C   UNL     1      14.806  13.177  34.193  1.00  0.00    -0.000 C 
BRANCH  13  14
ATOM     14  C   UNL     1      13.312  13.053  33.847  1.00  0.00    -0.000 C 
BRANCH  14  15
ATOM     15  C   UNL     1      12.404  13.654  34.932  1.00  0.00    -0.000 C 
BRANCH  15  16
ATOM     16  C   UNL     1      12.946  13.414  36.353  1.00  0.00    -0.000 C 
BRANCH  16  17
ATOM     17  C   UNL     1      12.016  12.532  37.203  1.00  0.00    -0.000 C 
BRANCH  17  18
ATOM     18  C   UNL     1      12.709  11.355  37.918  1.00  0.00    -0.000 C 
BRANCH  18  19
ATOM     19  C   UNL     1      12.143   9.972  37.533  1.00  0.00    -0.003 C 
ATOM     20  C   UNL     1      12.049   9.778  36.020  1.00  0.00     0.004 C 
ENDBRANCH  18  19
ENDBRANCH  17  18
ENDBRANCH  16  17
ENDBRANCH  15  16
ENDBRANCH  14  15
ENDBRANCH  13  14
ENDBRANCH  12  13
ENDBRANCH   1  12
TORSDOF 16
ENDMDL
MODEL 8
REMARK VINA RESULT:    -4.777      1.478      2.901
REMARK INTER + INTRA:         -11.569
REMARK INTER:                  -9.108
REMARK INTRA:                  -2.461
REMARK UNBOUND:                -2.324
REMARK SMILES CCCCCCCCCCCCCCCCCC(=O)[O-]
REMARK SMILES IDX 10 1 11 2 12 3 13 4 14 5 15 6 16 7 17 8 18 9 19 10 20 11
REMARK SMILES IDX 9 12 8 13 7 14 6 15 5 16 4 17 3 18 2 19 1 20
REMARK H PARENT
REMARK Flexibility Score: inf
ROOT
ATOM      1  C   UNL     1      16.706  12.419  36.366  1.00  0.00     0.000 C 
ENDROOT
BRANCH   1   2
ATOM      2  C   UNL     1      18.128  12.049  36.825  1.00  0.00     0.000 C 
BRANCH   2   3
ATOM      3  C   UNL     1      18.666  10.795  36.118  1.00  0.00     0.000 C 
BRANCH   3   4
ATOM      4  C   UNL     1      20.192  10.826  35.937  1.00  0.00     0.000 C 
BRANCH   4   5
ATOM      5  C   UNL     1      20.576  10.598  34.470  1.00  0.00     0.000 C 
BRANCH   5   6
ATOM      6  C   UNL     1      19.480  11.115  33.527  1.00  0.00     0.000 C 
BRANCH   6   7
ATOM      7  C   UNL     1      19.825  12.480  32.903  1.00  0.00     0.006 C 
BRANCH   7   8
ATOM      8  C   UNL     1      21.321  12.831  32.937  1.00  0.00     0.053 C 
BRANCH   8   9
ATOM      9  C   UNL     1      21.637  14.017  32.078  1.00  0.00     0.041 C 
ATOM     10  O   UNL     1      20.811  14.961  31.972  1.00  0.00    -0.550 OA
ATOM     11  O   UNL     1      22.859  14.092  31.420  1.00  0.00    -0.550 OA
ENDBRANCH   8   9
ENDBRANCH   7   8
ENDBRANCH   6   7
ENDBRANCH   5   6
ENDBRANCH   4   5
ENDBRANCH   3   4
ENDBRANCH   2   3
ENDBRANCH   1   2
BRANCH   1  12
ATOM     12  C   UNL     1      16.694  13.420  35.197  1.00  0.00     0.000 C 
BRANCH  12  13
ATOM     13  C   UNL     1      16.206  12.853  33.851  1.00  0.00    -0.000 C 
BRANCH  13  14
ATOM     14  C   UNL     1      15.653  11.422  33.968  1.00  0.00    -0.000 C 
BRANCH  14  15
ATOM     15  C   UNL     1      14.124  11.366  33.810  1.00  0.00    -0.000 C 
BRANCH  15  16
ATOM     16  C   UNL     1      13.529  12.713  33.361  1.00  0.00    -0.000 C 
BRANCH  16  17
ATOM     17  C   UNL     1      12.508  13.275  34.365  1.00  0.00    -0.000 C 
BRANCH  17  18
ATOM     18  C   UNL     1      13.059  13.530  35.781  1.00  0.00    -0.000 C 
BRANCH  18  19
ATOM     19  C   UNL     1      12.390  12.669  36.875  1.00  0.00    -0.003 C 
ATOM     20  C   UNL     1      13.318  11.580  37.410  1.00  0.00     0.004 C 
ENDBRANCH  18  19
ENDBRANCH  17  18
ENDBRANCH  16  17
ENDBRANCH  15  16
ENDBRANCH  14  15
ENDBRANCH  13  14
ENDBRANCH  12  13
ENDBRANCH   1  12
TORSDOF 16
ENDMDL
MODEL 9
REMARK VINA RESULT:    -4.759      3.988      7.290
REMARK INTER + INTRA:         -11.535
REMARK INTER:                  -8.863
REMARK INTRA:                  -2.673
REMARK UNBOUND:                -2.324
REMARK SMILES CCCCCCCCCCCCCCCCCC(=O)[O-]
REMARK SMILES IDX 10 1 11 2 12 3 13 4 14 5 15 6 16 7 17 8 18 9 19 10 20 11
REMARK SMILES IDX 9 12 8 13 7 14 6 15 5 16 4 17 3 18 2 19 1 20
REMARK H PARENT
REMARK Flexibility Score: inf
ROOT
ATOM      1  C   UNL     1      13.368  11.499  32.882  1.00  0.00     0.000 C 
ENDROOT
BRANCH   1   2
ATOM      2  C   UNL     1      13.503  12.959  33.350  1.00  0.00     0.000 C 
BRANCH   2   3
ATOM      3  C   UNL     1      12.417  13.354  34.364  1.00  0.00     0.000 C 
BRANCH   3   4
ATOM      4  C   UNL     1      12.996  14.014  35.624  1.00  0.00     0.000 C 
BRANCH   4   5
ATOM      5  C   UNL     1      13.170  12.988  36.751  1.00  0.00     0.000 C 
BRANCH   5   6
ATOM      6  C   UNL     1      11.878  12.187  36.971  1.00  0.00     0.000 C 
BRANCH   6   7
ATOM      7  C   UNL     1      12.024  10.704  36.583  1.00  0.00     0.006 C 
BRANCH   7   8
ATOM      8  C   UNL     1      13.089   9.941  37.387  1.00  0.00     0.053 C 
BRANCH   8   9
ATOM      9  C   UNL     1      12.681   9.747  38.815  1.00  0.00     0.041 C 
ATOM     10  O   UNL     1      13.499   9.975  39.745  1.00  0.00    -0.550 OA
ATOM     11  O   UNL     1      11.387   9.343  39.120  1.00  0.00    -0.550 OA
ENDBRANCH   8   9
ENDBRANCH   7   8
ENDBRANCH   6   7
ENDBRANCH   5   6
ENDBRANCH   4   5
ENDBRANCH   3   4
ENDBRANCH   2   3
ENDBRANCH   1   2
BRANCH   1  12
ATOM     12  C   UNL     1      14.684  10.709  32.991  1.00  0.00     0.000 C 
BRANCH  12  13
ATOM     13  C   UNL     1      15.186  10.463  34.426  1.00  0.00    -0.000 C 
BRANCH  13  14
ATOM     14  C   UNL     1      16.542  11.133  34.711  1.00  0.00    -0.000 C 
BRANCH  14  15
ATOM     15  C   UNL     1      16.578  11.831  36.080  1.00  0.00    -0.000 C 
BRANCH  15  16
ATOM     16  C   UNL     1      16.655  13.364  35.958  1.00  0.00    -0.000 C 
BRANCH  16  17
ATOM     17  C   UNL     1      16.928  13.832  34.518  1.00  0.00    -0.000 C 
BRANCH  17  18
ATOM     18  C   UNL     1      18.184  14.708  34.345  1.00  0.00    -0.000 C 
BRANCH  18  19
ATOM     19  C   UNL     1      19.200  14.576  35.499  1.00  0.00    -0.003 C 
ATOM     20  C   UNL     1      20.352  13.631  35.158  1.00  0.00     0.004 C 
ENDBRANCH  18  19
ENDBRANCH  17  18
ENDBRANCH  16  17
ENDBRANCH  15  16
ENDBRANCH  14  15
ENDBRANCH  13  14
ENDBRANCH  12  13
ENDBRANCH   1  12
TORSDOF 16
ENDMDL
