MODEL 1
REMARK VINA RESULT:    -5.911      0.000      0.000
REMARK INTER + INTRA:         -11.389
REMARK INTER:                 -10.748
REMARK INTRA:                  -0.641
REMARK UNBOUND:                -0.641
REMARK SMILES CCCCCCCCCCCCCCCC(=O)[O-]
REMARK SMILES IDX 9 1 10 2 11 3 12 4 13 5 14 6 15 7 16 8 17 9 18 10 8 11 7 12
REMARK SMILES IDX 6 13 5 14 4 15 3 16 2 17 1 18
REMARK H PARENT
REMARK Flexibility Score: inf
ROOT
ATOM      1  C   UNL     1     105.622 311.923 194.378  1.00  0.00     0.000 C 
ENDROOT
BRANCH   1   2
ATOM      2  C   UNL     1     104.558 312.626 195.235  1.00  0.00     0.000 C 
BRANCH   2   3
ATOM      3  C   UNL     1     103.514 311.650 195.803  1.00  0.00     0.000 C 
BRANCH   3   4
ATOM      4  C   UNL     1     103.882 311.147 197.210  1.00  0.00     0.000 C 
BRANCH   4   5
ATOM      5  C   UNL     1     103.541 312.160 198.318  1.00  0.00     0.000 C 
BRANCH   5   6
ATOM      6  C   UNL     1     103.237 311.545 199.696  1.00  0.00     0.006 C 
BRANCH   6   7
ATOM      7  C   UNL     1     104.330 311.827 200.733  1.00  0.00     0.053 C 
BRANCH   7   8
ATOM      8  C   UNL     1     103.791 311.661 202.119  1.00  0.00     0.041 C 
ATOM      9  O   UNL     1     104.308 312.289 203.081  1.00  0.00    -0.550 OA
ATOM     10  O   UNL     1     102.749 310.773 202.358  1.00  0.00    -0.550 OA
ENDBRANCH   7   8
ENDBRANCH   6   7
ENDBRANCH   5   6
ENDBRANCH   4   5
ENDBRANCH   3   4
ENDBRANCH   2   3
ENDBRANCH   1   2
BRANCH   1  11
ATOM     11  C   UNL     1     104.989 311.278 193.139  1.00  0.00     0.000 C 
BRANCH  11  12
ATOM     12  C   UNL     1     104.360 312.337 192.227  1.00  0.00    -0.000 C 
BRANCH  12  13
ATOM     13  C   UNL     1     105.414 313.336 191.735  1.00  0.00    -0.000 C 
BRANCH  13  14
ATOM     14  C   UNL     1     104.761 314.484 190.951  1.00  0.00    -0.000 C 
BRANCH  14  15
ATOM     15  C   UNL     1     103.491 314.050 190.196  1.00  0.00    -0.000 C 
BRANCH  15  16
ATOM     16  C   UNL     1     103.267 314.751 188.843  1.00  0.00    -0.000 C 
BRANCH  16  17
ATOM     17  C   UNL     1     101.832 314.598 188.321  1.00  0.00    -0.003 C 
ATOM     18  C   UNL     1     101.367 315.868 187.612  1.00  0.00     0.004 C 
ENDBRANCH  16  17
ENDBRANCH  15  16
ENDBRANCH  14  15
ENDBRANCH  13  14
ENDBRANCH  12  13
ENDBRANCH  11  12
ENDBRANCH   1  11
TORSDOF 14
ENDMDL
MODEL 2
REMARK VINA RESULT:    -5.906      2.047      3.379
REMARK INTER + INTRA:         -11.381
REMARK INTER:                 -10.404
REMARK INTRA:                  -0.977
REMARK UNBOUND:                -0.641
REMARK SMILES CCCCCCCCCCCCCCCC(=O)[O-]
REMARK SMILES IDX 9 1 10 2 11 3 12 4 13 5 14 6 15 7 16 8 17 9 18 10 8 11 7 12
REMARK SMILES IDX 6 13 5 14 4 15 3 16 2 17 1 18
REMARK H PARENT
REMARK Flexibility Score: inf
ROOT
ATOM      1  C   UNL     1     103.809 312.386 196.254  1.00  0.00     0.000 C 
ENDROOT
BRANCH   1   2
ATOM      2  C   UNL     1     103.838 311.521 197.523  1.00  0.00     0.000 C 
BRANCH   2   3
ATOM      3  C   UNL     1     103.655 312.346 198.808  1.00  0.00     0.000 C 
BRANCH   3   4
ATOM      4  C   UNL     1     103.035 311.525 199.953  1.00  0.00     0.000 C 
BRANCH   4   5
ATOM      5  C   UNL     1     103.894 311.535 201.231  1.00  0.00     0.000 C 
BRANCH   5   6
ATOM      6  C   UNL     1     103.204 310.973 202.486  1.00  0.00     0.006 C 
BRANCH   6   7
ATOM      7  C   UNL     1     104.189 310.644 203.615  1.00  0.00     0.053 C 
BRANCH   7   8
ATOM      8  C   UNL     1     103.531 310.812 204.948  1.00  0.00     0.041 C 
ATOM      9  O   UNL     1     102.370 310.365 205.144  1.00  0.00    -0.550 OA
ATOM     10  O   UNL     1     104.179 311.509 205.961  1.00  0.00    -0.550 OA
ENDBRANCH   7   8
ENDBRANCH   6   7
ENDBRANCH   5   6
ENDBRANCH   4   5
ENDBRANCH   3   4
ENDBRANCH   2   3
ENDBRANCH   1   2
BRANCH   1  11
ATOM     11  C   UNL     1     104.165 311.554 195.016  1.00  0.00     0.000 C 
BRANCH  11  12
ATOM     12  C   UNL     1     105.602 311.831 194.561  1.00  0.00    -0.000 C 
BRANCH  12  13
ATOM     13  C   UNL     1     105.678 311.987 193.037  1.00  0.00    -0.000 C 
BRANCH  13  14
ATOM     14  C   UNL     1     104.281 312.215 192.438  1.00  0.00    -0.000 C 
BRANCH  14  15
ATOM     15  C   UNL     1     104.276 313.264 191.310  1.00  0.00    -0.000 C 
BRANCH  15  16
ATOM     16  C   UNL     1     103.739 314.650 191.715  1.00  0.00    -0.000 C 
BRANCH  16  17
ATOM     17  C   UNL     1     103.555 314.800 193.231  1.00  0.00    -0.003 C 
ATOM     18  C   UNL     1     104.692 315.612 193.845  1.00  0.00     0.004 C 
ENDBRANCH  16  17
ENDBRANCH  15  16
ENDBRANCH  14  15
ENDBRANCH  13  14
ENDBRANCH  12  13
ENDBRANCH  11  12
ENDBRANCH   1  11
TORSDOF 14
ENDMDL
MODEL 3
REMARK VINA RESULT:    -5.834      1.731      2.976
REMARK INTER + INTRA:         -11.249
REMARK INTER:                  -9.523
REMARK INTRA:                  -1.726
REMARK UNBOUND:                -0.641
REMARK SMILES CCCCCCCCCCCCCCCC(=O)[O-]
REMARK SMILES IDX 9 1 10 2 11 3 12 4 13 5 14 6 15 7 16 8 17 9 18 10 8 11 7 12
REMARK SMILES IDX 6 13 5 14 4 15 3 16 2 17 1 18
REMARK H PARENT
REMARK Flexibility Score: inf
ROOT
ATOM      1  C   UNL     1     105.600 312.544 192.841  1.00  0.00     0.000 C 
ENDROOT
BRANCH   1   2
ATOM      2  C   UNL     1     105.623 311.889 194.231  1.00  0.00     0.000 C 
BRANCH   2   3
ATOM      3  C   UNL     1     104.220 311.512 194.732  1.00  0.00     0.000 C 
BRANCH   3   4
ATOM      4  C   UNL     1     103.785 312.345 195.951  1.00  0.00     0.000 C 
BRANCH   4   5
ATOM      5  C   UNL     1     103.947 311.590 197.283  1.00  0.00     0.000 C 
BRANCH   5   6
ATOM      6  C   UNL     1     103.482 312.359 198.532  1.00  0.00     0.006 C 
BRANCH   6   7
ATOM      7  C   UNL     1     103.116 311.438 199.702  1.00  0.00     0.053 C 
BRANCH   7   8
ATOM      8  C   UNL     1     104.015 311.697 200.870  1.00  0.00     0.041 C 
ATOM      9  O   UNL     1     105.005 312.466 200.752  1.00  0.00    -0.550 OA
ATOM     10  O   UNL     1     103.789 311.048 202.078  1.00  0.00    -0.550 OA
ENDBRANCH   7   8
ENDBRANCH   6   7
ENDBRANCH   5   6
ENDBRANCH   4   5
ENDBRANCH   3   4
ENDBRANCH   2   3
ENDBRANCH   1   2
BRANCH   1  11
ATOM     11  C   UNL     1     104.215 312.411 192.196  1.00  0.00     0.000 C 
BRANCH  11  12
ATOM     12  C   UNL     1     104.060 313.382 191.020  1.00  0.00    -0.000 C 
BRANCH  12  13
ATOM     13  C   UNL     1     105.256 314.338 190.934  1.00  0.00    -0.000 C 
BRANCH  13  14
ATOM     14  C   UNL     1     104.809 315.797 191.120  1.00  0.00    -0.000 C 
BRANCH  14  15
ATOM     15  C   UNL     1     103.346 315.923 191.582  1.00  0.00    -0.000 C 
BRANCH  15  16
ATOM     16  C   UNL     1     103.160 316.486 193.004  1.00  0.00    -0.000 C 
BRANCH  16  17
ATOM     17  C   UNL     1     103.437 315.447 194.099  1.00  0.00    -0.003 C 
ATOM     18  C   UNL     1     104.793 315.690 194.757  1.00  0.00     0.004 C 
ENDBRANCH  16  17
ENDBRANCH  15  16
ENDBRANCH  14  15
ENDBRANCH  13  14
ENDBRANCH  12  13
ENDBRANCH  11  12
ENDBRANCH   1  11
TORSDOF 14
ENDMDL
MODEL 4
REMARK VINA RESULT:    -5.812     18.046     21.134
REMARK INTER + INTRA:         -11.210
REMARK INTER:                  -9.465
REMARK INTRA:                  -1.744
REMARK UNBOUND:                -0.641
REMARK SMILES CCCCCCCCCCCCCCCC(=O)[O-]
REMARK SMILES IDX 9 1 10 2 11 3 12 4 13 5 14 6 15 7 16 8 17 9 18 10 8 11 7 12
REMARK SMILES IDX 6 13 5 14 4 15 3 16 2 17 1 18
REMARK H PARENT
REMARK Flexibility Score: inf
ROOT
ATOM      1  C   UNL     1      87.776 325.089 192.730  1.00  0.00     0.000 C 
ENDROOT
BRANCH   1   2
ATOM      2  C   UNL     1      86.297 324.688 192.610  1.00  0.00     0.000 C 
BRANCH   2   3
ATOM      3  C   UNL     1      86.087 323.460 191.710  1.00  0.00     0.000 C 
BRANCH   3   4
ATOM      4  C   UNL     1      87.399 322.954 191.086  1.00  0.00     0.000 C 
BRANCH   4   5
ATOM      5  C   UNL     1      87.197 322.317 189.699  1.00  0.00     0.000 C 
BRANCH   5   6
ATOM      6  C   UNL     1      88.151 322.823 188.602  1.00  0.00     0.006 C 
BRANCH   6   7
ATOM      7  C   UNL     1      89.407 323.500 189.165  1.00  0.00     0.053 C 
BRANCH   7   8
ATOM      8  C   UNL     1      90.604 322.623 188.972  1.00  0.00     0.041 C 
ATOM      9  O   UNL     1      90.612 321.450 189.429  1.00  0.00    -0.550 OA
ATOM     10  O   UNL     1      91.733 323.119 188.331  1.00  0.00    -0.550 OA
ENDBRANCH   7   8
ENDBRANCH   6   7
ENDBRANCH   5   6
ENDBRANCH   4   5
ENDBRANCH   3   4
ENDBRANCH   2   3
ENDBRANCH   1   2
BRANCH   1  11
ATOM     11  C   UNL     1      87.937 326.331 193.615  1.00  0.00     0.000 C 
BRANCH  11  12
ATOM     12  C   UNL     1      86.696 326.549 194.489  1.00  0.00    -0.000 C 
BRANCH  12  13
ATOM     13  C   UNL     1      87.008 326.274 195.965  1.00  0.00    -0.000 C 
BRANCH  13  14
ATOM     14  C   UNL     1      88.517 326.088 196.184  1.00  0.00    -0.000 C 
BRANCH  14  15
ATOM     15  C   UNL     1      88.845 325.238 197.425  1.00  0.00    -0.000 C 
BRANCH  15  16
ATOM     16  C   UNL     1      88.599 323.726 197.260  1.00  0.00    -0.000 C 
BRANCH  16  17
ATOM     17  C   UNL     1      88.789 323.243 195.815  1.00  0.00    -0.003 C 
ATOM     18  C   UNL     1      87.557 322.490 195.321  1.00  0.00     0.004 C 
ENDBRANCH  16  17
ENDBRANCH  15  16
ENDBRANCH  14  15
ENDBRANCH  13  14
ENDBRANCH  12  13
ENDBRANCH  11  12
ENDBRANCH   1  11
TORSDOF 14
ENDMDL
MODEL 5
REMARK VINA RESULT:    -5.795     18.543     20.044
REMARK INTER + INTRA:         -11.179
REMARK INTER:                 -10.248
REMARK INTRA:                  -0.931
REMARK UNBOUND:                -0.641
REMARK SMILES CCCCCCCCCCCCCCCC(=O)[O-]
REMARK SMILES IDX 9 1 10 2 11 3 12 4 13 5 14 6 15 7 16 8 17 9 18 10 8 11 7 12
REMARK SMILES IDX 6 13 5 14 4 15 3 16 2 17 1 18
REMARK H PARENT
REMARK Flexibility Score: inf
ROOT
ATOM      1  C   UNL     1      88.482 326.730 195.065  1.00  0.00     0.000 C 
ENDROOT
BRANCH   1   2
ATOM      2  C   UNL     1      88.154 325.565 196.011  1.00  0.00     0.000 C 
BRANCH   2   3
ATOM      3  C   UNL     1      88.600 325.832 197.458  1.00  0.00     0.000 C 
BRANCH   3   4
ATOM      4  C   UNL     1      89.241 324.597 198.115  1.00  0.00     0.000 C 
BRANCH   4   5
ATOM      5  C   UNL     1      89.669 324.847 199.573  1.00  0.00     0.000 C 
BRANCH   5   6
ATOM      6  C   UNL     1      89.404 326.269 200.097  1.00  0.00     0.006 C 
BRANCH   6   7
ATOM      7  C   UNL     1      88.785 326.285 201.500  1.00  0.00     0.053 C 
BRANCH   7   8
ATOM      8  C   UNL     1      89.797 326.722 202.512  1.00  0.00     0.041 C 
ATOM      9  O   UNL     1      89.475 326.833 203.725  1.00  0.00    -0.550 OA
ATOM     10  O   UNL     1      91.084 327.056 202.109  1.00  0.00    -0.550 OA
ENDBRANCH   7   8
ENDBRANCH   6   7
ENDBRANCH   5   6
ENDBRANCH   4   5
ENDBRANCH   3   4
ENDBRANCH   2   3
ENDBRANCH   1   2
BRANCH   1  11
ATOM     11  C   UNL     1      87.549 326.728 193.848  1.00  0.00     0.000 C 
BRANCH  11  12
ATOM     12  C   UNL     1      86.389 325.746 194.047  1.00  0.00    -0.000 C 
BRANCH  12  13
ATOM     13  C   UNL     1      86.349 324.705 192.921  1.00  0.00    -0.000 C 
BRANCH  13  14
ATOM     14  C   UNL     1      87.711 324.604 192.217  1.00  0.00    -0.000 C 
BRANCH  14  15
ATOM     15  C   UNL     1      88.400 323.244 192.433  1.00  0.00    -0.000 C 
BRANCH  15  16
ATOM     16  C   UNL     1      88.825 322.519 191.142  1.00  0.00    -0.000 C 
BRANCH  16  17
ATOM     17  C   UNL     1      88.381 323.254 189.869  1.00  0.00    -0.003 C 
ATOM     18  C   UNL     1      89.574 323.567 188.971  1.00  0.00     0.004 C 
ENDBRANCH  16  17
ENDBRANCH  15  16
ENDBRANCH  14  15
ENDBRANCH  13  14
ENDBRANCH  12  13
ENDBRANCH  11  12
ENDBRANCH   1  11
TORSDOF 14
ENDMDL
MODEL 6
REMARK VINA RESULT:    -5.786      5.640      9.106
REMARK INTER + INTRA:         -11.162
REMARK INTER:                  -9.235
REMARK INTRA:                  -1.926
REMARK UNBOUND:                -0.641
REMARK SMILES CCCCCCCCCCCCCCCC(=O)[O-]
REMARK SMILES IDX 9 1 10 2 11 3 12 4 13 5 14 6 15 7 16 8 17 9 18 10 8 11 7 12
REMARK SMILES IDX 6 13 5 14 4 15 3 16 2 17 1 18
REMARK H PARENT
REMARK Flexibility Score: inf
ROOT
ATOM      1  C   UNL     1     104.193 313.162 191.706  1.00  0.00     0.000 C 
ENDROOT
BRANCH   1   2
ATOM      2  C   UNL     1     105.621 313.619 191.368  1.00  0.00     0.000 C 
BRANCH   2   3
ATOM      3  C   UNL     1     105.708 315.128 191.084  1.00  0.00     0.000 C 
BRANCH   3   4
ATOM      4  C   UNL     1     105.979 315.434 189.600  1.00  0.00     0.000 C 
BRANCH   4   5
ATOM      5  C   UNL     1     104.755 316.023 188.876  1.00  0.00     0.000 C 
BRANCH   5   6
ATOM      6  C   UNL     1     103.699 314.995 188.435  1.00  0.00     0.006 C 
BRANCH   6   7
ATOM      7  C   UNL     1     102.333 315.217 189.094  1.00  0.00     0.053 C 
BRANCH   7   8
ATOM      8  C   UNL     1     101.291 315.491 188.056  1.00  0.00     0.041 C 
ATOM      9  O   UNL     1     100.226 314.819 188.032  1.00  0.00    -0.550 OA
ATOM     10  O   UNL     1     101.517 316.455 187.080  1.00  0.00    -0.550 OA
ENDBRANCH   7   8
ENDBRANCH   6   7
ENDBRANCH   5   6
ENDBRANCH   4   5
ENDBRANCH   3   4
ENDBRANCH   2   3
ENDBRANCH   1   2
BRANCH   1  11
ATOM     11  C   UNL     1     104.214 311.889 192.562  1.00  0.00     0.000 C 
BRANCH  11  12
ATOM     12  C   UNL     1     105.605 311.652 193.162  1.00  0.00    -0.000 C 
BRANCH  12  13
ATOM     13  C   UNL     1     105.566 311.734 194.692  1.00  0.00    -0.000 C 
BRANCH  13  14
ATOM     14  C   UNL     1     104.135 311.985 195.193  1.00  0.00    -0.000 C 
BRANCH  14  15
ATOM     15  C   UNL     1     104.046 313.143 196.204  1.00  0.00    -0.000 C 
BRANCH  15  16
ATOM     16  C   UNL     1     103.324 314.402 195.689  1.00  0.00    -0.000 C 
BRANCH  16  17
ATOM     17  C   UNL     1     104.194 315.249 194.751  1.00  0.00    -0.003 C 
ATOM     18  C   UNL     1     103.333 316.094 193.817  1.00  0.00     0.004 C 
ENDBRANCH  16  17
ENDBRANCH  15  16
ENDBRANCH  14  15
ENDBRANCH  13  14
ENDBRANCH  12  13
ENDBRANCH  11  12
ENDBRANCH   1  11
TORSDOF 14
ENDMDL
MODEL 7
REMARK VINA RESULT:    -5.750      1.733      2.860
REMARK INTER + INTRA:         -11.097
REMARK INTER:                 -10.187
REMARK INTRA:                  -0.911
REMARK UNBOUND:                -0.641
REMARK SMILES CCCCCCCCCCCCCCCC(=O)[O-]
REMARK SMILES IDX 9 1 10 2 11 3 12 4 13 5 14 6 15 7 16 8 17 9 18 10 8 11 7 12
REMARK SMILES IDX 6 13 5 14 4 15 3 16 2 17 1 18
REMARK H PARENT
REMARK Flexibility Score: inf
ROOT
ATOM      1  C   UNL     1     103.511 312.992 196.820  1.00  0.00     0.000 C 
ENDROOT
BRANCH   1   2
ATOM      2  C   UNL     1     103.878 311.530 197.119  1.00  0.00     0.000 C 
BRANCH   2   3
ATOM      3  C   UNL     1     103.482 311.097 198.540  1.00  0.00     0.000 C 
BRANCH   3   4
ATOM      4  C   UNL     1     103.660 312.226 199.571  1.00  0.00     0.000 C 
BRANCH   4   5
ATOM      5  C   UNL     1     104.623 311.850 200.712  1.00  0.00     0.000 C 
BRANCH   5   6
ATOM      6  C   UNL     1     104.130 312.202 202.127  1.00  0.00     0.006 C 
BRANCH   6   7
ATOM      7  C   UNL     1     103.843 310.964 202.986  1.00  0.00     0.053 C 
BRANCH   7   8
ATOM      8  C   UNL     1     104.099 311.261 204.430  1.00  0.00     0.041 C 
ATOM      9  O   UNL     1     105.003 312.073 204.761  1.00  0.00    -0.550 OA
ATOM     10  O   UNL     1     103.374 310.601 205.415  1.00  0.00    -0.550 OA
ENDBRANCH   7   8
ENDBRANCH   6   7
ENDBRANCH   5   6
ENDBRANCH   4   5
ENDBRANCH   3   4
ENDBRANCH   2   3
ENDBRANCH   1   2
BRANCH   1  11
ATOM     11  C   UNL     1     104.130 313.452 195.495  1.00  0.00     0.000 C 
BRANCH  11  12
ATOM     12  C   UNL     1     104.275 312.279 194.518  1.00  0.00    -0.000 C 
BRANCH  12  13
ATOM     13  C   UNL     1     105.692 312.218 193.937  1.00  0.00    -0.000 C 
BRANCH  13  14
ATOM     14  C   UNL     1     105.689 312.572 192.442  1.00  0.00    -0.000 C 
BRANCH  14  15
ATOM     15  C   UNL     1     104.274 312.807 191.882  1.00  0.00    -0.000 C 
BRANCH  15  16
ATOM     16  C   UNL     1     104.202 313.760 190.675  1.00  0.00    -0.000 C 
BRANCH  16  17
ATOM     17  C   UNL     1     103.398 315.035 190.967  1.00  0.00    -0.003 C 
ATOM     18  C   UNL     1     103.415 315.366 192.457  1.00  0.00     0.004 C 
ENDBRANCH  16  17
ENDBRANCH  15  16
ENDBRANCH  14  15
ENDBRANCH  13  14
ENDBRANCH  12  13
ENDBRANCH  11  12
ENDBRANCH   1  11
TORSDOF 14
ENDMDL
MODEL 8
REMARK VINA RESULT:    -5.677      4.078      5.131
REMARK INTER + INTRA:         -10.964
REMARK INTER:                  -9.472
REMARK INTRA:                  -1.491
REMARK UNBOUND:                -0.641
REMARK SMILES CCCCCCCCCCCCCCCC(=O)[O-]
REMARK SMILES IDX 9 1 10 2 11 3 12 4 13 5 14 6 15 7 16 8 17 9 18 10 8 11 7 12
REMARK SMILES IDX 6 13 5 14 4 15 3 16 2 17 1 18
REMARK H PARENT
REMARK Flexibility Score: inf
ROOT
ATOM      1  C   UNL     1     104.258 312.490 192.270  1.00  0.00     0.000 C 
ENDROOT
BRANCH   1   2
ATOM      2  C   UNL     1     104.707 311.346 193.192  1.00  0.00     0.000 C 
BRANCH   2   3
ATOM      3  C   UNL     1     105.059 311.829 194.609  1.00  0.00     0.000 C 
BRANCH   3   4
ATOM      4  C   UNL     1     103.842 311.830 195.551  1.00  0.00     0.000 C 
BRANCH   4   5
ATOM      5  C   UNL     1     103.524 313.225 196.118  1.00  0.00     0.000 C 
BRANCH   5   6
ATOM      6  C   UNL     1     104.344 314.379 195.514  1.00  0.00     0.006 C 
BRANCH   6   7
ATOM      7  C   UNL     1     103.515 315.290 194.602  1.00  0.00     0.053 C 
BRANCH   7   8
ATOM      8  C   UNL     1     104.412 316.117 193.735  1.00  0.00     0.041 C 
ATOM      9  O   UNL     1     105.659 316.093 193.907  1.00  0.00    -0.550 OA
ATOM     10  O   UNL     1     103.867 316.954 192.769  1.00  0.00    -0.550 OA
ENDBRANCH   7   8
ENDBRANCH   6   7
ENDBRANCH   5   6
ENDBRANCH   4   5
ENDBRANCH   3   4
ENDBRANCH   2   3
ENDBRANCH   1   2
BRANCH   1  11
ATOM     11  C   UNL     1     105.466 313.275 191.743  1.00  0.00     0.000 C 
BRANCH  11  12
ATOM     12  C   UNL     1     105.045 314.262 190.647  1.00  0.00    -0.000 C 
BRANCH  12  13
ATOM     13  C   UNL     1     103.549 314.136 190.338  1.00  0.00    -0.000 C 
BRANCH  13  14
ATOM     14  C   UNL     1     103.187 314.895 189.052  1.00  0.00    -0.000 C 
BRANCH  14  15
ATOM     15  C   UNL     1     102.022 314.250 188.280  1.00  0.00    -0.000 C 
BRANCH  15  16
ATOM     16  C   UNL     1     100.832 315.186 187.996  1.00  0.00    -0.000 C 
BRANCH  16  17
ATOM     17  C   UNL     1     100.699 316.313 189.029  1.00  0.00    -0.003 C 
ATOM     18  C   UNL     1      99.528 317.233 188.691  1.00  0.00     0.004 C 
ENDBRANCH  16  17
ENDBRANCH  15  16
ENDBRANCH  14  15
ENDBRANCH  13  14
ENDBRANCH  12  13
ENDBRANCH  11  12
ENDBRANCH   1  11
TORSDOF 14
ENDMDL
