MODEL 1
REMARK VINA RESULT:    -4.530      0.000      0.000
REMARK INTER + INTRA:         -11.318
REMARK INTER:                  -8.502
REMARK INTRA:                  -2.816
REMARK UNBOUND:                -2.816
REMARK SMILES CCCCCCCCC=CCCCCCCCC(=O)[O-]
REMARK SMILES IDX 10 1 9 2 11 3 12 4 13 5 14 6 15 7 16 8 17 9 18 10 19 11
REMARK SMILES IDX 20 12 8 13 7 14 6 15 5 16 4 17 3 18 2 19 1 20
REMARK H PARENT
REMARK Flexibility Score: inf
ROOT
ATOM      1  C   UNL     1      -5.940  -0.713   5.135  1.00  0.00    -0.031 C 
ATOM      2  C   UNL     1      -4.950  -0.561   4.236  1.00  0.00    -0.031 C 
ENDROOT
BRANCH   1   3
ATOM      3  C   UNL     1      -5.731  -0.859   6.622  1.00  0.00     0.027 C 
BRANCH   3   4
ATOM      4  C   UNL     1      -5.846   0.484   7.370  1.00  0.00     0.004 C 
BRANCH   4   5
ATOM      5  C   UNL     1      -4.495   1.178   7.617  1.00  0.00     0.000 C 
BRANCH   5   6
ATOM      6  C   UNL     1      -4.455   2.618   7.087  1.00  0.00     0.000 C 
BRANCH   6   7
ATOM      7  C   UNL     1      -3.099   2.932   6.444  1.00  0.00     0.000 C 
BRANCH   7   8
ATOM      8  C   UNL     1      -3.280   3.663   5.104  1.00  0.00     0.006 C 
BRANCH   8   9
ATOM      9  C   UNL     1      -4.515   3.173   4.337  1.00  0.00     0.053 C 
BRANCH   9  10
ATOM     10  C   UNL     1      -4.354   3.339   2.858  1.00  0.00     0.041 C 
ATOM     11  O   UNL     1      -3.207   3.477   2.357  1.00  0.00    -0.550 OA
ATOM     12  O   UNL     1      -5.472   3.367   2.035  1.00  0.00    -0.550 OA
ENDBRANCH   9  10
ENDBRANCH   8   9
ENDBRANCH   7   8
ENDBRANCH   6   7
ENDBRANCH   5   6
ENDBRANCH   4   5
ENDBRANCH   3   4
ENDBRANCH   1   3
BRANCH   2  13
ATOM     13  C   UNL     1      -3.479  -0.594   4.567  1.00  0.00     0.027 C 
BRANCH  13  14
ATOM     14  C   UNL     1      -2.661   0.073   3.455  1.00  0.00     0.004 C 
BRANCH  14  15
ATOM     15  C   UNL     1      -1.387   0.755   3.979  1.00  0.00     0.000 C 
BRANCH  15  16
ATOM     16  C   UNL     1      -0.906   0.203   5.338  1.00  0.00     0.000 C 
BRANCH  16  17
ATOM     17  C   UNL     1       0.470  -0.482   5.233  1.00  0.00    -0.000 C 
BRANCH  17  18
ATOM     18  C   UNL     1       0.422  -1.962   5.666  1.00  0.00    -0.000 C 
BRANCH  18  19
ATOM     19  C   UNL     1      -0.101  -2.910   4.574  1.00  0.00    -0.003 C 
ATOM     20  C   UNL     1       0.407  -2.552   3.180  1.00  0.00     0.004 C 
ENDBRANCH  18  19
ENDBRANCH  17  18
ENDBRANCH  16  17
ENDBRANCH  15  16
ENDBRANCH  14  15
ENDBRANCH  13  14
ENDBRANCH   2  13
TORSDOF 15
ENDMDL
MODEL 2
REMARK VINA RESULT:    -4.529      2.870      4.386
REMARK INTER + INTRA:         -11.317
REMARK INTER:                  -9.796
REMARK INTRA:                  -1.521
REMARK UNBOUND:                -2.816
REMARK SMILES CCCCCCCCC=CCCCCCCCC(=O)[O-]
REMARK SMILES IDX 10 1 9 2 11 3 12 4 13 5 14 6 15 7 16 8 17 9 18 10 19 11
REMARK SMILES IDX 20 12 8 13 7 14 6 15 5 16 4 17 3 18 2 19 1 20
REMARK H PARENT
REMARK Flexibility Score: inf
ROOT
ATOM      1  C   UNL     1      -3.260   0.437   3.213  1.00  0.00    -0.031 C 
ATOM      2  C   UNL     1      -2.412  -0.243   4.007  1.00  0.00    -0.031 C 
ENDROOT
BRANCH   1   3
ATOM      3  C   UNL     1      -3.168   1.916   2.929  1.00  0.00     0.027 C 
BRANCH   3   4
ATOM      4  C   UNL     1      -4.345   2.708   3.532  1.00  0.00     0.004 C 
BRANCH   4   5
ATOM      5  C   UNL     1      -5.054   1.985   4.691  1.00  0.00     0.000 C 
BRANCH   5   6
ATOM      6  C   UNL     1      -4.386   2.233   6.051  1.00  0.00     0.000 C 
BRANCH   6   7
ATOM      7  C   UNL     1      -4.546   1.020   6.974  1.00  0.00     0.000 C 
BRANCH   7   8
ATOM      8  C   UNL     1      -5.855   0.272   6.681  1.00  0.00     0.006 C 
BRANCH   8   9
ATOM      9  C   UNL     1      -5.612  -1.078   5.993  1.00  0.00     0.053 C 
BRANCH   9  10
ATOM     10  C   UNL     1      -6.871  -1.641   5.411  1.00  0.00     0.041 C 
ATOM     11  O   UNL     1      -7.193  -1.380   4.222  1.00  0.00    -0.550 OA
ATOM     12  O   UNL     1      -7.704  -2.434   6.191  1.00  0.00    -0.550 OA
ENDBRANCH   9  10
ENDBRANCH   8   9
ENDBRANCH   7   8
ENDBRANCH   6   7
ENDBRANCH   5   6
ENDBRANCH   4   5
ENDBRANCH   3   4
ENDBRANCH   1   3
BRANCH   2  13
ATOM     13  C   UNL     1      -1.291   0.383   4.797  1.00  0.00     0.027 C 
BRANCH  13  14
ATOM     14  C   UNL     1      -0.244  -0.671   5.177  1.00  0.00     0.004 C 
BRANCH  14  15
ATOM     15  C   UNL     1      -0.204  -1.852   4.194  1.00  0.00     0.000 C 
BRANCH  15  16
ATOM     16  C   UNL     1       1.110  -1.940   3.388  1.00  0.00     0.000 C 
BRANCH  16  17
ATOM     17  C   UNL     1       1.787  -0.567   3.227  1.00  0.00    -0.000 C 
BRANCH  17  18
ATOM     18  C   UNL     1       3.260  -0.688   2.782  1.00  0.00    -0.000 C 
BRANCH  18  19
ATOM     19  C   UNL     1       3.940   0.665   2.517  1.00  0.00    -0.003 C 
ATOM     20  C   UNL     1       3.202   1.512   1.484  1.00  0.00     0.004 C 
ENDBRANCH  18  19
ENDBRANCH  17  18
ENDBRANCH  16  17
ENDBRANCH  15  16
ENDBRANCH  14  15
ENDBRANCH  13  14
ENDBRANCH   2  13
TORSDOF 15
ENDMDL
MODEL 3
REMARK VINA RESULT:    -4.471      1.133      2.135
REMARK INTER + INTRA:         -11.208
REMARK INTER:                  -8.663
REMARK INTRA:                  -2.545
REMARK UNBOUND:                -2.816
REMARK SMILES CCCCCCCCC=CCCCCCCCC(=O)[O-]
REMARK SMILES IDX 10 1 9 2 11 3 12 4 13 5 14 6 15 7 16 8 17 9 18 10 19 11
REMARK SMILES IDX 20 12 8 13 7 14 6 15 5 16 4 17 3 18 2 19 1 20
REMARK H PARENT
REMARK Flexibility Score: inf
ROOT
ATOM      1  C   UNL     1      -5.645  -0.164   7.471  1.00  0.00    -0.031 C 
ATOM      2  C   UNL     1      -5.907  -0.807   6.317  1.00  0.00    -0.031 C 
ENDROOT
BRANCH   1   3
ATOM      3  C   UNL     1      -5.325   1.307   7.577  1.00  0.00     0.027 C 
BRANCH   3   4
ATOM      4  C   UNL     1      -3.832   1.568   7.858  1.00  0.00     0.004 C 
BRANCH   4   5
ATOM      5  C   UNL     1      -3.160   2.505   6.838  1.00  0.00     0.000 C 
BRANCH   5   6
ATOM      6  C   UNL     1      -4.144   3.069   5.804  1.00  0.00     0.000 C 
BRANCH   6   7
ATOM      7  C   UNL     1      -3.466   3.255   4.442  1.00  0.00     0.000 C 
BRANCH   7   8
ATOM      8  C   UNL     1      -4.400   2.831   3.298  1.00  0.00     0.006 C 
BRANCH   8   9
ATOM      9  C   UNL     1      -4.154   3.637   2.016  1.00  0.00     0.053 C 
BRANCH   9  10
ATOM     10  C   UNL     1      -5.386   4.363   1.570  1.00  0.00     0.041 C 
ATOM     11  O   UNL     1      -5.625   5.525   1.992  1.00  0.00    -0.550 OA
ATOM     12  O   UNL     1      -6.283   3.745   0.708  1.00  0.00    -0.550 OA
ENDBRANCH   9  10
ENDBRANCH   8   9
ENDBRANCH   7   8
ENDBRANCH   6   7
ENDBRANCH   5   6
ENDBRANCH   4   5
ENDBRANCH   3   4
ENDBRANCH   1   3
BRANCH   2  13
ATOM     13  C   UNL     1      -5.841  -0.175   4.950  1.00  0.00     0.027 C 
BRANCH  13  14
ATOM     14  C   UNL     1      -4.699  -0.784   4.128  1.00  0.00     0.004 C 
BRANCH  14  15
ATOM     15  C   UNL     1      -3.332  -0.654   4.819  1.00  0.00     0.000 C 
BRANCH  15  16
ATOM     16  C   UNL     1      -2.201  -0.203   3.870  1.00  0.00     0.000 C 
BRANCH  16  17
ATOM     17  C   UNL     1      -0.944   0.249   4.637  1.00  0.00    -0.000 C 
BRANCH  17  18
ATOM     18  C   UNL     1       0.230  -0.740   4.473  1.00  0.00    -0.000 C 
BRANCH  18  19
ATOM     19  C   UNL     1      -0.065  -1.893   3.500  1.00  0.00    -0.003 C 
ATOM     20  C   UNL     1       0.341  -3.258   4.049  1.00  0.00     0.004 C 
ENDBRANCH  18  19
ENDBRANCH  17  18
ENDBRANCH  16  17
ENDBRANCH  15  16
ENDBRANCH  14  15
ENDBRANCH  13  14
ENDBRANCH   2  13
TORSDOF 15
ENDMDL
MODEL 4
REMARK VINA RESULT:    -4.445      3.180      5.359
REMARK INTER + INTRA:         -11.160
REMARK INTER:                  -9.253
REMARK INTRA:                  -1.907
REMARK UNBOUND:                -2.816
REMARK SMILES CCCCCCCCC=CCCCCCCCC(=O)[O-]
REMARK SMILES IDX 10 1 9 2 11 3 12 4 13 5 14 6 15 7 16 8 17 9 18 10 19 11
REMARK SMILES IDX 20 12 8 13 7 14 6 15 5 16 4 17 3 18 2 19 1 20
REMARK H PARENT
REMARK Flexibility Score: inf
ROOT
ATOM      1  C   UNL     1      -1.160  -2.015   4.847  1.00  0.00    -0.031 C 
ATOM      2  C   UNL     1      -0.118  -2.726   4.375  1.00  0.00    -0.031 C 
ENDROOT
BRANCH   1   3
ATOM      3  C   UNL     1      -1.630  -0.701   4.271  1.00  0.00     0.027 C 
BRANCH   3   4
ATOM      4  C   UNL     1      -1.836   0.378   5.352  1.00  0.00     0.004 C 
BRANCH   4   5
ATOM      5  C   UNL     1      -2.950   1.387   5.021  1.00  0.00     0.000 C 
BRANCH   5   6
ATOM      6  C   UNL     1      -3.910   0.885   3.935  1.00  0.00     0.000 C 
BRANCH   6   7
ATOM      7  C   UNL     1      -5.275   0.518   4.530  1.00  0.00     0.000 C 
BRANCH   7   8
ATOM      8  C   UNL     1      -5.380  -0.994   4.781  1.00  0.00     0.006 C 
BRANCH   8   9
ATOM      9  C   UNL     1      -6.785  -1.412   5.235  1.00  0.00     0.053 C 
BRANCH   9  10
ATOM     10  C   UNL     1      -6.737  -2.342   6.406  1.00  0.00     0.041 C 
ATOM     11  O   UNL     1      -5.887  -2.170   7.319  1.00  0.00    -0.550 OA
ATOM     12  O   UNL     1      -7.616  -3.416   6.478  1.00  0.00    -0.550 OA
ENDBRANCH   9  10
ENDBRANCH   8   9
ENDBRANCH   7   8
ENDBRANCH   6   7
ENDBRANCH   5   6
ENDBRANCH   4   5
ENDBRANCH   3   4
ENDBRANCH   1   3
BRANCH   2  13
ATOM     13  C   UNL     1       0.784  -2.281   3.253  1.00  0.00     0.027 C 
BRANCH  13  14
ATOM     14  C   UNL     1       1.949  -1.445   3.795  1.00  0.00     0.004 C 
BRANCH  14  15
ATOM     15  C   UNL     1       2.707  -0.691   2.691  1.00  0.00     0.000 C 
BRANCH  15  16
ATOM     16  C   UNL     1       2.520   0.841   2.749  1.00  0.00     0.000 C 
BRANCH  16  17
ATOM     17  C   UNL     1       1.601   1.271   3.908  1.00  0.00    -0.000 C 
BRANCH  17  18
ATOM     18  C   UNL     1       0.540   2.299   3.462  1.00  0.00    -0.000 C 
BRANCH  18  19
ATOM     19  C   UNL     1       0.212   3.354   4.532  1.00  0.00    -0.003 C 
ATOM     20  C   UNL     1      -0.808   4.386   4.061  1.00  0.00     0.004 C 
ENDBRANCH  18  19
ENDBRANCH  17  18
ENDBRANCH  16  17
ENDBRANCH  15  16
ENDBRANCH  14  15
ENDBRANCH  13  14
ENDBRANCH   2  13
TORSDOF 15
ENDMDL
MODEL 5
REMARK VINA RESULT:    -4.348      1.818      4.993
REMARK INTER + INTRA:         -10.976
REMARK INTER:                  -8.950
REMARK INTRA:                  -2.027
REMARK UNBOUND:                -2.816
REMARK SMILES CCCCCCCCC=CCCCCCCCC(=O)[O-]
REMARK SMILES IDX 10 1 9 2 11 3 12 4 13 5 14 6 15 7 16 8 17 9 18 10 19 11
REMARK SMILES IDX 20 12 8 13 7 14 6 15 5 16 4 17 3 18 2 19 1 20
REMARK H PARENT
REMARK Flexibility Score: inf
ROOT
ATOM      1  C   UNL     1       2.116   0.666   3.128  1.00  0.00    -0.031 C 
ATOM      2  C   UNL     1       2.198  -0.674   3.032  1.00  0.00    -0.031 C 
ENDROOT
BRANCH   1   3
ATOM      3  C   UNL     1       1.452   1.404   4.264  1.00  0.00     0.027 C 
BRANCH   3   4
ATOM      4  C   UNL     1       0.210   2.197   3.808  1.00  0.00     0.004 C 
BRANCH   4   5
ATOM      5  C   UNL     1       0.074   3.578   4.474  1.00  0.00     0.000 C 
BRANCH   5   6
ATOM      6  C   UNL     1      -1.319   4.197   4.290  1.00  0.00     0.000 C 
BRANCH   6   7
ATOM      7  C   UNL     1      -2.421   3.182   4.613  1.00  0.00     0.000 C 
BRANCH   7   8
ATOM      8  C   UNL     1      -3.527   3.210   3.547  1.00  0.00     0.006 C 
BRANCH   8   9
ATOM      9  C   UNL     1      -3.208   2.299   2.354  1.00  0.00     0.053 C 
BRANCH   9  10
ATOM     10  C   UNL     1      -3.388   3.009   1.049  1.00  0.00     0.041 C 
ATOM     11  O   UNL     1      -2.521   3.830   0.648  1.00  0.00    -0.550 OA
ATOM     12  O   UNL     1      -4.527   2.784   0.285  1.00  0.00    -0.550 OA
ENDBRANCH   9  10
ENDBRANCH   8   9
ENDBRANCH   7   8
ENDBRANCH   6   7
ENDBRANCH   5   6
ENDBRANCH   4   5
ENDBRANCH   3   4
ENDBRANCH   1   3
BRANCH   2  13
ATOM     13  C   UNL     1       1.570  -1.642   4.002  1.00  0.00     0.027 C 
BRANCH  13  14
ATOM     14  C   UNL     1       0.154  -2.019   3.548  1.00  0.00     0.004 C 
BRANCH  14  15
ATOM     15  C   UNL     1      -0.918  -1.680   4.597  1.00  0.00     0.000 C 
BRANCH  15  16
ATOM     16  C   UNL     1      -1.992  -0.695   4.086  1.00  0.00     0.000 C 
BRANCH  16  17
ATOM     17  C   UNL     1      -3.263  -0.718   4.956  1.00  0.00    -0.000 C 
BRANCH  17  18
ATOM     18  C   UNL     1      -4.546  -0.509   4.123  1.00  0.00    -0.000 C 
BRANCH  18  19
ATOM     19  C   UNL     1      -5.837  -0.547   4.957  1.00  0.00    -0.003 C 
ATOM     20  C   UNL     1      -5.843  -1.662   5.999  1.00  0.00     0.004 C 
ENDBRANCH  18  19
ENDBRANCH  17  18
ENDBRANCH  16  17
ENDBRANCH  15  16
ENDBRANCH  14  15
ENDBRANCH  13  14
ENDBRANCH   2  13
TORSDOF 15
ENDMDL
MODEL 6
REMARK VINA RESULT:    -4.344      2.181      3.739
REMARK INTER + INTRA:         -10.970
REMARK INTER:                  -8.588
REMARK INTRA:                  -2.382
REMARK UNBOUND:                -2.816
REMARK SMILES CCCCCCCCC=CCCCCCCCC(=O)[O-]
REMARK SMILES IDX 10 1 9 2 11 3 12 4 13 5 14 6 15 7 16 8 17 9 18 10 19 11
REMARK SMILES IDX 20 12 8 13 7 14 6 15 5 16 4 17 3 18 2 19 1 20
REMARK H PARENT
REMARK Flexibility Score: inf
ROOT
ATOM      1  C   UNL     1      -4.253   3.196   4.587  1.00  0.00    -0.031 C 
ATOM      2  C   UNL     1      -4.422   2.285   3.611  1.00  0.00    -0.031 C 
ENDROOT
BRANCH   1   3
ATOM      3  C   UNL     1      -2.917   3.595   5.165  1.00  0.00     0.027 C 
BRANCH   3   4
ATOM      4  C   UNL     1      -2.923   3.616   6.707  1.00  0.00     0.004 C 
BRANCH   4   5
ATOM      5  C   UNL     1      -3.227   2.250   7.348  1.00  0.00     0.000 C 
BRANCH   5   6
ATOM      6  C   UNL     1      -4.653   2.156   7.908  1.00  0.00     0.000 C 
BRANCH   6   7
ATOM      7  C   UNL     1      -5.147   0.705   7.919  1.00  0.00     0.000 C 
BRANCH   7   8
ATOM      8  C   UNL     1      -5.697   0.298   6.543  1.00  0.00     0.006 C 
BRANCH   8   9
ATOM      9  C   UNL     1      -5.842  -1.223   6.401  1.00  0.00     0.053 C 
BRANCH   9  10
ATOM     10  C   UNL     1      -6.851  -1.591   5.358  1.00  0.00     0.041 C 
ATOM     11  O   UNL     1      -6.851  -1.006   4.242  1.00  0.00    -0.550 OA
ATOM     12  O   UNL     1      -7.807  -2.561   5.627  1.00  0.00    -0.550 OA
ENDBRANCH   9  10
ENDBRANCH   8   9
ENDBRANCH   7   8
ENDBRANCH   6   7
ENDBRANCH   5   6
ENDBRANCH   4   5
ENDBRANCH   3   4
ENDBRANCH   1   3
BRANCH   2  13
ATOM     13  C   UNL     1      -3.312   1.467   3.002  1.00  0.00     0.027 C 
BRANCH  13  14
ATOM     14  C   UNL     1      -3.303   0.049   3.587  1.00  0.00     0.004 C 
BRANCH  14  15
ATOM     15  C   UNL     1      -2.362  -0.091   4.795  1.00  0.00     0.000 C 
BRANCH  15  16
ATOM     16  C   UNL     1      -0.955   0.495   4.554  1.00  0.00     0.000 C 
BRANCH  16  17
ATOM     17  C   UNL     1       0.138  -0.285   5.309  1.00  0.00    -0.000 C 
BRANCH  17  18
ATOM     18  C   UNL     1       1.045  -1.092   4.356  1.00  0.00    -0.000 C 
BRANCH  18  19
ATOM     19  C   UNL     1       0.280  -2.087   3.468  1.00  0.00    -0.003 C 
ATOM     20  C   UNL     1       0.366  -3.526   3.972  1.00  0.00     0.004 C 
ENDBRANCH  18  19
ENDBRANCH  17  18
ENDBRANCH  16  17
ENDBRANCH  15  16
ENDBRANCH  14  15
ENDBRANCH  13  14
ENDBRANCH   2  13
TORSDOF 15
ENDMDL
MODEL 7
REMARK VINA RESULT:    -4.224      2.516      6.220
REMARK INTER + INTRA:         -10.745
REMARK INTER:                  -8.869
REMARK INTRA:                  -1.876
REMARK UNBOUND:                -2.816
REMARK SMILES CCCCCCCCC=CCCCCCCCC(=O)[O-]
REMARK SMILES IDX 10 1 9 2 11 3 12 4 13 5 14 6 15 7 16 8 17 9 18 10 19 11
REMARK SMILES IDX 20 12 8 13 7 14 6 15 5 16 4 17 3 18 2 19 1 20
REMARK H PARENT
REMARK Flexibility Score: inf
ROOT
ATOM      1  C   UNL     1      -1.492   1.343   3.897  1.00  0.00    -0.031 C 
ATOM      2  C   UNL     1      -1.989   2.577   4.098  1.00  0.00    -0.031 C 
ENDROOT
BRANCH   1   3
ATOM      3  C   UNL     1      -1.283   0.317   4.984  1.00  0.00     0.027 C 
BRANCH   3   4
ATOM      4  C   UNL     1      -1.504  -1.126   4.485  1.00  0.00     0.004 C 
BRANCH   4   5
ATOM      5  C   UNL     1      -0.511  -2.146   5.071  1.00  0.00     0.000 C 
BRANCH   5   6
ATOM      6  C   UNL     1       0.070  -3.092   4.011  1.00  0.00     0.000 C 
BRANCH   6   7
ATOM      7  C   UNL     1       0.904  -2.322   2.981  1.00  0.00     0.000 C 
BRANCH   7   8
ATOM      8  C   UNL     1       1.917  -1.396   3.671  1.00  0.00     0.006 C 
BRANCH   8   9
ATOM      9  C   UNL     1       2.741  -0.582   2.666  1.00  0.00     0.053 C 
BRANCH   9  10
ATOM     10  C   UNL     1       2.400   0.875   2.715  1.00  0.00     0.041 C 
ATOM     11  O   UNL     1       1.896   1.373   3.757  1.00  0.00    -0.550 OA
ATOM     12  O   UNL     1       2.613   1.678   1.602  1.00  0.00    -0.550 OA
ENDBRANCH   9  10
ENDBRANCH   8   9
ENDBRANCH   7   8
ENDBRANCH   6   7
ENDBRANCH   5   6
ENDBRANCH   4   5
ENDBRANCH   3   4
ENDBRANCH   1   3
BRANCH   2  13
ATOM     13  C   UNL     1      -2.338   3.151   5.448  1.00  0.00     0.027 C 
BRANCH  13  14
ATOM     14  C   UNL     1      -3.856   3.324   5.584  1.00  0.00     0.004 C 
BRANCH  14  15
ATOM     15  C   UNL     1      -4.438   2.558   6.783  1.00  0.00     0.000 C 
BRANCH  15  16
ATOM     16  C   UNL     1      -4.508   1.032   6.565  1.00  0.00     0.000 C 
BRANCH  16  17
ATOM     17  C   UNL     1      -5.156   0.665   5.217  1.00  0.00    -0.000 C 
BRANCH  17  18
ATOM     18  C   UNL     1      -5.273  -0.862   5.020  1.00  0.00    -0.000 C 
BRANCH  18  19
ATOM     19  C   UNL     1      -6.720  -1.354   4.849  1.00  0.00    -0.003 C 
ATOM     20  C   UNL     1      -7.205  -2.202   6.022  1.00  0.00     0.004 C 
ENDBRANCH  18  19
ENDBRANCH  17  18
ENDBRANCH  16  17
ENDBRANCH  15  16
ENDBRANCH  14  15
ENDBRANCH  13  14
ENDBRANCH   2  13
TORSDOF 15
ENDMDL
MODEL 8
REMARK VINA RESULT:    -4.189      1.859      2.311
REMARK INTER + INTRA:         -10.678
REMARK INTER:                  -8.753
REMARK INTRA:                  -1.925
REMARK UNBOUND:                -2.816
REMARK SMILES CCCCCCCCC=CCCCCCCCC(=O)[O-]
REMARK SMILES IDX 10 1 9 2 11 3 12 4 13 5 14 6 15 7 16 8 17 9 18 10 19 11
REMARK SMILES IDX 20 12 8 13 7 14 6 15 5 16 4 17 3 18 2 19 1 20
REMARK H PARENT
REMARK Flexibility Score: inf
ROOT
ATOM      1  C   UNL     1      -4.997  -0.705   4.498  1.00  0.00    -0.031 C 
ATOM      2  C   UNL     1      -3.760  -0.458   4.029  1.00  0.00    -0.031 C 
ENDROOT
BRANCH   1   3
ATOM      3  C   UNL     1      -5.330  -0.946   5.951  1.00  0.00     0.027 C 
BRANCH   3   4
ATOM      4  C   UNL     1      -5.757   0.343   6.680  1.00  0.00     0.004 C 
BRANCH   4   5
ATOM      5  C   UNL     1      -4.605   1.060   7.406  1.00  0.00     0.000 C 
BRANCH   5   6
ATOM      6  C   UNL     1      -4.516   2.553   7.060  1.00  0.00     0.000 C 
BRANCH   6   7
ATOM      7  C   UNL     1      -3.340   2.833   6.117  1.00  0.00     0.000 C 
BRANCH   7   8
ATOM      8  C   UNL     1      -3.829   3.070   4.681  1.00  0.00     0.006 C 
BRANCH   8   9
ATOM      9  C   UNL     1      -2.669   3.178   3.682  1.00  0.00     0.053 C 
BRANCH   9  10
ATOM     10  C   UNL     1      -3.147   3.105   2.265  1.00  0.00     0.041 C 
ATOM     11  O   UNL     1      -2.367   3.390   1.317  1.00  0.00    -0.550 OA
ATOM     12  O   UNL     1      -4.461   2.747   1.990  1.00  0.00    -0.550 OA
ENDBRANCH   9  10
ENDBRANCH   8   9
ENDBRANCH   7   8
ENDBRANCH   6   7
ENDBRANCH   5   6
ENDBRANCH   4   5
ENDBRANCH   3   4
ENDBRANCH   1   3
BRANCH   2  13
ATOM     13  C   UNL     1      -2.508  -0.461   4.869  1.00  0.00     0.027 C 
BRANCH  13  14
ATOM     14  C   UNL     1      -1.267  -0.281   3.988  1.00  0.00     0.004 C 
BRANCH  14  15
ATOM     15  C   UNL     1      -0.522  -1.600   3.730  1.00  0.00     0.000 C 
BRANCH  15  16
ATOM     16  C   UNL     1       1.012  -1.443   3.670  1.00  0.00     0.000 C 
BRANCH  16  17
ATOM     17  C   UNL     1       1.473  -0.052   4.144  1.00  0.00    -0.000 C 
BRANCH  17  18
ATOM     18  C   UNL     1       2.083   0.785   2.998  1.00  0.00    -0.000 C 
BRANCH  18  19
ATOM     19  C   UNL     1       3.253   0.091   2.281  1.00  0.00    -0.003 C 
ATOM     20  C   UNL     1       4.607   0.718   2.603  1.00  0.00     0.004 C 
ENDBRANCH  18  19
ENDBRANCH  17  18
ENDBRANCH  16  17
ENDBRANCH  15  16
ENDBRANCH  14  15
ENDBRANCH  13  14
ENDBRANCH   2  13
TORSDOF 15
ENDMDL
MODEL 9
REMARK VINA RESULT:    -4.167      2.019      5.150
REMARK INTER + INTRA:         -10.637
REMARK INTER:                  -9.124
REMARK INTRA:                  -1.513
REMARK UNBOUND:                -2.816
REMARK SMILES CCCCCCCCC=CCCCCCCCC(=O)[O-]
REMARK SMILES IDX 10 1 9 2 11 3 12 4 13 5 14 6 15 7 16 8 17 9 18 10 19 11
REMARK SMILES IDX 20 12 8 13 7 14 6 15 5 16 4 17 3 18 2 19 1 20
REMARK H PARENT
REMARK Flexibility Score: inf
ROOT
ATOM      1  C   UNL     1       0.966  -0.810   3.861  1.00  0.00    -0.031 C 
ATOM      2  C   UNL     1      -0.175  -1.523   3.826  1.00  0.00    -0.031 C 
ENDROOT
BRANCH   1   3
ATOM      3  C   UNL     1       1.148   0.478   4.626  1.00  0.00     0.027 C 
BRANCH   3   4
ATOM      4  C   UNL     1       1.008   1.724   3.728  1.00  0.00     0.004 C 
BRANCH   4   5
ATOM      5  C   UNL     1      -0.146   2.658   4.135  1.00  0.00     0.000 C 
BRANCH   5   6
ATOM      6  C   UNL     1      -0.057   4.041   3.476  1.00  0.00     0.000 C 
BRANCH   6   7
ATOM      7  C   UNL     1      -1.453   4.606   3.187  1.00  0.00     0.000 C 
BRANCH   7   8
ATOM      8  C   UNL     1      -2.414   3.496   2.733  1.00  0.00     0.006 C 
BRANCH   8   9
ATOM      9  C   UNL     1      -3.411   3.987   1.675  1.00  0.00     0.053 C 
BRANCH   9  10
ATOM     10  C   UNL     1      -3.228   3.281   0.367  1.00  0.00     0.041 C 
ATOM     11  O   UNL     1      -2.318   3.640  -0.426  1.00  0.00    -0.550 OA
ATOM     12  O   UNL     1      -4.080   2.242   0.013  1.00  0.00    -0.550 OA
ENDBRANCH   9  10
ENDBRANCH   8   9
ENDBRANCH   7   8
ENDBRANCH   6   7
ENDBRANCH   5   6
ENDBRANCH   4   5
ENDBRANCH   3   4
ENDBRANCH   1   3
BRANCH   2  13
ATOM     13  C   UNL     1      -1.468  -1.103   4.480  1.00  0.00     0.027 C 
BRANCH  13  14
ATOM     14  C   UNL     1      -2.287  -0.216   3.535  1.00  0.00     0.004 C 
BRANCH  14  15
ATOM     15  C   UNL     1      -3.532   0.382   4.210  1.00  0.00     0.000 C 
BRANCH  15  16
ATOM     16  C   UNL     1      -4.679  -0.633   4.402  1.00  0.00     0.000 C 
BRANCH  16  17
ATOM     17  C   UNL     1      -5.891  -0.013   5.122  1.00  0.00    -0.000 C 
BRANCH  17  18
ATOM     18  C   UNL     1      -6.103  -0.606   6.531  1.00  0.00    -0.000 C 
BRANCH  18  19
ATOM     19  C   UNL     1      -5.979  -2.138   6.581  1.00  0.00    -0.003 C 
ATOM     20  C   UNL     1      -7.308  -2.853   6.351  1.00  0.00     0.004 C 
ENDBRANCH  18  19
ENDBRANCH  17  18
ENDBRANCH  16  17
ENDBRANCH  15  16
ENDBRANCH  14  15
ENDBRANCH  13  14
ENDBRANCH   2  13
TORSDOF 15
ENDMDL
