MODEL 1
REMARK VINA RESULT:    -3.287      0.000      0.000
REMARK INTER + INTRA:          -9.045
REMARK INTER:                  -6.362
REMARK INTRA:                  -2.684
REMARK UNBOUND:                -2.684
REMARK SMILES CCCCCCCCCCCCCCCCCC(=O)[O-]
REMARK SMILES IDX 10 1 11 2 12 3 13 4 14 5 15 6 16 7 17 8 18 9 19 10 20 11
REMARK SMILES IDX 9 12 8 13 7 14 6 15 5 16 4 17 3 18 2 19 1 20
REMARK H PARENT
REMARK Flexibility Score: inf
ROOT
ATOM      1  C   UNL     1      61.983  32.954  59.437  1.00  0.00     0.000 C 
ENDROOT
BRANCH   1   2
ATOM      2  C   UNL     1      60.915  32.012  58.853  1.00  0.00     0.000 C 
BRANCH   2   3
ATOM      3  C   UNL     1      60.684  30.770  59.730  1.00  0.00     0.000 C 
BRANCH   3   4
ATOM      4  C   UNL     1      61.299  30.914  61.134  1.00  0.00     0.000 C 
BRANCH   4   5
ATOM      5  C   UNL     1      62.275  29.776  61.467  1.00  0.00     0.000 C 
BRANCH   5   6
ATOM      6  C   UNL     1      63.741  30.165  61.227  1.00  0.00     0.000 C 
BRANCH   6   7
ATOM      7  C   UNL     1      64.238  29.633  59.874  1.00  0.00     0.006 C 
BRANCH   7   8
ATOM      8  C   UNL     1      65.751  29.811  59.701  1.00  0.00     0.053 C 
BRANCH   8   9
ATOM      9  C   UNL     1      66.495  28.546  60.000  1.00  0.00     0.041 C 
ATOM     10  O   UNL     1      66.490  27.595  59.174  1.00  0.00    -0.550 OA
ATOM     11  O   UNL     1      67.221  28.429  61.178  1.00  0.00    -0.550 OA
ENDBRANCH   8   9
ENDBRANCH   7   8
ENDBRANCH   6   7
ENDBRANCH   5   6
ENDBRANCH   4   5
ENDBRANCH   3   4
ENDBRANCH   2   3
ENDBRANCH   1   2
BRANCH   1  12
ATOM     12  C   UNL     1      63.225  33.087  58.537  1.00  0.00     0.000 C 
BRANCH  12  13
ATOM     13  C   UNL     1      64.553  33.310  59.282  1.00  0.00    -0.000 C 
BRANCH  13  14
ATOM     14  C   UNL     1      64.358  33.816  60.723  1.00  0.00    -0.000 C 
BRANCH  14  15
ATOM     15  C   UNL     1      65.184  35.089  61.010  1.00  0.00    -0.000 C 
BRANCH  15  16
ATOM     16  C   UNL     1      64.330  36.301  61.424  1.00  0.00    -0.000 C 
BRANCH  16  17
ATOM     17  C   UNL     1      62.922  36.275  60.816  1.00  0.00    -0.000 C 
BRANCH  17  18
ATOM     18  C   UNL     1      62.914  36.897  59.412  1.00  0.00    -0.000 C 
BRANCH  18  19
ATOM     19  C   UNL     1      61.679  36.492  58.594  1.00  0.00    -0.003 C 
ATOM     20  C   UNL     1      61.927  36.539  57.086  1.00  0.00     0.004 C 
ENDBRANCH  18  19
ENDBRANCH  17  18
ENDBRANCH  16  17
ENDBRANCH  15  16
ENDBRANCH  14  15
ENDBRANCH  13  14
ENDBRANCH  12  13
ENDBRANCH   1  12
TORSDOF 16
ENDMDL
MODEL 2
REMARK VINA RESULT:    -3.245      1.667      2.648
REMARK INTER + INTRA:          -8.964
REMARK INTER:                  -6.210
REMARK INTRA:                  -2.754
REMARK UNBOUND:                -2.684
REMARK SMILES CCCCCCCCCCCCCCCCCC(=O)[O-]
REMARK SMILES IDX 10 1 11 2 12 3 13 4 14 5 15 6 16 7 17 8 18 9 19 10 20 11
REMARK SMILES IDX 9 12 8 13 7 14 6 15 5 16 4 17 3 18 2 19 1 20
REMARK H PARENT
REMARK Flexibility Score: inf
ROOT
ATOM      1  C   UNL     1      64.466  31.987  58.613  1.00  0.00     0.000 C 
ENDROOT
BRANCH   1   2
ATOM      2  C   UNL     1      63.555  31.917  57.376  1.00  0.00     0.000 C 
BRANCH   2   3
ATOM      3  C   UNL     1      62.436  30.873  57.527  1.00  0.00     0.000 C 
BRANCH   3   4
ATOM      4  C   UNL     1      61.075  31.509  57.862  1.00  0.00     0.000 C 
BRANCH   4   5
ATOM      5  C   UNL     1      60.510  31.014  59.202  1.00  0.00     0.000 C 
BRANCH   5   6
ATOM      6  C   UNL     1      61.228  31.633  60.410  1.00  0.00     0.000 C 
BRANCH   6   7
ATOM      7  C   UNL     1      61.650  30.550  61.414  1.00  0.00     0.006 C 
BRANCH   7   8
ATOM      8  C   UNL     1      63.134  30.185  61.285  1.00  0.00     0.053 C 
BRANCH   8   9
ATOM      9  C   UNL     1      63.318  28.776  60.811  1.00  0.00     0.041 C 
ATOM     10  O   UNL     1      64.242  28.494  60.002  1.00  0.00    -0.550 OA
ATOM     11  O   UNL     1      62.488  27.769  61.285  1.00  0.00    -0.550 OA
ENDBRANCH   8   9
ENDBRANCH   7   8
ENDBRANCH   6   7
ENDBRANCH   5   6
ENDBRANCH   4   5
ENDBRANCH   3   4
ENDBRANCH   2   3
ENDBRANCH   1   2
BRANCH   1  12
ATOM     12  C   UNL     1      64.776  33.430  59.051  1.00  0.00     0.000 C 
BRANCH  12  13
ATOM     13  C   UNL     1      64.372  33.778  60.495  1.00  0.00    -0.000 C 
BRANCH  13  14
ATOM     14  C   UNL     1      65.124  35.000  61.054  1.00  0.00    -0.000 C 
BRANCH  14  15
ATOM     15  C   UNL     1      64.173  36.170  61.382  1.00  0.00    -0.000 C 
BRANCH  15  16
ATOM     16  C   UNL     1      63.296  36.607  60.195  1.00  0.00    -0.000 C 
BRANCH  16  17
ATOM     17  C   UNL     1      61.798  36.601  60.525  1.00  0.00    -0.000 C 
BRANCH  17  18
ATOM     18  C   UNL     1      61.105  35.371  59.921  1.00  0.00    -0.000 C 
BRANCH  18  19
ATOM     19  C   UNL     1      61.502  35.129  58.458  1.00  0.00    -0.003 C 
ATOM     20  C   UNL     1      60.300  35.102  57.515  1.00  0.00     0.004 C 
ENDBRANCH  18  19
ENDBRANCH  17  18
ENDBRANCH  16  17
ENDBRANCH  15  16
ENDBRANCH  14  15
ENDBRANCH  13  14
ENDBRANCH  12  13
ENDBRANCH   1  12
TORSDOF 16
ENDMDL
MODEL 3
REMARK VINA RESULT:    -3.177     10.320     13.042
REMARK INTER + INTRA:          -8.832
REMARK INTER:                  -6.126
REMARK INTRA:                  -2.707
REMARK UNBOUND:                -2.684
REMARK SMILES CCCCCCCCCCCCCCCCCC(=O)[O-]
REMARK SMILES IDX 10 1 11 2 12 3 13 4 14 5 15 6 16 7 17 8 18 9 19 10 20 11
REMARK SMILES IDX 9 12 8 13 7 14 6 15 5 16 4 17 3 18 2 19 1 20
REMARK H PARENT
REMARK Flexibility Score: inf
ROOT
ATOM      1  C   UNL     1      58.611  25.404  51.163  1.00  0.00     0.000 C 
ENDROOT
BRANCH   1   2
ATOM      2  C   UNL     1      58.610  26.265  49.888  1.00  0.00     0.000 C 
BRANCH   2   3
ATOM      3  C   UNL     1      60.029  26.548  49.368  1.00  0.00     0.000 C 
BRANCH   3   4
ATOM      4  C   UNL     1      60.252  28.034  49.034  1.00  0.00     0.000 C 
BRANCH   4   5
ATOM      5  C   UNL     1      59.222  28.949  49.714  1.00  0.00     0.000 C 
BRANCH   5   6
ATOM      6  C   UNL     1      59.790  29.659  50.953  1.00  0.00     0.000 C 
BRANCH   6   7
ATOM      7  C   UNL     1      58.677  30.370  51.738  1.00  0.00     0.006 C 
BRANCH   7   8
ATOM      8  C   UNL     1      59.196  31.006  53.033  1.00  0.00     0.053 C 
BRANCH   8   9
ATOM      9  C   UNL     1      59.137  32.502  52.977  1.00  0.00     0.041 C 
ATOM     10  O   UNL     1      60.154  33.166  52.641  1.00  0.00    -0.550 OA
ATOM     11  O   UNL     1      57.951  33.161  53.268  1.00  0.00    -0.550 OA
ENDBRANCH   8   9
ENDBRANCH   7   8
ENDBRANCH   6   7
ENDBRANCH   5   6
ENDBRANCH   4   5
ENDBRANCH   3   4
ENDBRANCH   2   3
ENDBRANCH   1   2
BRANCH   1  12
ATOM     12  C   UNL     1      57.384  25.653  52.059  1.00  0.00     0.000 C 
BRANCH  12  13
ATOM     13  C   UNL     1      57.191  27.110  52.517  1.00  0.00    -0.000 C 
BRANCH  13  14
ATOM     14  C   UNL     1      55.712  27.531  52.582  1.00  0.00    -0.000 C 
BRANCH  14  15
ATOM     15  C   UNL     1      55.415  28.758  51.694  1.00  0.00    -0.000 C 
BRANCH  15  16
ATOM     16  C   UNL     1      55.594  28.492  50.189  1.00  0.00    -0.000 C 
BRANCH  16  17
ATOM     17  C   UNL     1      54.508  27.574  49.612  1.00  0.00    -0.000 C 
BRANCH  17  18
ATOM     18  C   UNL     1      55.100  26.225  49.178  1.00  0.00    -0.000 C 
BRANCH  18  19
ATOM     19  C   UNL     1      54.116  25.060  49.369  1.00  0.00    -0.003 C 
ATOM     20  C   UNL     1      53.970  24.644  50.832  1.00  0.00     0.004 C 
ENDBRANCH  18  19
ENDBRANCH  17  18
ENDBRANCH  16  17
ENDBRANCH  15  16
ENDBRANCH  14  15
ENDBRANCH  13  14
ENDBRANCH  12  13
ENDBRANCH   1  12
TORSDOF 16
ENDMDL
MODEL 4
REMARK VINA RESULT:    -3.155      2.713      4.138
REMARK INTER + INTRA:          -8.790
REMARK INTER:                  -6.665
REMARK INTRA:                  -2.125
REMARK UNBOUND:                -2.684
REMARK SMILES CCCCCCCCCCCCCCCCCC(=O)[O-]
REMARK SMILES IDX 10 1 11 2 12 3 13 4 14 5 15 6 16 7 17 8 18 9 19 10 20 11
REMARK SMILES IDX 9 12 8 13 7 14 6 15 5 16 4 17 3 18 2 19 1 20
REMARK H PARENT
REMARK Flexibility Score: inf
ROOT
ATOM      1  C   UNL     1      65.115  29.023  60.094  1.00  0.00     0.000 C 
ENDROOT
BRANCH   1   2
ATOM      2  C   UNL     1      63.903  28.311  59.468  1.00  0.00     0.000 C 
BRANCH   2   3
ATOM      3  C   UNL     1      63.107  27.491  60.497  1.00  0.00     0.000 C 
BRANCH   3   4
ATOM      4  C   UNL     1      62.226  28.373  61.402  1.00  0.00     0.000 C 
BRANCH   4   5
ATOM      5  C   UNL     1      61.362  29.358  60.601  1.00  0.00     0.000 C 
BRANCH   5   6
ATOM      6  C   UNL     1      61.165  30.696  61.328  1.00  0.00     0.000 C 
BRANCH   6   7
ATOM      7  C   UNL     1      61.026  31.852  60.325  1.00  0.00     0.006 C 
BRANCH   7   8
ATOM      8  C   UNL     1      61.091  31.369  58.871  1.00  0.00     0.053 C 
BRANCH   8   9
ATOM      9  C   UNL     1      61.282  32.508  57.917  1.00  0.00     0.041 C 
ATOM     10  O   UNL     1      62.313  32.566  57.195  1.00  0.00    -0.550 OA
ATOM     11  O   UNL     1      60.307  33.490  57.803  1.00  0.00    -0.550 OA
ENDBRANCH   8   9
ENDBRANCH   7   8
ENDBRANCH   6   7
ENDBRANCH   5   6
ENDBRANCH   4   5
ENDBRANCH   3   4
ENDBRANCH   2   3
ENDBRANCH   1   2
BRANCH   1  12
ATOM     12  C   UNL     1      65.295  30.465  59.584  1.00  0.00     0.000 C 
BRANCH  12  13
ATOM     13  C   UNL     1      64.610  31.550  60.433  1.00  0.00    -0.000 C 
BRANCH  13  14
ATOM     14  C   UNL     1      64.631  32.939  59.768  1.00  0.00    -0.000 C 
BRANCH  14  15
ATOM     15  C   UNL     1      63.950  34.014  60.642  1.00  0.00    -0.000 C 
BRANCH  15  16
ATOM     16  C   UNL     1      64.941  34.953  61.352  1.00  0.00    -0.000 C 
BRANCH  16  17
ATOM     17  C   UNL     1      64.462  36.410  61.387  1.00  0.00    -0.000 C 
BRANCH  17  18
ATOM     18  C   UNL     1      63.478  36.695  60.242  1.00  0.00    -0.000 C 
BRANCH  18  19
ATOM     19  C   UNL     1      62.057  36.989  60.746  1.00  0.00    -0.003 C 
ATOM     20  C   UNL     1      60.999  36.114  60.073  1.00  0.00     0.004 C 
ENDBRANCH  18  19
ENDBRANCH  17  18
ENDBRANCH  16  17
ENDBRANCH  15  16
ENDBRANCH  14  15
ENDBRANCH  13  14
ENDBRANCH  12  13
ENDBRANCH   1  12
TORSDOF 16
ENDMDL
MODEL 5
REMARK VINA RESULT:    -3.123     11.079     12.858
REMARK INTER + INTRA:          -8.727
REMARK INTER:                  -6.662
REMARK INTRA:                  -2.065
REMARK UNBOUND:                -2.684
REMARK SMILES CCCCCCCCCCCCCCCCCC(=O)[O-]
REMARK SMILES IDX 10 1 11 2 12 3 13 4 14 5 15 6 16 7 17 8 18 9 19 10 20 11
REMARK SMILES IDX 9 12 8 13 7 14 6 15 5 16 4 17 3 18 2 19 1 20
REMARK H PARENT
REMARK Flexibility Score: inf
ROOT
ATOM      1  C   UNL     1      60.359  26.165  49.393  1.00  0.00     0.000 C 
ENDROOT
BRANCH   1   2
ATOM      2  C   UNL     1      59.555  25.258  50.340  1.00  0.00     0.000 C 
BRANCH   2   3
ATOM      3  C   UNL     1      60.404  24.116  50.922  1.00  0.00     0.000 C 
BRANCH   3   4
ATOM      4  C   UNL     1      61.199  23.360  49.842  1.00  0.00     0.000 C 
BRANCH   4   5
ATOM      5  C   UNL     1      62.702  23.296  50.156  1.00  0.00     0.000 C 
BRANCH   5   6
ATOM      6  C   UNL     1      63.172  24.467  51.031  1.00  0.00     0.000 C 
BRANCH   6   7
ATOM      7  C   UNL     1      64.255  25.288  50.315  1.00  0.00     0.006 C 
BRANCH   7   8
ATOM      8  C   UNL     1      64.082  26.796  50.538  1.00  0.00     0.053 C 
BRANCH   8   9
ATOM      9  C   UNL     1      64.582  27.589  49.370  1.00  0.00     0.041 C 
ATOM     10  O   UNL     1      65.809  27.852  49.259  1.00  0.00    -0.550 OA
ATOM     11  O   UNL     1      63.696  28.013  48.388  1.00  0.00    -0.550 OA
ENDBRANCH   8   9
ENDBRANCH   7   8
ENDBRANCH   6   7
ENDBRANCH   5   6
ENDBRANCH   4   5
ENDBRANCH   3   4
ENDBRANCH   2   3
ENDBRANCH   1   2
BRANCH   1  12
ATOM     12  C   UNL     1      60.525  27.599  49.930  1.00  0.00     0.000 C 
BRANCH  12  13
ATOM     13  C   UNL     1      59.802  28.690  49.120  1.00  0.00    -0.000 C 
BRANCH  13  14
ATOM     14  C   UNL     1      58.563  29.255  49.839  1.00  0.00    -0.000 C 
BRANCH  14  15
ATOM     15  C   UNL     1      58.374  28.640  51.242  1.00  0.00    -0.000 C 
BRANCH  15  16
ATOM     16  C   UNL     1      57.018  27.938  51.434  1.00  0.00    -0.000 C 
BRANCH  16  17
ATOM     17  C   UNL     1      56.254  27.745  50.117  1.00  0.00    -0.000 C 
BRANCH  17  18
ATOM     18  C   UNL     1      56.224  26.265  49.709  1.00  0.00    -0.000 C 
BRANCH  18  19
ATOM     19  C   UNL     1      54.958  25.897  48.920  1.00  0.00    -0.003 C 
ATOM     20  C   UNL     1      54.064  24.906  49.666  1.00  0.00     0.004 C 
ENDBRANCH  18  19
ENDBRANCH  17  18
ENDBRANCH  16  17
ENDBRANCH  15  16
ENDBRANCH  14  15
ENDBRANCH  13  14
ENDBRANCH  12  13
ENDBRANCH   1  12
TORSDOF 16
ENDMDL
MODEL 6
REMARK VINA RESULT:    -3.120      4.126      5.511
REMARK INTER + INTRA:          -8.721
REMARK INTER:                  -7.201
REMARK INTRA:                  -1.520
REMARK UNBOUND:                -2.684
REMARK SMILES CCCCCCCCCCCCCCCCCC(=O)[O-]
REMARK SMILES IDX 10 1 11 2 12 3 13 4 14 5 15 6 16 7 17 8 18 9 19 10 20 11
REMARK SMILES IDX 9 12 8 13 7 14 6 15 5 16 4 17 3 18 2 19 1 20
REMARK H PARENT
REMARK Flexibility Score: inf
ROOT
ATOM      1  C   UNL     1      61.264  30.709  61.424  1.00  0.00     0.000 C 
ENDROOT
BRANCH   1   2
ATOM      2  C   UNL     1      62.603  29.953  61.404  1.00  0.00     0.000 C 
BRANCH   2   3
ATOM      3  C   UNL     1      62.609  28.793  60.395  1.00  0.00     0.000 C 
BRANCH   3   4
ATOM      4  C   UNL     1      62.550  27.414  61.078  1.00  0.00     0.000 C 
BRANCH   4   5
ATOM      5  C   UNL     1      61.155  26.777  60.994  1.00  0.00     0.000 C 
BRANCH   5   6
ATOM      6  C   UNL     1      60.272  27.428  59.919  1.00  0.00     0.000 C 
BRANCH   6   7
ATOM      7  C   UNL     1      58.914  27.848  60.502  1.00  0.00     0.006 C 
BRANCH   7   8
ATOM      8  C   UNL     1      58.314  26.767  61.410  1.00  0.00     0.053 C 
BRANCH   8   9
ATOM      9  C   UNL     1      56.837  26.948  61.584  1.00  0.00     0.041 C 
ATOM     10  O   UNL     1      56.040  26.036  61.237  1.00  0.00    -0.550 OA
ATOM     11  O   UNL     1      56.342  28.112  62.158  1.00  0.00    -0.550 OA
ENDBRANCH   8   9
ENDBRANCH   7   8
ENDBRANCH   6   7
ENDBRANCH   5   6
ENDBRANCH   4   5
ENDBRANCH   3   4
ENDBRANCH   2   3
ENDBRANCH   1   2
BRANCH   1  12
ATOM     12  C   UNL     1      61.205  31.856  60.399  1.00  0.00     0.000 C 
BRANCH  12  13
ATOM     13  C   UNL     1      62.541  32.574  60.141  1.00  0.00    -0.000 C 
BRANCH  13  14
ATOM     14  C   UNL     1      62.378  33.893  59.364  1.00  0.00    -0.000 C 
BRANCH  14  15
ATOM     15  C   UNL     1      61.271  34.789  59.961  1.00  0.00    -0.000 C 
BRANCH  15  16
ATOM     16  C   UNL     1      61.700  36.253  60.161  1.00  0.00    -0.000 C 
BRANCH  16  17
ATOM     17  C   UNL     1      63.218  36.450  60.065  1.00  0.00    -0.000 C 
BRANCH  17  18
ATOM     18  C   UNL     1      63.866  36.429  61.457  1.00  0.00    -0.000 C 
BRANCH  18  19
ATOM     19  C   UNL     1      65.247  35.756  61.455  1.00  0.00    -0.003 C 
ATOM     20  C   UNL     1      65.853  35.654  60.055  1.00  0.00     0.004 C 
ENDBRANCH  18  19
ENDBRANCH  17  18
ENDBRANCH  16  17
ENDBRANCH  15  16
ENDBRANCH  14  15
ENDBRANCH  13  14
ENDBRANCH  12  13
ENDBRANCH   1  12
TORSDOF 16
ENDMDL
MODEL 7
REMARK VINA RESULT:    -3.094     10.468     12.847
REMARK INTER + INTRA:          -8.671
REMARK INTER:                  -6.105
REMARK INTRA:                  -2.566
REMARK UNBOUND:                -2.684
REMARK SMILES CCCCCCCCCCCCCCCCCC(=O)[O-]
REMARK SMILES IDX 10 1 11 2 12 3 13 4 14 5 15 6 16 7 17 8 18 9 19 10 20 11
REMARK SMILES IDX 9 12 8 13 7 14 6 15 5 16 4 17 3 18 2 19 1 20
REMARK H PARENT
REMARK Flexibility Score: inf
ROOT
ATOM      1  C   UNL     1      55.997  26.065  50.724  1.00  0.00     0.000 C 
ENDROOT
BRANCH   1   2
ATOM      2  C   UNL     1      57.247  26.938  50.931  1.00  0.00     0.000 C 
BRANCH   2   3
ATOM      3  C   UNL     1      57.256  28.178  50.022  1.00  0.00     0.000 C 
BRANCH   3   4
ATOM      4  C   UNL     1      58.420  29.135  50.338  1.00  0.00     0.000 C 
BRANCH   4   5
ATOM      5  C   UNL     1      59.409  29.261  49.169  1.00  0.00     0.000 C 
BRANCH   5   6
ATOM      6  C   UNL     1      60.319  28.032  49.030  1.00  0.00     0.000 C 
BRANCH   6   7
ATOM      7  C   UNL     1      61.274  27.917  50.228  1.00  0.00     0.006 C 
BRANCH   7   8
ATOM      8  C   UNL     1      60.934  26.723  51.129  1.00  0.00     0.053 C 
BRANCH   8   9
ATOM      9  C   UNL     1      60.983  25.429  50.376  1.00  0.00     0.041 C 
ATOM     10  O   UNL     1      62.065  25.029  49.870  1.00  0.00    -0.550 OA
ATOM     11  O   UNL     1      59.840  24.650  50.259  1.00  0.00    -0.550 OA
ENDBRANCH   8   9
ENDBRANCH   7   8
ENDBRANCH   6   7
ENDBRANCH   5   6
ENDBRANCH   4   5
ENDBRANCH   3   4
ENDBRANCH   2   3
ENDBRANCH   1   2
BRANCH   1  12
ATOM     12  C   UNL     1      55.466  26.109  49.280  1.00  0.00     0.000 C 
BRANCH  12  13
ATOM     13  C   UNL     1      53.958  26.389  49.144  1.00  0.00    -0.000 C 
BRANCH  13  14
ATOM     14  C   UNL     1      53.441  27.414  50.169  1.00  0.00    -0.000 C 
BRANCH  14  15
ATOM     15  C   UNL     1      53.579  28.866  49.663  1.00  0.00    -0.000 C 
BRANCH  15  16
ATOM     16  C   UNL     1      54.079  29.851  50.734  1.00  0.00    -0.000 C 
BRANCH  16  17
ATOM     17  C   UNL     1      54.392  29.169  52.073  1.00  0.00    -0.000 C 
BRANCH  17  18
ATOM     18  C   UNL     1      55.220  30.090  52.981  1.00  0.00    -0.000 C 
BRANCH  18  19
ATOM     19  C   UNL     1      55.873  29.336  54.149  1.00  0.00    -0.003 C 
ATOM     20  C   UNL     1      57.362  29.074  53.924  1.00  0.00     0.004 C 
ENDBRANCH  18  19
ENDBRANCH  17  18
ENDBRANCH  16  17
ENDBRANCH  15  16
ENDBRANCH  14  15
ENDBRANCH  13  14
ENDBRANCH  12  13
ENDBRANCH   1  12
TORSDOF 16
ENDMDL
MODEL 8
REMARK VINA RESULT:    -3.023     10.762     13.087
REMARK INTER + INTRA:          -8.535
REMARK INTER:                  -5.852
REMARK INTRA:                  -2.683
REMARK UNBOUND:                -2.684
REMARK SMILES CCCCCCCCCCCCCCCCCC(=O)[O-]
REMARK SMILES IDX 10 1 11 2 12 3 13 4 14 5 15 6 16 7 17 8 18 9 19 10 20 11
REMARK SMILES IDX 9 12 8 13 7 14 6 15 5 16 4 17 3 18 2 19 1 20
REMARK H PARENT
REMARK Flexibility Score: inf
ROOT
ATOM      1  C   UNL     1      57.715  26.494  50.571  1.00  0.00     0.000 C 
ENDROOT
BRANCH   1   2
ATOM      2  C   UNL     1      56.302  25.886  50.593  1.00  0.00     0.000 C 
BRANCH   2   3
ATOM      3  C   UNL     1      55.468  26.295  49.368  1.00  0.00     0.000 C 
BRANCH   3   4
ATOM      4  C   UNL     1      54.004  26.609  49.727  1.00  0.00     0.000 C 
BRANCH   4   5
ATOM      5  C   UNL     1      53.660  28.095  49.543  1.00  0.00     0.000 C 
BRANCH   5   6
ATOM      6  C   UNL     1      54.789  29.025  50.010  1.00  0.00     0.000 C 
BRANCH   6   7
ATOM      7  C   UNL     1      54.379  29.798  51.272  1.00  0.00     0.006 C 
BRANCH   7   8
ATOM      8  C   UNL     1      54.864  29.112  52.555  1.00  0.00     0.053 C 
BRANCH   8   9
ATOM      9  C   UNL     1      55.577  30.070  53.460  1.00  0.00     0.041 C 
ATOM     10  O   UNL     1      56.375  30.920  52.984  1.00  0.00    -0.550 OA
ATOM     11  O   UNL     1      55.337  30.043  54.827  1.00  0.00    -0.550 OA
ENDBRANCH   8   9
ENDBRANCH   7   8
ENDBRANCH   6   7
ENDBRANCH   5   6
ENDBRANCH   4   5
ENDBRANCH   3   4
ENDBRANCH   2   3
ENDBRANCH   1   2
BRANCH   1  12
ATOM     12  C   UNL     1      57.981  27.442  51.755  1.00  0.00     0.000 C 
BRANCH  12  13
ATOM     13  C   UNL     1      58.633  28.786  51.385  1.00  0.00    -0.000 C 
BRANCH  13  14
ATOM     14  C   UNL     1      58.349  29.215  49.934  1.00  0.00    -0.000 C 
BRANCH  14  15
ATOM     15  C   UNL     1      59.612  29.147  49.048  1.00  0.00    -0.000 C 
BRANCH  15  16
ATOM     16  C   UNL     1      60.926  29.089  49.847  1.00  0.00    -0.000 C 
BRANCH  16  17
ATOM     17  C   UNL     1      61.838  27.934  49.413  1.00  0.00    -0.000 C 
BRANCH  17  18
ATOM     18  C   UNL     1      61.081  26.598  49.428  1.00  0.00    -0.000 C 
BRANCH  18  19
ATOM     19  C   UNL     1      61.646  25.612  50.462  1.00  0.00    -0.003 C 
ATOM     20  C   UNL     1      61.408  26.065  51.903  1.00  0.00     0.004 C 
ENDBRANCH  18  19
ENDBRANCH  17  18
ENDBRANCH  16  17
ENDBRANCH  15  16
ENDBRANCH  14  15
ENDBRANCH  13  14
ENDBRANCH  12  13
ENDBRANCH   1  12
TORSDOF 16
ENDMDL
MODEL 9
REMARK VINA RESULT:    -3.018     10.164     12.770
REMARK INTER + INTRA:          -8.525
REMARK INTER:                  -5.653
REMARK INTRA:                  -2.872
REMARK UNBOUND:                -2.684
REMARK SMILES CCCCCCCCCCCCCCCCCC(=O)[O-]
REMARK SMILES IDX 10 1 11 2 12 3 13 4 14 5 15 6 16 7 17 8 18 9 19 10 20 11
REMARK SMILES IDX 9 12 8 13 7 14 6 15 5 16 4 17 3 18 2 19 1 20
REMARK H PARENT
REMARK Flexibility Score: inf
ROOT
ATOM      1  C   UNL     1      57.316  29.747  53.472  1.00  0.00     0.000 C 
ENDROOT
BRANCH   1   2
ATOM      2  C   UNL     1      57.783  28.880  52.290  1.00  0.00     0.000 C 
BRANCH   2   3
ATOM      3  C   UNL     1      58.484  29.705  51.198  1.00  0.00     0.000 C 
BRANCH   3   4
ATOM      4  C   UNL     1      58.444  29.018  49.820  1.00  0.00     0.000 C 
BRANCH   4   5
ATOM      5  C   UNL     1      59.822  28.984  49.141  1.00  0.00     0.000 C 
BRANCH   5   6
ATOM      6  C   UNL     1      60.596  27.692  49.439  1.00  0.00     0.000 C 
BRANCH   6   7
ATOM      7  C   UNL     1      59.670  26.468  49.370  1.00  0.00     0.006 C 
BRANCH   7   8
ATOM      8  C   UNL     1      59.660  25.674  50.682  1.00  0.00     0.053 C 
BRANCH   8   9
ATOM      9  C   UNL     1      60.385  24.370  50.547  1.00  0.00     0.041 C 
ATOM     10  O   UNL     1      61.181  24.182  49.589  1.00  0.00    -0.550 OA
ATOM     11  O   UNL     1      60.204  23.373  51.496  1.00  0.00    -0.550 OA
ENDBRANCH   8   9
ENDBRANCH   7   8
ENDBRANCH   6   7
ENDBRANCH   5   6
ENDBRANCH   4   5
ENDBRANCH   3   4
ENDBRANCH   2   3
ENDBRANCH   1   2
BRANCH   1  12
ATOM     12  C   UNL     1      55.980  30.462  53.202  1.00  0.00     0.000 C 
BRANCH  12  13
ATOM     13  C   UNL     1      54.842  29.557  52.698  1.00  0.00    -0.000 C 
BRANCH  13  14
ATOM     14  C   UNL     1      54.216  30.050  51.381  1.00  0.00    -0.000 C 
BRANCH  14  15
ATOM     15  C   UNL     1      54.769  29.294  50.154  1.00  0.00    -0.000 C 
BRANCH  15  16
ATOM     16  C   UNL     1      54.367  27.809  50.108  1.00  0.00    -0.000 C 
BRANCH  16  17
ATOM     17  C   UNL     1      55.491  26.901  49.593  1.00  0.00    -0.000 C 
BRANCH  17  18
ATOM     18  C   UNL     1      56.038  26.009  50.717  1.00  0.00    -0.000 C 
BRANCH  18  19
ATOM     19  C   UNL     1      55.082  25.918  51.917  1.00  0.00    -0.003 C 
ATOM     20  C   UNL     1      55.813  25.947  53.259  1.00  0.00     0.004 C 
ENDBRANCH  18  19
ENDBRANCH  17  18
ENDBRANCH  16  17
ENDBRANCH  15  16
ENDBRANCH  14  15
ENDBRANCH  13  14
ENDBRANCH  12  13
ENDBRANCH   1  12
TORSDOF 16
ENDMDL
