MODEL 1
REMARK VINA RESULT:    -2.865      0.000      0.000
REMARK INTER + INTRA:         -11.421
REMARK INTER:                  -6.550
REMARK INTRA:                  -4.871
REMARK UNBOUND:                -4.871
REMARK SMILES CCCCCCCCCCCCCCCCCCCCCCCC(=O)[O-]
REMARK SMILES IDX 13 1 14 2 15 3 16 4 17 5 18 6 19 7 20 8 21 9 22 10 23 11
REMARK SMILES IDX 24 12 25 13 26 14 12 15 11 16 10 17 9 18 8 19 7 20 6 21 5 22
REMARK SMILES IDX 4 23 3 24 2 25 1 26
REMARK H PARENT
REMARK Flexibility Score: inf
ROOT
ATOM      1  C   UNL     1      62.539  32.100  58.090  1.00  0.00     0.000 C 
ENDROOT
BRANCH   1   2
ATOM      2  C   UNL     1      62.993  33.472  57.569  1.00  0.00     0.000 C 
BRANCH   2   3
ATOM      3  C   UNL     1      64.201  33.990  58.363  1.00  0.00     0.000 C 
BRANCH   3   4
ATOM      4  C   UNL     1      64.449  33.204  59.664  1.00  0.00     0.000 C 
BRANCH   4   5
ATOM      5  C   UNL     1      64.119  33.971  60.956  1.00  0.00     0.000 C 
BRANCH   5   6
ATOM      6  C   UNL     1      63.781  35.450  60.701  1.00  0.00     0.000 C 
BRANCH   6   7
ATOM      7  C   UNL     1      62.289  35.764  60.916  1.00  0.00     0.000 C 
BRANCH   7   8
ATOM      8  C   UNL     1      61.571  36.347  59.683  1.00  0.00     0.000 C 
BRANCH   8   9
ATOM      9  C   UNL     1      60.225  35.659  59.398  1.00  0.00     0.000 C 
BRANCH   9  10
ATOM     10  C   UNL     1      59.919  35.554  57.895  1.00  0.00     0.006 C 
BRANCH  10  11
ATOM     11  C   UNL     1      58.717  34.650  57.594  1.00  0.00     0.053 C 
BRANCH  11  12
ATOM     12  C   UNL     1      57.438  35.420  57.696  1.00  0.00     0.041 C 
ATOM     13  O   UNL     1      57.425  36.658  57.465  1.00  0.00    -0.550 OA
ATOM     14  O   UNL     1      56.257  34.769  58.030  1.00  0.00    -0.550 OA
ENDBRANCH  11  12
ENDBRANCH  10  11
ENDBRANCH   9  10
ENDBRANCH   8   9
ENDBRANCH   7   8
ENDBRANCH   6   7
ENDBRANCH   5   6
ENDBRANCH   4   5
ENDBRANCH   3   4
ENDBRANCH   2   3
ENDBRANCH   1   2
BRANCH   1  15
ATOM     15  C   UNL     1      61.041  31.844  57.862  1.00  0.00     0.000 C 
BRANCH  15  16
ATOM     16  C   UNL     1      60.303  31.465  59.157  1.00  0.00     0.000 C 
BRANCH  16  17
ATOM     17  C   UNL     1      60.937  32.090  60.413  1.00  0.00     0.000 C 
BRANCH  17  18
ATOM     18  C   UNL     1      60.922  31.196  61.667  1.00  0.00    -0.000 C 
BRANCH  18  19
ATOM     19  C   UNL     1      61.816  29.955  61.527  1.00  0.00    -0.000 C 
BRANCH  19  20
ATOM     20  C   UNL     1      63.292  30.351  61.404  1.00  0.00    -0.000 C 
BRANCH  20  21
ATOM     21  C   UNL     1      64.018  29.459  60.388  1.00  0.00    -0.000 C 
BRANCH  21  22
ATOM     22  C   UNL     1      63.715  27.963  60.576  1.00  0.00    -0.000 C 
BRANCH  22  23
ATOM     23  C   UNL     1      63.140  27.287  59.313  1.00  0.00    -0.000 C 
BRANCH  23  24
ATOM     24  C   UNL     1      62.723  28.316  58.247  1.00  0.00    -0.000 C 
BRANCH  24  25
ATOM     25  C   UNL     1      61.264  28.140  57.802  1.00  0.00    -0.003 C 
ATOM     26  C   UNL     1      60.353  27.692  58.945  1.00  0.00     0.004 C 
ENDBRANCH  24  25
ENDBRANCH  23  24
ENDBRANCH  22  23
ENDBRANCH  21  22
ENDBRANCH  20  21
ENDBRANCH  19  20
ENDBRANCH  18  19
ENDBRANCH  17  18
ENDBRANCH  16  17
ENDBRANCH  15  16
ENDBRANCH   1  15
TORSDOF 22
ENDMDL
MODEL 2
REMARK VINA RESULT:    -2.860      8.379     11.227
REMARK INTER + INTRA:         -11.409
REMARK INTER:                  -6.957
REMARK INTRA:                  -4.452
REMARK UNBOUND:                -4.871
REMARK SMILES CCCCCCCCCCCCCCCCCCCCCCCC(=O)[O-]
REMARK SMILES IDX 13 1 14 2 15 3 16 4 17 5 18 6 19 7 20 8 21 9 22 10 23 11
REMARK SMILES IDX 24 12 25 13 26 14 12 15 11 16 10 17 9 18 8 19 7 20 6 21 5 22
REMARK SMILES IDX 4 23 3 24 2 25 1 26
REMARK H PARENT
REMARK Flexibility Score: inf
ROOT
ATOM      1  C   UNL     1      58.415  30.178  51.922  1.00  0.00     0.000 C 
ENDROOT
BRANCH   1   2
ATOM      2  C   UNL     1      58.011  29.201  50.809  1.00  0.00     0.000 C 
BRANCH   2   3
ATOM      3  C   UNL     1      58.890  29.389  49.564  1.00  0.00     0.000 C 
BRANCH   3   4
ATOM      4  C   UNL     1      59.629  28.102  49.149  1.00  0.00     0.000 C 
BRANCH   4   5
ATOM      5  C   UNL     1      58.902  26.795  49.510  1.00  0.00     0.000 C 
BRANCH   5   6
ATOM      6  C   UNL     1      59.843  25.736  50.110  1.00  0.00     0.000 C 
BRANCH   6   7
ATOM      7  C   UNL     1      61.107  26.353  50.738  1.00  0.00     0.000 C 
BRANCH   7   8
ATOM      8  C   UNL     1      61.001  26.634  52.249  1.00  0.00     0.000 C 
BRANCH   8   9
ATOM      9  C   UNL     1      61.390  28.077  52.614  1.00  0.00     0.000 C 
BRANCH   9  10
ATOM     10  C   UNL     1      62.339  28.714  51.586  1.00  0.00     0.006 C 
BRANCH  10  11
ATOM     11  C   UNL     1      62.004  30.184  51.298  1.00  0.00     0.053 C 
BRANCH  11  12
ATOM     12  C   UNL     1      62.672  30.640  50.039  1.00  0.00     0.041 C 
ATOM     13  O   UNL     1      62.475  31.806  49.605  1.00  0.00    -0.550 OA
ATOM     14  O   UNL     1      63.525  29.785  49.352  1.00  0.00    -0.550 OA
ENDBRANCH  11  12
ENDBRANCH  10  11
ENDBRANCH   9  10
ENDBRANCH   8   9
ENDBRANCH   7   8
ENDBRANCH   6   7
ENDBRANCH   5   6
ENDBRANCH   4   5
ENDBRANCH   3   4
ENDBRANCH   2   3
ENDBRANCH   1   2
BRANCH   1  15
ATOM     15  C   UNL     1      58.181  29.606  53.329  1.00  0.00     0.000 C 
BRANCH  15  16
ATOM     16  C   UNL     1      57.581  28.190  53.298  1.00  0.00     0.000 C 
BRANCH  16  17
ATOM     17  C   UNL     1      56.162  28.127  53.892  1.00  0.00     0.000 C 
BRANCH  17  18
ATOM     18  C   UNL     1      55.658  29.438  54.523  1.00  0.00    -0.000 C 
BRANCH  18  19
ATOM     19  C   UNL     1      54.368  29.958  53.871  1.00  0.00    -0.000 C 
BRANCH  19  20
ATOM     20  C   UNL     1      54.676  30.755  52.599  1.00  0.00    -0.000 C 
BRANCH  20  21
ATOM     21  C   UNL     1      53.791  30.295  51.434  1.00  0.00    -0.000 C 
BRANCH  21  22
ATOM     22  C   UNL     1      54.490  29.286  50.508  1.00  0.00    -0.000 C 
BRANCH  22  23
ATOM     23  C   UNL     1      54.119  27.817  50.804  1.00  0.00    -0.000 C 
BRANCH  23  24
ATOM     24  C   UNL     1      55.201  26.839  50.314  1.00  0.00    -0.000 C 
BRANCH  24  25
ATOM     25  C   UNL     1      54.695  25.920  49.192  1.00  0.00    -0.003 C 
ATOM     26  C   UNL     1      53.485  25.088  49.617  1.00  0.00     0.004 C 
ENDBRANCH  24  25
ENDBRANCH  23  24
ENDBRANCH  22  23
ENDBRANCH  21  22
ENDBRANCH  20  21
ENDBRANCH  19  20
ENDBRANCH  18  19
ENDBRANCH  17  18
ENDBRANCH  16  17
ENDBRANCH  15  16
ENDBRANCH   1  15
TORSDOF 22
ENDMDL
MODEL 3
REMARK VINA RESULT:    -2.783      9.559     12.696
REMARK INTER + INTRA:         -11.234
REMARK INTER:                  -6.718
REMARK INTRA:                  -4.516
REMARK UNBOUND:                -4.871
REMARK SMILES CCCCCCCCCCCCCCCCCCCCCCCC(=O)[O-]
REMARK SMILES IDX 13 1 14 2 15 3 16 4 17 5 18 6 19 7 20 8 21 9 22 10 23 11
REMARK SMILES IDX 24 12 25 13 26 14 12 15 11 16 10 17 9 18 8 19 7 20 6 21 5 22
REMARK SMILES IDX 4 23 3 24 2 25 1 26
REMARK H PARENT
REMARK Flexibility Score: inf
ROOT
ATOM      1  C   UNL     1      58.433  26.293  53.836  1.00  0.00     0.000 C 
ENDROOT
BRANCH   1   2
ATOM      2  C   UNL     1      59.827  25.680  53.638  1.00  0.00     0.000 C 
BRANCH   2   3
ATOM      3  C   UNL     1      60.905  26.771  53.572  1.00  0.00     0.000 C 
BRANCH   3   4
ATOM      4  C   UNL     1      62.242  26.263  52.999  1.00  0.00     0.000 C 
BRANCH   4   5
ATOM      5  C   UNL     1      62.555  26.738  51.569  1.00  0.00     0.000 C 
BRANCH   5   6
ATOM      6  C   UNL     1      62.725  25.574  50.579  1.00  0.00     0.000 C 
BRANCH   6   7
ATOM      7  C   UNL     1      62.147  24.250  51.113  1.00  0.00     0.000 C 
BRANCH   7   8
ATOM      8  C   UNL     1      61.533  23.336  50.036  1.00  0.00     0.000 C 
BRANCH   8   9
ATOM      9  C   UNL     1      60.375  22.477  50.574  1.00  0.00     0.000 C 
BRANCH   9  10
ATOM     10  C   UNL     1      60.455  22.260  52.093  1.00  0.00     0.006 C 
BRANCH  10  11
ATOM     11  C   UNL     1      59.092  21.940  52.721  1.00  0.00     0.053 C 
BRANCH  11  12
ATOM     12  C   UNL     1      58.843  20.465  52.721  1.00  0.00     0.041 C 
ATOM     13  O   UNL     1      57.931  19.976  52.003  1.00  0.00    -0.550 OA
ATOM     14  O   UNL     1      59.628  19.626  53.502  1.00  0.00    -0.550 OA
ENDBRANCH  11  12
ENDBRANCH  10  11
ENDBRANCH   9  10
ENDBRANCH   8   9
ENDBRANCH   7   8
ENDBRANCH   6   7
ENDBRANCH   5   6
ENDBRANCH   4   5
ENDBRANCH   3   4
ENDBRANCH   2   3
ENDBRANCH   1   2
BRANCH   1  15
ATOM     15  C   UNL     1      57.434  25.860  52.752  1.00  0.00     0.000 C 
BRANCH  15  16
ATOM     16  C   UNL     1      58.117  25.155  51.567  1.00  0.00     0.000 C 
BRANCH  16  17
ATOM     17  C   UNL     1      58.017  25.955  50.255  1.00  0.00     0.000 C 
BRANCH  17  18
ATOM     18  C   UNL     1      59.366  26.332  49.615  1.00  0.00    -0.000 C 
BRANCH  18  19
ATOM     19  C   UNL     1      59.563  27.850  49.487  1.00  0.00    -0.000 C 
BRANCH  19  20
ATOM     20  C   UNL     1      59.196  28.564  50.793  1.00  0.00    -0.000 C 
BRANCH  20  21
ATOM     21  C   UNL     1      58.037  29.547  50.576  1.00  0.00    -0.000 C 
BRANCH  21  22
ATOM     22  C   UNL     1      56.843  29.282  51.508  1.00  0.00    -0.000 C 
BRANCH  22  23
ATOM     23  C   UNL     1      55.502  29.119  50.761  1.00  0.00    -0.000 C 
BRANCH  23  24
ATOM     24  C   UNL     1      54.943  27.690  50.886  1.00  0.00    -0.000 C 
BRANCH  24  25
ATOM     25  C   UNL     1      54.093  27.286  49.671  1.00  0.00    -0.003 C 
ATOM     26  C   UNL     1      54.275  25.816  49.293  1.00  0.00     0.004 C 
ENDBRANCH  24  25
ENDBRANCH  23  24
ENDBRANCH  22  23
ENDBRANCH  21  22
ENDBRANCH  20  21
ENDBRANCH  19  20
ENDBRANCH  18  19
ENDBRANCH  17  18
ENDBRANCH  16  17
ENDBRANCH  15  16
ENDBRANCH   1  15
TORSDOF 22
ENDMDL
MODEL 4
REMARK VINA RESULT:    -2.759      8.010     10.835
REMARK INTER + INTRA:         -11.178
REMARK INTER:                  -6.305
REMARK INTRA:                  -4.873
REMARK UNBOUND:                -4.871
REMARK SMILES CCCCCCCCCCCCCCCCCCCCCCCC(=O)[O-]
REMARK SMILES IDX 13 1 14 2 15 3 16 4 17 5 18 6 19 7 20 8 21 9 22 10 23 11
REMARK SMILES IDX 24 12 25 13 26 14 12 15 11 16 10 17 9 18 8 19 7 20 6 21 5 22
REMARK SMILES IDX 4 23 3 24 2 25 1 26
REMARK H PARENT
REMARK Flexibility Score: inf
ROOT
ATOM      1  C   UNL     1      58.290  25.188  51.286  1.00  0.00     0.000 C 
ENDROOT
BRANCH   1   2
ATOM      2  C   UNL     1      59.157  25.679  50.117  1.00  0.00     0.000 C 
BRANCH   2   3
ATOM      3  C   UNL     1      60.450  26.333  50.626  1.00  0.00     0.000 C 
BRANCH   3   4
ATOM      4  C   UNL     1      60.625  27.783  50.136  1.00  0.00     0.000 C 
BRANCH   4   5
ATOM      5  C   UNL     1      59.579  28.247  49.107  1.00  0.00     0.000 C 
BRANCH   5   6
ATOM      6  C   UNL     1      58.733  29.429  49.609  1.00  0.00     0.000 C 
BRANCH   6   7
ATOM      7  C   UNL     1      58.933  29.707  51.111  1.00  0.00     0.000 C 
BRANCH   7   8
ATOM      8  C   UNL     1      57.711  29.382  51.992  1.00  0.00     0.000 C 
BRANCH   8   9
ATOM      9  C   UNL     1      58.104  28.893  53.397  1.00  0.00     0.000 C 
BRANCH   9  10
ATOM     10  C   UNL     1      57.681  29.871  54.504  1.00  0.00     0.006 C 
BRANCH  10  11
ATOM     11  C   UNL     1      56.750  30.980  53.996  1.00  0.00     0.053 C 
BRANCH  11  12
ATOM     12  C   UNL     1      57.378  32.325  54.186  1.00  0.00     0.041 C 
ATOM     13  O   UNL     1      57.539  33.094  53.202  1.00  0.00    -0.550 OA
ATOM     14  O   UNL     1      57.771  32.738  55.453  1.00  0.00    -0.550 OA
ENDBRANCH  11  12
ENDBRANCH  10  11
ENDBRANCH   9  10
ENDBRANCH   8   9
ENDBRANCH   7   8
ENDBRANCH   6   7
ENDBRANCH   5   6
ENDBRANCH   4   5
ENDBRANCH   3   4
ENDBRANCH   2   3
ENDBRANCH   1   2
BRANCH   1  15
ATOM     15  C   UNL     1      56.947  25.929  51.382  1.00  0.00     0.000 C 
BRANCH  15  16
ATOM     16  C   UNL     1      56.489  26.498  50.027  1.00  0.00     0.000 C 
BRANCH  16  17
ATOM     17  C   UNL     1      55.008  26.207  49.725  1.00  0.00     0.000 C 
BRANCH  17  18
ATOM     18  C   UNL     1      54.063  27.415  49.861  1.00  0.00    -0.000 C 
BRANCH  18  19
ATOM     19  C   UNL     1      54.794  28.704  50.263  1.00  0.00    -0.000 C 
BRANCH  19  20
ATOM     20  C   UNL     1      54.076  29.405  51.422  1.00  0.00    -0.000 C 
BRANCH  20  21
ATOM     21  C   UNL     1      53.498  28.383  52.410  1.00  0.00    -0.000 C 
BRANCH  21  22
ATOM     22  C   UNL     1      54.475  28.022  53.542  1.00  0.00    -0.000 C 
BRANCH  22  23
ATOM     23  C   UNL     1      54.460  26.524  53.916  1.00  0.00    -0.000 C 
BRANCH  23  24
ATOM     24  C   UNL     1      53.399  25.742  53.120  1.00  0.00    -0.000 C 
BRANCH  24  25
ATOM     25  C   UNL     1      53.844  24.305  52.808  1.00  0.00    -0.003 C 
ATOM     26  C   UNL     1      55.005  23.847  53.689  1.00  0.00     0.004 C 
ENDBRANCH  24  25
ENDBRANCH  23  24
ENDBRANCH  22  23
ENDBRANCH  21  22
ENDBRANCH  20  21
ENDBRANCH  19  20
ENDBRANCH  18  19
ENDBRANCH  17  18
ENDBRANCH  16  17
ENDBRANCH  15  16
ENDBRANCH   1  15
TORSDOF 22
ENDMDL
MODEL 5
REMARK VINA RESULT:    -2.742      3.771      7.601
REMARK INTER + INTRA:         -11.139
REMARK INTER:                  -7.125
REMARK INTRA:                  -4.014
REMARK UNBOUND:                -4.871
REMARK SMILES CCCCCCCCCCCCCCCCCCCCCCCC(=O)[O-]
REMARK SMILES IDX 13 1 14 2 15 3 16 4 17 5 18 6 19 7 20 8 21 9 22 10 23 11
REMARK SMILES IDX 24 12 25 13 26 14 12 15 11 16 10 17 9 18 8 19 7 20 6 21 5 22
REMARK SMILES IDX 4 23 3 24 2 25 1 26
REMARK H PARENT
REMARK Flexibility Score: inf
ROOT
ATOM      1  C   UNL     1      63.575  31.413  58.279  1.00  0.00     0.000 C 
ENDROOT
BRANCH   1   2
ATOM      2  C   UNL     1      62.115  31.773  57.969  1.00  0.00     0.000 C 
BRANCH   2   3
ATOM      3  C   UNL     1      61.151  31.002  58.884  1.00  0.00     0.000 C 
BRANCH   3   4
ATOM      4  C   UNL     1      60.798  31.773  60.170  1.00  0.00     0.000 C 
BRANCH   4   5
ATOM      5  C   UNL     1      60.756  30.914  61.447  1.00  0.00     0.000 C 
BRANCH   5   6
ATOM      6  C   UNL     1      62.045  30.102  61.661  1.00  0.00     0.000 C 
BRANCH   6   7
ATOM      7  C   UNL     1      61.850  28.598  61.393  1.00  0.00     0.000 C 
BRANCH   7   8
ATOM      8  C   UNL     1      63.092  27.880  60.831  1.00  0.00     0.000 C 
BRANCH   8   9
ATOM      9  C   UNL     1      64.292  28.826  60.645  1.00  0.00     0.000 C 
BRANCH   9  10
ATOM     10  C   UNL     1      65.617  28.071  60.455  1.00  0.00     0.006 C 
BRANCH  10  11
ATOM     11  C   UNL     1      66.840  28.999  60.476  1.00  0.00     0.053 C 
BRANCH  11  12
ATOM     12  C   UNL     1      67.342  29.243  59.088  1.00  0.00     0.041 C 
ATOM     13  O   UNL     1      67.926  28.324  58.456  1.00  0.00    -0.550 OA
ATOM     14  O   UNL     1      67.152  30.480  58.485  1.00  0.00    -0.550 OA
ENDBRANCH  11  12
ENDBRANCH  10  11
ENDBRANCH   9  10
ENDBRANCH   8   9
ENDBRANCH   7   8
ENDBRANCH   6   7
ENDBRANCH   5   6
ENDBRANCH   4   5
ENDBRANCH   3   4
ENDBRANCH   2   3
ENDBRANCH   1   2
BRANCH   1  15
ATOM     15  C   UNL     1      64.365  32.591  58.871  1.00  0.00     0.000 C 
BRANCH  15  16
ATOM     16  C   UNL     1      64.320  32.618  60.409  1.00  0.00     0.000 C 
BRANCH  16  17
ATOM     17  C   UNL     1      63.679  33.902  60.967  1.00  0.00     0.000 C 
BRANCH  17  18
ATOM     18  C   UNL     1      64.672  35.004  61.378  1.00  0.00    -0.000 C 
BRANCH  18  19
ATOM     19  C   UNL     1      64.005  36.377  61.548  1.00  0.00    -0.000 C 
BRANCH  19  20
ATOM     20  C   UNL     1      63.931  37.122  60.211  1.00  0.00    -0.000 C 
BRANCH  20  21
ATOM     21  C   UNL     1      64.850  36.474  59.168  1.00  0.00    -0.000 C 
BRANCH  21  22
ATOM     22  C   UNL     1      64.138  36.186  57.835  1.00  0.00    -0.000 C 
BRANCH  22  23
ATOM     23  C   UNL     1      62.655  36.613  57.824  1.00  0.00    -0.000 C 
BRANCH  23  24
ATOM     24  C   UNL     1      61.706  35.401  57.789  1.00  0.00    -0.000 C 
BRANCH  24  25
ATOM     25  C   UNL     1      60.963  35.201  59.119  1.00  0.00    -0.003 C 
ATOM     26  C   UNL     1      60.021  36.360  59.443  1.00  0.00     0.004 C 
ENDBRANCH  24  25
ENDBRANCH  23  24
ENDBRANCH  22  23
ENDBRANCH  21  22
ENDBRANCH  20  21
ENDBRANCH  19  20
ENDBRANCH  18  19
ENDBRANCH  17  18
ENDBRANCH  16  17
ENDBRANCH  15  16
ENDBRANCH   1  15
TORSDOF 22
ENDMDL
MODEL 6
REMARK VINA RESULT:    -2.719      8.094     11.368
REMARK INTER + INTRA:         -11.086
REMARK INTER:                  -7.137
REMARK INTRA:                  -3.949
REMARK UNBOUND:                -4.871
REMARK SMILES CCCCCCCCCCCCCCCCCCCCCCCC(=O)[O-]
REMARK SMILES IDX 13 1 14 2 15 3 16 4 17 5 18 6 19 7 20 8 21 9 22 10 23 11
REMARK SMILES IDX 24 12 25 13 26 14 12 15 11 16 10 17 9 18 8 19 7 20 6 21 5 22
REMARK SMILES IDX 4 23 3 24 2 25 1 26
REMARK H PARENT
REMARK Flexibility Score: inf
ROOT
ATOM      1  C   UNL     1      57.361  27.409  51.125  1.00  0.00     0.000 C 
ENDROOT
BRANCH   1   2
ATOM      2  C   UNL     1      57.270  28.792  50.464  1.00  0.00     0.000 C 
BRANCH   2   3
ATOM      3  C   UNL     1      58.667  29.333  50.124  1.00  0.00     0.000 C 
BRANCH   3   4
ATOM      4  C   UNL     1      59.407  28.476  49.081  1.00  0.00     0.000 C 
BRANCH   4   5
ATOM      5  C   UNL     1      60.729  27.858  49.573  1.00  0.00     0.000 C 
BRANCH   5   6
ATOM      6  C   UNL     1      60.589  26.374  49.950  1.00  0.00     0.000 C 
BRANCH   6   7
ATOM      7  C   UNL     1      60.957  26.097  51.420  1.00  0.00     0.000 C 
BRANCH   7   8
ATOM      8  C   UNL     1      61.322  27.351  52.237  1.00  0.00     0.000 C 
BRANCH   8   9
ATOM      9  C   UNL     1      60.230  27.740  53.249  1.00  0.00     0.000 C 
BRANCH   9  10
ATOM     10  C   UNL     1      60.244  29.239  53.589  1.00  0.00     0.006 C 
BRANCH  10  11
ATOM     11  C   UNL     1      58.835  29.823  53.766  1.00  0.00     0.053 C 
BRANCH  11  12
ATOM     12  C   UNL     1      58.898  31.307  53.948  1.00  0.00     0.041 C 
ATOM     13  O   UNL     1      58.646  32.074  52.981  1.00  0.00    -0.550 OA
ATOM     14  O   UNL     1      59.217  31.844  55.189  1.00  0.00    -0.550 OA
ENDBRANCH  11  12
ENDBRANCH  10  11
ENDBRANCH   9  10
ENDBRANCH   8   9
ENDBRANCH   7   8
ENDBRANCH   6   7
ENDBRANCH   5   6
ENDBRANCH   4   5
ENDBRANCH   3   4
ENDBRANCH   2   3
ENDBRANCH   1   2
BRANCH   1  15
ATOM     15  C   UNL     1      56.755  26.295  50.257  1.00  0.00     0.000 C 
BRANCH  15  16
ATOM     16  C   UNL     1      55.257  26.080  50.535  1.00  0.00     0.000 C 
BRANCH  16  17
ATOM     17  C   UNL     1      54.434  25.865  49.251  1.00  0.00     0.000 C 
BRANCH  17  18
ATOM     18  C   UNL     1      53.084  26.604  49.208  1.00  0.00    -0.000 C 
BRANCH  18  19
ATOM     19  C   UNL     1      52.879  27.545  50.404  1.00  0.00    -0.000 C 
BRANCH  19  20
ATOM     20  C   UNL     1      52.875  29.011  49.957  1.00  0.00    -0.000 C 
BRANCH  20  21
ATOM     21  C   UNL     1      53.902  29.831  50.748  1.00  0.00    -0.000 C 
BRANCH  21  22
ATOM     22  C   UNL     1      53.277  31.025  51.489  1.00  0.00    -0.000 C 
BRANCH  22  23
ATOM     23  C   UNL     1      54.158  31.573  52.631  1.00  0.00    -0.000 C 
BRANCH  23  24
ATOM     24  C   UNL     1      55.292  30.600  53.003  1.00  0.00    -0.000 C 
BRANCH  24  25
ATOM     25  C   UNL     1      54.909  29.672  54.165  1.00  0.00    -0.003 C 
ATOM     26  C   UNL     1      54.863  28.202  53.750  1.00  0.00     0.004 C 
ENDBRANCH  24  25
ENDBRANCH  23  24
ENDBRANCH  22  23
ENDBRANCH  21  22
ENDBRANCH  20  21
ENDBRANCH  19  20
ENDBRANCH  18  19
ENDBRANCH  17  18
ENDBRANCH  16  17
ENDBRANCH  15  16
ENDBRANCH   1  15
TORSDOF 22
ENDMDL
MODEL 7
REMARK VINA RESULT:    -2.679      3.257      7.094
REMARK INTER + INTRA:         -10.995
REMARK INTER:                  -7.169
REMARK INTRA:                  -3.825
REMARK UNBOUND:                -4.871
REMARK SMILES CCCCCCCCCCCCCCCCCCCCCCCC(=O)[O-]
REMARK SMILES IDX 13 1 14 2 15 3 16 4 17 5 18 6 19 7 20 8 21 9 22 10 23 11
REMARK SMILES IDX 24 12 25 13 26 14 12 15 11 16 10 17 9 18 8 19 7 20 6 21 5 22
REMARK SMILES IDX 4 23 3 24 2 25 1 26
REMARK H PARENT
REMARK Flexibility Score: inf
ROOT
ATOM      1  C   UNL     1      62.604  29.299  61.258  1.00  0.00     0.000 C 
ENDROOT
BRANCH   1   2
ATOM      2  C   UNL     1      64.055  29.306  60.756  1.00  0.00     0.000 C 
BRANCH   2   3
ATOM      3  C   UNL     1      64.557  27.877  60.502  1.00  0.00     0.000 C 
BRANCH   3   4
ATOM      4  C   UNL     1      63.916  27.225  59.262  1.00  0.00     0.000 C 
BRANCH   4   5
ATOM      5  C   UNL     1      62.949  26.067  59.567  1.00  0.00     0.000 C 
BRANCH   5   6
ATOM      6  C   UNL     1      63.048  25.576  61.022  1.00  0.00     0.000 C 
BRANCH   6   7
ATOM      7  C   UNL     1      61.766  25.851  61.829  1.00  0.00     0.000 C 
BRANCH   7   8
ATOM      8  C   UNL     1      60.542  26.242  60.978  1.00  0.00     0.000 C 
BRANCH   8   9
ATOM      9  C   UNL     1      59.209  26.012  61.711  1.00  0.00     0.000 C 
BRANCH   9  10
ATOM     10  C   UNL     1      57.988  26.267  60.814  1.00  0.00     0.006 C 
BRANCH  10  11
ATOM     11  C   UNL     1      57.306  27.611  61.105  1.00  0.00     0.053 C 
BRANCH  11  12
ATOM     12  C   UNL     1      55.947  27.397  61.693  1.00  0.00     0.041 C 
ATOM     13  O   UNL     1      55.581  28.062  62.699  1.00  0.00    -0.550 OA
ATOM     14  O   UNL     1      55.077  26.476  61.123  1.00  0.00    -0.550 OA
ENDBRANCH  11  12
ENDBRANCH  10  11
ENDBRANCH   9  10
ENDBRANCH   8   9
ENDBRANCH   7   8
ENDBRANCH   6   7
ENDBRANCH   5   6
ENDBRANCH   4   5
ENDBRANCH   3   4
ENDBRANCH   2   3
ENDBRANCH   1   2
BRANCH   1  15
ATOM     15  C   UNL     1      62.118  30.692  61.689  1.00  0.00     0.000 C 
BRANCH  15  16
ATOM     16  C   UNL     1      60.654  30.954  61.296  1.00  0.00     0.000 C 
BRANCH  16  17
ATOM     17  C   UNL     1      60.088  29.886  60.343  1.00  0.00     0.000 C 
BRANCH  17  18
ATOM     18  C   UNL     1      59.893  30.345  58.887  1.00  0.00    -0.000 C 
BRANCH  18  19
ATOM     19  C   UNL     1      61.021  31.263  58.393  1.00  0.00    -0.000 C 
BRANCH  19  20
ATOM     20  C   UNL     1      62.173  30.448  57.796  1.00  0.00    -0.000 C 
BRANCH  20  21
ATOM     21  C   UNL     1      63.435  31.306  57.644  1.00  0.00    -0.000 C 
BRANCH  21  22
ATOM     22  C   UNL     1      63.338  32.653  58.380  1.00  0.00    -0.000 C 
BRANCH  22  23
ATOM     23  C   UNL     1      64.420  32.843  59.465  1.00  0.00    -0.000 C 
BRANCH  23  24
ATOM     24  C   UNL     1      63.870  33.565  60.708  1.00  0.00    -0.000 C 
BRANCH  24  25
ATOM     25  C   UNL     1      62.498  34.208  60.452  1.00  0.00    -0.003 C 
ATOM     26  C   UNL     1      62.473  35.694  60.809  1.00  0.00     0.004 C 
ENDBRANCH  24  25
ENDBRANCH  23  24
ENDBRANCH  22  23
ENDBRANCH  21  22
ENDBRANCH  20  21
ENDBRANCH  19  20
ENDBRANCH  18  19
ENDBRANCH  17  18
ENDBRANCH  16  17
ENDBRANCH  15  16
ENDBRANCH   1  15
TORSDOF 22
ENDMDL
MODEL 8
REMARK VINA RESULT:    -2.653      4.215      7.503
REMARK INTER + INTRA:         -10.935
REMARK INTER:                  -6.480
REMARK INTRA:                  -4.455
REMARK UNBOUND:                -4.871
REMARK SMILES CCCCCCCCCCCCCCCCCCCCCCCC(=O)[O-]
REMARK SMILES IDX 13 1 14 2 15 3 16 4 17 5 18 6 19 7 20 8 21 9 22 10 23 11
REMARK SMILES IDX 24 12 25 13 26 14 12 15 11 16 10 17 9 18 8 19 7 20 6 21 5 22
REMARK SMILES IDX 4 23 3 24 2 25 1 26
REMARK H PARENT
REMARK Flexibility Score: inf
ROOT
ATOM      1  C   UNL     1      63.534  31.935  60.862  1.00  0.00     0.000 C 
ENDROOT
BRANCH   1   2
ATOM      2  C   UNL     1      61.999  31.972  60.861  1.00  0.00     0.000 C 
BRANCH   2   3
ATOM      3  C   UNL     1      61.418  30.773  61.625  1.00  0.00     0.000 C 
BRANCH   3   4
ATOM      4  C   UNL     1      60.601  29.825  60.727  1.00  0.00     0.000 C 
BRANCH   4   5
ATOM      5  C   UNL     1      61.395  28.639  60.150  1.00  0.00     0.000 C 
BRANCH   5   6
ATOM      6  C   UNL     1      62.448  28.094  61.129  1.00  0.00     0.000 C 
BRANCH   6   7
ATOM      7  C   UNL     1      63.883  28.205  60.580  1.00  0.00     0.000 C 
BRANCH   7   8
ATOM      8  C   UNL     1      63.977  28.308  59.046  1.00  0.00     0.000 C 
BRANCH   8   9
ATOM      9  C   UNL     1      65.254  29.025  58.575  1.00  0.00     0.000 C 
BRANCH   9  10
ATOM     10  C   UNL     1      66.058  29.629  59.738  1.00  0.00     0.006 C 
BRANCH  10  11
ATOM     11  C   UNL     1      67.514  29.146  59.769  1.00  0.00     0.053 C 
BRANCH  11  12
ATOM     12  C   UNL     1      67.700  28.093  60.815  1.00  0.00     0.041 C 
ATOM     13  O   UNL     1      67.573  26.875  60.517  1.00  0.00    -0.550 OA
ATOM     14  O   UNL     1      68.029  28.452  62.116  1.00  0.00    -0.550 OA
ENDBRANCH  11  12
ENDBRANCH  10  11
ENDBRANCH   9  10
ENDBRANCH   8   9
ENDBRANCH   7   8
ENDBRANCH   6   7
ENDBRANCH   5   6
ENDBRANCH   4   5
ENDBRANCH   3   4
ENDBRANCH   2   3
ENDBRANCH   1   2
BRANCH   1  15
ATOM     15  C   UNL     1      64.160  33.195  60.244  1.00  0.00     0.000 C 
BRANCH  15  16
ATOM     16  C   UNL     1      64.146  34.395  61.208  1.00  0.00     0.000 C 
BRANCH  16  17
ATOM     17  C   UNL     1      63.111  35.465  60.818  1.00  0.00     0.000 C 
BRANCH  17  18
ATOM     18  C   UNL     1      62.569  35.358  59.380  1.00  0.00    -0.000 C 
BRANCH  18  19
ATOM     19  C   UNL     1      61.049  35.144  59.328  1.00  0.00    -0.000 C 
BRANCH  19  20
ATOM     20  C   UNL     1      60.634  34.464  58.019  1.00  0.00    -0.000 C 
BRANCH  20  21
ATOM     21  C   UNL     1      60.118  33.042  58.276  1.00  0.00    -0.000 C 
BRANCH  21  22
ATOM     22  C   UNL     1      60.141  32.157  57.019  1.00  0.00    -0.000 C 
BRANCH  22  23
ATOM     23  C   UNL     1      61.033  30.905  57.163  1.00  0.00    -0.000 C 
BRANCH  23  24
ATOM     24  C   UNL     1      62.508  31.272  57.401  1.00  0.00    -0.000 C 
BRANCH  24  25
ATOM     25  C   UNL     1      63.130  32.005  56.202  1.00  0.00    -0.003 C 
ATOM     26  C   UNL     1      63.934  33.235  56.622  1.00  0.00     0.004 C 
ENDBRANCH  24  25
ENDBRANCH  23  24
ENDBRANCH  22  23
ENDBRANCH  21  22
ENDBRANCH  20  21
ENDBRANCH  19  20
ENDBRANCH  18  19
ENDBRANCH  17  18
ENDBRANCH  16  17
ENDBRANCH  15  16
ENDBRANCH   1  15
TORSDOF 22
ENDMDL
MODEL 9
REMARK VINA RESULT:    -2.632      3.597      7.239
REMARK INTER + INTRA:         -10.888
REMARK INTER:                  -6.429
REMARK INTRA:                  -4.459
REMARK UNBOUND:                -4.871
REMARK SMILES CCCCCCCCCCCCCCCCCCCCCCCC(=O)[O-]
REMARK SMILES IDX 13 1 14 2 15 3 16 4 17 5 18 6 19 7 20 8 21 9 22 10 23 11
REMARK SMILES IDX 24 12 25 13 26 14 12 15 11 16 10 17 9 18 8 19 7 20 6 21 5 22
REMARK SMILES IDX 4 23 3 24 2 25 1 26
REMARK H PARENT
REMARK Flexibility Score: inf
ROOT
ATOM      1  C   UNL     1      62.978  31.839  60.216  1.00  0.00     0.000 C 
ENDROOT
BRANCH   1   2
ATOM      2  C   UNL     1      61.594  32.337  60.657  1.00  0.00     0.000 C 
BRANCH   2   3
ATOM      3  C   UNL     1      60.842  31.252  61.443  1.00  0.00     0.000 C 
BRANCH   3   4
ATOM      4  C   UNL     1      61.578  29.899  61.455  1.00  0.00     0.000 C 
BRANCH   4   5
ATOM      5  C   UNL     1      60.840  28.756  60.736  1.00  0.00     0.000 C 
BRANCH   5   6
ATOM      6  C   UNL     1      60.220  29.196  59.398  1.00  0.00     0.000 C 
BRANCH   6   7
ATOM      7  C   UNL     1      61.261  29.300  58.268  1.00  0.00     0.000 C 
BRANCH   7   8
ATOM      8  C   UNL     1      62.280  28.145  58.225  1.00  0.00     0.000 C 
BRANCH   8   9
ATOM      9  C   UNL     1      63.728  28.622  58.432  1.00  0.00     0.000 C 
BRANCH   9  10
ATOM     10  C   UNL     1      64.359  28.062  59.716  1.00  0.00     0.006 C 
BRANCH  10  11
ATOM     11  C   UNL     1      65.292  29.065  60.409  1.00  0.00     0.053 C 
BRANCH  11  12
ATOM     12  C   UNL     1      66.539  29.266  59.608  1.00  0.00     0.041 C 
ATOM     13  O   UNL     1      67.448  28.394  59.621  1.00  0.00    -0.550 OA
ATOM     14  O   UNL     1      66.694  30.409  58.834  1.00  0.00    -0.550 OA
ENDBRANCH  11  12
ENDBRANCH  10  11
ENDBRANCH   9  10
ENDBRANCH   8   9
ENDBRANCH   7   8
ENDBRANCH   6   7
ENDBRANCH   5   6
ENDBRANCH   4   5
ENDBRANCH   3   4
ENDBRANCH   2   3
ENDBRANCH   1   2
BRANCH   1  15
ATOM     15  C   UNL     1      64.126  32.673  60.807  1.00  0.00     0.000 C 
BRANCH  15  16
ATOM     16  C   UNL     1      64.187  34.094  60.220  1.00  0.00     0.000 C 
BRANCH  16  17
ATOM     17  C   UNL     1      64.419  35.175  61.290  1.00  0.00     0.000 C 
BRANCH  17  18
ATOM     18  C   UNL     1      63.431  36.356  61.252  1.00  0.00    -0.000 C 
BRANCH  18  19
ATOM     19  C   UNL     1      61.999  35.926  60.904  1.00  0.00    -0.000 C 
BRANCH  19  20
ATOM     20  C   UNL     1      61.492  36.658  59.656  1.00  0.00    -0.000 C 
BRANCH  20  21
ATOM     21  C   UNL     1      60.586  35.750  58.815  1.00  0.00    -0.000 C 
BRANCH  21  22
ATOM     22  C   UNL     1      61.357  34.948  57.753  1.00  0.00    -0.000 C 
BRANCH  22  23
ATOM     23  C   UNL     1      60.798  33.527  57.527  1.00  0.00    -0.000 C 
BRANCH  23  24
ATOM     24  C   UNL     1      61.722  32.679  56.634  1.00  0.00    -0.000 C 
BRANCH  24  25
ATOM     25  C   UNL     1      63.194  33.107  56.742  1.00  0.00    -0.003 C 
ATOM     26  C   UNL     1      64.149  31.914  56.779  1.00  0.00     0.004 C 
ENDBRANCH  24  25
ENDBRANCH  23  24
ENDBRANCH  22  23
ENDBRANCH  21  22
ENDBRANCH  20  21
ENDBRANCH  19  20
ENDBRANCH  18  19
ENDBRANCH  17  18
ENDBRANCH  16  17
ENDBRANCH  15  16
ENDBRANCH   1  15
TORSDOF 22
ENDMDL
