MODEL 1
REMARK VINA RESULT:    -6.140      0.000      0.000
REMARK INTER + INTRA:          -6.718
REMARK INTER:                  -6.678
REMARK INTRA:                  -0.040
REMARK UNBOUND:                -0.040
REMARK SMILES COc1cc2ccc(=O)oc2cc1O
REMARK SMILES IDX 3 1 13 2 12 3 11 4 5 5 4 6 6 7 7 8 8 9 9 10 10 11 2 12 1 13
REMARK SMILES IDX 14 14
REMARK H PARENT 14 15
REMARK Flexibility Score: inf
ROOT
ATOM      1  C   UNL     1       5.253  48.015  24.139  1.00  0.00     0.161 A 
ATOM      2  C   UNL     1       5.700  47.313  23.002  1.00  0.00     0.161 A 
ATOM      3  C   UNL     1       4.799  46.967  21.987  1.00  0.00     0.098 A 
ATOM      4  C   UNL     1       3.451  47.315  22.091  1.00  0.00     0.142 A 
ATOM      5  C   UNL     1       2.994  48.018  23.225  1.00  0.00     0.022 A 
ATOM      6  C   UNL     1       3.892  48.366  24.244  1.00  0.00     0.062 A 
ATOM      7  C   UNL     1       1.637  48.352  23.301  1.00  0.00     0.019 A 
ATOM      8  C   UNL     1       0.783  47.984  22.261  1.00  0.00     0.094 A 
ATOM      9  C   UNL     1       1.307  47.287  21.168  1.00  0.00     0.336 A 
ATOM     10  O   UNL     1       0.553  46.945  20.220  1.00  0.00    -0.246 OA
ATOM     11  O   UNL     1       2.602  46.982  21.122  1.00  0.00    -0.423 OA
ENDROOT
BRANCH   1  12
ATOM     12  O   UNL     1       6.184  48.346  25.137  1.00  0.00    -0.493 OA
ATOM     13  C   UNL     1       6.981  49.526  25.139  1.00  0.00     0.278 C 
ENDBRANCH   1  12
BRANCH   2  14
ATOM     14  O   UNL     1       7.039  46.947  22.862  1.00  0.00    -0.504 OA
ATOM     15  H   UNL     1       7.438  46.159  23.357  1.00  0.00     0.293 HD
ENDBRANCH   2  14
TORSDOF 2
ENDMDL
MODEL 2
REMARK VINA RESULT:    -5.904      1.504      5.353
REMARK INTER + INTRA:          -6.461
REMARK INTER:                  -6.418
REMARK INTRA:                  -0.043
REMARK UNBOUND:                -0.040
REMARK SMILES COc1cc2ccc(=O)oc2cc1O
REMARK SMILES IDX 3 1 13 2 12 3 11 4 5 5 4 6 6 7 7 8 8 9 9 10 10 11 2 12 1 13
REMARK SMILES IDX 14 14
REMARK H PARENT 14 15
REMARK Flexibility Score: inf
ROOT
ATOM      1  C   UNL     1       1.984  47.480  22.430  1.00  0.00     0.161 A 
ATOM      2  C   UNL     1       1.768  47.706  23.804  1.00  0.00     0.161 A 
ATOM      3  C   UNL     1       2.842  48.027  24.642  1.00  0.00     0.098 A 
ATOM      4  C   UNL     1       4.136  48.127  24.126  1.00  0.00     0.142 A 
ATOM      5  C   UNL     1       4.362  47.903  22.752  1.00  0.00     0.022 A 
ATOM      6  C   UNL     1       3.290  47.581  21.909  1.00  0.00     0.062 A 
ATOM      7  C   UNL     1       5.669  48.011  22.265  1.00  0.00     0.019 A 
ATOM      8  C   UNL     1       6.703  48.334  23.145  1.00  0.00     0.094 A 
ATOM      9  C   UNL     1       6.404  48.542  24.495  1.00  0.00     0.336 A 
ATOM     10  O   UNL     1       7.322  48.834  25.304  1.00  0.00    -0.246 OA
ATOM     11  O   UNL     1       5.151  48.433  24.931  1.00  0.00    -0.423 OA
ENDROOT
BRANCH   1  12
ATOM     12  O   UNL     1       0.883  47.160  21.617  1.00  0.00    -0.493 OA
ATOM     13  C   UNL     1       0.960  46.900  20.219  1.00  0.00     0.278 C 
ENDBRANCH   1  12
BRANCH   2  14
ATOM     14  O   UNL     1       0.491  47.614  24.356  1.00  0.00    -0.504 OA
ATOM     15  H   UNL     1      -0.336  47.488  23.786  1.00  0.00     0.293 HD
ENDBRANCH   2  14
TORSDOF 2
ENDMDL
MODEL 3
REMARK VINA RESULT:    -5.661      1.613      2.443
REMARK INTER + INTRA:          -6.197
REMARK INTER:                  -6.132
REMARK INTRA:                  -0.065
REMARK UNBOUND:                -0.040
REMARK SMILES COc1cc2ccc(=O)oc2cc1O
REMARK SMILES IDX 3 1 13 2 12 3 11 4 5 5 4 6 6 7 7 8 8 9 9 10 10 11 2 12 1 13
REMARK SMILES IDX 14 14
REMARK H PARENT 14 15
REMARK Flexibility Score: inf
ROOT
ATOM      1  C   UNL     1       4.678  47.225  23.471  1.00  0.00     0.161 A 
ATOM      2  C   UNL     1       3.907  47.226  24.651  1.00  0.00     0.161 A 
ATOM      3  C   UNL     1       2.509  47.222  24.579  1.00  0.00     0.098 A 
ATOM      4  C   UNL     1       1.865  47.217  23.340  1.00  0.00     0.142 A 
ATOM      5  C   UNL     1       2.628  47.216  22.154  1.00  0.00     0.022 A 
ATOM      6  C   UNL     1       4.027  47.220  22.220  1.00  0.00     0.062 A 
ATOM      7  C   UNL     1       1.953  47.211  20.928  1.00  0.00     0.019 A 
ATOM      8  C   UNL     1       0.558  47.207  20.914  1.00  0.00     0.094 A 
ATOM      9  C   UNL     1      -0.132  47.209  22.130  1.00  0.00     0.336 A 
ATOM     10  O   UNL     1      -1.390  47.206  22.139  1.00  0.00    -0.246 OA
ATOM     11  O   UNL     1       0.535  47.214  23.282  1.00  0.00    -0.423 OA
ENDROOT
BRANCH   1  12
ATOM     12  O   UNL     1       6.079  47.228  23.579  1.00  0.00    -0.493 OA
ATOM     13  C   UNL     1       6.899  48.380  23.416  1.00  0.00     0.278 C 
ENDBRANCH   1  12
BRANCH   2  14
ATOM     14  O   UNL     1       4.514  47.231  25.906  1.00  0.00    -0.504 OA
ATOM     15  H   UNL     1       4.215  46.614  26.653  1.00  0.00     0.293 HD
ENDBRANCH   2  14
TORSDOF 2
ENDMDL
MODEL 4
REMARK VINA RESULT:    -5.603      1.831      5.380
REMARK INTER + INTRA:          -6.135
REMARK INTER:                  -6.089
REMARK INTRA:                  -0.045
REMARK UNBOUND:                -0.040
REMARK SMILES COc1cc2ccc(=O)oc2cc1O
REMARK SMILES IDX 3 1 13 2 12 3 11 4 5 5 4 6 6 7 7 8 8 9 9 10 10 11 2 12 1 13
REMARK SMILES IDX 14 14
REMARK H PARENT 14 15
REMARK Flexibility Score: inf
ROOT
ATOM      1  C   UNL     1       3.896  47.355  23.402  1.00  0.00     0.161 A 
ATOM      2  C   UNL     1       4.767  47.554  22.312  1.00  0.00     0.161 A 
ATOM      3  C   UNL     1       6.066  48.030  22.526  1.00  0.00     0.098 A 
ATOM      4  C   UNL     1       6.511  48.313  23.819  1.00  0.00     0.142 A 
ATOM      5  C   UNL     1       5.646  48.117  24.916  1.00  0.00     0.022 A 
ATOM      6  C   UNL     1       4.345  47.640  24.708  1.00  0.00     0.062 A 
ATOM      7  C   UNL     1       6.121  48.409  26.200  1.00  0.00     0.019 A 
ATOM      8  C   UNL     1       7.424  48.881  26.356  1.00  0.00     0.094 A 
ATOM      9  C   UNL     1       8.224  49.052  25.223  1.00  0.00     0.336 A 
ATOM     10  O   UNL     1       9.403  49.477  25.342  1.00  0.00    -0.246 OA
ATOM     11  O   UNL     1       7.747  48.766  24.013  1.00  0.00    -0.423 OA
ENDROOT
BRANCH   1  12
ATOM     12  O   UNL     1       2.599  46.875  23.151  1.00  0.00    -0.493 OA
ATOM     13  C   UNL     1       1.467  47.139  23.973  1.00  0.00     0.278 C 
ENDBRANCH   1  12
BRANCH   2  14
ATOM     14  O   UNL     1       4.359  47.284  21.006  1.00  0.00    -0.504 OA
ATOM     15  H   UNL     1       3.412  47.001  20.784  1.00  0.00     0.293 HD
ENDBRANCH   2  14
TORSDOF 2
ENDMDL
MODEL 5
REMARK VINA RESULT:    -5.547      1.223      4.953
REMARK INTER + INTRA:          -6.073
REMARK INTER:                  -6.032
REMARK INTRA:                  -0.041
REMARK UNBOUND:                -0.040
REMARK SMILES COc1cc2ccc(=O)oc2cc1O
REMARK SMILES IDX 3 1 13 2 12 3 11 4 5 5 4 6 6 7 7 8 8 9 9 10 10 11 2 12 1 13
REMARK SMILES IDX 14 14
REMARK H PARENT 14 15
REMARK Flexibility Score: inf
ROOT
ATOM      1  C   UNL     1       1.257  47.506  22.402  1.00  0.00     0.161 A 
ATOM      2  C   UNL     1       2.110  47.260  21.308  1.00  0.00     0.161 A 
ATOM      3  C   UNL     1       3.496  47.402  21.449  1.00  0.00     0.098 A 
ATOM      4  C   UNL     1       4.046  47.787  22.673  1.00  0.00     0.142 A 
ATOM      5  C   UNL     1       3.200  48.034  23.774  1.00  0.00     0.022 A 
ATOM      6  C   UNL     1       1.812  47.894  23.638  1.00  0.00     0.062 A 
ATOM      7  C   UNL     1       3.781  48.418  24.989  1.00  0.00     0.019 A 
ATOM      8  C   UNL     1       5.168  48.544  25.074  1.00  0.00     0.094 A 
ATOM      9  C   UNL     1       5.943  48.282  23.941  1.00  0.00     0.336 A 
ATOM     10  O   UNL     1       7.196  48.390  23.997  1.00  0.00    -0.246 OA
ATOM     11  O   UNL     1       5.364  47.919  22.798  1.00  0.00    -0.423 OA
ENDROOT
BRANCH   1  12
ATOM     12  O   UNL     1      -0.128  47.354  22.226  1.00  0.00    -0.493 OA
ATOM     13  C   UNL     1      -1.000  48.377  21.757  1.00  0.00     0.278 C 
ENDBRANCH   1  12
BRANCH   2  14
ATOM     14  O   UNL     1       1.599  46.875  20.069  1.00  0.00    -0.504 OA
ATOM     15  H   UNL     1       0.660  47.115  19.774  1.00  0.00     0.293 HD
ENDBRANCH   2  14
TORSDOF 2
ENDMDL
MODEL 6
REMARK VINA RESULT:    -5.529     11.201     11.932
REMARK INTER + INTRA:          -6.053
REMARK INTER:                  -5.998
REMARK INTRA:                  -0.056
REMARK UNBOUND:                -0.040
REMARK SMILES COc1cc2ccc(=O)oc2cc1O
REMARK SMILES IDX 3 1 13 2 12 3 11 4 5 5 4 6 6 7 7 8 8 9 9 10 10 11 2 12 1 13
REMARK SMILES IDX 14 14
REMARK H PARENT 14 15
REMARK Flexibility Score: inf
ROOT
ATOM      1  C   UNL     1       2.595  57.286  24.160  1.00  0.00     0.161 A 
ATOM      2  C   UNL     1       3.212  58.171  23.254  1.00  0.00     0.161 A 
ATOM      3  C   UNL     1       2.689  59.455  23.056  1.00  0.00     0.098 A 
ATOM      4  C   UNL     1       1.552  59.870  23.753  1.00  0.00     0.142 A 
ATOM      5  C   UNL     1       0.928  58.991  24.663  1.00  0.00     0.022 A 
ATOM      6  C   UNL     1       1.448  57.705  24.864  1.00  0.00     0.062 A 
ATOM      7  C   UNL     1      -0.209  59.436  25.347  1.00  0.00     0.019 A 
ATOM      8  C   UNL     1      -0.688  60.725  25.112  1.00  0.00     0.094 A 
ATOM      9  C   UNL     1      -0.017  61.541  24.196  1.00  0.00     0.336 A 
ATOM     10  O   UNL     1      -0.433  62.707  23.970  1.00  0.00    -0.246 OA
ATOM     11  O   UNL     1       1.062  61.092  23.559  1.00  0.00    -0.423 OA
ENDROOT
BRANCH   1  12
ATOM     12  O   UNL     1       3.147  56.006  24.334  1.00  0.00    -0.493 OA
ATOM     13  C   UNL     1       2.765  54.853  23.591  1.00  0.00     0.278 C 
ENDBRANCH   1  12
BRANCH   2  14
ATOM     14  O   UNL     1       4.347  57.793  22.538  1.00  0.00    -0.504 OA
ATOM     15  H   UNL     1       4.748  58.377  21.813  1.00  0.00     0.293 HD
ENDBRANCH   2  14
TORSDOF 2
ENDMDL
MODEL 7
REMARK VINA RESULT:    -5.351      9.239     10.222
REMARK INTER + INTRA:          -5.860
REMARK INTER:                  -5.815
REMARK INTRA:                  -0.046
REMARK UNBOUND:                -0.040
REMARK SMILES COc1cc2ccc(=O)oc2cc1O
REMARK SMILES IDX 3 1 13 2 12 3 11 4 5 5 4 6 6 7 7 8 8 9 9 10 10 11 2 12 1 13
REMARK SMILES IDX 14 14
REMARK H PARENT 14 15
REMARK Flexibility Score: inf
ROOT
ATOM      1  C   UNL     1       2.557  55.201  23.781  1.00  0.00     0.161 A 
ATOM      2  C   UNL     1       2.863  55.532  25.116  1.00  0.00     0.161 A 
ATOM      3  C   UNL     1       2.393  56.729  25.670  1.00  0.00     0.098 A 
ATOM      4  C   UNL     1       1.618  57.605  24.908  1.00  0.00     0.142 A 
ATOM      5  C   UNL     1       1.306  57.281  23.571  1.00  0.00     0.022 A 
ATOM      6  C   UNL     1       1.774  56.085  23.011  1.00  0.00     0.062 A 
ATOM      7  C   UNL     1       0.527  58.179  22.832  1.00  0.00     0.019 A 
ATOM      8  C   UNL     1       0.085  59.357  23.434  1.00  0.00     0.094 A 
ATOM      9  C   UNL     1       0.434  59.612  24.764  1.00  0.00     0.336 A 
ATOM     10  O   UNL     1       0.045  60.669  25.325  1.00  0.00    -0.246 OA
ATOM     11  O   UNL     1       1.176  58.740  25.443  1.00  0.00    -0.423 OA
ENDROOT
BRANCH   1  12
ATOM     12  O   UNL     1       3.043  53.991  23.257  1.00  0.00    -0.493 OA
ATOM     13  C   UNL     1       2.392  53.228  22.247  1.00  0.00     0.278 C 
ENDBRANCH   1  12
BRANCH   2  14
ATOM     14  O   UNL     1       3.635  54.684  25.909  1.00  0.00    -0.504 OA
ATOM     15  H   UNL     1       3.680  54.780  26.917  1.00  0.00     0.293 HD
ENDBRANCH   2  14
TORSDOF 2
ENDMDL
MODEL 8
REMARK VINA RESULT:    -5.273      9.852     10.525
REMARK INTER + INTRA:          -5.776
REMARK INTER:                  -5.725
REMARK INTRA:                  -0.051
REMARK UNBOUND:                -0.040
REMARK SMILES COc1cc2ccc(=O)oc2cc1O
REMARK SMILES IDX 3 1 13 2 12 3 11 4 5 5 4 6 6 7 7 8 8 9 9 10 10 11 2 12 1 13
REMARK SMILES IDX 14 14
REMARK H PARENT 14 15
REMARK Flexibility Score: inf
ROOT
ATOM      1  C   UNL     1       2.262  55.678  23.501  1.00  0.00     0.161 A 
ATOM      2  C   UNL     1       2.047  56.162  22.195  1.00  0.00     0.161 A 
ATOM      3  C   UNL     1       1.402  57.388  21.995  1.00  0.00     0.098 A 
ATOM      4  C   UNL     1       0.965  58.143  23.086  1.00  0.00     0.142 A 
ATOM      5  C   UNL     1       1.176  57.667  24.397  1.00  0.00     0.022 A 
ATOM      6  C   UNL     1       1.821  56.440  24.602  1.00  0.00     0.062 A 
ATOM      7  C   UNL     1       0.727  58.446  25.470  1.00  0.00     0.019 A 
ATOM      8  C   UNL     1       0.090  59.661  25.214  1.00  0.00     0.094 A 
ATOM      9  C   UNL     1      -0.084  60.069  23.888  1.00  0.00     0.336 A 
ATOM     10  O   UNL     1      -0.656  61.161  23.636  1.00  0.00    -0.246 OA
ATOM     11  O   UNL     1       0.353  59.308  22.887  1.00  0.00    -0.423 OA
ENDROOT
BRANCH   1  12
ATOM     12  O   UNL     1       2.913  54.444  23.665  1.00  0.00    -0.493 OA
ATOM     13  C   UNL     1       3.992  54.214  24.565  1.00  0.00     0.278 C 
ENDBRANCH   1  12
BRANCH   2  14
ATOM     14  O   UNL     1       2.468  55.438  21.080  1.00  0.00    -0.504 OA
ATOM     15  H   UNL     1       1.939  55.420  20.217  1.00  0.00     0.293 HD
ENDBRANCH   2  14
TORSDOF 2
ENDMDL
MODEL 9
REMARK VINA RESULT:    -5.197      1.811      2.631
REMARK INTER + INTRA:          -5.692
REMARK INTER:                  -5.915
REMARK INTRA:                   0.222
REMARK UNBOUND:                -0.040
REMARK SMILES COc1cc2ccc(=O)oc2cc1O
REMARK SMILES IDX 3 1 13 2 12 3 11 4 5 5 4 6 6 7 7 8 8 9 9 10 10 11 2 12 1 13
REMARK SMILES IDX 14 14
REMARK H PARENT 14 15
REMARK Flexibility Score: inf
ROOT
ATOM      1  C   UNL     1       6.394  48.377  24.608  1.00  0.00     0.161 A 
ATOM      2  C   UNL     1       5.741  48.028  25.807  1.00  0.00     0.161 A 
ATOM      3  C   UNL     1       4.386  47.675  25.795  1.00  0.00     0.098 A 
ATOM      4  C   UNL     1       3.669  47.664  24.597  1.00  0.00     0.142 A 
ATOM      5  C   UNL     1       4.314  48.012  23.391  1.00  0.00     0.022 A 
ATOM      6  C   UNL     1       5.670  48.366  23.398  1.00  0.00     0.062 A 
ATOM      7  C   UNL     1       3.570  47.991  22.207  1.00  0.00     0.019 A 
ATOM      8  C   UNL     1       2.223  47.631  22.251  1.00  0.00     0.094 A 
ATOM      9  C   UNL     1       1.650  47.299  23.483  1.00  0.00     0.336 A 
ATOM     10  O   UNL     1       0.436  46.971  23.545  1.00  0.00    -0.246 OA
ATOM     11  O   UNL     1       2.382  47.327  24.595  1.00  0.00    -0.423 OA
ENDROOT
BRANCH   1  12
ATOM     12  O   UNL     1       7.754  48.726  24.657  1.00  0.00    -0.493 OA
ATOM     13  C   UNL     1       8.283  49.810  25.413  1.00  0.00     0.278 C 
ENDBRANCH   1  12
BRANCH   2  14
ATOM     14  O   UNL     1       6.422  48.028  27.024  1.00  0.00    -0.504 OA
ATOM     15  H   UNL     1       5.949  48.171  27.908  1.00  0.00     0.293 HD
ENDBRANCH   2  14
TORSDOF 2
ENDMDL
