MODEL 1
REMARK VINA RESULT:    -5.488      0.000      0.000
REMARK INTER + INTRA:         -11.294
REMARK INTER:                 -10.301
REMARK INTRA:                  -0.993
REMARK UNBOUND:                -0.993
REMARK SMILES CCCCCCCCC=CCCCCCCCC(=O)[O-]
REMARK SMILES IDX 10 1 9 2 11 3 12 4 13 5 14 6 15 7 16 8 17 9 18 10 19 11
REMARK SMILES IDX 20 12 8 13 7 14 6 15 5 16 4 17 3 18 2 19 1 20
REMARK H PARENT
REMARK Flexibility Score: inf
ROOT
ATOM      1  C   UNL     1      29.582  12.927  -0.265  1.00  0.00    -0.031 C 
ATOM      2  C   UNL     1      30.362  13.150  -1.334  1.00  0.00    -0.031 C 
ENDROOT
BRANCH   1   3
ATOM      3  C   UNL     1      29.846  11.787   0.683  1.00  0.00     0.027 C 
BRANCH   3   4
ATOM      4  C   UNL     1      30.548  12.268   1.958  1.00  0.00     0.004 C 
BRANCH   4   5
ATOM      5  C   UNL     1      29.764  11.888   3.226  1.00  0.00     0.000 C 
BRANCH   5   6
ATOM      6  C   UNL     1      30.608  12.011   4.506  1.00  0.00     0.000 C 
BRANCH   6   7
ATOM      7  C   UNL     1      31.935  11.226   4.488  1.00  0.00     0.000 C 
BRANCH   7   8
ATOM      8  C   UNL     1      33.155  12.057   4.934  1.00  0.00     0.006 C 
BRANCH   8   9
ATOM      9  C   UNL     1      32.787  13.114   5.984  1.00  0.00     0.053 C 
BRANCH   9  10
ATOM     10  C   UNL     1      32.942  12.557   7.364  1.00  0.00     0.041 C 
ATOM     11  O   UNL     1      32.543  13.213   8.362  1.00  0.00    -0.550 OA
ATOM     12  O   UNL     1      33.571  11.333   7.553  1.00  0.00    -0.550 OA
ENDBRANCH   9  10
ENDBRANCH   8   9
ENDBRANCH   7   8
ENDBRANCH   6   7
ENDBRANCH   5   6
ENDBRANCH   4   5
ENDBRANCH   3   4
ENDBRANCH   1   3
BRANCH   2  13
ATOM     13  C   UNL     1      30.095  14.288  -2.282  1.00  0.00     0.027 C 
BRANCH  13  14
ATOM     14  C   UNL     1      31.186  15.363  -2.194  1.00  0.00     0.004 C 
BRANCH  14  15
ATOM     15  C   UNL     1      30.666  16.666  -1.561  1.00  0.00     0.000 C 
BRANCH  15  16
ATOM     16  C   UNL     1      29.197  16.944  -1.913  1.00  0.00     0.000 C 
BRANCH  16  17
ATOM     17  C   UNL     1      28.488  17.804  -0.852  1.00  0.00    -0.000 C 
BRANCH  17  18
ATOM     18  C   UNL     1      29.451  18.262   0.264  1.00  0.00    -0.000 C 
BRANCH  18  19
ATOM     19  C   UNL     1      28.740  18.923   1.457  1.00  0.00    -0.003 C 
ATOM     20  C   UNL     1      29.707  19.453   2.512  1.00  0.00     0.004 C 
ENDBRANCH  18  19
ENDBRANCH  17  18
ENDBRANCH  16  17
ENDBRANCH  15  16
ENDBRANCH  14  15
ENDBRANCH  13  14
ENDBRANCH   2  13
TORSDOF 15
ENDMDL
MODEL 2
REMARK VINA RESULT:    -5.422      7.550     11.408
REMARK INTER + INTRA:         -11.170
REMARK INTER:                  -9.699
REMARK INTRA:                  -1.471
REMARK UNBOUND:                -0.993
REMARK SMILES CCCCCCCCC=CCCCCCCCC(=O)[O-]
REMARK SMILES IDX 10 1 9 2 11 3 12 4 13 5 14 6 15 7 16 8 17 9 18 10 19 11
REMARK SMILES IDX 20 12 8 13 7 14 6 15 5 16 4 17 3 18 2 19 1 20
REMARK H PARENT
REMARK Flexibility Score: inf
ROOT
ATOM      1  C   UNL     1      27.109  19.190  -0.278  1.00  0.00    -0.031 C 
ATOM      2  C   UNL     1      27.889  19.176   0.814  1.00  0.00    -0.031 C 
ENDROOT
BRANCH   1   3
ATOM      3  C   UNL     1      25.701  19.722  -0.238  1.00  0.00     0.027 C 
BRANCH   3   4
ATOM      4  C   UNL     1      25.220  20.144  -1.630  1.00  0.00     0.004 C 
BRANCH   4   5
ATOM      5  C   UNL     1      26.343  20.060  -2.679  1.00  0.00     0.000 C 
BRANCH   5   6
ATOM      6  C   UNL     1      26.067  20.929  -3.918  1.00  0.00     0.000 C 
BRANCH   6   7
ATOM      7  C   UNL     1      27.050  22.099  -4.122  1.00  0.00     0.000 C 
BRANCH   7   8
ATOM      8  C   UNL     1      26.873  22.832  -5.468  1.00  0.00     0.006 C 
BRANCH   8   9
ATOM      9  C   UNL     1      27.897  22.377  -6.517  1.00  0.00     0.053 C 
BRANCH   9  10
ATOM     10  C   UNL     1      27.203  21.798  -7.709  1.00  0.00     0.041 C 
ATOM     11  O   UNL     1      27.867  21.430  -8.713  1.00  0.00    -0.550 OA
ATOM     12  O   UNL     1      25.817  21.709  -7.730  1.00  0.00    -0.550 OA
ENDBRANCH   9  10
ENDBRANCH   8   9
ENDBRANCH   7   8
ENDBRANCH   6   7
ENDBRANCH   5   6
ENDBRANCH   4   5
ENDBRANCH   3   4
ENDBRANCH   1   3
BRANCH   2  13
ATOM     13  C   UNL     1      29.295  18.642   0.773  1.00  0.00     0.027 C 
BRANCH  13  14
ATOM     14  C   UNL     1      29.507  17.707  -0.424  1.00  0.00     0.004 C 
BRANCH  14  15
ATOM     15  C   UNL     1      29.438  16.223  -0.021  1.00  0.00     0.000 C 
BRANCH  15  16
ATOM     16  C   UNL     1      30.356  15.338  -0.878  1.00  0.00     0.000 C 
BRANCH  16  17
ATOM     17  C   UNL     1      30.920  16.081  -2.102  1.00  0.00    -0.000 C 
BRANCH  17  18
ATOM     18  C   UNL     1      30.263  15.615  -3.418  1.00  0.00    -0.000 C 
BRANCH  18  19
ATOM     19  C   UNL     1      29.710  16.769  -4.271  1.00  0.00    -0.003 C 
ATOM     20  C   UNL     1      28.279  17.154  -3.903  1.00  0.00     0.004 C 
ENDBRANCH  18  19
ENDBRANCH  17  18
ENDBRANCH  16  17
ENDBRANCH  15  16
ENDBRANCH  14  15
ENDBRANCH  13  14
ENDBRANCH   2  13
TORSDOF 15
ENDMDL
MODEL 3
REMARK VINA RESULT:    -5.414      7.214     10.626
REMARK INTER + INTRA:         -11.155
REMARK INTER:                  -9.926
REMARK INTRA:                  -1.229
REMARK UNBOUND:                -0.993
REMARK SMILES CCCCCCCCC=CCCCCCCCC(=O)[O-]
REMARK SMILES IDX 10 1 9 2 11 3 12 4 13 5 14 6 15 7 16 8 17 9 18 10 19 11
REMARK SMILES IDX 20 12 8 13 7 14 6 15 5 16 4 17 3 18 2 19 1 20
REMARK H PARENT
REMARK Flexibility Score: inf
ROOT
ATOM      1  C   UNL     1      26.306  19.648   1.639  1.00  0.00    -0.031 C 
ATOM      2  C   UNL     1      27.567  20.086   1.783  1.00  0.00    -0.031 C 
ENDROOT
BRANCH   1   3
ATOM      3  C   UNL     1      25.123  20.520   1.966  1.00  0.00     0.027 C 
BRANCH   3   4
ATOM      4  C   UNL     1      23.993  20.338   0.947  1.00  0.00     0.004 C 
BRANCH   4   5
ATOM      5  C   UNL     1      24.398  20.820  -0.457  1.00  0.00     0.000 C 
BRANCH   5   6
ATOM      6  C   UNL     1      24.786  19.663  -1.394  1.00  0.00     0.000 C 
BRANCH   6   7
ATOM      7  C   UNL     1      26.054  19.907  -2.236  1.00  0.00     0.000 C 
BRANCH   7   8
ATOM      8  C   UNL     1      25.770  20.133  -3.735  1.00  0.00     0.006 C 
BRANCH   8   9
ATOM      9  C   UNL     1      25.781  21.621  -4.111  1.00  0.00     0.053 C 
BRANCH   9  10
ATOM     10  C   UNL     1      26.856  21.901  -5.113  1.00  0.00     0.041 C 
ATOM     11  O   UNL     1      27.041  21.118  -6.081  1.00  0.00    -0.550 OA
ATOM     12  O   UNL     1      27.686  23.003  -4.951  1.00  0.00    -0.550 OA
ENDBRANCH   9  10
ENDBRANCH   8   9
ENDBRANCH   7   8
ENDBRANCH   6   7
ENDBRANCH   5   6
ENDBRANCH   4   5
ENDBRANCH   3   4
ENDBRANCH   1   3
BRANCH   2  13
ATOM     13  C   UNL     1      28.748  19.212   1.458  1.00  0.00     0.027 C 
BRANCH  13  14
ATOM     14  C   UNL     1      28.577  18.514   0.103  1.00  0.00     0.004 C 
BRANCH  14  15
ATOM     15  C   UNL     1      29.800  17.655  -0.265  1.00  0.00     0.000 C 
BRANCH  15  16
ATOM     16  C   UNL     1      29.405  16.323  -0.921  1.00  0.00     0.000 C 
BRANCH  16  17
ATOM     17  C   UNL     1      30.624  15.525  -1.419  1.00  0.00    -0.000 C 
BRANCH  17  18
ATOM     18  C   UNL     1      31.285  16.181  -2.650  1.00  0.00    -0.000 C 
BRANCH  18  19
ATOM     19  C   UNL     1      30.274  16.705  -3.684  1.00  0.00    -0.003 C 
ATOM     20  C   UNL     1      29.743  15.612  -4.608  1.00  0.00     0.004 C 
ENDBRANCH  18  19
ENDBRANCH  17  18
ENDBRANCH  16  17
ENDBRANCH  15  16
ENDBRANCH  14  15
ENDBRANCH  13  14
ENDBRANCH   2  13
TORSDOF 15
ENDMDL
MODEL 4
REMARK VINA RESULT:    -5.405      6.150      8.423
REMARK INTER + INTRA:         -11.138
REMARK INTER:                  -8.936
REMARK INTRA:                  -2.201
REMARK UNBOUND:                -0.993
REMARK SMILES CCCCCCCCC=CCCCCCCCC(=O)[O-]
REMARK SMILES IDX 10 1 9 2 11 3 12 4 13 5 14 6 15 7 16 8 17 9 18 10 19 11
REMARK SMILES IDX 20 12 8 13 7 14 6 15 5 16 4 17 3 18 2 19 1 20
REMARK H PARENT
REMARK Flexibility Score: inf
ROOT
ATOM      1  C   UNL     1      27.637  18.330  -1.279  1.00  0.00    -0.031 C 
ATOM      2  C   UNL     1      26.324  18.590  -1.379  1.00  0.00    -0.031 C 
ENDROOT
BRANCH   1   3
ATOM      3  C   UNL     1      28.146  16.965  -0.898  1.00  0.00     0.027 C 
BRANCH   3   4
ATOM      4  C   UNL     1      29.649  16.990  -0.599  1.00  0.00     0.004 C 
BRANCH   4   5
ATOM      5  C   UNL     1      30.271  15.583  -0.651  1.00  0.00     0.000 C 
BRANCH   5   6
ATOM      6  C   UNL     1      30.689  15.170  -2.073  1.00  0.00     0.000 C 
BRANCH   6   7
ATOM      7  C   UNL     1      31.286  16.303  -2.930  1.00  0.00     0.000 C 
BRANCH   7   8
ATOM      8  C   UNL     1      30.336  16.818  -4.031  1.00  0.00     0.006 C 
BRANCH   8   9
ATOM      9  C   UNL     1      29.119  15.904  -4.223  1.00  0.00     0.053 C 
BRANCH   9  10
ATOM     10  C   UNL     1      29.159  15.254  -5.570  1.00  0.00     0.041 C 
ATOM     11  O   UNL     1      28.998  14.010  -5.680  1.00  0.00    -0.550 OA
ATOM     12  O   UNL     1      29.422  16.016  -6.701  1.00  0.00    -0.550 OA
ENDBRANCH   9  10
ENDBRANCH   8   9
ENDBRANCH   7   8
ENDBRANCH   6   7
ENDBRANCH   5   6
ENDBRANCH   4   5
ENDBRANCH   3   4
ENDBRANCH   1   3
BRANCH   2  13
ATOM     13  C   UNL     1      25.816  19.955  -1.757  1.00  0.00     0.027 C 
BRANCH  13  14
ATOM     14  C   UNL     1      24.838  20.502  -0.710  1.00  0.00     0.004 C 
BRANCH  14  15
ATOM     15  C   UNL     1      24.775  19.613   0.545  1.00  0.00     0.000 C 
BRANCH  15  16
ATOM     16  C   UNL     1      25.353  20.309   1.787  1.00  0.00     0.000 C 
BRANCH  16  17
ATOM     17  C   UNL     1      26.611  19.606   2.326  1.00  0.00    -0.000 C 
BRANCH  17  18
ATOM     18  C   UNL     1      27.907  20.201   1.735  1.00  0.00    -0.000 C 
BRANCH  18  19
ATOM     19  C   UNL     1      29.181  19.460   2.176  1.00  0.00    -0.003 C 
ATOM     20  C   UNL     1      28.889  18.185   2.963  1.00  0.00     0.004 C 
ENDBRANCH  18  19
ENDBRANCH  17  18
ENDBRANCH  16  17
ENDBRANCH  15  16
ENDBRANCH  14  15
ENDBRANCH  13  14
ENDBRANCH   2  13
TORSDOF 15
ENDMDL
MODEL 5
REMARK VINA RESULT:    -5.378      6.223      8.411
REMARK INTER + INTRA:         -11.088
REMARK INTER:                  -8.772
REMARK INTRA:                  -2.315
REMARK UNBOUND:                -0.993
REMARK SMILES CCCCCCCCC=CCCCCCCCC(=O)[O-]
REMARK SMILES IDX 10 1 9 2 11 3 12 4 13 5 14 6 15 7 16 8 17 9 18 10 19 11
REMARK SMILES IDX 20 12 8 13 7 14 6 15 5 16 4 17 3 18 2 19 1 20
REMARK H PARENT
REMARK Flexibility Score: inf
ROOT
ATOM      1  C   UNL     1      27.126  19.741   1.859  1.00  0.00    -0.031 C 
ATOM      2  C   UNL     1      26.130  20.583   2.176  1.00  0.00    -0.031 C 
ENDROOT
BRANCH   1   3
ATOM      3  C   UNL     1      28.564  20.065   2.168  1.00  0.00     0.027 C 
BRANCH   3   4
ATOM      4  C   UNL     1      29.497  18.919   1.762  1.00  0.00     0.004 C 
BRANCH   4   5
ATOM      5  C   UNL     1      28.834  17.964   0.754  1.00  0.00     0.000 C 
BRANCH   5   6
ATOM      6  C   UNL     1      29.737  17.650  -0.451  1.00  0.00     0.000 C 
BRANCH   6   7
ATOM      7  C   UNL     1      29.555  16.241  -1.050  1.00  0.00     0.000 C 
BRANCH   7   8
ATOM      8  C   UNL     1      30.813  15.698  -1.757  1.00  0.00     0.006 C 
BRANCH   8   9
ATOM      9  C   UNL     1      31.065  16.384  -3.106  1.00  0.00     0.053 C 
BRANCH   9  10
ATOM     10  C   UNL     1      29.920  16.143  -4.038  1.00  0.00     0.041 C 
ATOM     11  O   UNL     1      29.304  17.113  -4.552  1.00  0.00    -0.550 OA
ATOM     12  O   UNL     1      29.502  14.845  -4.303  1.00  0.00    -0.550 OA
ENDBRANCH   9  10
ENDBRANCH   8   9
ENDBRANCH   7   8
ENDBRANCH   6   7
ENDBRANCH   5   6
ENDBRANCH   4   5
ENDBRANCH   3   4
ENDBRANCH   1   3
BRANCH   2  13
ATOM     13  C   UNL     1      24.694  20.260   1.864  1.00  0.00     0.027 C 
BRANCH  13  14
ATOM     14  C   UNL     1      24.550  19.608   0.483  1.00  0.00     0.004 C 
BRANCH  14  15
ATOM     15  C   UNL     1      24.343  20.649  -0.631  1.00  0.00     0.000 C 
BRANCH  15  16
ATOM     16  C   UNL     1      25.203  20.362  -1.871  1.00  0.00     0.000 C 
BRANCH  16  17
ATOM     17  C   UNL     1      26.556  19.721  -1.517  1.00  0.00    -0.000 C 
BRANCH  17  18
ATOM     18  C   UNL     1      26.907  18.548  -2.457  1.00  0.00    -0.000 C 
BRANCH  18  19
ATOM     19  C   UNL     1      25.885  17.400  -2.416  1.00  0.00    -0.003 C 
ATOM     20  C   UNL     1      25.886  16.644  -1.090  1.00  0.00     0.004 C 
ENDBRANCH  18  19
ENDBRANCH  17  18
ENDBRANCH  16  17
ENDBRANCH  15  16
ENDBRANCH  14  15
ENDBRANCH  13  14
ENDBRANCH   2  13
TORSDOF 15
ENDMDL
MODEL 6
REMARK VINA RESULT:    -5.347      3.862      6.055
REMARK INTER + INTRA:         -11.028
REMARK INTER:                  -8.959
REMARK INTRA:                  -2.068
REMARK UNBOUND:                -0.993
REMARK SMILES CCCCCCCCC=CCCCCCCCC(=O)[O-]
REMARK SMILES IDX 10 1 9 2 11 3 12 4 13 5 14 6 15 7 16 8 17 9 18 10 19 11
REMARK SMILES IDX 20 12 8 13 7 14 6 15 5 16 4 17 3 18 2 19 1 20
REMARK H PARENT
REMARK Flexibility Score: inf
ROOT
ATOM      1  C   UNL     1      29.280  16.816   0.059  1.00  0.00    -0.031 C 
ATOM      2  C   UNL     1      28.964  16.056   1.119  1.00  0.00    -0.031 C 
ENDROOT
BRANCH   1   3
ATOM      3  C   UNL     1      29.494  18.301   0.186  1.00  0.00     0.027 C 
BRANCH   3   4
ATOM      4  C   UNL     1      28.190  19.029   0.531  1.00  0.00     0.004 C 
BRANCH   4   5
ATOM      5  C   UNL     1      28.250  19.693   1.918  1.00  0.00     0.000 C 
BRANCH   5   6
ATOM      6  C   UNL     1      29.588  19.450   2.637  1.00  0.00     0.000 C 
BRANCH   6   7
ATOM      7  C   UNL     1      29.496  18.575   3.902  1.00  0.00     0.000 C 
BRANCH   7   8
ATOM      8  C   UNL     1      28.125  17.893   4.089  1.00  0.00     0.006 C 
BRANCH   8   9
ATOM      9  C   UNL     1      27.605  18.017   5.527  1.00  0.00     0.053 C 
BRANCH   9  10
ATOM     10  C   UNL     1      28.132  16.901   6.373  1.00  0.00     0.041 C 
ATOM     11  O   UNL     1      29.087  17.102   7.167  1.00  0.00    -0.550 OA
ATOM     12  O   UNL     1      27.597  15.624   6.249  1.00  0.00    -0.550 OA
ENDBRANCH   9  10
ENDBRANCH   8   9
ENDBRANCH   7   8
ENDBRANCH   6   7
ENDBRANCH   5   6
ENDBRANCH   4   5
ENDBRANCH   3   4
ENDBRANCH   1   3
BRANCH   2  13
ATOM     13  C   UNL     1      28.747  14.572   0.990  1.00  0.00     0.027 C 
BRANCH  13  14
ATOM     14  C   UNL     1      28.282  14.191  -0.422  1.00  0.00     0.004 C 
BRANCH  14  15
ATOM     15  C   UNL     1      29.184  13.120  -1.060  1.00  0.00     0.000 C 
BRANCH  15  16
ATOM     16  C   UNL     1      30.678  13.425  -0.876  1.00  0.00     0.000 C 
BRANCH  16  17
ATOM     17  C   UNL     1      31.324  14.009  -2.144  1.00  0.00    -0.000 C 
BRANCH  17  18
ATOM     18  C   UNL     1      31.348  15.552  -2.127  1.00  0.00    -0.000 C 
BRANCH  18  19
ATOM     19  C   UNL     1      31.034  16.187  -3.492  1.00  0.00    -0.003 C 
ATOM     20  C   UNL     1      29.544  16.446  -3.704  1.00  0.00     0.004 C 
ENDBRANCH  18  19
ENDBRANCH  17  18
ENDBRANCH  16  17
ENDBRANCH  15  16
ENDBRANCH  14  15
ENDBRANCH  13  14
ENDBRANCH   2  13
TORSDOF 15
ENDMDL
MODEL 7
REMARK VINA RESULT:    -5.341      5.195      7.834
REMARK INTER + INTRA:         -11.018
REMARK INTER:                  -8.482
REMARK INTRA:                  -2.536
REMARK UNBOUND:                -0.993
REMARK SMILES CCCCCCCCC=CCCCCCCCC(=O)[O-]
REMARK SMILES IDX 10 1 9 2 11 3 12 4 13 5 14 6 15 7 16 8 17 9 18 10 19 11
REMARK SMILES IDX 20 12 8 13 7 14 6 15 5 16 4 17 3 18 2 19 1 20
REMARK H PARENT
REMARK Flexibility Score: inf
ROOT
ATOM      1  C   UNL     1      27.655  18.395  -1.265  1.00  0.00    -0.031 C 
ATOM      2  C   UNL     1      28.261  17.257  -0.894  1.00  0.00    -0.031 C 
ENDROOT
BRANCH   1   3
ATOM      3  C   UNL     1      26.156  18.494  -1.374  1.00  0.00     0.027 C 
BRANCH   3   4
ATOM      4  C   UNL     1      25.720  19.872  -1.886  1.00  0.00     0.004 C 
BRANCH   4   5
ATOM      5  C   UNL     1      24.768  20.577  -0.904  1.00  0.00     0.000 C 
BRANCH   5   6
ATOM      6  C   UNL     1      24.531  19.766   0.382  1.00  0.00     0.000 C 
BRANCH   6   7
ATOM      7  C   UNL     1      25.071  20.418   1.670  1.00  0.00     0.000 C 
BRANCH   7   8
ATOM      8  C   UNL     1      26.206  19.619   2.343  1.00  0.00     0.006 C 
BRANCH   8   9
ATOM      9  C   UNL     1      27.595  20.071   1.871  1.00  0.00     0.053 C 
BRANCH   9  10
ATOM     10  C   UNL     1      28.645  19.118   2.347  1.00  0.00     0.041 C 
ATOM     11  O   UNL     1      28.347  17.923   2.608  1.00  0.00    -0.550 OA
ATOM     12  O   UNL     1      29.947  19.562   2.547  1.00  0.00    -0.550 OA
ENDBRANCH   9  10
ENDBRANCH   8   9
ENDBRANCH   7   8
ENDBRANCH   6   7
ENDBRANCH   5   6
ENDBRANCH   4   5
ENDBRANCH   3   4
ENDBRANCH   1   3
BRANCH   2  13
ATOM     13  C   UNL     1      29.759  17.158  -0.788  1.00  0.00     0.027 C 
BRANCH  13  14
ATOM     14  C   UNL     1      30.221  15.700  -0.668  1.00  0.00     0.004 C 
BRANCH  14  15
ATOM     15  C   UNL     1      30.906  15.202  -1.953  1.00  0.00     0.000 C 
BRANCH  15  16
ATOM     16  C   UNL     1      31.184  16.339  -2.948  1.00  0.00     0.000 C 
BRANCH  16  17
ATOM     17  C   UNL     1      30.478  16.128  -4.299  1.00  0.00    -0.000 C 
BRANCH  17  18
ATOM     18  C   UNL     1      29.197  15.278  -4.160  1.00  0.00    -0.000 C 
BRANCH  18  19
ATOM     19  C   UNL     1      27.901  16.098  -4.268  1.00  0.00    -0.003 C 
ATOM     20  C   UNL     1      28.114  17.476  -4.889  1.00  0.00     0.004 C 
ENDBRANCH  18  19
ENDBRANCH  17  18
ENDBRANCH  16  17
ENDBRANCH  15  16
ENDBRANCH  14  15
ENDBRANCH  13  14
ENDBRANCH   2  13
TORSDOF 15
ENDMDL
MODEL 8
REMARK VINA RESULT:    -5.336      5.267      7.370
REMARK INTER + INTRA:         -11.009
REMARK INTER:                  -8.518
REMARK INTRA:                  -2.491
REMARK UNBOUND:                -0.993
REMARK SMILES CCCCCCCCC=CCCCCCCCC(=O)[O-]
REMARK SMILES IDX 10 1 9 2 11 3 12 4 13 5 14 6 15 7 16 8 17 9 18 10 19 11
REMARK SMILES IDX 20 12 8 13 7 14 6 15 5 16 4 17 3 18 2 19 1 20
REMARK H PARENT
REMARK Flexibility Score: inf
ROOT
ATOM      1  C   UNL     1      28.346  16.090   0.472  1.00  0.00    -0.031 C 
ATOM      2  C   UNL     1      29.426  16.823   0.160  1.00  0.00    -0.031 C 
ENDROOT
BRANCH   1   3
ATOM      3  C   UNL     1      28.296  14.607   0.217  1.00  0.00     0.027 C 
BRANCH   3   4
ATOM      4  C   UNL     1      29.672  13.958   0.405  1.00  0.00     0.004 C 
BRANCH   4   5
ATOM      5  C   UNL     1      30.069  13.088  -0.800  1.00  0.00     0.000 C 
BRANCH   5   6
ATOM      6  C   UNL     1      30.229  13.902  -2.096  1.00  0.00     0.000 C 
BRANCH   6   7
ATOM      7  C   UNL     1      31.449  14.844  -2.125  1.00  0.00     0.000 C 
BRANCH   7   8
ATOM      8  C   UNL     1      31.186  16.180  -2.849  1.00  0.00     0.006 C 
BRANCH   8   9
ATOM      9  C   UNL     1      30.386  15.992  -4.145  1.00  0.00     0.053 C 
BRANCH   9  10
ATOM     10  C   UNL     1      29.198  16.900  -4.163  1.00  0.00     0.041 C 
ATOM     11  O   UNL     1      28.621  17.212  -3.088  1.00  0.00    -0.550 OA
ATOM     12  O   UNL     1      28.697  17.365  -5.373  1.00  0.00    -0.550 OA
ENDBRANCH   9  10
ENDBRANCH   8   9
ENDBRANCH   7   8
ENDBRANCH   6   7
ENDBRANCH   5   6
ENDBRANCH   4   5
ENDBRANCH   3   4
ENDBRANCH   1   3
BRANCH   2  13
ATOM     13  C   UNL     1      29.473  18.306   0.413  1.00  0.00     0.027 C 
BRANCH  13  14
ATOM     14  C   UNL     1      28.079  18.939   0.318  1.00  0.00     0.004 C 
BRANCH  14  15
ATOM     15  C   UNL     1      27.859  20.020   1.390  1.00  0.00     0.000 C 
BRANCH  15  16
ATOM     16  C   UNL     1      26.513  19.864   2.114  1.00  0.00     0.000 C 
BRANCH  16  17
ATOM     17  C   UNL     1      26.209  18.403   2.490  1.00  0.00    -0.000 C 
BRANCH  17  18
ATOM     18  C   UNL     1      26.674  18.062   3.922  1.00  0.00    -0.000 C 
BRANCH  18  19
ATOM     19  C   UNL     1      27.917  17.157   3.966  1.00  0.00    -0.003 C 
ATOM     20  C   UNL     1      29.223  17.939   4.078  1.00  0.00     0.004 C 
ENDBRANCH  18  19
ENDBRANCH  17  18
ENDBRANCH  16  17
ENDBRANCH  15  16
ENDBRANCH  14  15
ENDBRANCH  13  14
ENDBRANCH   2  13
TORSDOF 15
ENDMDL
MODEL 9
REMARK VINA RESULT:    -5.292      4.467      7.215
REMARK INTER + INTRA:         -10.925
REMARK INTER:                  -8.189
REMARK INTRA:                  -2.736
REMARK UNBOUND:                -0.993
REMARK SMILES CCCCCCCCC=CCCCCCCCC(=O)[O-]
REMARK SMILES IDX 10 1 9 2 11 3 12 4 13 5 14 6 15 7 16 8 17 9 18 10 19 11
REMARK SMILES IDX 20 12 8 13 7 14 6 15 5 16 4 17 3 18 2 19 1 20
REMARK H PARENT
REMARK Flexibility Score: inf
ROOT
ATOM      1  C   UNL     1      28.372  16.309  -0.154  1.00  0.00    -0.031 C 
ATOM      2  C   UNL     1      29.700  16.486  -0.233  1.00  0.00    -0.031 C 
ENDROOT
BRANCH   1   3
ATOM      3  C   UNL     1      27.701  15.925   1.138  1.00  0.00     0.027 C 
BRANCH   3   4
ATOM      4  C   UNL     1      28.638  16.115   2.336  1.00  0.00     0.004 C 
BRANCH   4   5
ATOM      5  C   UNL     1      28.181  17.267   3.248  1.00  0.00     0.000 C 
BRANCH   5   6
ATOM      6  C   UNL     1      29.267  18.341   3.439  1.00  0.00     0.000 C 
BRANCH   6   7
ATOM      7  C   UNL     1      29.529  19.227   2.205  1.00  0.00     0.000 C 
BRANCH   7   8
ATOM      8  C   UNL     1      28.342  20.137   1.829  1.00  0.00     0.006 C 
BRANCH   8   9
ATOM      9  C   UNL     1      27.588  19.629   0.593  1.00  0.00     0.053 C 
BRANCH   9  10
ATOM     10  C   UNL     1      26.153  19.367   0.925  1.00  0.00     0.041 C 
ATOM     11  O   UNL     1      25.359  18.965   0.035  1.00  0.00    -0.550 OA
ATOM     12  O   UNL     1      25.682  19.611   2.209  1.00  0.00    -0.550 OA
ENDBRANCH   9  10
ENDBRANCH   8   9
ENDBRANCH   7   8
ENDBRANCH   6   7
ENDBRANCH   5   6
ENDBRANCH   4   5
ENDBRANCH   3   4
ENDBRANCH   1   3
BRANCH   2  13
ATOM     13  C   UNL     1      30.370  16.867  -1.526  1.00  0.00     0.027 C 
BRANCH  13  14
ATOM     14  C   UNL     1      31.045  15.659  -2.187  1.00  0.00     0.004 C 
BRANCH  14  15
ATOM     15  C   UNL     1      30.148  15.005  -3.253  1.00  0.00     0.000 C 
BRANCH  15  16
ATOM     16  C   UNL     1      29.464  13.728  -2.741  1.00  0.00     0.000 C 
BRANCH  16  17
ATOM     17  C   UNL     1      30.306  12.988  -1.687  1.00  0.00    -0.000 C 
BRANCH  17  18
ATOM     18  C   UNL     1      29.470  12.585  -0.453  1.00  0.00    -0.000 C 
BRANCH  18  19
ATOM     19  C   UNL     1      30.128  12.962   0.885  1.00  0.00    -0.003 C 
ATOM     20  C   UNL     1      30.225  11.788   1.856  1.00  0.00     0.004 C 
ENDBRANCH  18  19
ENDBRANCH  17  18
ENDBRANCH  16  17
ENDBRANCH  15  16
ENDBRANCH  14  15
ENDBRANCH  13  14
ENDBRANCH   2  13
TORSDOF 15
ENDMDL
