MODEL 1
REMARK VINA RESULT:    -6.535      0.000      0.000
REMARK INTER + INTRA:          -7.958
REMARK INTER:                  -7.681
REMARK INTRA:                  -0.277
REMARK UNBOUND:                -0.277
REMARK SMILES O=c1cc(-c2ccc(O)c(O)c2)oc2cc(O)cc(O)c12
REMARK SMILES IDX 4 1 3 2 2 3 1 4 21 5 19 6 18 7 16 8 15 9 14 10 13 11 5 12
REMARK SMILES IDX 6 13 7 14 8 15 12 16 10 17 9 18 11 20 20 22 17 24
REMARK H PARENT 9 19 11 21 20 23 17 25
REMARK Flexibility Score: inf
ROOT
ATOM      1  C   UNL     1     134.836 136.270 142.822  1.00  0.00     0.138 A 
ATOM      2  C   UNL     1     134.929 137.494 143.499  1.00  0.00     0.100 A 
ATOM      3  C   UNL     1     136.182 138.071 143.713  1.00  0.00     0.197 A 
ATOM      4  O   UNL     1     136.237 139.138 144.378  1.00  0.00    -0.289 OA
ATOM      5  C   UNL     1     137.343 137.433 143.218  1.00  0.00     0.107 A 
ATOM      6  C   UNL     1     138.668 137.948 143.341  1.00  0.00     0.134 A 
ATOM      7  C   UNL     1     139.753 137.172 142.915  1.00  0.00     0.093 A 
ATOM      8  C   UNL     1     139.556 135.926 142.314  1.00  0.00     0.123 A 
ATOM      9  C   UNL     1     138.263 135.438 142.140  1.00  0.00     0.094 A 
ATOM     10  C   UNL     1     137.162 136.174 142.587  1.00  0.00     0.146 A 
ATOM     11  O   UNL     1     135.947 135.665 142.415  1.00  0.00    -0.456 OA
ENDROOT
BRANCH   1  12
ATOM     12  C   UNL     1     133.529 135.614 142.567  1.00  0.00     0.021 A 
ATOM     13  C   UNL     1     132.673 135.235 143.619  1.00  0.00     0.016 A 
ATOM     14  C   UNL     1     131.444 134.629 143.348  1.00  0.00     0.051 A 
ATOM     15  C   UNL     1     131.044 134.397 142.026  1.00  0.00     0.157 A 
ATOM     16  C   UNL     1     133.113 135.390 141.241  1.00  0.00     0.062 A 
ATOM     17  C   UNL     1     131.883 134.782 140.969  1.00  0.00     0.158 A 
BRANCH  15  18
ATOM     18  O   UNL     1     129.816 133.790 141.760  1.00  0.00    -0.504 OA
ATOM     19  H   UNL     1     129.686 132.790 141.859  1.00  0.00     0.293 HD
ENDBRANCH  15  18
BRANCH  17  20
ATOM     20  O   UNL     1     131.512 134.568 139.640  1.00  0.00    -0.504 OA
ATOM     21  H   UNL     1     130.563 134.708 139.318  1.00  0.00     0.293 HD
ENDBRANCH  17  20
ENDBRANCH   1  12
BRANCH   6  22
ATOM     22  O   UNL     1     138.969 139.216 143.848  1.00  0.00    -0.507 OA
ATOM     23  H   UNL     1     138.485 139.662 144.612  1.00  0.00     0.293 HD
ENDBRANCH   6  22
BRANCH   8  24
ATOM     24  O   UNL     1     140.640 135.168 141.878  1.00  0.00    -0.508 OA
ATOM     25  H   UNL     1     141.030 135.285 140.951  1.00  0.00     0.293 HD
ENDBRANCH   8  24
TORSDOF 5
ENDMDL
MODEL 2
REMARK VINA RESULT:    -6.346      2.400      3.606
REMARK INTER + INTRA:          -7.736
REMARK INTER:                  -7.441
REMARK INTRA:                  -0.295
REMARK UNBOUND:                -0.277
REMARK SMILES O=c1cc(-c2ccc(O)c(O)c2)oc2cc(O)cc(O)c12
REMARK SMILES IDX 4 1 3 2 2 3 1 4 21 5 19 6 18 7 16 8 15 9 14 10 13 11 5 12
REMARK SMILES IDX 6 13 7 14 8 15 12 16 10 17 9 18 11 20 20 22 17 24
REMARK H PARENT 9 19 11 21 20 23 17 25
REMARK Flexibility Score: inf
ROOT
ATOM      1  C   UNL     1     134.203 137.444 142.860  1.00  0.00     0.138 A 
ATOM      2  C   UNL     1     135.216 137.121 143.774  1.00  0.00     0.100 A 
ATOM      3  C   UNL     1     136.248 138.029 144.011  1.00  0.00     0.197 A 
ATOM      4  O   UNL     1     137.175 137.685 144.790  1.00  0.00    -0.289 OA
ATOM      5  C   UNL     1     136.248 139.281 143.352  1.00  0.00     0.107 A 
ATOM      6  C   UNL     1     137.226 140.302 143.546  1.00  0.00     0.134 A 
ATOM      7  C   UNL     1     137.188 141.454 142.751  1.00  0.00     0.093 A 
ATOM      8  C   UNL     1     136.172 141.649 141.812  1.00  0.00     0.123 A 
ATOM      9  C   UNL     1     135.182 140.682 141.653  1.00  0.00     0.094 A 
ATOM     10  C   UNL     1     135.212 139.506 142.407  1.00  0.00     0.146 A 
ATOM     11  O   UNL     1     134.257 138.604 142.213  1.00  0.00    -0.456 OA
ENDROOT
BRANCH   1  12
ATOM     12  C   UNL     1     133.082 136.514 142.572  1.00  0.00     0.021 A 
ATOM     13  C   UNL     1     132.111 136.806 141.596  1.00  0.00     0.016 A 
ATOM     14  C   UNL     1     131.073 135.907 141.338  1.00  0.00     0.051 A 
ATOM     15  C   UNL     1     130.991 134.700 142.043  1.00  0.00     0.157 A 
ATOM     16  C   UNL     1     133.000 135.293 143.265  1.00  0.00     0.062 A 
ATOM     17  C   UNL     1     131.961 134.391 143.009  1.00  0.00     0.158 A 
BRANCH  15  18
ATOM     18  O   UNL     1     129.953 133.805 141.783  1.00  0.00    -0.504 OA
ATOM     19  H   UNL     1     130.101 132.964 141.238  1.00  0.00     0.293 HD
ENDBRANCH  15  18
BRANCH  17  20
ATOM     20  O   UNL     1     131.910 133.195 143.726  1.00  0.00    -0.504 OA
ATOM     21  H   UNL     1     132.721 132.598 143.833  1.00  0.00     0.293 HD
ENDBRANCH  17  20
ENDBRANCH   1  12
BRANCH   6  22
ATOM     22  O   UNL     1     138.233 140.245 144.515  1.00  0.00    -0.507 OA
ATOM     23  H   UNL     1     138.828 139.449 144.683  1.00  0.00     0.293 HD
ENDBRANCH   6  22
BRANCH   8  24
ATOM     24  O   UNL     1     136.134 142.806 141.037  1.00  0.00    -0.508 OA
ATOM     25  H   UNL     1     135.678 142.823 140.132  1.00  0.00     0.293 HD
ENDBRANCH   8  24
TORSDOF 5
ENDMDL
MODEL 3
REMARK VINA RESULT:    -6.340      1.975      7.112
REMARK INTER + INTRA:          -7.729
REMARK INTER:                  -7.467
REMARK INTRA:                  -0.262
REMARK UNBOUND:                -0.277
REMARK SMILES O=c1cc(-c2ccc(O)c(O)c2)oc2cc(O)cc(O)c12
REMARK SMILES IDX 4 1 3 2 2 3 1 4 21 5 19 6 18 7 16 8 15 9 14 10 13 11 5 12
REMARK SMILES IDX 6 13 7 14 8 15 12 16 10 17 9 18 11 20 20 22 17 24
REMARK H PARENT 9 19 11 21 20 23 17 25
REMARK Flexibility Score: inf
ROOT
ATOM      1  C   UNL     1     136.019 135.791 141.679  1.00  0.00     0.138 A 
ATOM      2  C   UNL     1     135.324 135.038 140.723  1.00  0.00     0.100 A 
ATOM      3  C   UNL     1     133.931 134.977 140.772  1.00  0.00     0.197 A 
ATOM      4  O   UNL     1     133.339 134.243 139.938  1.00  0.00    -0.289 OA
ATOM      5  C   UNL     1     133.229 135.701 141.764  1.00  0.00     0.107 A 
ATOM      6  C   UNL     1     131.808 135.746 141.886  1.00  0.00     0.134 A 
ATOM      7  C   UNL     1     131.230 136.401 142.980  1.00  0.00     0.093 A 
ATOM      8  C   UNL     1     132.019 137.065 143.922  1.00  0.00     0.123 A 
ATOM      9  C   UNL     1     133.405 137.072 143.783  1.00  0.00     0.094 A 
ATOM     10  C   UNL     1     134.014 136.398 142.722  1.00  0.00     0.146 A 
ATOM     11  O   UNL     1     135.339 136.417 142.634  1.00  0.00    -0.456 OA
ENDROOT
BRANCH   1  12
ATOM     12  C   UNL     1     137.500 135.891 141.673  1.00  0.00     0.021 A 
ATOM     13  C   UNL     1     138.300 135.076 142.496  1.00  0.00     0.016 A 
ATOM     14  C   UNL     1     139.693 135.184 142.461  1.00  0.00     0.051 A 
ATOM     15  C   UNL     1     140.311 136.099 141.599  1.00  0.00     0.157 A 
ATOM     16  C   UNL     1     138.130 136.797 140.800  1.00  0.00     0.062 A 
ATOM     17  C   UNL     1     139.524 136.907 140.764  1.00  0.00     0.158 A 
BRANCH  15  18
ATOM     18  O   UNL     1     141.701 136.204 141.568  1.00  0.00    -0.504 OA
ATOM     19  H   UNL     1     142.276 135.505 141.112  1.00  0.00     0.293 HD
ENDBRANCH  15  18
BRANCH  17  20
ATOM     20  O   UNL     1     140.109 137.825 139.891  1.00  0.00    -0.504 OA
ATOM     21  H   UNL     1     141.075 138.113 139.982  1.00  0.00     0.293 HD
ENDBRANCH  17  20
ENDBRANCH   1  12
BRANCH   6  22
ATOM     22  O   UNL     1     130.927 135.189 140.954  1.00  0.00    -0.507 OA
ATOM     23  H   UNL     1     131.066 134.308 140.483  1.00  0.00     0.293 HD
ENDBRANCH   6  22
BRANCH   8  24
ATOM     24  O   UNL     1     131.433 137.728 144.999  1.00  0.00    -0.508 OA
ATOM     25  H   UNL     1     130.609 138.305 144.880  1.00  0.00     0.293 HD
ENDBRANCH   8  24
TORSDOF 5
ENDMDL
MODEL 4
REMARK VINA RESULT:    -6.276      2.149      7.196
REMARK INTER + INTRA:          -7.653
REMARK INTER:                  -7.362
REMARK INTRA:                  -0.292
REMARK UNBOUND:                -0.277
REMARK SMILES O=c1cc(-c2ccc(O)c(O)c2)oc2cc(O)cc(O)c12
REMARK SMILES IDX 4 1 3 2 2 3 1 4 21 5 19 6 18 7 16 8 15 9 14 10 13 11 5 12
REMARK SMILES IDX 6 13 7 14 8 15 12 16 10 17 9 18 11 20 20 22 17 24
REMARK H PARENT 9 19 11 21 20 23 17 25
REMARK Flexibility Score: inf
ROOT
ATOM      1  C   UNL     1     135.896 135.943 140.935  1.00  0.00     0.138 A 
ATOM      2  C   UNL     1     135.298 136.365 139.739  1.00  0.00     0.100 A 
ATOM      3  C   UNL     1     133.928 136.177 139.548  1.00  0.00     0.197 A 
ATOM      4  O   UNL     1     133.433 136.510 138.440  1.00  0.00    -0.289 OA
ATOM      5  C   UNL     1     133.149 135.592 140.574  1.00  0.00     0.107 A 
ATOM      6  C   UNL     1     131.739 135.387 140.507  1.00  0.00     0.134 A 
ATOM      7  C   UNL     1     131.092 134.692 141.536  1.00  0.00     0.093 A 
ATOM      8  C   UNL     1     131.796 134.247 142.658  1.00  0.00     0.123 A 
ATOM      9  C   UNL     1     133.164 134.489 142.758  1.00  0.00     0.094 A 
ATOM     10  C   UNL     1     133.844 135.149 141.731  1.00  0.00     0.146 A 
ATOM     11  O   UNL     1     135.151 135.346 141.860  1.00  0.00    -0.456 OA
ENDROOT
BRANCH   1  12
ATOM     12  C   UNL     1     137.348 136.120 141.190  1.00  0.00     0.021 A 
ATOM     13  C   UNL     1     138.023 135.373 142.173  1.00  0.00     0.016 A 
ATOM     14  C   UNL     1     139.392 135.553 142.384  1.00  0.00     0.051 A 
ATOM     15  C   UNL     1     140.112 136.474 141.612  1.00  0.00     0.157 A 
ATOM     16  C   UNL     1     138.081 137.033 140.410  1.00  0.00     0.062 A 
ATOM     17  C   UNL     1     139.453 137.215 140.620  1.00  0.00     0.158 A 
BRANCH  15  18
ATOM     18  O   UNL     1     141.479 136.651 141.826  1.00  0.00    -0.504 OA
ATOM     19  H   UNL     1     142.082 137.041 141.110  1.00  0.00     0.293 HD
ENDBRANCH  15  18
BRANCH  17  20
ATOM     20  O   UNL     1     140.142 138.138 139.831  1.00  0.00    -0.504 OA
ATOM     21  H   UNL     1     141.148 138.109 139.726  1.00  0.00     0.293 HD
ENDBRANCH  17  20
ENDBRANCH   1  12
BRANCH   6  22
ATOM     22  O   UNL     1     130.929 135.866 139.472  1.00  0.00    -0.507 OA
ATOM     23  H   UNL     1     130.404 135.287 138.835  1.00  0.00     0.293 HD
ENDBRANCH   6  22
BRANCH   8  24
ATOM     24  O   UNL     1     131.141 133.569 143.684  1.00  0.00    -0.508 OA
ATOM     25  H   UNL     1     131.340 132.597 143.889  1.00  0.00     0.293 HD
ENDBRANCH   8  24
TORSDOF 5
ENDMDL
MODEL 5
REMARK VINA RESULT:    -6.267      1.921      6.865
REMARK INTER + INTRA:          -7.643
REMARK INTER:                  -7.374
REMARK INTRA:                  -0.269
REMARK UNBOUND:                -0.277
REMARK SMILES O=c1cc(-c2ccc(O)c(O)c2)oc2cc(O)cc(O)c12
REMARK SMILES IDX 4 1 3 2 2 3 1 4 21 5 19 6 18 7 16 8 15 9 14 10 13 11 5 12
REMARK SMILES IDX 6 13 7 14 8 15 12 16 10 17 9 18 11 20 20 22 17 24
REMARK H PARENT 9 19 11 21 20 23 17 25
REMARK Flexibility Score: inf
ROOT
ATOM      1  C   UNL     1     136.181 135.976 141.932  1.00  0.00     0.138 A 
ATOM      2  C   UNL     1     135.511 136.639 142.970  1.00  0.00     0.100 A 
ATOM      3  C   UNL     1     134.116 136.633 143.006  1.00  0.00     0.197 A 
ATOM      4  O   UNL     1     133.543 137.289 143.915  1.00  0.00    -0.289 OA
ATOM      5  C   UNL     1     133.390 135.932 142.015  1.00  0.00     0.107 A 
ATOM      6  C   UNL     1     131.968 135.823 141.974  1.00  0.00     0.134 A 
ATOM      7  C   UNL     1     131.355 135.202 140.879  1.00  0.00     0.093 A 
ATOM      8  C   UNL     1     132.115 134.632 139.854  1.00  0.00     0.123 A 
ATOM      9  C   UNL     1     133.506 134.686 139.912  1.00  0.00     0.094 A 
ATOM     10  C   UNL     1     134.146 135.330 140.974  1.00  0.00     0.146 A 
ATOM     11  O   UNL     1     135.474 135.372 140.983  1.00  0.00    -0.456 OA
ENDROOT
BRANCH   1  12
ATOM     12  C   UNL     1     137.663 135.951 141.846  1.00  0.00     0.021 A 
ATOM     13  C   UNL     1     138.431 135.030 142.583  1.00  0.00     0.016 A 
ATOM     14  C   UNL     1     139.824 135.022 142.474  1.00  0.00     0.051 A 
ATOM     15  C   UNL     1     140.473 135.927 141.624  1.00  0.00     0.157 A 
ATOM     16  C   UNL     1     138.322 136.847 140.984  1.00  0.00     0.062 A 
ATOM     17  C   UNL     1     139.717 136.841 140.875  1.00  0.00     0.158 A 
BRANCH  15  18
ATOM     18  O   UNL     1     141.864 135.917 141.519  1.00  0.00    -0.504 OA
ATOM     19  H   UNL     1     142.410 136.764 141.624  1.00  0.00     0.293 HD
ENDBRANCH  15  18
BRANCH  17  20
ATOM     20  O   UNL     1     140.332 137.753 140.015  1.00  0.00    -0.504 OA
ATOM     21  H   UNL     1     140.653 138.659 140.334  1.00  0.00     0.293 HD
ENDBRANCH  17  20
ENDBRANCH   1  12
BRANCH   6  22
ATOM     22  O   UNL     1     131.120 136.282 142.987  1.00  0.00    -0.507 OA
ATOM     23  H   UNL     1     131.050 135.877 143.907  1.00  0.00     0.293 HD
ENDBRANCH   6  22
BRANCH   8  24
ATOM     24  O   UNL     1     131.496 134.003 138.777  1.00  0.00    -0.508 OA
ATOM     25  H   UNL     1     130.898 133.195 138.907  1.00  0.00     0.293 HD
ENDBRANCH   8  24
TORSDOF 5
ENDMDL
MODEL 6
REMARK VINA RESULT:    -6.250      1.300      2.787
REMARK INTER + INTRA:          -7.623
REMARK INTER:                  -7.360
REMARK INTRA:                  -0.263
REMARK UNBOUND:                -0.277
REMARK SMILES O=c1cc(-c2ccc(O)c(O)c2)oc2cc(O)cc(O)c12
REMARK SMILES IDX 4 1 3 2 2 3 1 4 21 5 19 6 18 7 16 8 15 9 14 10 13 11 5 12
REMARK SMILES IDX 6 13 7 14 8 15 12 16 10 17 9 18 11 20 20 22 17 24
REMARK H PARENT 9 19 11 21 20 23 17 25
REMARK Flexibility Score: inf
ROOT
ATOM      1  C   UNL     1     135.098 136.243 142.392  1.00  0.00     0.138 A 
ATOM      2  C   UNL     1     136.280 135.545 142.105  1.00  0.00     0.100 A 
ATOM      3  C   UNL     1     137.512 136.182 142.258  1.00  0.00     0.197 A 
ATOM      4  O   UNL     1     138.551 135.550 141.933  1.00  0.00    -0.289 OA
ATOM      5  C   UNL     1     137.561 137.515 142.730  1.00  0.00     0.107 A 
ATOM      6  C   UNL     1     138.761 138.252 142.962  1.00  0.00     0.134 A 
ATOM      7  C   UNL     1     138.683 139.603 143.318  1.00  0.00     0.093 A 
ATOM      8  C   UNL     1     137.449 140.228 143.510  1.00  0.00     0.123 A 
ATOM      9  C   UNL     1     136.272 139.503 143.338  1.00  0.00     0.094 A 
ATOM     10  C   UNL     1     136.316 138.162 142.948  1.00  0.00     0.146 A 
ATOM     11  O   UNL     1     135.170 137.512 142.781  1.00  0.00    -0.456 OA
ENDROOT
BRANCH   1  12
ATOM     12  C   UNL     1     133.762 135.613 142.248  1.00  0.00     0.021 A 
ATOM     13  C   UNL     1     132.960 135.313 143.366  1.00  0.00     0.016 A 
ATOM     14  C   UNL     1     131.702 134.730 143.199  1.00  0.00     0.051 A 
ATOM     15  C   UNL     1     131.218 134.443 141.916  1.00  0.00     0.157 A 
ATOM     16  C   UNL     1     133.262 135.335 140.962  1.00  0.00     0.062 A 
ATOM     17  C   UNL     1     132.002 134.750 140.794  1.00  0.00     0.158 A 
BRANCH  15  18
ATOM     18  O   UNL     1     129.961 133.860 141.754  1.00  0.00    -0.504 OA
ATOM     19  H   UNL     1     129.789 133.160 141.042  1.00  0.00     0.293 HD
ENDBRANCH  15  18
BRANCH  17  20
ATOM     20  O   UNL     1     131.548 134.481 139.502  1.00  0.00    -0.504 OA
ATOM     21  H   UNL     1     130.978 135.138 138.985  1.00  0.00     0.293 HD
ENDBRANCH  17  20
ENDBRANCH   1  12
BRANCH   6  22
ATOM     22  O   UNL     1     140.044 137.700 142.881  1.00  0.00    -0.507 OA
ATOM     23  H   UNL     1     140.634 137.496 143.672  1.00  0.00     0.293 HD
ENDBRANCH   6  22
BRANCH   8  24
ATOM     24  O   UNL     1     137.381 141.570 143.880  1.00  0.00    -0.508 OA
ATOM     25  H   UNL     1     137.751 141.894 144.766  1.00  0.00     0.293 HD
ENDBRANCH   8  24
TORSDOF 5
ENDMDL
MODEL 7
REMARK VINA RESULT:    -6.211      1.851      7.335
REMARK INTER + INTRA:          -7.577
REMARK INTER:                  -7.260
REMARK INTRA:                  -0.317
REMARK UNBOUND:                -0.277
REMARK SMILES O=c1cc(-c2ccc(O)c(O)c2)oc2cc(O)cc(O)c12
REMARK SMILES IDX 4 1 3 2 2 3 1 4 21 5 19 6 18 7 16 8 15 9 14 10 13 11 5 12
REMARK SMILES IDX 6 13 7 14 8 15 12 16 10 17 9 18 11 20 20 22 17 24
REMARK H PARENT 9 19 11 21 20 23 17 25
REMARK Flexibility Score: inf
ROOT
ATOM      1  C   UNL     1     135.215 136.323 142.340  1.00  0.00     0.138 A 
ATOM      2  C   UNL     1     135.260 135.359 141.323  1.00  0.00     0.100 A 
ATOM      3  C   UNL     1     134.086 134.997 140.661  1.00  0.00     0.197 A 
ATOM      4  O   UNL     1     134.150 134.084 139.797  1.00  0.00    -0.289 OA
ATOM      5  C   UNL     1     132.866 135.628 140.998  1.00  0.00     0.107 A 
ATOM      6  C   UNL     1     131.614 135.369 140.364  1.00  0.00     0.134 A 
ATOM      7  C   UNL     1     130.451 135.969 140.861  1.00  0.00     0.093 A 
ATOM      8  C   UNL     1     130.504 136.866 141.931  1.00  0.00     0.123 A 
ATOM      9  C   UNL     1     131.728 137.166 142.523  1.00  0.00     0.094 A 
ATOM     10  C   UNL     1     132.902 136.557 142.072  1.00  0.00     0.146 A 
ATOM     11  O   UNL     1     134.046 136.860 142.675  1.00  0.00    -0.456 OA
ENDROOT
BRANCH   1  12
ATOM     12  C   UNL     1     136.433 136.745 143.075  1.00  0.00     0.021 A 
ATOM     13  C   UNL     1     137.723 136.390 142.635  1.00  0.00     0.016 A 
ATOM     14  C   UNL     1     138.853 136.810 143.342  1.00  0.00     0.051 A 
ATOM     15  C   UNL     1     138.716 137.598 144.492  1.00  0.00     0.157 A 
ATOM     16  C   UNL     1     136.306 137.547 144.224  1.00  0.00     0.062 A 
ATOM     17  C   UNL     1     137.437 137.969 144.933  1.00  0.00     0.158 A 
BRANCH  15  18
ATOM     18  O   UNL     1     139.847 138.015 145.195  1.00  0.00    -0.504 OA
ATOM     19  H   UNL     1     140.750 138.102 144.744  1.00  0.00     0.293 HD
ENDBRANCH  15  18
BRANCH  17  20
ATOM     20  O   UNL     1     137.267 138.755 146.073  1.00  0.00    -0.504 OA
ATOM     21  H   UNL     1     136.874 139.687 146.029  1.00  0.00     0.293 HD
ENDBRANCH  17  20
ENDBRANCH   1  12
BRANCH   6  22
ATOM     22  O   UNL     1     131.465 134.557 139.235  1.00  0.00    -0.507 OA
ATOM     23  H   UNL     1     131.131 133.606 139.249  1.00  0.00     0.293 HD
ENDBRANCH   6  22
BRANCH   8  24
ATOM     24  O   UNL     1     129.343 137.470 142.409  1.00  0.00    -0.508 OA
ATOM     25  H   UNL     1     128.953 138.294 141.966  1.00  0.00     0.293 HD
ENDBRANCH   8  24
TORSDOF 5
ENDMDL
MODEL 8
REMARK VINA RESULT:    -6.174      2.375      2.863
REMARK INTER + INTRA:          -7.534
REMARK INTER:                  -7.216
REMARK INTRA:                  -0.318
REMARK UNBOUND:                -0.277
REMARK SMILES O=c1cc(-c2ccc(O)c(O)c2)oc2cc(O)cc(O)c12
REMARK SMILES IDX 4 1 3 2 2 3 1 4 21 5 19 6 18 7 16 8 15 9 14 10 13 11 5 12
REMARK SMILES IDX 6 13 7 14 8 15 12 16 10 17 9 18 11 20 20 22 17 24
REMARK H PARENT 9 19 11 21 20 23 17 25
REMARK Flexibility Score: inf
ROOT
ATOM      1  C   UNL     1     134.102 137.614 142.682  1.00  0.00     0.138 A 
ATOM      2  C   UNL     1     134.118 138.857 142.031  1.00  0.00     0.100 A 
ATOM      3  C   UNL     1     135.143 139.765 142.303  1.00  0.00     0.197 A 
ATOM      4  O   UNL     1     135.095 140.895 141.750  1.00  0.00    -0.289 OA
ATOM      5  C   UNL     1     136.173 139.414 143.206  1.00  0.00     0.107 A 
ATOM      6  C   UNL     1     137.288 140.242 143.529  1.00  0.00     0.134 A 
ATOM      7  C   UNL     1     138.184 139.837 144.526  1.00  0.00     0.093 A 
ATOM      8  C   UNL     1     138.038 138.606 145.169  1.00  0.00     0.123 A 
ATOM      9  C   UNL     1     136.982 137.765 144.823  1.00  0.00     0.094 A 
ATOM     10  C   UNL     1     136.052 138.157 143.857  1.00  0.00     0.146 A 
ATOM     11  O   UNL     1     135.052 137.332 143.568  1.00  0.00    -0.456 OA
ENDROOT
BRANCH   1  12
ATOM     12  C   UNL     1     133.037 136.612 142.430  1.00  0.00     0.021 A 
ATOM     13  C   UNL     1     132.050 136.812 141.446  1.00  0.00     0.016 A 
ATOM     14  C   UNL     1     131.066 135.846 141.223  1.00  0.00     0.051 A 
ATOM     15  C   UNL     1     131.054 134.662 141.971  1.00  0.00     0.157 A 
ATOM     16  C   UNL     1     133.026 135.413 143.166  1.00  0.00     0.062 A 
ATOM     17  C   UNL     1     132.040 134.445 142.945  1.00  0.00     0.158 A 
BRANCH  15  18
ATOM     18  O   UNL     1     130.069 133.700 141.746  1.00  0.00    -0.504 OA
ATOM     19  H   UNL     1     130.035 133.167 140.885  1.00  0.00     0.293 HD
ENDBRANCH  15  18
BRANCH  17  20
ATOM     20  O   UNL     1     132.059 133.274 143.704  1.00  0.00    -0.504 OA
ATOM     21  H   UNL     1     132.551 132.443 143.399  1.00  0.00     0.293 HD
ENDBRANCH  17  20
ENDBRANCH   1  12
BRANCH   6  22
ATOM     22  O   UNL     1     137.574 141.452 142.886  1.00  0.00    -0.507 OA
ATOM     23  H   UNL     1     136.928 141.963 142.307  1.00  0.00     0.293 HD
ENDBRANCH   6  22
BRANCH   8  24
ATOM     24  O   UNL     1     138.943 138.204 146.149  1.00  0.00    -0.508 OA
ATOM     25  H   UNL     1     138.696 137.514 146.848  1.00  0.00     0.293 HD
ENDBRANCH   8  24
TORSDOF 5
ENDMDL
MODEL 9
REMARK VINA RESULT:    -6.158      4.988      7.885
REMARK INTER + INTRA:          -7.514
REMARK INTER:                  -7.217
REMARK INTRA:                  -0.297
REMARK UNBOUND:                -0.277
REMARK SMILES O=c1cc(-c2ccc(O)c(O)c2)oc2cc(O)cc(O)c12
REMARK SMILES IDX 4 1 3 2 2 3 1 4 21 5 19 6 18 7 16 8 15 9 14 10 13 11 5 12
REMARK SMILES IDX 6 13 7 14 8 15 12 16 10 17 9 18 11 20 20 22 17 24
REMARK H PARENT 9 19 11 21 20 23 17 25
REMARK Flexibility Score: inf
ROOT
ATOM      1  C   UNL     1     141.553 137.685 140.085  1.00  0.00     0.138 A 
ATOM      2  C   UNL     1     142.705 137.015 139.649  1.00  0.00     0.100 A 
ATOM      3  C   UNL     1     143.727 137.733 139.027  1.00  0.00     0.197 A 
ATOM      4  O   UNL     1     144.720 137.094 138.592  1.00  0.00    -0.289 OA
ATOM      5  C   UNL     1     143.609 139.134 138.871  1.00  0.00     0.107 A 
ATOM      6  C   UNL     1     144.604 139.974 138.289  1.00  0.00     0.134 A 
ATOM      7  C   UNL     1     144.327 141.330 138.081  1.00  0.00     0.093 A 
ATOM      8  C   UNL     1     143.113 141.889 138.489  1.00  0.00     0.123 A 
ATOM      9  C   UNL     1     142.156 141.088 139.107  1.00  0.00     0.094 A 
ATOM     10  C   UNL     1     142.389 139.724 139.297  1.00  0.00     0.146 A 
ATOM     11  O   UNL     1     141.443 138.993 139.877  1.00  0.00    -0.456 OA
ENDROOT
BRANCH   1  12
ATOM     12  C   UNL     1     140.436 136.970 140.753  1.00  0.00     0.021 A 
ATOM     13  C   UNL     1     140.668 135.978 141.724  1.00  0.00     0.016 A 
ATOM     14  C   UNL     1     139.597 135.329 142.343  1.00  0.00     0.051 A 
ATOM     15  C   UNL     1     138.278 135.664 142.011  1.00  0.00     0.157 A 
ATOM     16  C   UNL     1     139.108 137.311 140.435  1.00  0.00     0.062 A 
ATOM     17  C   UNL     1     138.034 136.661 141.054  1.00  0.00     0.158 A 
BRANCH  15  18
ATOM     18  O   UNL     1     137.211 135.014 142.632  1.00  0.00    -0.504 OA
ATOM     19  H   UNL     1     136.359 135.505 142.874  1.00  0.00     0.293 HD
ENDBRANCH  15  18
BRANCH  17  20
ATOM     20  O   UNL     1     136.732 137.022 140.704  1.00  0.00    -0.504 OA
ATOM     21  H   UNL     1     136.433 137.988 140.670  1.00  0.00     0.293 HD
ENDBRANCH  17  20
ENDBRANCH   1  12
BRANCH   6  22
ATOM     22  O   UNL     1     145.881 139.534 137.925  1.00  0.00    -0.507 OA
ATOM     23  H   UNL     1     146.177 138.571 137.911  1.00  0.00     0.293 HD
ENDBRANCH   6  22
BRANCH   8  24
ATOM     24  O   UNL     1     142.853 143.243 138.292  1.00  0.00    -0.508 OA
ATOM     25  H   UNL     1     143.459 143.960 138.672  1.00  0.00     0.293 HD
ENDBRANCH   8  24
TORSDOF 5
ENDMDL
