MODEL 1
REMARK VINA RESULT:    -8.010      0.000      0.000
REMARK INTER + INTRA:         -13.769
REMARK INTER:                 -11.757
REMARK INTRA:                  -2.012
REMARK UNBOUND:                -2.012
REMARK SMILES O=c1c(O[C@H]2O[C@@H](CO)[C@@H](O)[C@H](O)[C@H]2O)c(-c2ccc(O)c(O)c2)oc2cc(O)cc(O)c12
REMARK SMILES IDX 4 1 3 2 16 3 25 4 2 5 26 6 1 7 33 8 27 9 31 10 28 11 30 12
REMARK SMILES IDX 17 13 18 14 19 15 20 16 24 17 22 18 21 19 23 21 32 23 29 25
REMARK SMILES IDX 5 27 14 28 6 29 12 30 7 31 10 32 15 33 13 35 8 37 9 38 11 40
REMARK H PARENT 21 20 23 22 32 24 29 26 15 34 13 36 9 39 11 41
REMARK Flexibility Score: inf
ROOT
ATOM      1  O   UNL     1     -64.010 -43.607 -31.757  1.00  0.00    -0.454 OA
ENDROOT
BRANCH   1   2
ATOM      2  C   UNL     1     -63.895 -42.329 -31.190  1.00  0.00     0.214 A 
ATOM      3  C   UNL     1     -62.799 -42.036 -30.349  1.00  0.00     0.180 A 
ATOM      4  O   UNL     1     -63.019 -41.531 -29.135  1.00  0.00    -0.452 OA
ATOM      5  C   UNL     1     -64.912 -41.385 -31.132  1.00  0.00     0.239 A 
ATOM      6  C   UNL     1     -64.116 -40.799 -28.898  1.00  0.00     0.146 A 
ATOM      7  O   UNL     1     -65.806 -41.418 -32.002  1.00  0.00    -0.285 OA
ATOM      8  C   UNL     1     -65.013 -40.509 -29.993  1.00  0.00     0.111 A 
ATOM      9  C   UNL     1     -64.361 -40.238 -27.648  1.00  0.00     0.094 A 
ATOM     10  C   UNL     1     -65.960 -39.457 -29.881  1.00  0.00     0.134 A 
ATOM     11  C   UNL     1     -65.359 -39.275 -27.503  1.00  0.00     0.123 A 
ATOM     12  C   UNL     1     -66.088 -38.810 -28.608  1.00  0.00     0.093 A 
BRANCH   3  13
ATOM     13  C   UNL     1     -61.504 -41.753 -30.918  1.00  0.00     0.025 A 
ATOM     14  C   UNL     1     -60.338 -41.596 -30.186  1.00  0.00     0.016 A 
ATOM     15  C   UNL     1     -59.257 -40.802 -30.598  1.00  0.00     0.051 A 
ATOM     16  C   UNL     1     -59.384 -40.060 -31.783  1.00  0.00     0.157 A 
ATOM     17  C   UNL     1     -61.504 -41.105 -32.197  1.00  0.00     0.062 A 
ATOM     18  C   UNL     1     -60.489 -40.241 -32.605  1.00  0.00     0.158 A 
BRANCH  16  19
ATOM     19  O   UNL     1     -58.422 -39.046 -32.043  1.00  0.00    -0.504 OA
ATOM     20  H   UNL     1     -58.257 -38.633 -32.970  1.00  0.00     0.293 HD
ENDBRANCH  16  19
BRANCH  18  21
ATOM     21  O   UNL     1     -60.634 -39.577 -33.804  1.00  0.00    -0.504 OA
ATOM     22  H   UNL     1     -60.798 -40.048 -34.699  1.00  0.00     0.293 HD
ENDBRANCH  18  21
ENDBRANCH   3  13
BRANCH  10  23
ATOM     23  O   UNL     1     -66.691 -39.018 -30.990  1.00  0.00    -0.507 OA
ATOM     24  H   UNL     1     -67.106 -39.699 -31.632  1.00  0.00     0.293 HD
ENDBRANCH  10  23
BRANCH  11  25
ATOM     25  O   UNL     1     -65.629 -38.787 -26.195  1.00  0.00    -0.508 OA
ATOM     26  H   UNL     1     -66.417 -38.160 -26.004  1.00  0.00     0.293 HD
ENDBRANCH  11  25
ENDBRANCH   1   2
BRANCH   1  27
ATOM     27  C   UNL     1     -63.709 -43.976 -33.129  1.00  0.00     0.339 C 
ATOM     28  C   UNL     1     -62.464 -44.907 -33.269  1.00  0.00     0.214 C 
ATOM     29  O   UNL     1     -63.518 -42.807 -33.938  1.00  0.00    -0.332 OA
ATOM     30  C   UNL     1     -61.480 -44.468 -34.408  1.00  0.00     0.180 C 
ATOM     31  C   UNL     1     -63.428 -43.106 -35.336  1.00  0.00     0.179 C 
ATOM     32  C   UNL     1     -62.180 -44.003 -35.695  1.00  0.00     0.177 C 
BRANCH  28  33
ATOM     33  O   UNL     1     -61.712 -45.049 -32.122  1.00  0.00    -0.384 OA
ATOM     34  H   UNL     1     -61.096 -45.822 -32.215  1.00  0.00     0.211 HD
ENDBRANCH  28  33
BRANCH  30  35
ATOM     35  O   UNL     1     -60.565 -45.494 -34.689  1.00  0.00    -0.387 OA
ATOM     36  H   UNL     1     -61.082 -46.332 -34.627  1.00  0.00     0.211 HD
ENDBRANCH  30  35
BRANCH  31  37
ATOM     37  C   UNL     1     -63.469 -41.774 -36.125  1.00  0.00     0.191 C 
BRANCH  37  38
ATOM     38  O   UNL     1     -62.724 -40.777 -35.424  1.00  0.00    -0.394 OA
ATOM     39  H   UNL     1     -63.388 -40.128 -35.080  1.00  0.00     0.210 HD
ENDBRANCH  37  38
ENDBRANCH  31  37
BRANCH  32  40
ATOM     40  O   UNL     1     -61.260 -43.247 -36.465  1.00  0.00    -0.387 OA
ATOM     41  H   UNL     1     -61.667 -43.082 -37.312  1.00  0.00     0.211 HD
ENDBRANCH  32  40
ENDBRANCH   1  27
TORSDOF 12
ENDMDL
MODEL 2
REMARK VINA RESULT:    -7.802      1.931      2.953
REMARK INTER + INTRA:         -13.463
REMARK INTER:                 -11.517
REMARK INTRA:                  -1.946
REMARK UNBOUND:                -2.012
REMARK SMILES O=c1c(O[C@H]2O[C@@H](CO)[C@@H](O)[C@H](O)[C@H]2O)c(-c2ccc(O)c(O)c2)oc2cc(O)cc(O)c12
REMARK SMILES IDX 4 1 3 2 16 3 25 4 2 5 26 6 1 7 33 8 27 9 31 10 28 11 30 12
REMARK SMILES IDX 17 13 18 14 19 15 20 16 24 17 22 18 21 19 23 21 32 23 29 25
REMARK SMILES IDX 5 27 14 28 6 29 12 30 7 31 10 32 15 33 13 35 8 37 9 38 11 40
REMARK H PARENT 21 20 23 22 32 24 29 26 15 34 13 36 9 39 11 41
REMARK Flexibility Score: inf
ROOT
ATOM      1  O   UNL     1     -65.213 -42.870 -31.758  1.00  0.00    -0.454 OA
ENDROOT
BRANCH   1   2
ATOM      2  C   UNL     1     -64.738 -41.710 -31.127  1.00  0.00     0.214 A 
ATOM      3  C   UNL     1     -63.400 -41.658 -30.681  1.00  0.00     0.180 A 
ATOM      4  O   UNL     1     -63.143 -41.323 -29.415  1.00  0.00    -0.452 OA
ATOM      5  C   UNL     1     -65.535 -40.689 -30.625  1.00  0.00     0.239 A 
ATOM      6  C   UNL     1     -63.987 -40.529 -28.743  1.00  0.00     0.146 A 
ATOM      7  O   UNL     1     -66.657 -40.501 -31.140  1.00  0.00    -0.285 OA
ATOM      8  C   UNL     1     -65.137 -39.990 -29.431  1.00  0.00     0.111 A 
ATOM      9  C   UNL     1     -63.733 -40.142 -27.431  1.00  0.00     0.094 A 
ATOM     10  C   UNL     1     -65.835 -38.877 -28.891  1.00  0.00     0.134 A 
ATOM     11  C   UNL     1     -64.481 -39.118 -26.852  1.00  0.00     0.123 A 
ATOM     12  C   UNL     1     -65.451 -38.420 -27.588  1.00  0.00     0.093 A 
BRANCH   3  13
ATOM     13  C   UNL     1     -62.331 -41.423 -31.619  1.00  0.00     0.025 A 
ATOM     14  C   UNL     1     -62.485 -40.817 -32.856  1.00  0.00     0.016 A 
ATOM     15  C   UNL     1     -61.661 -41.076 -33.962  1.00  0.00     0.051 A 
ATOM     16  C   UNL     1     -60.664 -42.057 -33.840  1.00  0.00     0.157 A 
ATOM     17  C   UNL     1     -61.193 -42.289 -31.511  1.00  0.00     0.062 A 
ATOM     18  C   UNL     1     -60.402 -42.636 -32.604  1.00  0.00     0.158 A 
BRANCH  16  19
ATOM     19  O   UNL     1     -60.033 -42.520 -35.026  1.00  0.00    -0.504 OA
ATOM     20  H   UNL     1     -59.726 -41.906 -35.793  1.00  0.00     0.293 HD
ENDBRANCH  16  19
BRANCH  18  21
ATOM     21  O   UNL     1     -59.400 -43.564 -32.422  1.00  0.00    -0.504 OA
ATOM     22  H   UNL     1     -58.424 -43.317 -32.227  1.00  0.00     0.293 HD
ENDBRANCH  18  21
ENDBRANCH   3  13
BRANCH  10  23
ATOM     23  O   UNL     1     -66.813 -38.205 -29.633  1.00  0.00    -0.507 OA
ATOM     24  H   UNL     1     -66.632 -37.953 -30.608  1.00  0.00     0.293 HD
ENDBRANCH  10  23
BRANCH  11  25
ATOM     25  O   UNL     1     -64.242 -38.809 -25.484  1.00  0.00    -0.508 OA
ATOM     26  H   UNL     1     -64.231 -39.534 -24.760  1.00  0.00     0.293 HD
ENDBRANCH  11  25
ENDBRANCH   1   2
BRANCH   1  27
ATOM     27  C   UNL     1     -65.089 -43.202 -33.166  1.00  0.00     0.339 C 
ATOM     28  C   UNL     1     -66.368 -43.865 -33.769  1.00  0.00     0.214 C 
ATOM     29  O   UNL     1     -63.963 -44.063 -33.386  1.00  0.00    -0.332 OA
ATOM     30  C   UNL     1     -66.063 -45.125 -34.650  1.00  0.00     0.180 C 
ATOM     31  C   UNL     1     -63.669 -44.251 -34.776  1.00  0.00     0.179 C 
ATOM     32  C   UNL     1     -64.834 -44.970 -35.560  1.00  0.00     0.177 C 
BRANCH  28  33
ATOM     33  O   UNL     1     -67.319 -44.241 -32.845  1.00  0.00    -0.384 OA
ATOM     34  H   UNL     1     -67.558 -43.468 -32.271  1.00  0.00     0.211 HD
ENDBRANCH  28  33
BRANCH  30  35
ATOM     35  O   UNL     1     -67.191 -45.483 -35.403  1.00  0.00    -0.387 OA
ATOM     36  H   UNL     1     -66.855 -45.656 -36.315  1.00  0.00     0.211 HD
ENDBRANCH  30  35
BRANCH  31  37
ATOM     37  C   UNL     1     -62.310 -44.984 -34.894  1.00  0.00     0.191 C 
BRANCH  37  38
ATOM     38  O   UNL     1     -61.742 -44.738 -36.182  1.00  0.00    -0.394 OA
ATOM     39  H   UNL     1     -62.005 -43.816 -36.428  1.00  0.00     0.210 HD
ENDBRANCH  37  38
ENDBRANCH  31  37
BRANCH  32  40
ATOM     40  O   UNL     1     -64.405 -46.260 -35.967  1.00  0.00    -0.387 OA
ATOM     41  H   UNL     1     -64.002 -46.677 -35.210  1.00  0.00     0.211 HD
ENDBRANCH  32  40
ENDBRANCH   1  27
TORSDOF 12
ENDMDL
MODEL 3
REMARK VINA RESULT:    -7.555      2.557      7.523
REMARK INTER + INTRA:         -13.101
REMARK INTER:                 -11.026
REMARK INTRA:                  -2.074
REMARK UNBOUND:                -2.012
REMARK SMILES O=c1c(O[C@H]2O[C@@H](CO)[C@@H](O)[C@H](O)[C@H]2O)c(-c2ccc(O)c(O)c2)oc2cc(O)cc(O)c12
REMARK SMILES IDX 4 1 3 2 16 3 25 4 2 5 26 6 1 7 33 8 27 9 31 10 28 11 30 12
REMARK SMILES IDX 17 13 18 14 19 15 20 16 24 17 22 18 21 19 23 21 32 23 29 25
REMARK SMILES IDX 5 27 14 28 6 29 12 30 7 31 10 32 15 33 13 35 8 37 9 38 11 40
REMARK H PARENT 21 20 23 22 32 24 29 26 15 34 13 36 9 39 11 41
REMARK Flexibility Score: inf
ROOT
ATOM      1  O   UNL     1     -64.022 -42.614 -34.903  1.00  0.00    -0.454 OA
ENDROOT
BRANCH   1   2
ATOM      2  C   UNL     1     -63.019 -43.109 -35.750  1.00  0.00     0.214 A 
ATOM      3  C   UNL     1     -61.877 -42.320 -36.012  1.00  0.00     0.180 A 
ATOM      4  O   UNL     1     -61.521 -42.080 -37.275  1.00  0.00    -0.452 OA
ATOM      5  C   UNL     1     -63.157 -44.193 -36.607  1.00  0.00     0.239 A 
ATOM      6  C   UNL     1     -61.827 -42.957 -38.241  1.00  0.00     0.146 A 
ATOM      7  O   UNL     1     -63.985 -45.081 -36.314  1.00  0.00    -0.285 OA
ATOM      8  C   UNL     1     -62.485 -44.193 -37.880  1.00  0.00     0.111 A 
ATOM      9  C   UNL     1     -61.447 -42.748 -39.563  1.00  0.00     0.094 A 
ATOM     10  C   UNL     1     -62.493 -45.288 -38.784  1.00  0.00     0.134 A 
ATOM     11  C   UNL     1     -61.545 -43.787 -40.486  1.00  0.00     0.123 A 
ATOM     12  C   UNL     1     -61.965 -45.068 -40.099  1.00  0.00     0.093 A 
BRANCH   3  13
ATOM     13  C   UNL     1     -60.820 -42.228 -35.037  1.00  0.00     0.025 A 
ATOM     14  C   UNL     1     -60.448 -43.249 -34.176  1.00  0.00     0.016 A 
ATOM     15  C   UNL     1     -59.875 -43.038 -32.913  1.00  0.00     0.051 A 
ATOM     16  C   UNL     1     -59.733 -41.718 -32.454  1.00  0.00     0.157 A 
ATOM     17  C   UNL     1     -60.495 -40.908 -34.580  1.00  0.00     0.062 A 
ATOM     18  C   UNL     1     -60.004 -40.651 -33.301  1.00  0.00     0.158 A 
BRANCH  16  19
ATOM     19  O   UNL     1     -59.431 -41.518 -31.079  1.00  0.00    -0.504 OA
ATOM     20  H   UNL     1     -59.153 -40.614 -30.676  1.00  0.00     0.293 HD
ENDBRANCH  16  19
BRANCH  18  21
ATOM     21  O   UNL     1     -59.829 -39.340 -32.915  1.00  0.00    -0.504 OA
ATOM     22  H   UNL     1     -59.879 -38.545 -33.560  1.00  0.00     0.293 HD
ENDBRANCH  18  21
ENDBRANCH   3  13
BRANCH  10  23
ATOM     23  O   UNL     1     -62.931 -46.554 -38.384  1.00  0.00    -0.507 OA
ATOM     24  H   UNL     1     -62.278 -47.207 -37.944  1.00  0.00     0.293 HD
ENDBRANCH  10  23
BRANCH  11  25
ATOM     25  O   UNL     1     -61.222 -43.506 -41.843  1.00  0.00    -0.508 OA
ATOM     26  H   UNL     1     -60.909 -44.238 -42.487  1.00  0.00     0.293 HD
ENDBRANCH  11  25
ENDBRANCH   1   2
BRANCH   1  27
ATOM     27  C   UNL     1     -64.080 -42.750 -33.459  1.00  0.00     0.339 C 
ATOM     28  C   UNL     1     -65.497 -43.124 -32.920  1.00  0.00     0.214 C 
ATOM     29  O   UNL     1     -63.634 -41.546 -32.818  1.00  0.00    -0.332 OA
ATOM     30  C   UNL     1     -65.942 -42.270 -31.684  1.00  0.00     0.180 C 
ATOM     31  C   UNL     1     -63.471 -41.696 -31.403  1.00  0.00     0.179 C 
ATOM     32  C   UNL     1     -64.823 -42.024 -30.658  1.00  0.00     0.177 C 
BRANCH  28  33
ATOM     33  O   UNL     1     -66.512 -43.044 -33.850  1.00  0.00    -0.384 OA
ATOM     34  H   UNL     1     -67.390 -43.168 -33.404  1.00  0.00     0.211 HD
ENDBRANCH  28  33
BRANCH  30  35
ATOM     35  O   UNL     1     -67.059 -42.848 -31.063  1.00  0.00    -0.387 OA
ATOM     36  H   UNL     1     -67.752 -42.146 -31.061  1.00  0.00     0.211 HD
ENDBRANCH  30  35
BRANCH  31  37
ATOM     37  C   UNL     1     -62.763 -40.433 -30.855  1.00  0.00     0.191 C 
BRANCH  37  38
ATOM     38  O   UNL     1     -62.011 -40.771 -29.688  1.00  0.00    -0.394 OA
ATOM     39  H   UNL     1     -61.445 -41.542 -29.938  1.00  0.00     0.210 HD
ENDBRANCH  37  38
ENDBRANCH  31  37
BRANCH  32  40
ATOM     40  O   UNL     1     -65.190 -40.926 -29.839  1.00  0.00    -0.387 OA
ATOM     41  H   UNL     1     -64.659 -40.972 -29.048  1.00  0.00     0.211 HD
ENDBRANCH  32  40
ENDBRANCH   1  27
TORSDOF 12
ENDMDL
MODEL 4
REMARK VINA RESULT:    -7.548      2.209      6.835
REMARK INTER + INTRA:         -13.090
REMARK INTER:                 -11.941
REMARK INTRA:                  -1.149
REMARK UNBOUND:                -2.012
REMARK SMILES O=c1c(O[C@H]2O[C@@H](CO)[C@@H](O)[C@H](O)[C@H]2O)c(-c2ccc(O)c(O)c2)oc2cc(O)cc(O)c12
REMARK SMILES IDX 4 1 3 2 16 3 25 4 2 5 26 6 1 7 33 8 27 9 31 10 28 11 30 12
REMARK SMILES IDX 17 13 18 14 19 15 20 16 24 17 22 18 21 19 23 21 32 23 29 25
REMARK SMILES IDX 5 27 14 28 6 29 12 30 7 31 10 32 15 33 13 35 8 37 9 38 11 40
REMARK H PARENT 21 20 23 22 32 24 29 26 15 34 13 36 9 39 11 41
REMARK Flexibility Score: inf
ROOT
ATOM      1  O   UNL     1     -62.877 -42.804 -32.513  1.00  0.00    -0.454 OA
ENDROOT
BRANCH   1   2
ATOM      2  C   UNL     1     -62.875 -43.058 -33.893  1.00  0.00     0.214 A 
ATOM      3  C   UNL     1     -61.808 -42.583 -34.687  1.00  0.00     0.180 A 
ATOM      4  O   UNL     1     -62.072 -41.852 -35.771  1.00  0.00    -0.452 OA
ATOM      5  C   UNL     1     -63.972 -43.487 -34.630  1.00  0.00     0.239 A 
ATOM      6  C   UNL     1     -63.229 -42.010 -36.428  1.00  0.00     0.146 A 
ATOM      7  O   UNL     1     -64.861 -44.142 -34.047  1.00  0.00    -0.285 OA
ATOM      8  C   UNL     1     -64.150 -43.032 -35.984  1.00  0.00     0.111 A 
ATOM      9  C   UNL     1     -63.521 -41.280 -37.575  1.00  0.00     0.094 A 
ATOM     10  C   UNL     1     -65.186 -43.481 -36.844  1.00  0.00     0.134 A 
ATOM     11  C   UNL     1     -64.600 -41.649 -38.377  1.00  0.00     0.123 A 
ATOM     12  C   UNL     1     -65.369 -42.786 -38.084  1.00  0.00     0.093 A 
BRANCH   3  13
ATOM     13  C   UNL     1     -60.545 -43.278 -34.695  1.00  0.00     0.025 A 
ATOM     14  C   UNL     1     -60.117 -44.128 -35.702  1.00  0.00     0.016 A 
ATOM     15  C   UNL     1     -59.235 -45.200 -35.499  1.00  0.00     0.051 A 
ATOM     16  C   UNL     1     -58.812 -45.481 -34.190  1.00  0.00     0.157 A 
ATOM     17  C   UNL     1     -59.947 -43.515 -33.413  1.00  0.00     0.062 A 
ATOM     18  C   UNL     1     -59.134 -44.616 -33.151  1.00  0.00     0.158 A 
BRANCH  16  19
ATOM     19  O   UNL     1     -58.165 -46.724 -33.948  1.00  0.00    -0.504 OA
ATOM     20  H   UNL     1     -57.768 -47.320 -34.687  1.00  0.00     0.293 HD
ENDBRANCH  16  19
BRANCH  18  21
ATOM     21  O   UNL     1     -58.699 -44.820 -31.860  1.00  0.00    -0.504 OA
ATOM     22  H   UNL     1     -59.008 -45.599 -31.270  1.00  0.00     0.293 HD
ENDBRANCH  18  21
ENDBRANCH   3  13
BRANCH  10  23
ATOM     23  O   UNL     1     -65.954 -44.606 -36.527  1.00  0.00    -0.507 OA
ATOM     24  H   UNL     1     -66.473 -45.095 -37.262  1.00  0.00     0.293 HD
ENDBRANCH  10  23
BRANCH  11  25
ATOM     25  O   UNL     1     -64.911 -40.827 -39.496  1.00  0.00    -0.508 OA
ATOM     26  H   UNL     1     -65.704 -41.031 -40.112  1.00  0.00     0.293 HD
ENDBRANCH  11  25
ENDBRANCH   1   2
BRANCH   1  27
ATOM     27  C   UNL     1     -63.565 -41.720 -31.834  1.00  0.00     0.339 C 
ATOM     28  C   UNL     1     -62.786 -41.157 -30.603  1.00  0.00     0.214 C 
ATOM     29  O   UNL     1     -64.873 -42.134 -31.415  1.00  0.00    -0.332 OA
ATOM     30  C   UNL     1     -63.683 -40.957 -29.333  1.00  0.00     0.180 C 
ATOM     31  C   UNL     1     -65.672 -41.048 -30.930  1.00  0.00     0.179 C 
ATOM     32  C   UNL     1     -65.073 -40.374 -29.635  1.00  0.00     0.177 C 
BRANCH  28  33
ATOM     33  O   UNL     1     -61.697 -41.907 -30.212  1.00  0.00    -0.384 OA
ATOM     34  H   UNL     1     -61.797 -42.841 -30.530  1.00  0.00     0.211 HD
ENDBRANCH  28  33
BRANCH  30  35
ATOM     35  O   UNL     1     -63.017 -40.173 -28.380  1.00  0.00    -0.387 OA
ATOM     36  H   UNL     1     -62.938 -40.744 -27.578  1.00  0.00     0.211 HD
ENDBRANCH  30  35
BRANCH  31  37
ATOM     37  C   UNL     1     -67.123 -41.554 -30.739  1.00  0.00     0.191 C 
BRANCH  37  38
ATOM     38  O   UNL     1     -67.225 -42.904 -31.196  1.00  0.00    -0.394 OA
ATOM     39  H   UNL     1     -67.007 -43.476 -30.418  1.00  0.00     0.210 HD
ENDBRANCH  37  38
ENDBRANCH  31  37
BRANCH  32  40
ATOM     40  O   UNL     1     -65.924 -40.633 -28.530  1.00  0.00    -0.387 OA
ATOM     41  H   UNL     1     -65.515 -41.323 -28.013  1.00  0.00     0.211 HD
ENDBRANCH  32  40
ENDBRANCH   1  27
TORSDOF 12
ENDMDL
MODEL 5
REMARK VINA RESULT:    -7.479      4.325      7.369
REMARK INTER + INTRA:         -12.990
REMARK INTER:                 -11.278
REMARK INTRA:                  -1.712
REMARK UNBOUND:                -2.012
REMARK SMILES O=c1c(O[C@H]2O[C@@H](CO)[C@@H](O)[C@H](O)[C@H]2O)c(-c2ccc(O)c(O)c2)oc2cc(O)cc(O)c12
REMARK SMILES IDX 4 1 3 2 16 3 25 4 2 5 26 6 1 7 33 8 27 9 31 10 28 11 30 12
REMARK SMILES IDX 17 13 18 14 19 15 20 16 24 17 22 18 21 19 23 21 32 23 29 25
REMARK SMILES IDX 5 27 14 28 6 29 12 30 7 31 10 32 15 33 13 35 8 37 9 38 11 40
REMARK H PARENT 21 20 23 22 32 24 29 26 15 34 13 36 9 39 11 41
REMARK Flexibility Score: inf
ROOT
ATOM      1  O   UNL     1     -61.141 -44.194 -37.807  1.00  0.00    -0.454 OA
ENDROOT
BRANCH   1   2
ATOM      2  C   UNL     1     -61.462 -43.527 -36.615  1.00  0.00     0.214 A 
ATOM      3  C   UNL     1     -62.099 -42.268 -36.670  1.00  0.00     0.180 A 
ATOM      4  O   UNL     1     -61.573 -41.237 -36.008  1.00  0.00    -0.452 OA
ATOM      5  C   UNL     1     -60.955 -43.842 -35.360  1.00  0.00     0.239 A 
ATOM      6  C   UNL     1     -60.844 -41.445 -34.903  1.00  0.00     0.146 A 
ATOM      7  O   UNL     1     -60.593 -45.017 -35.142  1.00  0.00    -0.285 OA
ATOM      8  C   UNL     1     -60.698 -42.794 -34.407  1.00  0.00     0.111 A 
ATOM      9  C   UNL     1     -60.304 -40.389 -34.177  1.00  0.00     0.094 A 
ATOM     10  C   UNL     1     -60.265 -43.022 -33.074  1.00  0.00     0.134 A 
ATOM     11  C   UNL     1     -59.782 -40.616 -32.905  1.00  0.00     0.123 A 
ATOM     12  C   UNL     1     -59.843 -41.885 -32.309  1.00  0.00     0.093 A 
BRANCH   3  13
ATOM     13  C   UNL     1     -63.513 -42.182 -36.940  1.00  0.00     0.025 A 
ATOM     14  C   UNL     1     -64.453 -43.113 -36.530  1.00  0.00     0.016 A 
ATOM     15  C   UNL     1     -65.653 -43.367 -37.212  1.00  0.00     0.051 A 
ATOM     16  C   UNL     1     -65.890 -42.696 -38.422  1.00  0.00     0.157 A 
ATOM     17  C   UNL     1     -63.891 -41.411 -38.089  1.00  0.00     0.062 A 
ATOM     18  C   UNL     1     -65.030 -41.688 -38.842  1.00  0.00     0.158 A 
BRANCH  16  19
ATOM     19  O   UNL     1     -66.948 -43.162 -39.248  1.00  0.00    -0.504 OA
ATOM     20  H   UNL     1     -67.811 -42.634 -39.433  1.00  0.00     0.293 HD
ENDBRANCH  16  19
BRANCH  18  21
ATOM     21  O   UNL     1     -65.249 -40.965 -39.994  1.00  0.00    -0.504 OA
ATOM     22  H   UNL     1     -64.789 -40.073 -40.202  1.00  0.00     0.293 HD
ENDBRANCH  18  21
ENDBRANCH   3  13
BRANCH  10  23
ATOM     23  O   UNL     1     -60.317 -44.297 -32.502  1.00  0.00    -0.507 OA
ATOM     24  H   UNL     1     -61.202 -44.809 -32.471  1.00  0.00     0.293 HD
ENDBRANCH  10  23
BRANCH  11  25
ATOM     25  O   UNL     1     -59.168 -39.524 -32.231  1.00  0.00    -0.508 OA
ATOM     26  H   UNL     1     -58.430 -38.964 -32.669  1.00  0.00     0.293 HD
ENDBRANCH  11  25
ENDBRANCH   1   2
BRANCH   1  27
ATOM     27  C   UNL     1     -62.070 -44.856 -38.705  1.00  0.00     0.339 C 
ATOM     28  C   UNL     1     -62.274 -46.371 -38.392  1.00  0.00     0.214 C 
ATOM     29  O   UNL     1     -61.649 -44.708 -40.068  1.00  0.00    -0.332 OA
ATOM     30  C   UNL     1     -62.219 -47.286 -39.663  1.00  0.00     0.180 C 
ATOM     31  C   UNL     1     -62.634 -45.157 -41.007  1.00  0.00     0.179 C 
ATOM     32  C   UNL     1     -62.941 -46.700 -40.888  1.00  0.00     0.177 C 
BRANCH  28  33
ATOM     33  O   UNL     1     -61.388 -46.900 -37.478  1.00  0.00    -0.384 OA
ATOM     34  H   UNL     1     -61.146 -46.213 -36.804  1.00  0.00     0.211 HD
ENDBRANCH  28  33
BRANCH  30  35
ATOM     35  O   UNL     1     -62.709 -48.567 -39.369  1.00  0.00    -0.387 OA
ATOM     36  H   UNL     1     -62.573 -49.097 -40.191  1.00  0.00     0.211 HD
ENDBRANCH  30  35
BRANCH  31  37
ATOM     37  C   UNL     1     -62.187 -44.732 -42.427  1.00  0.00     0.191 C 
BRANCH  37  38
ATOM     38  O   UNL     1     -63.308 -44.757 -43.313  1.00  0.00    -0.394 OA
ATOM     39  H   UNL     1     -62.961 -45.058 -44.189  1.00  0.00     0.210 HD
ENDBRANCH  37  38
ENDBRANCH  31  37
BRANCH  32  40
ATOM     40  O   UNL     1     -62.477 -47.367 -42.051  1.00  0.00    -0.387 OA
ATOM     41  H   UNL     1     -61.711 -46.891 -42.364  1.00  0.00     0.211 HD
ENDBRANCH  32  40
ENDBRANCH   1  27
TORSDOF 12
ENDMDL
MODEL 6
REMARK VINA RESULT:    -7.452      1.769      5.168
REMARK INTER + INTRA:         -12.949
REMARK INTER:                 -11.725
REMARK INTRA:                  -1.224
REMARK UNBOUND:                -2.012
REMARK SMILES O=c1c(O[C@H]2O[C@@H](CO)[C@@H](O)[C@H](O)[C@H]2O)c(-c2ccc(O)c(O)c2)oc2cc(O)cc(O)c12
REMARK SMILES IDX 4 1 3 2 16 3 25 4 2 5 26 6 1 7 33 8 27 9 31 10 28 11 30 12
REMARK SMILES IDX 17 13 18 14 19 15 20 16 24 17 22 18 21 19 23 21 32 23 29 25
REMARK SMILES IDX 5 27 14 28 6 29 12 30 7 31 10 32 15 33 13 35 8 37 9 38 11 40
REMARK H PARENT 21 20 23 22 32 24 29 26 15 34 13 36 9 39 11 41
REMARK Flexibility Score: inf
ROOT
ATOM      1  O   UNL     1     -65.176 -42.804 -32.613  1.00  0.00    -0.454 OA
ENDROOT
BRANCH   1   2
ATOM      2  C   UNL     1     -64.055 -42.425 -31.860  1.00  0.00     0.214 A 
ATOM      3  C   UNL     1     -64.085 -41.218 -31.126  1.00  0.00     0.180 A 
ATOM      4  O   UNL     1     -63.108 -40.325 -31.291  1.00  0.00    -0.452 OA
ATOM      5  C   UNL     1     -62.784 -42.972 -31.983  1.00  0.00     0.239 A 
ATOM      6  C   UNL     1     -61.883 -40.725 -31.659  1.00  0.00     0.146 A 
ATOM      7  O   UNL     1     -62.679 -44.145 -32.397  1.00  0.00    -0.285 OA
ATOM      8  C   UNL     1     -61.624 -42.139 -31.803  1.00  0.00     0.111 A 
ATOM      9  C   UNL     1     -60.838 -39.820 -31.815  1.00  0.00     0.094 A 
ATOM     10  C   UNL     1     -60.288 -42.622 -31.822  1.00  0.00     0.134 A 
ATOM     11  C   UNL     1     -59.530 -40.285 -31.937  1.00  0.00     0.123 A 
ATOM     12  C   UNL     1     -59.232 -41.653 -31.845  1.00  0.00     0.093 A 
BRANCH   3  13
ATOM     13  C   UNL     1     -64.785 -41.152 -29.867  1.00  0.00     0.025 A 
ATOM     14  C   UNL     1     -66.161 -41.052 -29.734  1.00  0.00     0.016 A 
ATOM     15  C   UNL     1     -66.799 -40.439 -28.645  1.00  0.00     0.051 A 
ATOM     16  C   UNL     1     -66.005 -39.824 -27.664  1.00  0.00     0.157 A 
ATOM     17  C   UNL     1     -64.035 -40.653 -28.752  1.00  0.00     0.062 A 
ATOM     18  C   UNL     1     -64.623 -39.964 -27.693  1.00  0.00     0.158 A 
BRANCH  16  19
ATOM     19  O   UNL     1     -66.645 -38.963 -26.730  1.00  0.00    -0.504 OA
ATOM     20  H   UNL     1     -67.312 -38.224 -26.991  1.00  0.00     0.293 HD
ENDBRANCH  16  19
BRANCH  18  21
ATOM     21  O   UNL     1     -63.806 -39.425 -26.725  1.00  0.00    -0.504 OA
ATOM     22  H   UNL     1     -64.045 -39.398 -25.728  1.00  0.00     0.293 HD
ENDBRANCH  18  21
ENDBRANCH   3  13
BRANCH  10  23
ATOM     23  O   UNL     1     -60.011 -43.991 -31.747  1.00  0.00    -0.507 OA
ATOM     24  H   UNL     1     -59.210 -44.321 -31.203  1.00  0.00     0.293 HD
ENDBRANCH  10  23
BRANCH  11  25
ATOM     25  O   UNL     1     -58.502 -39.330 -32.175  1.00  0.00    -0.508 OA
ATOM     26  H   UNL     1     -57.663 -39.281 -31.589  1.00  0.00     0.293 HD
ENDBRANCH  11  25
ENDBRANCH   1   2
BRANCH   1  27
ATOM     27  C   UNL     1     -65.196 -43.136 -34.027  1.00  0.00     0.339 C 
ATOM     28  C   UNL     1     -65.336 -44.665 -34.311  1.00  0.00     0.214 C 
ATOM     29  O   UNL     1     -64.020 -42.640 -34.681  1.00  0.00    -0.332 OA
ATOM     30  C   UNL     1     -64.342 -45.192 -35.402  1.00  0.00     0.180 C 
ATOM     31  C   UNL     1     -64.086 -42.753 -36.108  1.00  0.00     0.179 C 
ATOM     32  C   UNL     1     -64.174 -44.248 -36.604  1.00  0.00     0.177 C 
BRANCH  28  33
ATOM     33  O   UNL     1     -65.189 -45.477 -33.207  1.00  0.00    -0.384 OA
ATOM     34  H   UNL     1     -66.074 -45.815 -32.914  1.00  0.00     0.211 HD
ENDBRANCH  28  33
BRANCH  30  35
ATOM     35  O   UNL     1     -64.718 -46.473 -35.831  1.00  0.00    -0.387 OA
ATOM     36  H   UNL     1     -65.705 -46.468 -35.844  1.00  0.00     0.211 HD
ENDBRANCH  30  35
BRANCH  31  37
ATOM     37  C   UNL     1     -62.892 -41.977 -36.717  1.00  0.00     0.191 C 
BRANCH  37  38
ATOM     38  O   UNL     1     -63.155 -41.692 -38.092  1.00  0.00    -0.394 OA
ATOM     39  H   UNL     1     -62.276 -41.511 -38.509  1.00  0.00     0.210 HD
ENDBRANCH  37  38
ENDBRANCH  31  37
BRANCH  32  40
ATOM     40  O   UNL     1     -62.979 -44.591 -37.287  1.00  0.00    -0.387 OA
ATOM     41  H   UNL     1     -62.321 -43.942 -37.052  1.00  0.00     0.211 HD
ENDBRANCH  32  40
ENDBRANCH   1  27
TORSDOF 12
ENDMDL
MODEL 7
REMARK VINA RESULT:    -7.413      3.024      6.023
REMARK INTER + INTRA:         -12.893
REMARK INTER:                 -10.658
REMARK INTRA:                  -2.235
REMARK UNBOUND:                -2.012
REMARK SMILES O=c1c(O[C@H]2O[C@@H](CO)[C@@H](O)[C@H](O)[C@H]2O)c(-c2ccc(O)c(O)c2)oc2cc(O)cc(O)c12
REMARK SMILES IDX 4 1 3 2 16 3 25 4 2 5 26 6 1 7 33 8 27 9 31 10 28 11 30 12
REMARK SMILES IDX 17 13 18 14 19 15 20 16 24 17 22 18 21 19 23 21 32 23 29 25
REMARK SMILES IDX 5 27 14 28 6 29 12 30 7 31 10 32 15 33 13 35 8 37 9 38 11 40
REMARK H PARENT 21 20 23 22 32 24 29 26 15 34 13 36 9 39 11 41
REMARK Flexibility Score: inf
ROOT
ATOM      1  O   UNL     1     -61.147 -44.691 -35.464  1.00  0.00    -0.454 OA
ENDROOT
BRANCH   1   2
ATOM      2  C   UNL     1     -61.442 -43.455 -34.869  1.00  0.00     0.214 A 
ATOM      3  C   UNL     1     -61.149 -42.260 -35.563  1.00  0.00     0.180 A 
ATOM      4  O   UNL     1     -60.422 -41.316 -34.964  1.00  0.00    -0.452 OA
ATOM      5  C   UNL     1     -61.735 -43.264 -33.525  1.00  0.00     0.239 A 
ATOM      6  C   UNL     1     -60.436 -41.198 -33.630  1.00  0.00     0.146 A 
ATOM      7  O   UNL     1     -62.238 -44.210 -32.884  1.00  0.00    -0.285 OA
ATOM      8  C   UNL     1     -61.302 -42.062 -32.861  1.00  0.00     0.111 A 
ATOM      9  C   UNL     1     -59.709 -40.206 -32.979  1.00  0.00     0.094 A 
ATOM     10  C   UNL     1     -61.627 -41.735 -31.518  1.00  0.00     0.134 A 
ATOM     11  C   UNL     1     -59.946 -39.943 -31.631  1.00  0.00     0.123 A 
ATOM     12  C   UNL     1     -60.952 -40.618 -30.923  1.00  0.00     0.093 A 
BRANCH   3  13
ATOM     13  C   UNL     1     -62.016 -41.805 -36.621  1.00  0.00     0.025 A 
ATOM     14  C   UNL     1     -63.392 -41.676 -36.514  1.00  0.00     0.016 A 
ATOM     15  C   UNL     1     -64.275 -41.796 -37.597  1.00  0.00     0.051 A 
ATOM     16  C   UNL     1     -63.752 -42.139 -38.854  1.00  0.00     0.157 A 
ATOM     17  C   UNL     1     -61.531 -41.990 -37.958  1.00  0.00     0.062 A 
ATOM     18  C   UNL     1     -62.377 -42.197 -39.046  1.00  0.00     0.158 A 
BRANCH  16  19
ATOM     19  O   UNL     1     -64.661 -42.543 -39.869  1.00  0.00    -0.504 OA
ATOM     20  H   UNL     1     -64.423 -43.190 -40.633  1.00  0.00     0.293 HD
ENDBRANCH  16  19
BRANCH  18  21
ATOM     21  O   UNL     1     -61.814 -42.478 -40.272  1.00  0.00    -0.504 OA
ATOM     22  H   UNL     1     -62.290 -42.322 -41.166  1.00  0.00     0.293 HD
ENDBRANCH  18  21
ENDBRANCH   3  13
BRANCH  10  23
ATOM     23  O   UNL     1     -62.622 -42.431 -30.822  1.00  0.00    -0.507 OA
ATOM     24  H   UNL     1     -63.600 -42.349 -31.110  1.00  0.00     0.293 HD
ENDBRANCH  10  23
BRANCH  11  25
ATOM     25  O   UNL     1     -59.124 -38.978 -30.985  1.00  0.00    -0.508 OA
ATOM     26  H   UNL     1     -58.626 -39.187 -30.115  1.00  0.00     0.293 HD
ENDBRANCH  11  25
ENDBRANCH   1   2
BRANCH   1  27
ATOM     27  C   UNL     1     -62.056 -45.521 -36.234  1.00  0.00     0.339 C 
ATOM     28  C   UNL     1     -61.531 -45.869 -37.662  1.00  0.00     0.214 C 
ATOM     29  O   UNL     1     -63.343 -44.896 -36.343  1.00  0.00    -0.332 OA
ATOM     30  C   UNL     1     -62.609 -45.689 -38.786  1.00  0.00     0.180 C 
ATOM     31  C   UNL     1     -64.336 -45.761 -36.908  1.00  0.00     0.179 C 
ATOM     32  C   UNL     1     -64.011 -46.184 -38.393  1.00  0.00     0.177 C 
BRANCH  28  33
ATOM     33  O   UNL     1     -60.415 -45.163 -38.059  1.00  0.00    -0.384 OA
ATOM     34  H   UNL     1     -60.507 -44.210 -37.798  1.00  0.00     0.211 HD
ENDBRANCH  28  33
BRANCH  30  35
ATOM     35  O   UNL     1     -62.186 -46.302 -39.975  1.00  0.00    -0.387 OA
ATOM     36  H   UNL     1     -61.310 -46.705 -39.767  1.00  0.00     0.211 HD
ENDBRANCH  30  35
BRANCH  31  37
ATOM     37  C   UNL     1     -65.719 -45.083 -36.756  1.00  0.00     0.191 C 
BRANCH  37  38
ATOM     38  O   UNL     1     -66.753 -46.040 -36.998  1.00  0.00    -0.394 OA
ATOM     39  H   UNL     1     -67.135 -46.262 -36.113  1.00  0.00     0.210 HD
ENDBRANCH  37  38
ENDBRANCH  31  37
BRANCH  32  40
ATOM     40  O   UNL     1     -64.961 -45.600 -39.270  1.00  0.00    -0.387 OA
ATOM     41  H   UNL     1     -64.896 -46.059 -40.105  1.00  0.00     0.211 HD
ENDBRANCH  32  40
ENDBRANCH   1  27
TORSDOF 12
ENDMDL
MODEL 8
REMARK VINA RESULT:    -7.377      2.093      4.378
REMARK INTER + INTRA:         -12.840
REMARK INTER:                 -10.714
REMARK INTRA:                  -2.126
REMARK UNBOUND:                -2.012
REMARK SMILES O=c1c(O[C@H]2O[C@@H](CO)[C@@H](O)[C@H](O)[C@H]2O)c(-c2ccc(O)c(O)c2)oc2cc(O)cc(O)c12
REMARK SMILES IDX 4 1 3 2 16 3 25 4 2 5 26 6 1 7 33 8 27 9 31 10 28 11 30 12
REMARK SMILES IDX 17 13 18 14 19 15 20 16 24 17 22 18 21 19 23 21 32 23 29 25
REMARK SMILES IDX 5 27 14 28 6 29 12 30 7 31 10 32 15 33 13 35 8 37 9 38 11 40
REMARK H PARENT 21 20 23 22 32 24 29 26 15 34 13 36 9 39 11 41
REMARK Flexibility Score: inf
ROOT
ATOM      1  O   UNL     1     -62.823 -41.051 -33.705  1.00  0.00    -0.454 OA
ENDROOT
BRANCH   1   2
ATOM      2  C   UNL     1     -63.381 -41.535 -32.512  1.00  0.00     0.214 A 
ATOM      3  C   UNL     1     -64.507 -42.387 -32.565  1.00  0.00     0.180 A 
ATOM      4  O   UNL     1     -65.593 -42.085 -31.853  1.00  0.00    -0.452 OA
ATOM      5  C   UNL     1     -63.122 -41.032 -31.244  1.00  0.00     0.239 A 
ATOM      6  C   UNL     1     -65.483 -41.376 -30.722  1.00  0.00     0.146 A 
ATOM      7  O   UNL     1     -62.024 -40.472 -31.039  1.00  0.00    -0.285 OA
ATOM      8  C   UNL     1     -64.166 -41.008 -30.254  1.00  0.00     0.111 A 
ATOM      9  C   UNL     1     -66.594 -41.066 -29.945  1.00  0.00     0.094 A 
ATOM     10  C   UNL     1     -63.976 -40.596 -28.908  1.00  0.00     0.134 A 
ATOM     11  C   UNL     1     -66.423 -40.564 -28.656  1.00  0.00     0.123 A 
ATOM     12  C   UNL     1     -65.145 -40.418 -28.096  1.00  0.00     0.093 A 
BRANCH   3  13
ATOM     13  C   UNL     1     -64.346 -43.781 -32.898  1.00  0.00     0.025 A 
ATOM     14  C   UNL     1     -63.478 -44.651 -32.258  1.00  0.00     0.016 A 
ATOM     15  C   UNL     1     -62.896 -45.770 -32.872  1.00  0.00     0.051 A 
ATOM     16  C   UNL     1     -63.145 -45.989 -34.237  1.00  0.00     0.157 A 
ATOM     17  C   UNL     1     -64.691 -44.154 -34.239  1.00  0.00     0.062 A 
ATOM     18  C   UNL     1     -64.074 -45.207 -34.912  1.00  0.00     0.158 A 
BRANCH  16  19
ATOM     19  O   UNL     1     -62.336 -46.938 -34.919  1.00  0.00    -0.504 OA
ATOM     20  H   UNL     1     -62.657 -47.874 -35.200  1.00  0.00     0.293 HD
ENDBRANCH  16  19
BRANCH  18  21
ATOM     21  O   UNL     1     -64.391 -45.417 -36.236  1.00  0.00    -0.504 OA
ATOM     22  H   UNL     1     -64.189 -44.746 -36.984  1.00  0.00     0.293 HD
ENDBRANCH  18  21
ENDBRANCH   3  13
BRANCH  10  23
ATOM     23  O   UNL     1     -62.694 -40.439 -28.372  1.00  0.00    -0.507 OA
ATOM     24  H   UNL     1     -62.482 -39.633 -27.779  1.00  0.00     0.293 HD
ENDBRANCH  10  23
BRANCH  11  25
ATOM     25  O   UNL     1     -67.585 -40.186 -27.927  1.00  0.00    -0.508 OA
ATOM     26  H   UNL     1     -68.431 -39.848 -28.396  1.00  0.00     0.293 HD
ENDBRANCH  11  25
ENDBRANCH   1   2
BRANCH   1  27
ATOM     27  C   UNL     1     -61.716 -41.633 -34.442  1.00  0.00     0.339 C 
ATOM     28  C   UNL     1     -62.043 -41.922 -35.941  1.00  0.00     0.214 C 
ATOM     29  O   UNL     1     -61.271 -42.844 -33.814  1.00  0.00    -0.332 OA
ATOM     30  C   UNL     1     -61.576 -43.338 -36.422  1.00  0.00     0.180 C 
ATOM     31  C   UNL     1     -60.052 -43.346 -34.375  1.00  0.00     0.179 C 
ATOM     32  C   UNL     1     -60.194 -43.755 -35.892  1.00  0.00     0.177 C 
BRANCH  28  33
ATOM     33  O   UNL     1     -63.374 -41.801 -36.279  1.00  0.00    -0.384 OA
ATOM     34  H   UNL     1     -63.940 -41.914 -35.472  1.00  0.00     0.211 HD
ENDBRANCH  28  33
BRANCH  30  35
ATOM     35  O   UNL     1     -61.611 -43.419 -37.821  1.00  0.00    -0.387 OA
ATOM     36  H   UNL     1     -61.786 -42.499 -38.134  1.00  0.00     0.211 HD
ENDBRANCH  30  35
BRANCH  31  37
ATOM     37  C   UNL     1     -59.538 -44.499 -33.478  1.00  0.00     0.191 C 
BRANCH  37  38
ATOM     38  O   UNL     1     -59.734 -44.162 -32.103  1.00  0.00    -0.394 OA
ATOM     39  H   UNL     1     -59.834 -45.020 -31.620  1.00  0.00     0.210 HD
ENDBRANCH  37  38
ENDBRANCH  31  37
BRANCH  32  40
ATOM     40  O   UNL     1     -60.065 -45.162 -36.018  1.00  0.00    -0.387 OA
ATOM     41  H   UNL     1     -59.995 -45.520 -35.136  1.00  0.00     0.211 HD
ENDBRANCH  32  40
ENDBRANCH   1  27
TORSDOF 12
ENDMDL
MODEL 9
REMARK VINA RESULT:    -7.363      2.245      4.841
REMARK INTER + INTRA:         -12.819
REMARK INTER:                 -11.530
REMARK INTRA:                  -1.289
REMARK UNBOUND:                -2.012
REMARK SMILES O=c1c(O[C@H]2O[C@@H](CO)[C@@H](O)[C@H](O)[C@H]2O)c(-c2ccc(O)c(O)c2)oc2cc(O)cc(O)c12
REMARK SMILES IDX 4 1 3 2 16 3 25 4 2 5 26 6 1 7 33 8 27 9 31 10 28 11 30 12
REMARK SMILES IDX 17 13 18 14 19 15 20 16 24 17 22 18 21 19 23 21 32 23 29 25
REMARK SMILES IDX 5 27 14 28 6 29 12 30 7 31 10 32 15 33 13 35 8 37 9 38 11 40
REMARK H PARENT 21 20 23 22 32 24 29 26 15 34 13 36 9 39 11 41
REMARK Flexibility Score: inf
ROOT
ATOM      1  O   UNL     1     -62.962 -41.531 -34.614  1.00  0.00    -0.454 OA
ENDROOT
BRANCH   1   2
ATOM      2  C   UNL     1     -63.396 -41.941 -33.344  1.00  0.00     0.214 A 
ATOM      3  C   UNL     1     -64.478 -42.842 -33.235  1.00  0.00     0.180 A 
ATOM      4  O   UNL     1     -65.517 -42.531 -32.459  1.00  0.00    -0.452 OA
ATOM      5  C   UNL     1     -63.060 -41.325 -32.146  1.00  0.00     0.239 A 
ATOM      6  C   UNL     1     -65.351 -41.728 -31.399  1.00  0.00     0.146 A 
ATOM      7  O   UNL     1     -61.979 -40.702 -32.079  1.00  0.00    -0.285 OA
ATOM      8  C   UNL     1     -64.020 -41.266 -31.075  1.00  0.00     0.111 A 
ATOM      9  C   UNL     1     -66.410 -41.405 -30.557  1.00  0.00     0.094 A 
ATOM     10  C   UNL     1     -63.743 -40.738 -29.786  1.00  0.00     0.134 A 
ATOM     11  C   UNL     1     -66.159 -40.792 -29.330  1.00  0.00     0.123 A 
ATOM     12  C   UNL     1     -64.848 -40.546 -28.894  1.00  0.00     0.093 A 
BRANCH   3  13
ATOM     13  C   UNL     1     -64.275 -44.250 -33.472  1.00  0.00     0.025 A 
ATOM     14  C   UNL     1     -65.197 -45.090 -34.076  1.00  0.00     0.016 A 
ATOM     15  C   UNL     1     -65.287 -46.466 -33.818  1.00  0.00     0.051 A 
ATOM     16  C   UNL     1     -64.449 -47.021 -32.838  1.00  0.00     0.157 A 
ATOM     17  C   UNL     1     -63.338 -44.907 -32.608  1.00  0.00     0.062 A 
ATOM     18  C   UNL     1     -63.445 -46.252 -32.261  1.00  0.00     0.158 A 
BRANCH  16  19
ATOM     19  O   UNL     1     -64.739 -48.334 -32.375  1.00  0.00    -0.504 OA
ATOM     20  H   UNL     1     -64.084 -49.124 -32.438  1.00  0.00     0.293 HD
ENDBRANCH  16  19
BRANCH  18  21
ATOM     21  O   UNL     1     -62.564 -46.765 -31.335  1.00  0.00    -0.504 OA
ATOM     22  H   UNL     1     -62.010 -46.187 -30.694  1.00  0.00     0.293 HD
ENDBRANCH  18  21
ENDBRANCH   3  13
BRANCH  10  23
ATOM     23  O   UNL     1     -62.430 -40.482 -29.374  1.00  0.00    -0.507 OA
ATOM     24  H   UNL     1     -62.255 -39.869 -28.574  1.00  0.00     0.293 HD
ENDBRANCH  10  23
BRANCH  11  25
ATOM     25  O   UNL     1     -67.275 -40.407 -28.537  1.00  0.00    -0.508 OA
ATOM     26  H   UNL     1     -67.239 -39.599 -27.908  1.00  0.00     0.293 HD
ENDBRANCH  11  25
ENDBRANCH   1   2
BRANCH   1  27
ATOM     27  C   UNL     1     -63.283 -42.159 -35.883  1.00  0.00     0.339 C 
ATOM     28  C   UNL     1     -62.261 -43.257 -36.315  1.00  0.00     0.214 C 
ATOM     29  O   UNL     1     -63.388 -41.177 -36.923  1.00  0.00    -0.332 OA
ATOM     30  C   UNL     1     -61.823 -43.149 -37.816  1.00  0.00     0.180 C 
ATOM     31  C   UNL     1     -63.907 -41.713 -38.146  1.00  0.00     0.179 C 
ATOM     32  C   UNL     1     -62.972 -42.815 -38.780  1.00  0.00     0.177 C 
BRANCH  28  33
ATOM     33  O   UNL     1     -61.106 -43.306 -35.562  1.00  0.00    -0.384 OA
ATOM     34  H   UNL     1     -60.328 -43.496 -36.148  1.00  0.00     0.211 HD
ENDBRANCH  28  33
BRANCH  30  35
ATOM     35  O   UNL     1     -61.164 -44.319 -38.222  1.00  0.00    -0.387 OA
ATOM     36  H   UNL     1     -60.202 -44.133 -38.108  1.00  0.00     0.211 HD
ENDBRANCH  30  35
BRANCH  31  37
ATOM     37  C   UNL     1     -64.205 -40.538 -39.108  1.00  0.00     0.191 C 
BRANCH  37  38
ATOM     38  O   UNL     1     -65.284 -40.890 -39.977  1.00  0.00    -0.394 OA
ATOM     39  H   UNL     1     -65.727 -41.672 -39.564  1.00  0.00     0.210 HD
ENDBRANCH  37  38
ENDBRANCH  31  37
BRANCH  32  40
ATOM     40  O   UNL     1     -62.421 -42.327 -39.993  1.00  0.00    -0.387 OA
ATOM     41  H   UNL     1     -62.448 -43.041 -40.625  1.00  0.00     0.211 HD
ENDBRANCH  32  40
ENDBRANCH   1  27
TORSDOF 12
ENDMDL
