MODEL 1
REMARK VINA RESULT:    -5.555      0.000      0.000
REMARK INTER + INTRA:          -6.654
REMARK INTER:                  -6.529
REMARK INTRA:                  -0.125
REMARK UNBOUND:                -0.125
REMARK SMILES O=C([O-])C=Cc1ccc(O)c(O)c1
REMARK SMILES IDX 6 1 13 2 7 3 11 4 8 5 9 6 5 7 4 8 2 9 1 10 3 11 12 12 10 14
REMARK H PARENT 12 13 10 15
REMARK Flexibility Score: inf
ROOT
ATOM      1  C   UNL     1       8.726  15.650 -21.693  1.00  0.00    -0.022 A 
ATOM      2  C   UNL     1       8.495  16.945 -21.187  1.00  0.00     0.058 A 
ATOM      3  C   UNL     1       8.854  14.583 -20.788  1.00  0.00     0.012 A 
ATOM      4  C   UNL     1       8.373  17.163 -19.810  1.00  0.00     0.157 A 
ATOM      5  C   UNL     1       8.729  14.797 -19.413  1.00  0.00     0.051 A 
ATOM      6  C   UNL     1       8.486  16.085 -18.917  1.00  0.00     0.157 A 
ENDROOT
BRANCH   1   7
ATOM      7  C   UNL     1       8.875  15.373 -23.142  1.00  0.00     0.010 C 
ATOM      8  C   UNL     1       9.760  15.996 -23.932  1.00  0.00     0.025 C 
BRANCH   8   9
ATOM      9  C   UNL     1       9.872  15.703 -25.371  1.00  0.00     0.064 C 
ATOM     10  O   UNL     1       8.862  15.737 -26.125  1.00  0.00    -0.545 OA
ATOM     11  O   UNL     1      11.112  15.383 -25.908  1.00  0.00    -0.545 OA
ENDBRANCH   8   9
ENDBRANCH   1   7
BRANCH   4  12
ATOM     12  O   UNL     1       8.142  18.458 -19.347  1.00  0.00    -0.504 OA
ATOM     13  H   UNL     1       7.413  18.668 -18.675  1.00  0.00     0.293 HD
ENDBRANCH   4  12
BRANCH   6  14
ATOM     14  O   UNL     1       8.361  16.295 -17.545  1.00  0.00    -0.504 OA
ATOM     15  H   UNL     1       8.864  17.039 -17.074  1.00  0.00     0.293 HD
ENDBRANCH   6  14
TORSDOF 4
ENDMDL
MODEL 2
REMARK VINA RESULT:    -5.439      0.805      1.918
REMARK INTER + INTRA:          -6.519
REMARK INTER:                  -6.383
REMARK INTRA:                  -0.136
REMARK UNBOUND:                -0.125
REMARK SMILES O=C([O-])C=Cc1ccc(O)c(O)c1
REMARK SMILES IDX 6 1 13 2 7 3 11 4 8 5 9 6 5 7 4 8 2 9 1 10 3 11 12 12 10 14
REMARK H PARENT 12 13 10 15
REMARK Flexibility Score: inf
ROOT
ATOM      1  C   UNL     1       8.786  15.577 -21.735  1.00  0.00    -0.022 A 
ATOM      2  C   UNL     1       8.879  14.508 -20.821  1.00  0.00     0.058 A 
ATOM      3  C   UNL     1       8.566  16.873 -21.241  1.00  0.00     0.012 A 
ATOM      4  C   UNL     1       8.779  14.736 -19.443  1.00  0.00     0.157 A 
ATOM      5  C   UNL     1       8.469  17.104 -19.867  1.00  0.00     0.051 A 
ATOM      6  C   UNL     1       8.578  16.040 -18.962  1.00  0.00     0.157 A 
ENDROOT
BRANCH   1   7
ATOM      7  C   UNL     1       8.873  15.382 -23.203  1.00  0.00     0.010 C 
ATOM      8  C   UNL     1       9.863  15.873 -23.962  1.00  0.00     0.025 C 
BRANCH   8   9
ATOM      9  C   UNL     1       9.911  15.669 -25.420  1.00  0.00     0.064 C 
ATOM     10  O   UNL     1       8.869  15.754 -26.125  1.00  0.00    -0.545 OA
ATOM     11  O   UNL     1      11.124  15.378 -26.029  1.00  0.00    -0.545 OA
ENDBRANCH   8   9
ENDBRANCH   1   7
BRANCH   4  12
ATOM     12  O   UNL     1       8.879  13.655 -18.569  1.00  0.00    -0.504 OA
ATOM     13  H   UNL     1       9.767  13.214 -18.356  1.00  0.00     0.293 HD
ENDBRANCH   4  12
BRANCH   6  14
ATOM     14  O   UNL     1       8.481  16.273 -17.591  1.00  0.00    -0.504 OA
ATOM     15  H   UNL     1       9.288  16.544 -17.040  1.00  0.00     0.293 HD
ENDBRANCH   6  14
TORSDOF 4
ENDMDL
MODEL 3
REMARK VINA RESULT:    -5.262     10.523     13.898
REMARK INTER + INTRA:          -6.310
REMARK INTER:                  -6.187
REMARK INTRA:                  -0.123
REMARK UNBOUND:                -0.125
REMARK SMILES O=C([O-])C=Cc1ccc(O)c(O)c1
REMARK SMILES IDX 6 1 13 2 7 3 11 4 8 5 9 6 5 7 4 8 2 9 1 10 3 11 12 12 10 14
REMARK H PARENT 12 13 10 15
REMARK Flexibility Score: inf
ROOT
ATOM      1  C   UNL     1       7.100   8.340 -12.527  1.00  0.00    -0.022 A 
ATOM      2  C   UNL     1       6.578   7.129 -13.026  1.00  0.00     0.058 A 
ATOM      3  C   UNL     1       7.745   9.217 -13.415  1.00  0.00     0.012 A 
ATOM      4  C   UNL     1       6.680   6.815 -14.386  1.00  0.00     0.157 A 
ATOM      5  C   UNL     1       7.845   8.907 -14.773  1.00  0.00     0.051 A 
ATOM      6  C   UNL     1       7.312   7.709 -15.266  1.00  0.00     0.157 A 
ENDROOT
BRANCH   1   7
ATOM      7  C   UNL     1       7.027   8.710 -11.092  1.00  0.00     0.010 C 
ATOM      8  C   UNL     1       7.062   7.819 -10.091  1.00  0.00     0.025 C 
BRANCH   8   9
ATOM      9  C   UNL     1       6.975   8.222  -8.677  1.00  0.00     0.064 C 
ATOM     10  O   UNL     1       5.875   8.212  -8.061  1.00  0.00    -0.545 OA
ATOM     11  O   UNL     1       8.125   8.622  -8.010  1.00  0.00    -0.545 OA
ENDBRANCH   8   9
ENDBRANCH   1   7
BRANCH   4  12
ATOM     12  O   UNL     1       6.150   5.610 -14.844  1.00  0.00    -0.504 OA
ATOM     13  H   UNL     1       5.175   5.365 -14.714  1.00  0.00     0.293 HD
ENDBRANCH   4  12
BRANCH   6  14
ATOM     14  O   UNL     1       7.412   7.403 -16.622  1.00  0.00    -0.504 OA
ATOM     15  H   UNL     1       7.937   7.989 -17.261  1.00  0.00     0.293 HD
ENDBRANCH   6  14
TORSDOF 4
ENDMDL
MODEL 4
REMARK VINA RESULT:    -5.103      2.618      5.644
REMARK INTER + INTRA:          -6.123
REMARK INTER:                  -5.997
REMARK INTRA:                  -0.126
REMARK UNBOUND:                -0.125
REMARK SMILES O=C([O-])C=Cc1ccc(O)c(O)c1
REMARK SMILES IDX 6 1 13 2 7 3 11 4 8 5 9 6 5 7 4 8 2 9 1 10 3 11 12 12 10 14
REMARK H PARENT 12 13 10 15
REMARK Flexibility Score: inf
ROOT
ATOM      1  C   UNL     1       9.060  16.707 -19.519  1.00  0.00    -0.022 A 
ATOM      2  C   UNL     1       8.670  16.535 -20.863  1.00  0.00     0.058 A 
ATOM      3  C   UNL     1       9.418  15.575 -18.769  1.00  0.00     0.012 A 
ATOM      4  C   UNL     1       8.662  15.264 -21.448  1.00  0.00     0.157 A 
ATOM      5  C   UNL     1       9.414  14.305 -19.351  1.00  0.00     0.051 A 
ATOM      6  C   UNL     1       9.040  14.142 -20.691  1.00  0.00     0.157 A 
ENDROOT
BRANCH   1   7
ATOM      7  C   UNL     1       9.072  18.032 -18.854  1.00  0.00     0.010 C 
ATOM      8  C   UNL     1       7.975  18.778 -18.659  1.00  0.00     0.025 C 
BRANCH   8   9
ATOM      9  C   UNL     1       8.027  20.096 -18.004  1.00  0.00     0.064 C 
ATOM     10  O   UNL     1       7.053  20.529 -17.330  1.00  0.00    -0.545 OA
ATOM     11  O   UNL     1       9.167  20.877 -18.132  1.00  0.00    -0.545 OA
ENDBRANCH   8   9
ENDBRANCH   1   7
BRANCH   4  12
ATOM     12  O   UNL     1       8.273  15.134 -22.780  1.00  0.00    -0.504 OA
ATOM     13  H   UNL     1       8.147  14.229 -23.219  1.00  0.00     0.293 HD
ENDBRANCH   4  12
BRANCH   6  14
ATOM     14  O   UNL     1       9.037  12.874 -21.270  1.00  0.00    -0.504 OA
ATOM     15  H   UNL     1       9.887  12.451 -21.624  1.00  0.00     0.293 HD
ENDBRANCH   6  14
TORSDOF 4
ENDMDL
MODEL 5
REMARK VINA RESULT:    -4.966     10.047     13.484
REMARK INTER + INTRA:          -5.962
REMARK INTER:                  -5.814
REMARK INTRA:                  -0.148
REMARK UNBOUND:                -0.125
REMARK SMILES O=C([O-])C=Cc1ccc(O)c(O)c1
REMARK SMILES IDX 6 1 13 2 7 3 11 4 8 5 9 6 5 7 4 8 2 9 1 10 3 11 12 12 10 14
REMARK H PARENT 12 13 10 15
REMARK Flexibility Score: inf
ROOT
ATOM      1  C   UNL     1       7.131   8.429 -12.617  1.00  0.00    -0.022 A 
ATOM      2  C   UNL     1       7.619   9.323 -13.593  1.00  0.00     0.058 A 
ATOM      3  C   UNL     1       6.634   7.182 -13.030  1.00  0.00     0.012 A 
ATOM      4  C   UNL     1       7.629   8.966 -14.946  1.00  0.00     0.157 A 
ATOM      5  C   UNL     1       6.646   6.823 -14.380  1.00  0.00     0.051 A 
ATOM      6  C   UNL     1       7.145   7.709 -15.343  1.00  0.00     0.157 A 
ENDROOT
BRANCH   1   7
ATOM      7  C   UNL     1       7.089   8.768 -11.174  1.00  0.00     0.010 C 
ATOM      8  C   UNL     1       7.013   7.854 -10.196  1.00  0.00     0.025 C 
BRANCH   8   9
ATOM      9  C   UNL     1       6.961   8.228  -8.773  1.00  0.00     0.064 C 
ATOM     10  O   UNL     1       5.875   8.208  -8.132  1.00  0.00    -0.545 OA
ATOM     11  O   UNL     1       8.127   8.611  -8.124  1.00  0.00    -0.545 OA
ENDBRANCH   8   9
ENDBRANCH   1   7
BRANCH   4  12
ATOM     12  O   UNL     1       8.121   9.875 -15.882  1.00  0.00    -0.504 OA
ATOM     13  H   UNL     1       7.702  10.787 -16.020  1.00  0.00     0.293 HD
ENDBRANCH   4  12
BRANCH   6  14
ATOM     14  O   UNL     1       7.157   7.347 -16.689  1.00  0.00    -0.504 OA
ATOM     15  H   UNL     1       7.475   6.433 -16.991  1.00  0.00     0.293 HD
ENDBRANCH   6  14
TORSDOF 4
ENDMDL
MODEL 6
REMARK VINA RESULT:    -4.927      2.774      3.819
REMARK INTER + INTRA:          -5.916
REMARK INTER:                  -5.793
REMARK INTRA:                  -0.123
REMARK UNBOUND:                -0.125
REMARK SMILES O=C([O-])C=Cc1ccc(O)c(O)c1
REMARK SMILES IDX 6 1 13 2 7 3 11 4 8 5 9 6 5 7 4 8 2 9 1 10 3 11 12 12 10 14
REMARK H PARENT 12 13 10 15
REMARK Flexibility Score: inf
ROOT
ATOM      1  C   UNL     1       7.894  17.669 -19.075  1.00  0.00    -0.022 A 
ATOM      2  C   UNL     1       8.613  18.882 -19.105  1.00  0.00     0.058 A 
ATOM      3  C   UNL     1       6.827  17.538 -18.172  1.00  0.00     0.012 A 
ATOM      4  C   UNL     1       8.256  19.945 -18.269  1.00  0.00     0.157 A 
ATOM      5  C   UNL     1       6.466  18.599 -17.337  1.00  0.00     0.051 A 
ATOM      6  C   UNL     1       7.175  19.807 -17.383  1.00  0.00     0.157 A 
ENDROOT
BRANCH   1   7
ATOM      7  C   UNL     1       8.244  16.511 -19.933  1.00  0.00     0.010 C 
ATOM      8  C   UNL     1       8.582  16.617 -21.226  1.00  0.00     0.025 C 
BRANCH   8   9
ATOM      9  C   UNL     1       8.911  15.443 -22.051  1.00  0.00     0.064 C 
ATOM     10  O   UNL     1       8.740  14.272 -21.618  1.00  0.00    -0.545 OA
ATOM     11  O   UNL     1       9.421  15.629 -23.329  1.00  0.00    -0.545 OA
ENDBRANCH   8   9
ENDBRANCH   1   7
BRANCH   4  12
ATOM     12  O   UNL     1       8.988  21.130 -18.329  1.00  0.00    -0.504 OA
ATOM     13  H   UNL     1       9.985  21.139 -18.514  1.00  0.00     0.293 HD
ENDBRANCH   4  12
BRANCH   6  14
ATOM     14  O   UNL     1       6.812  20.864 -16.550  1.00  0.00    -0.504 OA
ATOM     15  H   UNL     1       6.258  20.715 -15.714  1.00  0.00     0.293 HD
ENDBRANCH   6  14
TORSDOF 4
ENDMDL
MODEL 7
REMARK VINA RESULT:    -4.876      3.215      5.496
REMARK INTER + INTRA:          -5.856
REMARK INTER:                  -5.730
REMARK INTRA:                  -0.126
REMARK UNBOUND:                -0.125
REMARK SMILES O=C([O-])C=Cc1ccc(O)c(O)c1
REMARK SMILES IDX 6 1 13 2 7 3 11 4 8 5 9 6 5 7 4 8 2 9 1 10 3 11 12 12 10 14
REMARK H PARENT 12 13 10 15
REMARK Flexibility Score: inf
ROOT
ATOM      1  C   UNL     1       8.471  15.585 -20.016  1.00  0.00    -0.022 A 
ATOM      2  C   UNL     1       8.925  14.688 -19.027  1.00  0.00     0.058 A 
ATOM      3  C   UNL     1       8.441  15.159 -21.354  1.00  0.00     0.012 A 
ATOM      4  C   UNL     1       9.316  13.388 -19.368  1.00  0.00     0.157 A 
ATOM      5  C   UNL     1       8.828  13.861 -21.696  1.00  0.00     0.051 A 
ATOM      6  C   UNL     1       9.264  12.969 -20.708  1.00  0.00     0.157 A 
ENDROOT
BRANCH   1   7
ATOM      7  C   UNL     1       8.059  16.975 -19.704  1.00  0.00     0.010 C 
ATOM      8  C   UNL     1       8.771  17.808 -18.933  1.00  0.00     0.025 C 
BRANCH   8   9
ATOM      9  C   UNL     1       8.324  19.180 -18.634  1.00  0.00     0.064 C 
ATOM     10  O   UNL     1       9.153  20.098 -18.389  1.00  0.00    -0.545 OA
ATOM     11  O   UNL     1       6.966  19.466 -18.622  1.00  0.00    -0.545 OA
ENDBRANCH   8   9
ENDBRANCH   1   7
BRANCH   4  12
ATOM     12  O   UNL     1       9.756  12.528 -18.363  1.00  0.00    -0.504 OA
ATOM     13  H   UNL     1       9.161  11.810 -17.969  1.00  0.00     0.293 HD
ENDBRANCH   4  12
BRANCH   6  14
ATOM     14  O   UNL     1       9.649  11.675 -21.053  1.00  0.00    -0.504 OA
ATOM     15  H   UNL     1       8.983  10.911 -21.073  1.00  0.00     0.293 HD
ENDBRANCH   6  14
TORSDOF 4
ENDMDL
MODEL 8
REMARK VINA RESULT:    -4.815      9.629     11.585
REMARK INTER + INTRA:          -5.784
REMARK INTER:                  -5.660
REMARK INTRA:                  -0.125
REMARK UNBOUND:                -0.125
REMARK SMILES O=C([O-])C=Cc1ccc(O)c(O)c1
REMARK SMILES IDX 6 1 13 2 7 3 11 4 8 5 9 6 5 7 4 8 2 9 1 10 3 11 12 12 10 14
REMARK H PARENT 12 13 10 15
REMARK Flexibility Score: inf
ROOT
ATOM      1  C   UNL     1       7.053   8.016 -14.013  1.00  0.00    -0.022 A 
ATOM      2  C   UNL     1       7.840   8.877 -14.804  1.00  0.00     0.058 A 
ATOM      3  C   UNL     1       6.664   8.440 -12.732  1.00  0.00     0.012 A 
ATOM      4  C   UNL     1       8.208  10.142 -14.333  1.00  0.00     0.157 A 
ATOM      5  C   UNL     1       7.027   9.704 -12.261  1.00  0.00     0.051 A 
ATOM      6  C   UNL     1       7.797  10.562 -13.057  1.00  0.00     0.157 A 
ENDROOT
BRANCH   1   7
ATOM      7  C   UNL     1       6.650   6.662 -14.465  1.00  0.00     0.010 C 
ATOM      8  C   UNL     1       7.424   5.866 -15.216  1.00  0.00     0.025 C 
BRANCH   8   9
ATOM      9  C   UNL     1       6.985   4.531 -15.657  1.00  0.00     0.064 C 
ATOM     10  O   UNL     1       5.877   4.366 -16.236  1.00  0.00    -0.545 OA
ATOM     11  O   UNL     1       7.805   3.434 -15.430  1.00  0.00    -0.545 OA
ENDBRANCH   8   9
ENDBRANCH   1   7
BRANCH   4  12
ATOM     12  O   UNL     1       8.985  10.968 -15.144  1.00  0.00    -0.504 OA
ATOM     13  H   UNL     1       8.603  11.444 -15.953  1.00  0.00     0.293 HD
ENDBRANCH   4  12
BRANCH   6  14
ATOM     14  O   UNL     1       8.158  11.822 -12.584  1.00  0.00    -0.504 OA
ATOM     15  H   UNL     1       8.656  12.485 -13.166  1.00  0.00     0.293 HD
ENDBRANCH   6  14
TORSDOF 4
ENDMDL
MODEL 9
REMARK VINA RESULT:    -4.792      8.625     12.126
REMARK INTER + INTRA:          -5.758
REMARK INTER:                  -5.628
REMARK INTRA:                  -0.130
REMARK UNBOUND:                -0.125
REMARK SMILES O=C([O-])C=Cc1ccc(O)c(O)c1
REMARK SMILES IDX 6 1 13 2 7 3 11 4 8 5 9 6 5 7 4 8 2 9 1 10 3 11 12 12 10 14
REMARK H PARENT 12 13 10 15
REMARK Flexibility Score: inf
ROOT
ATOM      1  C   UNL     1       7.644   9.857 -13.331  1.00  0.00    -0.022 A 
ATOM      2  C   UNL     1       8.381   9.305 -14.398  1.00  0.00     0.058 A 
ATOM      3  C   UNL     1       7.723  11.239 -13.097  1.00  0.00     0.012 A 
ATOM      4  C   UNL     1       9.161  10.122 -15.224  1.00  0.00     0.157 A 
ATOM      5  C   UNL     1       8.498  12.057 -13.922  1.00  0.00     0.051 A 
ATOM      6  C   UNL     1       9.217  11.506 -14.990  1.00  0.00     0.157 A 
ENDROOT
BRANCH   1   7
ATOM      7  C   UNL     1       6.814   9.030 -12.421  1.00  0.00     0.010 C 
ATOM      8  C   UNL     1       7.190   8.678 -11.183  1.00  0.00     0.025 C 
BRANCH   8   9
ATOM      9  C   UNL     1       6.345   7.845 -10.311  1.00  0.00     0.064 C 
ATOM     10  O   UNL     1       5.876   6.746 -10.714  1.00  0.00    -0.545 OA
ATOM     11  O   UNL     1       6.059   8.277  -9.023  1.00  0.00    -0.545 OA
ENDBRANCH   8   9
ENDBRANCH   1   7
BRANCH   4  12
ATOM     12  O   UNL     1       9.875   9.541 -16.272  1.00  0.00    -0.504 OA
ATOM     13  H   UNL     1       9.641   8.627 -16.641  1.00  0.00     0.293 HD
ENDBRANCH   4  12
BRANCH   6  14
ATOM     14  O   UNL     1       9.989  12.324 -15.813  1.00  0.00    -0.504 OA
ATOM     15  H   UNL     1      10.441  11.965 -16.646  1.00  0.00     0.293 HD
ENDBRANCH   6  14
TORSDOF 4
ENDMDL
