MODEL 1
REMARK VINA RESULT:    12.237      0.000      0.000
REMARK INTER + INTRA:          20.274
REMARK INTER:                  20.822
REMARK INTRA:                  -0.548
REMARK UNBOUND:                -0.548
REMARK SMILES CCCCCCCCCCCCCC(=O)[O-]
REMARK SMILES IDX 8 1 9 2 10 3 11 4 12 5 13 6 14 7 15 8 16 9 7 10 6 11 5 12
REMARK SMILES IDX 4 13 3 14 2 15 1 16
REMARK H PARENT
REMARK Flexibility Score: inf
ROOT
ATOM      1  C   UNL     1      -6.789 -17.891  27.252  1.00  0.00     0.000 C 
ENDROOT
BRANCH   1   2
ATOM      2  C   UNL     1      -5.486 -18.185  26.485  1.00  0.00     0.000 C 
BRANCH   2   3
ATOM      3  C   UNL     1      -5.640 -18.300  24.958  1.00  0.00     0.000 C 
BRANCH   3   4
ATOM      4  C   UNL     1      -4.553 -19.173  24.311  1.00  0.00     0.000 C 
BRANCH   4   5
ATOM      5  C   UNL     1      -4.873 -19.553  22.852  1.00  0.00     0.006 C 
BRANCH   5   6
ATOM      6  C   UNL     1      -4.196 -20.853  22.385  1.00  0.00     0.053 C 
BRANCH   6   7
ATOM      7  C   UNL     1      -2.701 -20.777  22.431  1.00  0.00     0.041 C 
ATOM      8  O   UNL     1      -2.078 -20.017  21.641  1.00  0.00    -0.550 OA
ATOM      9  O   UNL     1      -1.995 -21.529  23.361  1.00  0.00    -0.550 OA
ENDBRANCH   6   7
ENDBRANCH   5   6
ENDBRANCH   4   5
ENDBRANCH   3   4
ENDBRANCH   2   3
ENDBRANCH   1   2
BRANCH   1  10
ATOM     10  C   UNL     1      -7.698 -16.884  26.526  1.00  0.00     0.000 C 
BRANCH  10  11
ATOM     11  C   UNL     1      -9.052 -16.685  27.229  1.00  0.00    -0.000 C 
BRANCH  11  12
ATOM     12  C   UNL     1      -9.548 -17.887  28.060  1.00  0.00    -0.000 C 
BRANCH  12  13
ATOM     13  C   UNL     1      -9.711 -17.618  29.567  1.00  0.00    -0.000 C 
BRANCH  13  14
ATOM     14  C   UNL     1      -8.374 -17.345  30.272  1.00  0.00    -0.000 C 
BRANCH  14  15
ATOM     15  C   UNL     1      -8.473 -17.647  31.771  1.00  0.00    -0.003 C 
ATOM     16  C   UNL     1      -7.743 -18.940  32.123  1.00  0.00     0.004 C 
ENDBRANCH  14  15
ENDBRANCH  13  14
ENDBRANCH  12  13
ENDBRANCH  11  12
ENDBRANCH  10  11
ENDBRANCH   1  10
TORSDOF 12
ENDMDL
MODEL 2
REMARK VINA RESULT:    12.260      4.021      8.090
REMARK INTER + INTRA:          20.313
REMARK INTER:                  20.932
REMARK INTRA:                  -0.619
REMARK UNBOUND:                -0.548
REMARK SMILES CCCCCCCCCCCCCC(=O)[O-]
REMARK SMILES IDX 8 1 9 2 10 3 11 4 12 5 13 6 14 7 15 8 16 9 7 10 6 11 5 12
REMARK SMILES IDX 4 13 3 14 2 15 1 16
REMARK H PARENT
REMARK Flexibility Score: inf
ROOT
ATOM      1  C   UNL     1      -4.244 -19.157  23.566  1.00  0.00     0.000 C 
ENDROOT
BRANCH   1   2
ATOM      2  C   UNL     1      -5.615 -18.655  24.056  1.00  0.00     0.000 C 
BRANCH   2   3
ATOM      3  C   UNL     1      -5.982 -19.063  25.494  1.00  0.00     0.000 C 
BRANCH   3   4
ATOM      4  C   UNL     1      -5.445 -18.082  26.550  1.00  0.00     0.000 C 
BRANCH   4   5
ATOM      5  C   UNL     1      -6.559 -17.438  27.396  1.00  0.00     0.006 C 
BRANCH   5   6
ATOM      6  C   UNL     1      -7.946 -17.477  26.732  1.00  0.00     0.053 C 
BRANCH   6   7
ATOM      7  C   UNL     1      -9.057 -17.186  27.693  1.00  0.00     0.041 C 
ATOM      8  O   UNL     1      -9.218 -17.904  28.716  1.00  0.00    -0.550 OA
ATOM      9  O   UNL     1      -9.903 -16.107  27.471  1.00  0.00    -0.550 OA
ENDBRANCH   6   7
ENDBRANCH   5   6
ENDBRANCH   4   5
ENDBRANCH   3   4
ENDBRANCH   2   3
ENDBRANCH   1   2
BRANCH   1  10
ATOM     10  C   UNL     1      -4.333 -20.477  22.782  1.00  0.00     0.000 C 
BRANCH  10  11
ATOM     11  C   UNL     1      -2.953 -21.071  22.451  1.00  0.00    -0.000 C 
BRANCH  11  12
ATOM     12  C   UNL     1      -1.806 -20.047  22.321  1.00  0.00    -0.000 C 
BRANCH  12  13
ATOM     13  C   UNL     1      -1.053 -19.740  23.627  1.00  0.00    -0.000 C 
BRANCH  13  14
ATOM     14  C   UNL     1      -0.138 -18.511  23.513  1.00  0.00    -0.000 C 
BRANCH  14  15
ATOM     15  C   UNL     1      -0.606 -17.391  24.450  1.00  0.00    -0.003 C 
ATOM     16  C   UNL     1      -1.369 -17.955  25.646  1.00  0.00     0.004 C 
ENDBRANCH  14  15
ENDBRANCH  13  14
ENDBRANCH  12  13
ENDBRANCH  11  12
ENDBRANCH  10  11
ENDBRANCH   1  10
TORSDOF 12
ENDMDL
MODEL 3
REMARK VINA RESULT:    12.411      2.390      4.203
REMARK INTER + INTRA:          20.569
REMARK INTER:                  21.227
REMARK INTRA:                  -0.657
REMARK UNBOUND:                -0.548
REMARK SMILES CCCCCCCCCCCCCC(=O)[O-]
REMARK SMILES IDX 8 1 9 2 10 3 11 4 12 5 13 6 14 7 15 8 16 9 7 10 6 11 5 12
REMARK SMILES IDX 4 13 3 14 2 15 1 16
REMARK H PARENT
REMARK Flexibility Score: inf
ROOT
ATOM      1  C   UNL     1      -5.072 -18.987  23.419  1.00  0.00     0.000 C 
ENDROOT
BRANCH   1   2
ATOM      2  C   UNL     1      -4.604 -20.411  23.062  1.00  0.00     0.000 C 
BRANCH   2   3
ATOM      3  C   UNL     1      -3.335 -20.481  22.194  1.00  0.00     0.000 C 
BRANCH   3   4
ATOM      4  C   UNL     1      -2.080 -20.861  22.997  1.00  0.00     0.000 C 
BRANCH   4   5
ATOM      5  C   UNL     1      -1.034 -19.732  23.051  1.00  0.00     0.006 C 
BRANCH   5   6
ATOM      6  C   UNL     1      -0.577 -19.374  24.477  1.00  0.00     0.053 C 
BRANCH   6   7
ATOM      7  C   UNL     1      -0.805 -17.933  24.814  1.00  0.00     0.041 C 
ATOM      8  O   UNL     1      -1.514 -17.616  25.806  1.00  0.00    -0.550 OA
ATOM      9  O   UNL     1      -0.215 -16.938  24.045  1.00  0.00    -0.550 OA
ENDBRANCH   6   7
ENDBRANCH   5   6
ENDBRANCH   4   5
ENDBRANCH   3   4
ENDBRANCH   2   3
ENDBRANCH   1   2
BRANCH   1  10
ATOM     10  C   UNL     1      -4.860 -18.641  24.903  1.00  0.00     0.000 C 
BRANCH  10  11
ATOM     11  C   UNL     1      -6.124 -18.852  25.753  1.00  0.00    -0.000 C 
BRANCH  11  12
ATOM     12  C   UNL     1      -6.337 -17.828  26.887  1.00  0.00    -0.000 C 
BRANCH  12  13
ATOM     13  C   UNL     1      -7.686 -17.087  26.855  1.00  0.00    -0.000 C 
BRANCH  13  14
ATOM     14  C   UNL     1      -8.660 -17.573  27.938  1.00  0.00    -0.000 C 
BRANCH  14  15
ATOM     15  C   UNL     1      -9.914 -16.692  27.982  1.00  0.00    -0.003 C 
ATOM     16  C   UNL     1      -9.833 -15.565  26.956  1.00  0.00     0.004 C 
ENDBRANCH  14  15
ENDBRANCH  13  14
ENDBRANCH  12  13
ENDBRANCH  11  12
ENDBRANCH  10  11
ENDBRANCH   1  10
TORSDOF 12
ENDMDL
MODEL 4
REMARK VINA RESULT:    12.513      4.037      8.157
REMARK INTER + INTRA:          20.743
REMARK INTER:                  21.610
REMARK INTRA:                  -0.867
REMARK UNBOUND:                -0.548
REMARK SMILES CCCCCCCCCCCCCC(=O)[O-]
REMARK SMILES IDX 8 1 9 2 10 3 11 4 12 5 13 6 14 7 15 8 16 9 7 10 6 11 5 12
REMARK SMILES IDX 4 13 3 14 2 15 1 16
REMARK H PARENT
REMARK Flexibility Score: inf
ROOT
ATOM      1  C   UNL     1      -2.734 -17.552  25.949  1.00  0.00     0.000 C 
ENDROOT
BRANCH   1   2
ATOM      2  C   UNL     1      -3.332 -17.869  27.332  1.00  0.00     0.000 C 
BRANCH   2   3
ATOM      3  C   UNL     1      -4.856 -17.687  27.441  1.00  0.00     0.000 C 
BRANCH   3   4
ATOM      4  C   UNL     1      -5.623 -18.357  26.290  1.00  0.00     0.000 C 
BRANCH   4   5
ATOM      5  C   UNL     1      -7.081 -17.873  26.175  1.00  0.00     0.006 C 
BRANCH   5   6
ATOM      6  C   UNL     1      -7.528 -16.965  27.334  1.00  0.00     0.053 C 
BRANCH   6   7
ATOM      7  C   UNL     1      -8.968 -17.158  27.699  1.00  0.00     0.041 C 
ATOM      8  O   UNL     1      -9.825 -16.288  27.391  1.00  0.00    -0.550 OA
ATOM      9  O   UNL     1      -9.367 -18.311  28.363  1.00  0.00    -0.550 OA
ENDBRANCH   6   7
ENDBRANCH   5   6
ENDBRANCH   4   5
ENDBRANCH   3   4
ENDBRANCH   2   3
ENDBRANCH   1   2
BRANCH   1  10
ATOM     10  C   UNL     1      -1.299 -18.081  25.780  1.00  0.00     0.000 C 
BRANCH  10  11
ATOM     11  C   UNL     1      -0.667 -17.676  24.437  1.00  0.00    -0.000 C 
BRANCH  11  12
ATOM     12  C   UNL     1      -0.221 -18.847  23.537  1.00  0.00    -0.000 C 
BRANCH  12  13
ATOM     13  C   UNL     1      -1.170 -20.058  23.520  1.00  0.00    -0.000 C 
BRANCH  13  14
ATOM     14  C   UNL     1      -1.948 -20.188  22.202  1.00  0.00    -0.000 C 
BRANCH  14  15
ATOM     15  C   UNL     1      -3.274 -20.928  22.419  1.00  0.00    -0.003 C 
ATOM     16  C   UNL     1      -4.337 -19.998  22.996  1.00  0.00     0.004 C 
ENDBRANCH  14  15
ENDBRANCH  13  14
ENDBRANCH  12  13
ENDBRANCH  11  12
ENDBRANCH  10  11
ENDBRANCH   1  10
TORSDOF 12
ENDMDL
MODEL 5
REMARK VINA RESULT:    12.681      1.774      3.328
REMARK INTER + INTRA:          21.030
REMARK INTER:                  21.465
REMARK INTRA:                  -0.434
REMARK UNBOUND:                -0.548
REMARK SMILES CCCCCCCCCCCCCC(=O)[O-]
REMARK SMILES IDX 8 1 9 2 10 3 11 4 12 5 13 6 14 7 15 8 16 9 7 10 6 11 5 12
REMARK SMILES IDX 4 13 3 14 2 15 1 16
REMARK H PARENT
REMARK Flexibility Score: inf
ROOT
ATOM      1  C   UNL     1      -6.258 -17.840  26.999  1.00  0.00     0.000 C 
ENDROOT
BRANCH   1   2
ATOM      2  C   UNL     1      -5.835 -18.622  25.741  1.00  0.00     0.000 C 
BRANCH   2   3
ATOM      3  C   UNL     1      -6.166 -17.935  24.405  1.00  0.00     0.000 C 
BRANCH   3   4
ATOM      4  C   UNL     1      -5.460 -18.587  23.204  1.00  0.00     0.000 C 
BRANCH   4   5
ATOM      5  C   UNL     1      -4.354 -19.576  23.620  1.00  0.00     0.006 C 
BRANCH   5   6
ATOM      6  C   UNL     1      -4.036 -20.637  22.552  1.00  0.00     0.053 C 
BRANCH   6   7
ATOM      7  C   UNL     1      -2.565 -20.857  22.374  1.00  0.00     0.041 C 
ATOM      8  O   UNL     1      -1.973 -21.757  23.028  1.00  0.00    -0.550 OA
ATOM      9  O   UNL     1      -1.851 -20.081  21.470  1.00  0.00    -0.550 OA
ENDBRANCH   6   7
ENDBRANCH   5   6
ENDBRANCH   4   5
ENDBRANCH   3   4
ENDBRANCH   2   3
ENDBRANCH   1   2
BRANCH   1  10
ATOM     10  C   UNL     1      -7.672 -17.245  26.888  1.00  0.00     0.000 C 
BRANCH  10  11
ATOM     11  C   UNL     1      -8.475 -17.363  28.195  1.00  0.00    -0.000 C 
BRANCH  11  12
ATOM     12  C   UNL     1      -9.938 -16.879  28.118  1.00  0.00    -0.000 C 
BRANCH  12  13
ATOM     13  C   UNL     1     -10.294 -16.071  26.857  1.00  0.00    -0.000 C 
BRANCH  13  14
ATOM     14  C   UNL     1      -9.913 -14.587  26.972  1.00  0.00    -0.000 C 
BRANCH  14  15
ATOM     15  C   UNL     1     -11.031 -13.691  26.426  1.00  0.00    -0.003 C 
ATOM     16  C   UNL     1     -11.329 -12.538  27.381  1.00  0.00     0.004 C 
ENDBRANCH  14  15
ENDBRANCH  13  14
ENDBRANCH  12  13
ENDBRANCH  11  12
ENDBRANCH  10  11
ENDBRANCH   1  10
TORSDOF 12
ENDMDL
MODEL 6
REMARK VINA RESULT:    12.835      4.312      8.584
REMARK INTER + INTRA:          21.291
REMARK INTER:                  21.849
REMARK INTRA:                  -0.558
REMARK UNBOUND:                -0.548
REMARK SMILES CCCCCCCCCCCCCC(=O)[O-]
REMARK SMILES IDX 8 1 9 2 10 3 11 4 12 5 13 6 14 7 15 8 16 9 7 10 6 11 5 12
REMARK SMILES IDX 4 13 3 14 2 15 1 16
REMARK H PARENT
REMARK Flexibility Score: inf
ROOT
ATOM      1  C   UNL     1      -6.288 -18.474  25.401  1.00  0.00     0.000 C 
ENDROOT
BRANCH   1   2
ATOM      2  C   UNL     1      -6.184 -18.017  26.868  1.00  0.00     0.000 C 
BRANCH   2   3
ATOM      3  C   UNL     1      -7.333 -17.114  27.352  1.00  0.00     0.000 C 
BRANCH   3   4
ATOM      4  C   UNL     1      -8.614 -17.898  27.680  1.00  0.00     0.000 C 
BRANCH   4   5
ATOM      5  C   UNL     1      -9.167 -17.590  29.085  1.00  0.00     0.006 C 
BRANCH   5   6
ATOM      6  C   UNL     1      -8.080 -17.250  30.120  1.00  0.00     0.053 C 
BRANCH   6   7
ATOM      7  C   UNL     1      -8.458 -17.654  31.512  1.00  0.00     0.041 C 
ATOM      8  O   UNL     1      -9.374 -17.044  32.125  1.00  0.00    -0.550 OA
ATOM      9  O   UNL     1      -7.813 -18.721  32.125  1.00  0.00    -0.550 OA
ENDBRANCH   6   7
ENDBRANCH   5   6
ENDBRANCH   4   5
ENDBRANCH   3   4
ENDBRANCH   2   3
ENDBRANCH   1   2
BRANCH   1  10
ATOM     10  C   UNL     1      -5.003 -19.147  24.890  1.00  0.00     0.000 C 
BRANCH  10  11
ATOM     11  C   UNL     1      -4.856 -19.075  23.360  1.00  0.00    -0.000 C 
BRANCH  11  12
ATOM     12  C   UNL     1      -4.404 -20.382  22.677  1.00  0.00    -0.000 C 
BRANCH  12  13
ATOM     13  C   UNL     1      -2.998 -20.872  23.067  1.00  0.00    -0.000 C 
BRANCH  13  14
ATOM     14  C   UNL     1      -1.891 -19.886  22.664  1.00  0.00    -0.000 C 
BRANCH  14  15
ATOM     15  C   UNL     1      -1.003 -19.539  23.865  1.00  0.00    -0.003 C 
ATOM     16  C   UNL     1      -0.248 -18.234  23.634  1.00  0.00     0.004 C 
ENDBRANCH  14  15
ENDBRANCH  13  14
ENDBRANCH  12  13
ENDBRANCH  11  12
ENDBRANCH  10  11
ENDBRANCH   1  10
TORSDOF 12
ENDMDL
MODEL 7
REMARK VINA RESULT:    12.851      4.063      8.462
REMARK INTER + INTRA:          21.318
REMARK INTER:                  21.871
REMARK INTRA:                  -0.553
REMARK UNBOUND:                -0.548
REMARK SMILES CCCCCCCCCCCCCC(=O)[O-]
REMARK SMILES IDX 8 1 9 2 10 3 11 4 12 5 13 6 14 7 15 8 16 9 7 10 6 11 5 12
REMARK SMILES IDX 4 13 3 14 2 15 1 16
REMARK H PARENT
REMARK Flexibility Score: inf
ROOT
ATOM      1  C   UNL     1      -6.710 -17.162  27.413  1.00  0.00     0.000 C 
ENDROOT
BRANCH   1   2
ATOM      2  C   UNL     1      -8.101 -17.382  26.790  1.00  0.00     0.000 C 
BRANCH   2   3
ATOM      3  C   UNL     1      -9.162 -17.949  27.751  1.00  0.00     0.000 C 
BRANCH   3   4
ATOM      4  C   UNL     1      -9.239 -17.179  29.080  1.00  0.00     0.000 C 
BRANCH   4   5
ATOM      5  C   UNL     1      -9.858 -18.008  30.222  1.00  0.00     0.006 C 
BRANCH   5   6
ATOM      6  C   UNL     1      -9.534 -17.471  31.627  1.00  0.00     0.053 C 
BRANCH   6   7
ATOM      7  C   UNL     1      -8.078 -17.570  31.963  1.00  0.00     0.041 C 
ATOM      8  O   UNL     1      -7.389 -16.527  32.124  1.00  0.00    -0.550 OA
ATOM      9  O   UNL     1      -7.485 -18.816  32.122  1.00  0.00    -0.550 OA
ENDBRANCH   6   7
ENDBRANCH   5   6
ENDBRANCH   4   5
ENDBRANCH   3   4
ENDBRANCH   2   3
ENDBRANCH   1   2
BRANCH   1  10
ATOM     10  C   UNL     1      -5.653 -18.145  26.881  1.00  0.00     0.000 C 
BRANCH  10  11
ATOM     11  C   UNL     1      -5.562 -18.153  25.345  1.00  0.00    -0.000 C 
BRANCH  11  12
ATOM     12  C   UNL     1      -5.117 -19.490  24.716  1.00  0.00    -0.000 C 
BRANCH  12  13
ATOM     13  C   UNL     1      -4.719 -19.413  23.231  1.00  0.00    -0.000 C 
BRANCH  13  14
ATOM     14  C   UNL     1      -4.245 -20.762  22.670  1.00  0.00    -0.000 C 
BRANCH  14  15
ATOM     15  C   UNL     1      -2.866 -20.627  22.013  1.00  0.00    -0.003 C 
ATOM     16  C   UNL     1      -1.812 -20.188  23.026  1.00  0.00     0.004 C 
ENDBRANCH  14  15
ENDBRANCH  13  14
ENDBRANCH  12  13
ENDBRANCH  11  12
ENDBRANCH  10  11
ENDBRANCH   1  10
TORSDOF 12
ENDMDL
MODEL 8
REMARK VINA RESULT:    12.902      2.250      2.830
REMARK INTER + INTRA:          21.405
REMARK INTER:                  22.065
REMARK INTRA:                  -0.659
REMARK UNBOUND:                -0.548
REMARK SMILES CCCCCCCCCCCCCC(=O)[O-]
REMARK SMILES IDX 8 1 9 2 10 3 11 4 12 5 13 6 14 7 15 8 16 9 7 10 6 11 5 12
REMARK SMILES IDX 4 13 3 14 2 15 1 16
REMARK H PARENT
REMARK Flexibility Score: inf
ROOT
ATOM      1  C   UNL     1      -7.030 -17.788  25.591  1.00  0.00     0.000 C 
ENDROOT
BRANCH   1   2
ATOM      2  C   UNL     1      -5.568 -18.206  25.833  1.00  0.00     0.000 C 
BRANCH   2   3
ATOM      3  C   UNL     1      -5.033 -17.919  27.247  1.00  0.00     0.000 C 
BRANCH   3   4
ATOM      4  C   UNL     1      -3.522 -17.636  27.270  1.00  0.00     0.000 C 
BRANCH   4   5
ATOM      5  C   UNL     1      -2.829 -17.952  25.931  1.00  0.00     0.006 C 
BRANCH   5   6
ATOM      6  C   UNL     1      -1.326 -17.620  25.915  1.00  0.00     0.053 C 
BRANCH   6   7
ATOM      7  C   UNL     1      -0.621 -18.183  24.719  1.00  0.00     0.041 C 
ATOM      8  O   UNL     1      -0.403 -19.421  24.634  1.00  0.00    -0.550 OA
ATOM      9  O   UNL     1      -0.224 -17.343  23.687  1.00  0.00    -0.550 OA
ENDBRANCH   6   7
ENDBRANCH   5   6
ENDBRANCH   4   5
ENDBRANCH   3   4
ENDBRANCH   2   3
ENDBRANCH   1   2
BRANCH   1  10
ATOM     10  C   UNL     1      -7.621 -16.974  26.755  1.00  0.00     0.000 C 
BRANCH  10  11
ATOM     11  C   UNL     1      -9.066 -17.379  27.095  1.00  0.00    -0.000 C 
BRANCH  11  12
ATOM     12  C   UNL     1      -9.493 -17.140  28.558  1.00  0.00    -0.000 C 
BRANCH  12  13
ATOM     13  C   UNL     1      -8.515 -17.674  29.620  1.00  0.00    -0.000 C 
BRANCH  13  14
ATOM     14  C   UNL     1      -9.221 -18.121  30.909  1.00  0.00    -0.000 C 
BRANCH  14  15
ATOM     15  C   UNL     1      -8.304 -17.944  32.125  1.00  0.00    -0.003 C 
ATOM     16  C   UNL     1      -7.633 -16.573  32.116  1.00  0.00     0.004 C 
ENDBRANCH  14  15
ENDBRANCH  13  14
ENDBRANCH  12  13
ENDBRANCH  11  12
ENDBRANCH  10  11
ENDBRANCH   1  10
TORSDOF 12
ENDMDL
MODEL 9
REMARK VINA RESULT:    13.138      1.575      2.508
REMARK INTER + INTRA:          21.808
REMARK INTER:                  22.282
REMARK INTRA:                  -0.474
REMARK UNBOUND:                -0.548
REMARK SMILES CCCCCCCCCCCCCC(=O)[O-]
REMARK SMILES IDX 8 1 9 2 10 3 11 4 12 5 13 6 14 7 15 8 16 9 7 10 6 11 5 12
REMARK SMILES IDX 4 13 3 14 2 15 1 16
REMARK H PARENT
REMARK Flexibility Score: inf
ROOT
ATOM      1  C   UNL     1      -5.806 -18.254  24.928  1.00  0.00     0.000 C 
ENDROOT
BRANCH   1   2
ATOM      2  C   UNL     1      -5.139 -19.554  24.442  1.00  0.00     0.000 C 
BRANCH   2   3
ATOM      3  C   UNL     1      -4.362 -19.433  23.119  1.00  0.00     0.000 C 
BRANCH   3   4
ATOM      4  C   UNL     1      -3.722 -20.759  22.676  1.00  0.00     0.000 C 
BRANCH   4   5
ATOM      5  C   UNL     1      -2.190 -20.774  22.842  1.00  0.00     0.006 C 
BRANCH   5   6
ATOM      6  C   UNL     1      -1.531 -19.396  22.656  1.00  0.00     0.053 C 
BRANCH   6   7
ATOM      7  C   UNL     1      -0.677 -19.001  23.821  1.00  0.00     0.041 C 
ATOM      8  O   UNL     1      -0.340 -19.856  24.683  1.00  0.00    -0.550 OA
ATOM      9  O   UNL     1      -0.233 -17.690  23.944  1.00  0.00    -0.550 OA
ENDBRANCH   6   7
ENDBRANCH   5   6
ENDBRANCH   4   5
ENDBRANCH   3   4
ENDBRANCH   2   3
ENDBRANCH   1   2
BRANCH   1  10
ATOM     10  C   UNL     1      -6.013 -18.220  26.452  1.00  0.00     0.000 C 
BRANCH  10  11
ATOM     11  C   UNL     1      -7.132 -17.255  26.882  1.00  0.00    -0.000 C 
BRANCH  11  12
ATOM     12  C   UNL     1      -8.430 -17.927  27.377  1.00  0.00    -0.000 C 
BRANCH  12  13
ATOM     13  C   UNL     1      -9.226 -17.122  28.420  1.00  0.00    -0.000 C 
BRANCH  13  14
ATOM     14  C   UNL     1      -9.295 -17.820  29.786  1.00  0.00    -0.000 C 
BRANCH  14  15
ATOM     15  C   UNL     1      -8.082 -17.456  30.650  1.00  0.00    -0.003 C 
ATOM     16  C   UNL     1      -8.468 -17.336  32.121  1.00  0.00     0.004 C 
ENDBRANCH  14  15
ENDBRANCH  13  14
ENDBRANCH  12  13
ENDBRANCH  11  12
ENDBRANCH  10  11
ENDBRANCH   1  10
TORSDOF 12
ENDMDL
