MODEL 1
REMARK VINA RESULT:    43.101      0.000      0.000
REMARK INTER + INTRA:          52.172
REMARK INTER:                  51.920
REMARK INTRA:                   0.252
REMARK UNBOUND:                 0.252
REMARK SMILES O=c1c(O)c(-c2ccc(O)c(O)c2)oc2cc(O)cc(O)c12
REMARK SMILES IDX 5 1 3 2 2 3 1 4 22 5 20 6 19 7 17 8 16 9 15 10 14 11 6 12
REMARK SMILES IDX 7 13 8 14 9 15 13 16 11 17 10 18 12 20 4 22 21 24 18 26
REMARK H PARENT 10 19 12 21 4 23 21 25 18 27
REMARK Flexibility Score: inf
ROOT
ATOM      1  C   UNL     1      11.997  12.897   4.533  1.00  0.00     0.180 A 
ATOM      2  C   UNL     1      11.778  11.630   3.967  1.00  0.00     0.208 A 
ATOM      3  C   UNL     1      11.251  11.547   2.667  1.00  0.00     0.238 A 
ATOM      4  O   UNL     1      11.127  10.412   2.139  1.00  0.00    -0.285 OA
ATOM      5  C   UNL     1      10.895  12.730   1.974  1.00  0.00     0.111 A 
ATOM      6  C   UNL     1      10.311  12.763   0.671  1.00  0.00     0.134 A 
ATOM      7  C   UNL     1      10.101  13.996   0.041  1.00  0.00     0.093 A 
ATOM      8  C   UNL     1      10.393  15.195   0.687  1.00  0.00     0.123 A 
ATOM      9  C   UNL     1      10.913  15.176   1.981  1.00  0.00     0.094 A 
ATOM     10  C   UNL     1      11.170  13.962   2.623  1.00  0.00     0.146 A 
ATOM     11  O   UNL     1      11.686  13.989   3.846  1.00  0.00    -0.452 OA
ENDROOT
BRANCH   1  12
ATOM     12  C   UNL     1      12.564  13.066   5.891  1.00  0.00     0.025 A 
ATOM     13  C   UNL     1      12.127  14.092   6.743  1.00  0.00     0.016 A 
ATOM     14  C   UNL     1      12.659  14.217   8.027  1.00  0.00     0.051 A 
ATOM     15  C   UNL     1      13.625  13.317   8.492  1.00  0.00     0.157 A 
ATOM     16  C   UNL     1      13.516  12.149   6.362  1.00  0.00     0.062 A 
ATOM     17  C   UNL     1      14.056  12.266   7.649  1.00  0.00     0.158 A 
BRANCH  15  18
ATOM     18  O   UNL     1      14.120  13.501   9.785  1.00  0.00    -0.504 OA
ATOM     19  H   UNL     1      14.718  12.840  10.258  1.00  0.00     0.293 HD
ENDBRANCH  15  18
BRANCH  17  20
ATOM     20  O   UNL     1      15.009  11.324   8.044  1.00  0.00    -0.504 OA
ATOM     21  H   UNL     1      16.004  11.444   7.922  1.00  0.00     0.293 HD
ENDBRANCH  17  20
ENDBRANCH   1  12
BRANCH   2  22
ATOM     22  O   UNL     1      12.064  10.473   4.696  1.00  0.00    -0.502 OA
ATOM     23  H   UNL     1      11.724   9.558   4.422  1.00  0.00     0.293 HD
ENDBRANCH   2  22
BRANCH   6  24
ATOM     24  O   UNL     1       9.899  11.627  -0.031  1.00  0.00    -0.507 OA
ATOM     25  H   UNL     1      10.055  10.676   0.264  1.00  0.00     0.293 HD
ENDBRANCH   6  24
BRANCH   8  26
ATOM     26  O   UNL     1      10.155  16.404   0.036  1.00  0.00    -0.508 OA
ATOM     27  H   UNL     1      10.869  17.118  -0.034  1.00  0.00     0.293 HD
ENDBRANCH   8  26
TORSDOF 6
ENDMDL
MODEL 2
REMARK VINA RESULT:    43.806      3.127      4.586
REMARK INTER + INTRA:          53.021
REMARK INTER:                  53.352
REMARK INTRA:                  -0.332
REMARK UNBOUND:                 0.252
REMARK SMILES O=c1c(O)c(-c2ccc(O)c(O)c2)oc2cc(O)cc(O)c12
REMARK SMILES IDX 5 1 3 2 2 3 1 4 22 5 20 6 19 7 17 8 16 9 15 10 14 11 6 12
REMARK SMILES IDX 7 13 8 14 9 15 13 16 11 17 10 18 12 20 4 22 21 24 18 26
REMARK H PARENT 10 19 12 21 4 23 21 25 18 27
REMARK Flexibility Score: inf
ROOT
ATOM      1  C   UNL     1      10.090  12.866   4.255  1.00  0.00     0.180 A 
ATOM      2  C   UNL     1      10.038  13.851   3.255  1.00  0.00     0.208 A 
ATOM      3  C   UNL     1      10.779  13.664   2.077  1.00  0.00     0.238 A 
ATOM      4  O   UNL     1      10.670  14.514   1.155  1.00  0.00    -0.285 OA
ATOM      5  C   UNL     1      11.607  12.524   1.937  1.00  0.00     0.111 A 
ATOM      6  C   UNL     1      12.436  12.254   0.805  1.00  0.00     0.134 A 
ATOM      7  C   UNL     1      13.129  11.041   0.731  1.00  0.00     0.093 A 
ATOM      8  C   UNL     1      13.077  10.116   1.772  1.00  0.00     0.123 A 
ATOM      9  C   UNL     1      12.314  10.392   2.907  1.00  0.00     0.094 A 
ATOM     10  C   UNL     1      11.579  11.577   2.994  1.00  0.00     0.146 A 
ATOM     11  O   UNL     1      10.848  11.791   4.082  1.00  0.00    -0.452 OA
ENDROOT
BRANCH   1  12
ATOM     12  C   UNL     1       9.326  12.983   5.518  1.00  0.00     0.025 A 
ATOM     13  C   UNL     1       8.022  12.475   5.635  1.00  0.00     0.016 A 
ATOM     14  C   UNL     1       7.331  12.577   6.843  1.00  0.00     0.051 A 
ATOM     15  C   UNL     1       7.927  13.173   7.959  1.00  0.00     0.157 A 
ATOM     16  C   UNL     1       9.934  13.562   6.643  1.00  0.00     0.062 A 
ATOM     17  C   UNL     1       9.248  13.669   7.859  1.00  0.00     0.158 A 
BRANCH  15  18
ATOM     18  O   UNL     1       7.179  13.248   9.137  1.00  0.00    -0.504 OA
ATOM     19  H   UNL     1       6.171  13.212   9.167  1.00  0.00     0.293 HD
ENDBRANCH  15  18
BRANCH  17  20
ATOM     20  O   UNL     1       9.913  14.268   8.931  1.00  0.00    -0.504 OA
ATOM     21  H   UNL     1       9.519  14.363   9.857  1.00  0.00     0.293 HD
ENDBRANCH  17  20
ENDBRANCH   1  12
BRANCH   2  22
ATOM     22  O   UNL     1       9.275  15.007   3.443  1.00  0.00    -0.502 OA
ATOM     23  H   UNL     1       8.402  15.005   3.957  1.00  0.00     0.293 HD
ENDBRANCH   2  22
BRANCH   6  24
ATOM     24  O   UNL     1      12.631  13.148  -0.251  1.00  0.00    -0.507 OA
ATOM     25  H   UNL     1      11.942  13.799  -0.594  1.00  0.00     0.293 HD
ENDBRANCH   6  24
BRANCH   8  26
ATOM     26  O   UNL     1      13.795   8.925   1.672  1.00  0.00    -0.508 OA
ATOM     27  H   UNL     1      14.420   8.747   0.896  1.00  0.00     0.293 HD
ENDBRANCH   8  26
TORSDOF 6
ENDMDL
MODEL 3
REMARK VINA RESULT:    44.167      1.425      7.295
REMARK INTER + INTRA:          53.456
REMARK INTER:                  53.365
REMARK INTRA:                   0.091
REMARK UNBOUND:                 0.252
REMARK SMILES O=c1c(O)c(-c2ccc(O)c(O)c2)oc2cc(O)cc(O)c12
REMARK SMILES IDX 5 1 3 2 2 3 1 4 22 5 20 6 19 7 17 8 16 9 15 10 14 11 6 12
REMARK SMILES IDX 7 13 8 14 9 15 13 16 11 17 10 18 12 20 4 22 21 24 18 26
REMARK H PARENT 10 19 12 21 4 23 21 25 18 27
REMARK Flexibility Score: inf
ROOT
ATOM      1  C   UNL     1      11.845  13.171   4.785  1.00  0.00     0.180 A 
ATOM      2  C   UNL     1      11.212  13.994   5.731  1.00  0.00     0.208 A 
ATOM      3  C   UNL     1      11.760  14.093   7.021  1.00  0.00     0.238 A 
ATOM      4  O   UNL     1      11.231  14.888   7.841  1.00  0.00    -0.285 OA
ATOM      5  C   UNL     1      12.898  13.324   7.365  1.00  0.00     0.111 A 
ATOM      6  C   UNL     1      13.511  13.312   8.655  1.00  0.00     0.134 A 
ATOM      7  C   UNL     1      14.697  12.594   8.849  1.00  0.00     0.093 A 
ATOM      8  C   UNL     1      15.258  11.839   7.821  1.00  0.00     0.123 A 
ATOM      9  C   UNL     1      14.640  11.800   6.572  1.00  0.00     0.094 A 
ATOM     10  C   UNL     1      13.475  12.536   6.336  1.00  0.00     0.146 A 
ATOM     11  O   UNL     1      12.931  12.489   5.126  1.00  0.00    -0.452 OA
ENDROOT
BRANCH   1  12
ATOM     12  C   UNL     1      11.337  13.027   3.401  1.00  0.00     0.025 A 
ATOM     13  C   UNL     1      11.174  11.764   2.810  1.00  0.00     0.016 A 
ATOM     14  C   UNL     1      10.671  11.652   1.513  1.00  0.00     0.051 A 
ATOM     15  C   UNL     1      10.310  12.791   0.786  1.00  0.00     0.157 A 
ATOM     16  C   UNL     1      10.954  14.169   2.682  1.00  0.00     0.062 A 
ATOM     17  C   UNL     1      10.450  14.067   1.380  1.00  0.00     0.158 A 
BRANCH  15  18
ATOM     18  O   UNL     1       9.818  12.610  -0.509  1.00  0.00    -0.504 OA
ATOM     19  H   UNL     1       8.880  12.302  -0.718  1.00  0.00     0.293 HD
ENDBRANCH  15  18
BRANCH  17  20
ATOM     20  O   UNL     1      10.102  15.248   0.721  1.00  0.00    -0.504 OA
ATOM     21  H   UNL     1       9.234  15.744   0.872  1.00  0.00     0.293 HD
ENDBRANCH  17  20
ENDBRANCH   1  12
BRANCH   2  22
ATOM     22  O   UNL     1      10.045  14.686   5.396  1.00  0.00    -0.502 OA
ATOM     23  H   UNL     1       9.218  14.219   5.042  1.00  0.00     0.293 HD
ENDBRANCH   2  22
BRANCH   6  24
ATOM     24  O   UNL     1      12.985  13.960   9.777  1.00  0.00    -0.507 OA
ATOM     25  H   UNL     1      12.090  13.759  10.195  1.00  0.00     0.293 HD
ENDBRANCH   6  24
BRANCH   8  26
ATOM     26  O   UNL     1      16.431  11.123   8.055  1.00  0.00    -0.508 OA
ATOM     27  H   UNL     1      16.705  10.844   8.989  1.00  0.00     0.293 HD
ENDBRANCH   8  26
TORSDOF 6
ENDMDL
MODEL 4
REMARK VINA RESULT:    44.557      2.557      3.066
REMARK INTER + INTRA:          53.925
REMARK INTER:                  54.185
REMARK INTRA:                  -0.260
REMARK UNBOUND:                 0.252
REMARK SMILES O=c1c(O)c(-c2ccc(O)c(O)c2)oc2cc(O)cc(O)c12
REMARK SMILES IDX 5 1 3 2 2 3 1 4 22 5 20 6 19 7 17 8 16 9 15 10 14 11 6 12
REMARK SMILES IDX 7 13 8 14 9 15 13 16 11 17 10 18 12 20 4 22 21 24 18 26
REMARK H PARENT 10 19 12 21 4 23 21 25 18 27
REMARK Flexibility Score: inf
ROOT
ATOM      1  C   UNL     1      10.202  13.372   4.354  1.00  0.00     0.180 A 
ATOM      2  C   UNL     1      10.522  12.174   3.693  1.00  0.00     0.208 A 
ATOM      3  C   UNL     1      10.828  12.213   2.323  1.00  0.00     0.238 A 
ATOM      4  O   UNL     1      11.185  11.149   1.755  1.00  0.00    -0.285 OA
ATOM      5  C   UNL     1      10.755  13.440   1.619  1.00  0.00     0.111 A 
ATOM      6  C   UNL     1      11.001  13.589   0.220  1.00  0.00     0.134 A 
ATOM      7  C   UNL     1      11.005  14.870  -0.347  1.00  0.00     0.093 A 
ATOM      8  C   UNL     1      10.710  15.997   0.417  1.00  0.00     0.123 A 
ATOM      9  C   UNL     1      10.415  15.857   1.773  1.00  0.00     0.094 A 
ATOM     10  C   UNL     1      10.441  14.597   2.377  1.00  0.00     0.146 A 
ATOM     11  O   UNL     1      10.175  14.512   3.675  1.00  0.00    -0.452 OA
ENDROOT
BRANCH   1  12
ATOM     12  C   UNL     1       9.883  13.414   5.800  1.00  0.00     0.025 A 
ATOM     13  C   UNL     1      10.789  13.940   6.734  1.00  0.00     0.016 A 
ATOM     14  C   UNL     1      10.456  13.991   8.088  1.00  0.00     0.051 A 
ATOM     15  C   UNL     1       9.212  13.533   8.536  1.00  0.00     0.157 A 
ATOM     16  C   UNL     1       8.626  12.975   6.243  1.00  0.00     0.062 A 
ATOM     17  C   UNL     1       8.283  13.021   7.600  1.00  0.00     0.158 A 
BRANCH  15  18
ATOM     18  O   UNL     1       8.943  13.608   9.904  1.00  0.00    -0.504 OA
ATOM     19  H   UNL     1       9.000  14.458  10.445  1.00  0.00     0.293 HD
ENDBRANCH  15  18
BRANCH  17  20
ATOM     20  O   UNL     1       7.019  12.555   7.968  1.00  0.00    -0.504 OA
ATOM     21  H   UNL     1       6.164  12.805   7.492  1.00  0.00     0.293 HD
ENDBRANCH  17  20
ENDBRANCH   1  12
BRANCH   2  22
ATOM     22  O   UNL     1      10.513  10.962   4.389  1.00  0.00    -0.502 OA
ATOM     23  H   UNL     1       9.770  10.281   4.287  1.00  0.00     0.293 HD
ENDBRANCH   2  22
BRANCH   6  24
ATOM     24  O   UNL     1      11.219  12.521  -0.655  1.00  0.00    -0.507 OA
ATOM     25  H   UNL     1      10.808  11.605  -0.563  1.00  0.00     0.293 HD
ENDBRANCH   6  24
BRANCH   8  26
ATOM     26  O   UNL     1      10.705  17.254  -0.185  1.00  0.00    -0.508 OA
ATOM     27  H   UNL     1      10.161  18.020   0.193  1.00  0.00     0.293 HD
ENDBRANCH   8  26
TORSDOF 6
ENDMDL
MODEL 5
REMARK VINA RESULT:    45.313      1.666      2.323
REMARK INTER + INTRA:          54.836
REMARK INTER:                  54.693
REMARK INTRA:                   0.143
REMARK UNBOUND:                 0.252
REMARK SMILES O=c1c(O)c(-c2ccc(O)c(O)c2)oc2cc(O)cc(O)c12
REMARK SMILES IDX 5 1 3 2 2 3 1 4 22 5 20 6 19 7 17 8 16 9 15 10 14 11 6 12
REMARK SMILES IDX 7 13 8 14 9 15 13 16 11 17 10 18 12 20 4 22 21 24 18 26
REMARK H PARENT 10 19 12 21 4 23 21 25 18 27
REMARK Flexibility Score: inf
ROOT
ATOM      1  C   UNL     1      12.088  13.484   4.777  1.00  0.00     0.180 A 
ATOM      2  C   UNL     1      10.741  13.852   4.622  1.00  0.00     0.208 A 
ATOM      3  C   UNL     1      10.194  13.904   3.330  1.00  0.00     0.238 A 
ATOM      4  O   UNL     1       8.969  14.162   3.205  1.00  0.00    -0.285 OA
ATOM      5  C   UNL     1      11.014  13.644   2.205  1.00  0.00     0.111 A 
ATOM      6  C   UNL     1      10.576  13.712   0.847  1.00  0.00     0.134 A 
ATOM      7  C   UNL     1      11.449  13.329  -0.179  1.00  0.00     0.093 A 
ATOM      8  C   UNL     1      12.759  12.943   0.096  1.00  0.00     0.123 A 
ATOM      9  C   UNL     1      13.214  12.925   1.415  1.00  0.00     0.094 A 
ATOM     10  C   UNL     1      12.357  13.264   2.464  1.00  0.00     0.146 A 
ATOM     11  O   UNL     1      12.824  13.213   3.706  1.00  0.00    -0.452 OA
ENDROOT
BRANCH   1  12
ATOM     12  C   UNL     1      12.733  13.392   6.107  1.00  0.00     0.025 A 
ATOM     13  C   UNL     1      12.470  14.334   7.114  1.00  0.00     0.016 A 
ATOM     14  C   UNL     1      13.072  14.213   8.367  1.00  0.00     0.051 A 
ATOM     15  C   UNL     1      13.935  13.147   8.646  1.00  0.00     0.157 A 
ATOM     16  C   UNL     1      13.580  12.310   6.391  1.00  0.00     0.062 A 
ATOM     17  C   UNL     1      14.189  12.180   7.645  1.00  0.00     0.158 A 
BRANCH  15  18
ATOM     18  O   UNL     1      14.508  13.086   9.918  1.00  0.00    -0.504 OA
ATOM     19  H   UNL     1      14.337  13.764  10.646  1.00  0.00     0.293 HD
ENDBRANCH  15  18
BRANCH  17  20
ATOM     20  O   UNL     1      15.029  11.084   7.851  1.00  0.00    -0.504 OA
ATOM     21  H   UNL     1      14.700  10.147   8.038  1.00  0.00     0.293 HD
ENDBRANCH  17  20
ENDBRANCH   1  12
BRANCH   2  22
ATOM     22  O   UNL     1       9.968  14.180   5.739  1.00  0.00    -0.502 OA
ATOM     23  H   UNL     1       8.968  14.024   5.774  1.00  0.00     0.293 HD
ENDBRANCH   2  22
BRANCH   6  24
ATOM     24  O   UNL     1       9.316  14.169   0.453  1.00  0.00    -0.507 OA
ATOM     25  H   UNL     1       8.446  13.691   0.627  1.00  0.00     0.293 HD
ENDBRANCH   6  24
BRANCH   8  26
ATOM     26  O   UNL     1      13.605  12.585  -0.952  1.00  0.00    -0.508 OA
ATOM     27  H   UNL     1      14.279  13.237  -1.335  1.00  0.00     0.293 HD
ENDBRANCH   8  26
TORSDOF 6
ENDMDL
MODEL 6
REMARK VINA RESULT:    45.894      1.871      3.359
REMARK INTER + INTRA:          55.536
REMARK INTER:                  55.614
REMARK INTRA:                  -0.078
REMARK UNBOUND:                 0.252
REMARK SMILES O=c1c(O)c(-c2ccc(O)c(O)c2)oc2cc(O)cc(O)c12
REMARK SMILES IDX 5 1 3 2 2 3 1 4 22 5 20 6 19 7 17 8 16 9 15 10 14 11 6 12
REMARK SMILES IDX 7 13 8 14 9 15 13 16 11 17 10 18 12 20 4 22 21 24 18 26
REMARK H PARENT 10 19 12 21 4 23 21 25 18 27
REMARK Flexibility Score: inf
ROOT
ATOM      1  C   UNL     1      12.853  13.123   5.948  1.00  0.00     0.180 A 
ATOM      2  C   UNL     1      11.932  14.088   6.389  1.00  0.00     0.208 A 
ATOM      3  C   UNL     1      10.928  14.524   5.509  1.00  0.00     0.238 A 
ATOM      4  O   UNL     1      10.063  15.332   5.934  1.00  0.00    -0.285 OA
ATOM      5  C   UNL     1      10.893  14.033   4.181  1.00  0.00     0.111 A 
ATOM      6  C   UNL     1       9.948  14.438   3.190  1.00  0.00     0.134 A 
ATOM      7  C   UNL     1       9.943  13.804   1.941  1.00  0.00     0.093 A 
ATOM      8  C   UNL     1      10.885  12.828   1.625  1.00  0.00     0.123 A 
ATOM      9  C   UNL     1      11.847  12.462   2.566  1.00  0.00     0.094 A 
ATOM     10  C   UNL     1      11.855  13.049   3.835  1.00  0.00     0.146 A 
ATOM     11  O   UNL     1      12.774  12.656   4.709  1.00  0.00    -0.452 OA
ENDROOT
BRANCH   1  12
ATOM     12  C   UNL     1      13.929  12.603   6.822  1.00  0.00     0.025 A 
ATOM     13  C   UNL     1      13.645  12.039   8.076  1.00  0.00     0.016 A 
ATOM     14  C   UNL     1      14.675  11.534   8.871  1.00  0.00     0.051 A 
ATOM     15  C   UNL     1      16.002  11.569   8.429  1.00  0.00     0.157 A 
ATOM     16  C   UNL     1      15.257  12.619   6.367  1.00  0.00     0.062 A 
ATOM     17  C   UNL     1      16.297  12.115   7.158  1.00  0.00     0.158 A 
BRANCH  15  18
ATOM     18  O   UNL     1      16.986  11.051   9.276  1.00  0.00    -0.504 OA
ATOM     19  H   UNL     1      17.504  10.205   9.087  1.00  0.00     0.293 HD
ENDBRANCH  15  18
BRANCH  17  20
ATOM     20  O   UNL     1      17.594  12.176   6.645  1.00  0.00    -0.504 OA
ATOM     21  H   UNL     1      18.380  11.679   7.039  1.00  0.00     0.293 HD
ENDBRANCH  17  20
ENDBRANCH   1  12
BRANCH   2  22
ATOM     22  O   UNL     1      12.030  14.618   7.679  1.00  0.00    -0.502 OA
ATOM     23  H   UNL     1      12.920  14.793   8.129  1.00  0.00     0.293 HD
ENDBRANCH   2  22
BRANCH   6  24
ATOM     24  O   UNL     1       9.019  15.467   3.369  1.00  0.00    -0.507 OA
ATOM     25  H   UNL     1       9.247  16.417   3.613  1.00  0.00     0.293 HD
ENDBRANCH   6  24
BRANCH   8  26
ATOM     26  O   UNL     1      10.862  12.231   0.366  1.00  0.00    -0.508 OA
ATOM     27  H   UNL     1      10.479  12.709  -0.440  1.00  0.00     0.293 HD
ENDBRANCH   8  26
TORSDOF 6
ENDMDL
