MODEL 1
REMARK VINA RESULT:    -1.175      0.000      0.000
REMARK INTER + INTRA:          -6.450
REMARK INTER:                  -2.960
REMARK INTRA:                  -3.490
REMARK UNBOUND:                -3.490
REMARK SMILES CCCCCCCCCCCCCCCCCCCCCCCCCCCC(=O)[O-]
REMARK SMILES IDX 15 1 16 2 17 3 18 4 19 5 20 6 21 7 22 8 23 9 24 10 25 11
REMARK SMILES IDX 26 12 27 13 28 14 29 15 30 16 14 17 13 18 12 19 11 20 10 21
REMARK SMILES IDX 9 22 8 23 7 24 6 25 5 26 4 27 3 28 2 29 1 30
REMARK H PARENT
REMARK Flexibility Score: inf
ROOT
ATOM      1  C   UNL     1      41.317  57.942  44.460  1.00  0.00     0.000 C 
ENDROOT
BRANCH   1   2
ATOM      2  C   UNL     1      40.297  57.738  45.596  1.00  0.00     0.000 C 
BRANCH   2   3
ATOM      3  C   UNL     1      40.282  56.304  46.173  1.00  0.00     0.000 C 
BRANCH   3   4
ATOM      4  C   UNL     1      40.243  56.298  47.711  1.00  0.00     0.000 C 
BRANCH   4   5
ATOM      5  C   UNL     1      39.352  57.413  48.284  1.00  0.00     0.000 C 
BRANCH   5   6
ATOM      6  C   UNL     1      39.981  58.100  49.509  1.00  0.00     0.000 C 
BRANCH   6   7
ATOM      7  C   UNL     1      41.467  58.446  49.298  1.00  0.00     0.000 C 
BRANCH   7   8
ATOM      8  C   UNL     1      41.725  59.631  48.346  1.00  0.00     0.000 C 
BRANCH   8   9
ATOM      9  C   UNL     1      41.861  61.003  49.034  1.00  0.00     0.000 C 
BRANCH   9  10
ATOM     10  C   UNL     1      43.273  61.326  49.569  1.00  0.00     0.000 C 
BRANCH  10  11
ATOM     11  C   UNL     1      44.430  60.816  48.691  1.00  0.00     0.000 C 
BRANCH  11  12
ATOM     12  C   UNL     1      45.505  60.073  49.500  1.00  0.00     0.006 C 
BRANCH  12  13
ATOM     13  C   UNL     1      44.880  59.287  50.657  1.00  0.00     0.053 C 
BRANCH  13  14
ATOM     14  C   UNL     1      45.867  58.314  51.223  1.00  0.00     0.041 C 
ATOM     15  O   UNL     1      45.889  58.078  52.460  1.00  0.00    -0.550 OA
ATOM     16  O   UNL     1      46.802  57.709  50.388  1.00  0.00    -0.550 OA
ENDBRANCH  13  14
ENDBRANCH  12  13
ENDBRANCH  11  12
ENDBRANCH  10  11
ENDBRANCH   9  10
ENDBRANCH   8   9
ENDBRANCH   7   8
ENDBRANCH   6   7
ENDBRANCH   5   6
ENDBRANCH   4   5
ENDBRANCH   3   4
ENDBRANCH   2   3
ENDBRANCH   1   2
BRANCH   1  17
ATOM     17  C   UNL     1      42.489  56.946  44.448  1.00  0.00     0.000 C 
BRANCH  17  18
ATOM     18  C   UNL     1      43.859  57.639  44.565  1.00  0.00     0.000 C 
BRANCH  18  19
ATOM     19  C   UNL     1      44.131  58.179  45.978  1.00  0.00     0.000 C 
BRANCH  19  20
ATOM     20  C   UNL     1      43.689  57.197  47.076  1.00  0.00     0.000 C 
BRANCH  20  21
ATOM     21  C   UNL     1      44.856  56.733  47.963  1.00  0.00     0.000 C 
BRANCH  21  22
ATOM     22  C   UNL     1      46.243  56.759  47.292  1.00  0.00    -0.000 C 
BRANCH  22  23
ATOM     23  C   UNL     1      46.778  55.363  46.902  1.00  0.00    -0.000 C 
BRANCH  23  24
ATOM     24  C   UNL     1      47.714  55.413  45.681  1.00  0.00    -0.000 C 
BRANCH  24  25
ATOM     25  C   UNL     1      48.289  54.034  45.318  1.00  0.00    -0.000 C 
BRANCH  25  26
ATOM     26  C   UNL     1      49.638  54.125  44.588  1.00  0.00    -0.000 C 
BRANCH  26  27
ATOM     27  C   UNL     1      49.528  53.572  43.162  1.00  0.00    -0.000 C 
BRANCH  27  28
ATOM     28  C   UNL     1      48.063  53.350  42.765  1.00  0.00    -0.000 C 
BRANCH  28  29
ATOM     29  C   UNL     1      47.531  54.533  41.947  1.00  0.00    -0.003 C 
ATOM     30  C   UNL     1      48.576  55.638  41.826  1.00  0.00     0.004 C 
ENDBRANCH  28  29
ENDBRANCH  27  28
ENDBRANCH  26  27
ENDBRANCH  25  26
ENDBRANCH  24  25
ENDBRANCH  23  24
ENDBRANCH  22  23
ENDBRANCH  21  22
ENDBRANCH  20  21
ENDBRANCH  19  20
ENDBRANCH  18  19
ENDBRANCH  17  18
ENDBRANCH   1  17
TORSDOF 26
ENDMDL
MODEL 2
REMARK VINA RESULT:    -0.998      2.606      7.802
REMARK INTER + INTRA:          -6.005
REMARK INTER:                  -2.611
REMARK INTRA:                  -3.395
REMARK UNBOUND:                -3.490
REMARK SMILES CCCCCCCCCCCCCCCCCCCCCCCCCCCC(=O)[O-]
REMARK SMILES IDX 15 1 16 2 17 3 18 4 19 5 20 6 21 7 22 8 23 9 24 10 25 11
REMARK SMILES IDX 26 12 27 13 28 14 29 15 30 16 14 17 13 18 12 19 11 20 10 21
REMARK SMILES IDX 9 22 8 23 7 24 6 25 5 26 4 27 3 28 2 29 1 30
REMARK H PARENT
REMARK Flexibility Score: inf
ROOT
ATOM      1  C   UNL     1      41.202  57.994  44.961  1.00  0.00     0.000 C 
ENDROOT
BRANCH   1   2
ATOM      2  C   UNL     1      42.369  57.012  44.747  1.00  0.00     0.000 C 
BRANCH   2   3
ATOM      3  C   UNL     1      43.762  57.683  44.765  1.00  0.00     0.000 C 
BRANCH   3   4
ATOM      4  C   UNL     1      44.207  58.056  46.190  1.00  0.00     0.000 C 
BRANCH   4   5
ATOM      5  C   UNL     1      43.729  57.044  47.243  1.00  0.00     0.000 C 
BRANCH   5   6
ATOM      6  C   UNL     1      44.870  56.557  48.154  1.00  0.00     0.000 C 
BRANCH   6   7
ATOM      7  C   UNL     1      46.258  56.726  47.509  1.00  0.00     0.000 C 
BRANCH   7   8
ATOM      8  C   UNL     1      46.856  55.433  46.917  1.00  0.00     0.000 C 
BRANCH   8   9
ATOM      9  C   UNL     1      47.365  55.553  45.467  1.00  0.00     0.000 C 
BRANCH   9  10
ATOM     10  C   UNL     1      48.715  54.858  45.191  1.00  0.00     0.000 C 
BRANCH  10  11
ATOM     11  C   UNL     1      48.611  53.367  44.821  1.00  0.00     0.000 C 
BRANCH  11  12
ATOM     12  C   UNL     1      48.990  53.092  43.358  1.00  0.00     0.006 C 
BRANCH  12  13
ATOM     13  C   UNL     1      48.192  53.985  42.403  1.00  0.00     0.053 C 
BRANCH  13  14
ATOM     14  C   UNL     1      48.931  55.259  42.136  1.00  0.00     0.041 C 
ATOM     15  O   UNL     1      48.299  56.335  41.959  1.00  0.00    -0.550 OA
ATOM     16  O   UNL     1      50.317  55.248  42.026  1.00  0.00    -0.550 OA
ENDBRANCH  13  14
ENDBRANCH  12  13
ENDBRANCH  11  12
ENDBRANCH  10  11
ENDBRANCH   9  10
ENDBRANCH   8   9
ENDBRANCH   7   8
ENDBRANCH   6   7
ENDBRANCH   5   6
ENDBRANCH   4   5
ENDBRANCH   3   4
ENDBRANCH   2   3
ENDBRANCH   1   2
BRANCH   1  17
ATOM     17  C   UNL     1      39.966  57.396  45.656  1.00  0.00     0.000 C 
BRANCH  17  18
ATOM     18  C   UNL     1      40.292  56.122  46.457  1.00  0.00     0.000 C 
BRANCH  18  19
ATOM     19  C   UNL     1      39.808  56.199  47.914  1.00  0.00     0.000 C 
BRANCH  19  20
ATOM     20  C   UNL     1      39.616  57.648  48.392  1.00  0.00     0.000 C 
BRANCH  20  21
ATOM     21  C   UNL     1      40.550  58.020  49.556  1.00  0.00     0.000 C 
BRANCH  21  22
ATOM     22  C   UNL     1      41.798  58.834  49.164  1.00  0.00    -0.000 C 
BRANCH  22  23
ATOM     23  C   UNL     1      41.531  59.916  48.093  1.00  0.00    -0.000 C 
BRANCH  23  24
ATOM     24  C   UNL     1      41.665  61.343  48.654  1.00  0.00    -0.000 C 
BRANCH  24  25
ATOM     25  C   UNL     1      42.630  61.422  49.848  1.00  0.00    -0.000 C 
BRANCH  25  26
ATOM     26  C   UNL     1      44.027  61.925  49.452  1.00  0.00    -0.000 C 
BRANCH  26  27
ATOM     27  C   UNL     1      44.898  60.774  48.935  1.00  0.00    -0.000 C 
BRANCH  27  28
ATOM     28  C   UNL     1      45.772  60.194  50.055  1.00  0.00    -0.000 C 
BRANCH  28  29
ATOM     29  C   UNL     1      45.276  58.806  50.474  1.00  0.00    -0.003 C 
ATOM     30  C   UNL     1      46.040  58.286  51.688  1.00  0.00     0.004 C 
ENDBRANCH  28  29
ENDBRANCH  27  28
ENDBRANCH  26  27
ENDBRANCH  25  26
ENDBRANCH  24  25
ENDBRANCH  23  24
ENDBRANCH  22  23
ENDBRANCH  21  22
ENDBRANCH  20  21
ENDBRANCH  19  20
ENDBRANCH  18  19
ENDBRANCH  17  18
ENDBRANCH   1  17
TORSDOF 26
ENDMDL
MODEL 3
REMARK VINA RESULT:    -0.923      1.323      2.575
REMARK INTER + INTRA:          -5.817
REMARK INTER:                  -2.628
REMARK INTRA:                  -3.189
REMARK UNBOUND:                -3.490
REMARK SMILES CCCCCCCCCCCCCCCCCCCCCCCCCCCC(=O)[O-]
REMARK SMILES IDX 15 1 16 2 17 3 18 4 19 5 20 6 21 7 22 8 23 9 24 10 25 11
REMARK SMILES IDX 26 12 27 13 28 14 29 15 30 16 14 17 13 18 12 19 11 20 10 21
REMARK SMILES IDX 9 22 8 23 7 24 6 25 5 26 4 27 3 28 2 29 1 30
REMARK H PARENT
REMARK Flexibility Score: inf
ROOT
ATOM      1  C   UNL     1      43.762  57.235  44.692  1.00  0.00     0.000 C 
ENDROOT
BRANCH   1   2
ATOM      2  C   UNL     1      42.305  57.011  44.244  1.00  0.00     0.000 C 
BRANCH   2   3
ATOM      3  C   UNL     1      41.349  58.163  44.626  1.00  0.00     0.000 C 
BRANCH   3   4
ATOM      4  C   UNL     1      40.283  57.718  45.643  1.00  0.00     0.000 C 
BRANCH   4   5
ATOM      5  C   UNL     1      40.560  56.318  46.215  1.00  0.00     0.000 C 
BRANCH   5   6
ATOM      6  C   UNL     1      40.203  56.211  47.708  1.00  0.00     0.000 C 
BRANCH   6   7
ATOM      7  C   UNL     1      39.558  57.496  48.260  1.00  0.00     0.000 C 
BRANCH   7   8
ATOM      8  C   UNL     1      40.193  58.030  49.560  1.00  0.00     0.000 C 
BRANCH   8   9
ATOM      9  C   UNL     1      41.540  58.756  49.377  1.00  0.00     0.000 C 
BRANCH   9  10
ATOM     10  C   UNL     1      41.609  59.708  48.164  1.00  0.00     0.000 C 
BRANCH  10  11
ATOM     11  C   UNL     1      41.954  61.169  48.506  1.00  0.00     0.000 C 
BRANCH  11  12
ATOM     12  C   UNL     1      42.609  61.314  49.889  1.00  0.00     0.006 C 
BRANCH  12  13
ATOM     13  C   UNL     1      43.815  62.256  49.832  1.00  0.00     0.053 C 
BRANCH  13  14
ATOM     14  C   UNL     1      45.019  61.534  49.311  1.00  0.00     0.041 C 
ATOM     15  O   UNL     1      45.886  62.150  48.636  1.00  0.00    -0.550 OA
ATOM     16  O   UNL     1      45.155  60.166  49.523  1.00  0.00    -0.550 OA
ENDBRANCH  13  14
ENDBRANCH  12  13
ENDBRANCH  11  12
ENDBRANCH  10  11
ENDBRANCH   9  10
ENDBRANCH   8   9
ENDBRANCH   7   8
ENDBRANCH   6   7
ENDBRANCH   5   6
ENDBRANCH   4   5
ENDBRANCH   3   4
ENDBRANCH   2   3
ENDBRANCH   1   2
BRANCH   1  17
ATOM     17  C   UNL     1      44.044  58.605  45.332  1.00  0.00     0.000 C 
BRANCH  17  18
ATOM     18  C   UNL     1      44.128  58.539  46.868  1.00  0.00     0.000 C 
BRANCH  18  19
ATOM     19  C   UNL     1      43.951  57.111  47.409  1.00  0.00     0.000 C 
BRANCH  19  20
ATOM     20  C   UNL     1      45.090  56.697  48.355  1.00  0.00     0.000 C 
BRANCH  20  21
ATOM     21  C   UNL     1      46.442  56.558  47.635  1.00  0.00     0.000 C 
BRANCH  21  22
ATOM     22  C   UNL     1      46.601  55.290  46.774  1.00  0.00    -0.000 C 
BRANCH  22  23
ATOM     23  C   UNL     1      47.732  55.380  45.726  1.00  0.00    -0.000 C 
BRANCH  23  24
ATOM     24  C   UNL     1      48.317  54.001  45.374  1.00  0.00    -0.000 C 
BRANCH  24  25
ATOM     25  C   UNL     1      49.667  54.098  44.644  1.00  0.00    -0.000 C 
BRANCH  25  26
ATOM     26  C   UNL     1      50.016  55.535  44.226  1.00  0.00    -0.000 C 
BRANCH  26  27
ATOM     27  C   UNL     1      49.912  55.704  42.706  1.00  0.00    -0.000 C 
BRANCH  27  28
ATOM     28  C   UNL     1      48.448  55.707  42.249  1.00  0.00    -0.000 C 
BRANCH  28  29
ATOM     29  C   UNL     1      48.059  54.352  41.646  1.00  0.00    -0.003 C 
ATOM     30  C   UNL     1      46.900  53.718  42.408  1.00  0.00     0.004 C 
ENDBRANCH  28  29
ENDBRANCH  27  28
ENDBRANCH  26  27
ENDBRANCH  25  26
ENDBRANCH  24  25
ENDBRANCH  23  24
ENDBRANCH  22  23
ENDBRANCH  21  22
ENDBRANCH  20  21
ENDBRANCH  19  20
ENDBRANCH  18  19
ENDBRANCH  17  18
ENDBRANCH   1  17
TORSDOF 26
ENDMDL
MODEL 4
REMARK VINA RESULT:    -0.861      2.619      5.377
REMARK INTER + INTRA:          -5.659
REMARK INTER:                  -2.119
REMARK INTRA:                  -3.540
REMARK UNBOUND:                -3.490
REMARK SMILES CCCCCCCCCCCCCCCCCCCCCCCCCCCC(=O)[O-]
REMARK SMILES IDX 15 1 16 2 17 3 18 4 19 5 20 6 21 7 22 8 23 9 24 10 25 11
REMARK SMILES IDX 26 12 27 13 28 14 29 15 30 16 14 17 13 18 12 19 11 20 10 21
REMARK SMILES IDX 9 22 8 23 7 24 6 25 5 26 4 27 3 28 2 29 1 30
REMARK H PARENT
REMARK Flexibility Score: inf
ROOT
ATOM      1  C   UNL     1      45.585  59.706  50.229  1.00  0.00     0.000 C 
ENDROOT
BRANCH   1   2
ATOM      2  C   UNL     1      45.264  60.520  48.962  1.00  0.00     0.000 C 
BRANCH   2   3
ATOM      3  C   UNL     1      44.423  61.790  49.230  1.00  0.00     0.000 C 
BRANCH   3   4
ATOM      4  C   UNL     1      43.077  61.462  49.900  1.00  0.00     0.000 C 
BRANCH   4   5
ATOM      5  C   UNL     1      41.906  61.457  48.904  1.00  0.00     0.000 C 
BRANCH   5   6
ATOM      6  C   UNL     1      41.582  60.046  48.383  1.00  0.00     0.000 C 
BRANCH   6   7
ATOM      7  C   UNL     1      42.179  58.934  49.266  1.00  0.00     0.000 C 
BRANCH   7   8
ATOM      8  C   UNL     1      41.196  57.803  49.632  1.00  0.00     0.000 C 
BRANCH   8   9
ATOM      9  C   UNL     1      39.722  58.081  49.280  1.00  0.00     0.000 C 
BRANCH   9  10
ATOM     10  C   UNL     1      39.139  57.188  48.164  1.00  0.00     0.000 C 
BRANCH  10  11
ATOM     11  C   UNL     1      40.132  56.180  47.557  1.00  0.00     0.000 C 
BRANCH  11  12
ATOM     12  C   UNL     1      40.336  56.385  46.048  1.00  0.00     0.006 C 
BRANCH  12  13
ATOM     13  C   UNL     1      40.310  57.873  45.684  1.00  0.00     0.053 C 
BRANCH  13  14
ATOM     14  C   UNL     1      40.538  58.057  44.216  1.00  0.00     0.041 C 
ATOM     15  O   UNL     1      39.793  58.823  43.549  1.00  0.00    -0.550 OA
ATOM     16  O   UNL     1      41.539  57.337  43.573  1.00  0.00    -0.550 OA
ENDBRANCH  13  14
ENDBRANCH  12  13
ENDBRANCH  11  12
ENDBRANCH  10  11
ENDBRANCH   9  10
ENDBRANCH   8   9
ENDBRANCH   7   8
ENDBRANCH   6   7
ENDBRANCH   5   6
ENDBRANCH   4   5
ENDBRANCH   3   4
ENDBRANCH   2   3
ENDBRANCH   1   2
BRANCH   1  17
ATOM     17  C   UNL     1      45.537  58.178  50.052  1.00  0.00     0.000 C 
BRANCH  17  18
ATOM     18  C   UNL     1      46.478  57.678  48.942  1.00  0.00     0.000 C 
BRANCH  18  19
ATOM     19  C   UNL     1      45.813  56.637  48.027  1.00  0.00     0.000 C 
BRANCH  19  20
ATOM     20  C   UNL     1      44.277  56.701  48.085  1.00  0.00     0.000 C 
BRANCH  20  21
ATOM     21  C   UNL     1      43.637  56.885  46.699  1.00  0.00     0.000 C 
BRANCH  21  22
ATOM     22  C   UNL     1      43.993  58.200  45.979  1.00  0.00    -0.000 C 
BRANCH  22  23
ATOM     23  C   UNL     1      44.518  58.006  44.539  1.00  0.00    -0.000 C 
BRANCH  23  24
ATOM     24  C   UNL     1      45.184  56.633  44.338  1.00  0.00    -0.000 C 
BRANCH  24  25
ATOM     25  C   UNL     1      46.489  56.721  43.529  1.00  0.00    -0.000 C 
BRANCH  25  26
ATOM     26  C   UNL     1      47.194  55.363  43.387  1.00  0.00    -0.000 C 
BRANCH  26  27
ATOM     27  C   UNL     1      48.276  55.418  42.303  1.00  0.00    -0.000 C 
BRANCH  27  28
ATOM     28  C   UNL     1      49.636  54.969  42.853  1.00  0.00    -0.000 C 
BRANCH  28  29
ATOM     29  C   UNL     1      49.578  54.788  44.375  1.00  0.00    -0.003 C 
ATOM     30  C   UNL     1      49.274  53.342  44.751  1.00  0.00     0.004 C 
ENDBRANCH  28  29
ENDBRANCH  27  28
ENDBRANCH  26  27
ENDBRANCH  25  26
ENDBRANCH  24  25
ENDBRANCH  23  24
ENDBRANCH  22  23
ENDBRANCH  21  22
ENDBRANCH  20  21
ENDBRANCH  19  20
ENDBRANCH  18  19
ENDBRANCH  17  18
ENDBRANCH   1  17
TORSDOF 26
ENDMDL
MODEL 5
REMARK VINA RESULT:    -0.728      2.742      8.213
REMARK INTER + INTRA:          -5.324
REMARK INTER:                  -2.959
REMARK INTRA:                  -2.365
REMARK UNBOUND:                -3.490
REMARK SMILES CCCCCCCCCCCCCCCCCCCCCCCCCCCC(=O)[O-]
REMARK SMILES IDX 15 1 16 2 17 3 18 4 19 5 20 6 21 7 22 8 23 9 24 10 25 11
REMARK SMILES IDX 26 12 27 13 28 14 29 15 30 16 14 17 13 18 12 19 11 20 10 21
REMARK SMILES IDX 9 22 8 23 7 24 6 25 5 26 4 27 3 28 2 29 1 30
REMARK H PARENT
REMARK Flexibility Score: inf
ROOT
ATOM      1  C   UNL     1      43.844  57.404  44.829  1.00  0.00     0.000 C 
ENDROOT
BRANCH   1   2
ATOM      2  C   UNL     1      43.987  57.993  46.245  1.00  0.00     0.000 C 
BRANCH   2   3
ATOM      3  C   UNL     1      43.695  56.981  47.376  1.00  0.00     0.000 C 
BRANCH   3   4
ATOM      4  C   UNL     1      44.913  56.768  48.293  1.00  0.00     0.000 C 
BRANCH   4   5
ATOM      5  C   UNL     1      46.245  56.825  47.527  1.00  0.00     0.000 C 
BRANCH   5   6
ATOM      6  C   UNL     1      46.669  55.450  46.980  1.00  0.00     0.000 C 
BRANCH   6   7
ATOM      7  C   UNL     1      47.649  55.557  45.797  1.00  0.00     0.000 C 
BRANCH   7   8
ATOM      8  C   UNL     1      48.401  54.253  45.461  1.00  0.00     0.000 C 
BRANCH   8   9
ATOM      9  C   UNL     1      49.753  54.445  44.747  1.00  0.00     0.000 C 
BRANCH   9  10
ATOM     10  C   UNL     1      49.842  55.695  43.846  1.00  0.00     0.000 C 
BRANCH  10  11
ATOM     11  C   UNL     1      50.024  55.400  42.346  1.00  0.00     0.000 C 
BRANCH  11  12
ATOM     12  C   UNL     1      48.686  55.297  41.597  1.00  0.00     0.006 C 
BRANCH  12  13
ATOM     13  C   UNL     1      47.546  54.929  42.550  1.00  0.00     0.053 C 
BRANCH  13  14
ATOM     14  C   UNL     1      47.198  53.479  42.416  1.00  0.00     0.041 C 
ATOM     15  O   UNL     1      46.046  53.134  42.041  1.00  0.00    -0.550 OA
ATOM     16  O   UNL     1      48.131  52.507  42.762  1.00  0.00    -0.550 OA
ENDBRANCH  13  14
ENDBRANCH  12  13
ENDBRANCH  11  12
ENDBRANCH  10  11
ENDBRANCH   9  10
ENDBRANCH   8   9
ENDBRANCH   7   8
ENDBRANCH   6   7
ENDBRANCH   5   6
ENDBRANCH   4   5
ENDBRANCH   3   4
ENDBRANCH   2   3
ENDBRANCH   1   2
BRANCH   1  17
ATOM     17  C   UNL     1      42.398  57.260  44.325  1.00  0.00     0.000 C 
BRANCH  17  18
ATOM     18  C   UNL     1      41.415  58.186  45.066  1.00  0.00     0.000 C 
BRANCH  18  19
ATOM     19  C   UNL     1      40.090  57.488  45.410  1.00  0.00     0.000 C 
BRANCH  19  20
ATOM     20  C   UNL     1      40.304  56.137  46.113  1.00  0.00     0.000 C 
BRANCH  20  21
ATOM     21  C   UNL     1      40.169  56.234  47.641  1.00  0.00     0.000 C 
BRANCH  21  22
ATOM     22  C   UNL     1      39.548  57.544  48.165  1.00  0.00    -0.000 C 
BRANCH  22  23
ATOM     23  C   UNL     1      40.050  57.960  49.566  1.00  0.00    -0.000 C 
BRANCH  23  24
ATOM     24  C   UNL     1      41.454  58.589  49.523  1.00  0.00    -0.000 C 
BRANCH  24  25
ATOM     25  C   UNL     1      41.611  59.614  48.387  1.00  0.00    -0.000 C 
BRANCH  25  26
ATOM     26  C   UNL     1      41.885  61.036  48.901  1.00  0.00    -0.000 C 
BRANCH  26  27
ATOM     27  C   UNL     1      43.202  61.091  49.685  1.00  0.00    -0.000 C 
BRANCH  27  28
ATOM     28  C   UNL     1      44.384  60.646  48.814  1.00  0.00    -0.000 C 
BRANCH  28  29
ATOM     29  C   UNL     1      45.574  60.220  49.681  1.00  0.00    -0.003 C 
ATOM     30  C   UNL     1      45.230  59.003  50.535  1.00  0.00     0.004 C 
ENDBRANCH  28  29
ENDBRANCH  27  28
ENDBRANCH  26  27
ENDBRANCH  25  26
ENDBRANCH  24  25
ENDBRANCH  23  24
ENDBRANCH  22  23
ENDBRANCH  21  22
ENDBRANCH  20  21
ENDBRANCH  19  20
ENDBRANCH  18  19
ENDBRANCH  17  18
ENDBRANCH   1  17
TORSDOF 26
ENDMDL
MODEL 6
REMARK VINA RESULT:    -0.716      0.855      2.341
REMARK INTER + INTRA:          -5.295
REMARK INTER:                  -2.035
REMARK INTRA:                  -3.259
REMARK UNBOUND:                -3.490
REMARK SMILES CCCCCCCCCCCCCCCCCCCCCCCCCCCC(=O)[O-]
REMARK SMILES IDX 15 1 16 2 17 3 18 4 19 5 20 6 21 7 22 8 23 9 24 10 25 11
REMARK SMILES IDX 26 12 27 13 28 14 29 15 30 16 14 17 13 18 12 19 11 20 10 21
REMARK SMILES IDX 9 22 8 23 7 24 6 25 5 26 4 27 3 28 2 29 1 30
REMARK H PARENT
REMARK Flexibility Score: inf
ROOT
ATOM      1  C   UNL     1      44.072  57.407  45.097  1.00  0.00     0.000 C 
ENDROOT
BRANCH   1   2
ATOM      2  C   UNL     1      42.631  57.243  44.577  1.00  0.00     0.000 C 
BRANCH   2   3
ATOM      3  C   UNL     1      41.561  57.894  45.483  1.00  0.00     0.000 C 
BRANCH   3   4
ATOM      4  C   UNL     1      40.621  56.850  46.111  1.00  0.00     0.000 C 
BRANCH   4   5
ATOM      5  C   UNL     1      40.756  56.778  47.641  1.00  0.00     0.000 C 
BRANCH   5   6
ATOM      6  C   UNL     1      40.342  58.090  48.331  1.00  0.00     0.000 C 
BRANCH   6   7
ATOM      7  C   UNL     1      41.526  58.805  49.008  1.00  0.00     0.000 C 
BRANCH   7   8
ATOM      8  C   UNL     1      41.854  60.198  48.433  1.00  0.00     0.000 C 
BRANCH   8   9
ATOM      9  C   UNL     1      42.055  61.307  49.484  1.00  0.00     0.000 C 
BRANCH   9  10
ATOM     10  C   UNL     1      43.524  61.577  49.873  1.00  0.00     0.000 C 
BRANCH  10  11
ATOM     11  C   UNL     1      44.562  61.158  48.815  1.00  0.00     0.000 C 
BRANCH  11  12
ATOM     12  C   UNL     1      45.522  60.073  49.324  1.00  0.00     0.006 C 
BRANCH  12  13
ATOM     13  C   UNL     1      44.844  59.179  50.366  1.00  0.00     0.053 C 
BRANCH  13  14
ATOM     14  C   UNL     1      45.864  58.378  51.114  1.00  0.00     0.041 C 
ATOM     15  O   UNL     1      46.763  57.755  50.491  1.00  0.00    -0.550 OA
ATOM     16  O   UNL     1      45.786  58.275  52.499  1.00  0.00    -0.550 OA
ENDBRANCH  13  14
ENDBRANCH  12  13
ENDBRANCH  11  12
ENDBRANCH  10  11
ENDBRANCH   9  10
ENDBRANCH   8   9
ENDBRANCH   7   8
ENDBRANCH   6   7
ENDBRANCH   5   6
ENDBRANCH   4   5
ENDBRANCH   3   4
ENDBRANCH   2   3
ENDBRANCH   1   2
BRANCH   1  17
ATOM     17  C   UNL     1      44.192  58.021  46.503  1.00  0.00     0.000 C 
BRANCH  17  18
ATOM     18  C   UNL     1      44.517  56.973  47.583  1.00  0.00     0.000 C 
BRANCH  18  19
ATOM     19  C   UNL     1      46.019  56.659  47.671  1.00  0.00     0.000 C 
BRANCH  19  20
ATOM     20  C   UNL     1      46.365  55.280  47.083  1.00  0.00     0.000 C 
BRANCH  20  21
ATOM     21  C   UNL     1      47.413  55.358  45.961  1.00  0.00     0.000 C 
BRANCH  21  22
ATOM     22  C   UNL     1      48.010  54.006  45.524  1.00  0.00    -0.000 C 
BRANCH  22  23
ATOM     23  C   UNL     1      49.409  54.117  44.877  1.00  0.00    -0.000 C 
BRANCH  23  24
ATOM     24  C   UNL     1      49.942  55.561  44.875  1.00  0.00    -0.000 C 
BRANCH  24  25
ATOM     25  C   UNL     1      50.518  55.979  43.512  1.00  0.00    -0.000 C 
BRANCH  25  26
ATOM     26  C   UNL     1      50.035  55.083  42.361  1.00  0.00    -0.000 C 
BRANCH  26  27
ATOM     27  C   UNL     1      48.845  55.719  41.633  1.00  0.00    -0.000 C 
BRANCH  27  28
ATOM     28  C   UNL     1      47.516  55.132  42.126  1.00  0.00    -0.000 C 
BRANCH  28  29
ATOM     29  C   UNL     1      47.616  53.610  42.289  1.00  0.00    -0.003 C 
ATOM     30  C   UNL     1      46.234  52.965  42.328  1.00  0.00     0.004 C 
ENDBRANCH  28  29
ENDBRANCH  27  28
ENDBRANCH  26  27
ENDBRANCH  25  26
ENDBRANCH  24  25
ENDBRANCH  23  24
ENDBRANCH  22  23
ENDBRANCH  21  22
ENDBRANCH  20  21
ENDBRANCH  19  20
ENDBRANCH  18  19
ENDBRANCH  17  18
ENDBRANCH   1  17
TORSDOF 26
ENDMDL
MODEL 7
REMARK VINA RESULT:    -0.623      2.690      7.904
REMARK INTER + INTRA:          -5.059
REMARK INTER:                  -2.049
REMARK INTRA:                  -3.011
REMARK UNBOUND:                -3.490
REMARK SMILES CCCCCCCCCCCCCCCCCCCCCCCCCCCC(=O)[O-]
REMARK SMILES IDX 15 1 16 2 17 3 18 4 19 5 20 6 21 7 22 8 23 9 24 10 25 11
REMARK SMILES IDX 26 12 27 13 28 14 29 15 30 16 14 17 13 18 12 19 11 20 10 21
REMARK SMILES IDX 9 22 8 23 7 24 6 25 5 26 4 27 3 28 2 29 1 30
REMARK H PARENT
REMARK Flexibility Score: inf
ROOT
ATOM      1  C   UNL     1      42.360  57.002  44.524  1.00  0.00     0.000 C 
ENDROOT
BRANCH   1   2
ATOM      2  C   UNL     1      43.754  57.641  44.668  1.00  0.00     0.000 C 
BRANCH   2   3
ATOM      3  C   UNL     1      44.049  58.187  46.084  1.00  0.00     0.000 C 
BRANCH   3   4
ATOM      4  C   UNL     1      43.407  57.323  47.184  1.00  0.00     0.000 C 
BRANCH   4   5
ATOM      5  C   UNL     1      44.243  57.290  48.473  1.00  0.00     0.000 C 
BRANCH   5   6
ATOM      6  C   UNL     1      45.755  57.378  48.198  1.00  0.00     0.000 C 
BRANCH   6   7
ATOM      7  C   UNL     1      46.386  56.006  47.900  1.00  0.00     0.000 C 
BRANCH   7   8
ATOM      8  C   UNL     1      46.709  55.752  46.413  1.00  0.00     0.000 C 
BRANCH   8   9
ATOM      9  C   UNL     1      47.537  54.483  46.133  1.00  0.00     0.000 C 
BRANCH   9  10
ATOM     10  C   UNL     1      48.581  54.624  45.004  1.00  0.00     0.000 C 
BRANCH  10  11
ATOM     11  C   UNL     1      49.162  53.293  44.491  1.00  0.00     0.000 C 
BRANCH  11  12
ATOM     12  C   UNL     1      48.843  53.041  43.009  1.00  0.00     0.006 C 
BRANCH  12  13
ATOM     13  C   UNL     1      47.969  54.160  42.434  1.00  0.00     0.053 C 
BRANCH  13  14
ATOM     14  C   UNL     1      48.803  55.358  42.102  1.00  0.00     0.041 C 
ATOM     15  O   UNL     1      48.271  56.496  42.006  1.00  0.00    -0.550 OA
ATOM     16  O   UNL     1      50.161  55.208  41.842  1.00  0.00    -0.550 OA
ENDBRANCH  13  14
ENDBRANCH  12  13
ENDBRANCH  11  12
ENDBRANCH  10  11
ENDBRANCH   9  10
ENDBRANCH   8   9
ENDBRANCH   7   8
ENDBRANCH   6   7
ENDBRANCH   5   6
ENDBRANCH   4   5
ENDBRANCH   3   4
ENDBRANCH   2   3
ENDBRANCH   1   2
BRANCH   1  17
ATOM     17  C   UNL     1      41.181  57.989  44.577  1.00  0.00     0.000 C 
BRANCH  17  18
ATOM     18  C   UNL     1      40.058  57.525  45.522  1.00  0.00     0.000 C 
BRANCH  18  19
ATOM     19  C   UNL     1      40.368  56.178  46.193  1.00  0.00     0.000 C 
BRANCH  19  20
ATOM     20  C   UNL     1      39.716  56.050  47.581  1.00  0.00     0.000 C 
BRANCH  20  21
ATOM     21  C   UNL     1      39.318  57.409  48.178  1.00  0.00     0.000 C 
BRANCH  21  22
ATOM     22  C   UNL     1      39.960  57.743  49.539  1.00  0.00    -0.000 C 
BRANCH  22  23
ATOM     23  C   UNL     1      41.105  58.776  49.456  1.00  0.00    -0.000 C 
BRANCH  23  24
ATOM     24  C   UNL     1      41.110  59.541  48.120  1.00  0.00    -0.000 C 
BRANCH  24  25
ATOM     25  C   UNL     1      42.154  60.670  48.086  1.00  0.00    -0.000 C 
BRANCH  25  26
ATOM     26  C   UNL     1      42.444  61.254  49.477  1.00  0.00    -0.000 C 
BRANCH  26  27
ATOM     27  C   UNL     1      43.827  60.821  49.977  1.00  0.00    -0.000 C 
BRANCH  27  28
ATOM     28  C   UNL     1      44.870  60.897  48.855  1.00  0.00    -0.000 C 
BRANCH  28  29
ATOM     29  C   UNL     1      45.992  61.877  49.214  1.00  0.00    -0.003 C 
ATOM     30  C   UNL     1      46.177  62.931  48.127  1.00  0.00     0.004 C 
ENDBRANCH  28  29
ENDBRANCH  27  28
ENDBRANCH  26  27
ENDBRANCH  25  26
ENDBRANCH  24  25
ENDBRANCH  23  24
ENDBRANCH  22  23
ENDBRANCH  21  22
ENDBRANCH  20  21
ENDBRANCH  19  20
ENDBRANCH  18  19
ENDBRANCH  17  18
ENDBRANCH   1  17
TORSDOF 26
ENDMDL
MODEL 8
REMARK VINA RESULT:    -0.537      1.781      4.604
REMARK INTER + INTRA:          -4.843
REMARK INTER:                  -2.198
REMARK INTRA:                  -2.645
REMARK UNBOUND:                -3.490
REMARK SMILES CCCCCCCCCCCCCCCCCCCCCCCCCCCC(=O)[O-]
REMARK SMILES IDX 15 1 16 2 17 3 18 4 19 5 20 6 21 7 22 8 23 9 24 10 25 11
REMARK SMILES IDX 26 12 27 13 28 14 29 15 30 16 14 17 13 18 12 19 11 20 10 21
REMARK SMILES IDX 9 22 8 23 7 24 6 25 5 26 4 27 3 28 2 29 1 30
REMARK H PARENT
REMARK Flexibility Score: inf
ROOT
ATOM      1  C   UNL     1      44.361  62.007  49.405  1.00  0.00     0.000 C 
ENDROOT
BRANCH   1   2
ATOM      2  C   UNL     1      43.003  61.644  50.035  1.00  0.00     0.000 C 
BRANCH   2   3
ATOM      3  C   UNL     1      41.860  61.482  49.007  1.00  0.00     0.000 C 
BRANCH   3   4
ATOM      4  C   UNL     1      41.874  60.095  48.340  1.00  0.00     0.000 C 
BRANCH   4   5
ATOM      5  C   UNL     1      42.340  58.984  49.294  1.00  0.00     0.000 C 
BRANCH   5   6
ATOM      6  C   UNL     1      41.486  57.709  49.176  1.00  0.00     0.000 C 
BRANCH   6   7
ATOM      7  C   UNL     1      39.974  58.001  49.200  1.00  0.00     0.000 C 
BRANCH   7   8
ATOM      8  C   UNL     1      39.142  57.181  48.192  1.00  0.00     0.000 C 
BRANCH   8   9
ATOM      9  C   UNL     1      39.865  55.960  47.590  1.00  0.00     0.000 C 
BRANCH   9  10
ATOM     10  C   UNL     1      40.013  55.983  46.053  1.00  0.00     0.000 C 
BRANCH  10  11
ATOM     11  C   UNL     1      39.883  57.376  45.411  1.00  0.00     0.000 C 
BRANCH  11  12
ATOM     12  C   UNL     1      41.192  58.179  45.469  1.00  0.00     0.006 C 
BRANCH  12  13
ATOM     13  C   UNL     1      42.408  57.250  45.522  1.00  0.00     0.053 C 
BRANCH  13  14
ATOM     14  C   UNL     1      43.655  57.998  45.169  1.00  0.00     0.041 C 
ATOM     15  O   UNL     1      44.407  57.582  44.248  1.00  0.00    -0.550 OA
ATOM     16  O   UNL     1      44.017  59.127  45.898  1.00  0.00    -0.550 OA
ENDBRANCH  13  14
ENDBRANCH  12  13
ENDBRANCH  11  12
ENDBRANCH  10  11
ENDBRANCH   9  10
ENDBRANCH   8   9
ENDBRANCH   7   8
ENDBRANCH   6   7
ENDBRANCH   5   6
ENDBRANCH   4   5
ENDBRANCH   3   4
ENDBRANCH   2   3
ENDBRANCH   1   2
BRANCH   1  17
ATOM     17  C   UNL     1      45.293  60.813  49.131  1.00  0.00     0.000 C 
BRANCH  17  18
ATOM     18  C   UNL     1      45.482  59.911  50.364  1.00  0.00     0.000 C 
BRANCH  18  19
ATOM     19  C   UNL     1      45.574  58.421  49.999  1.00  0.00     0.000 C 
BRANCH  19  20
ATOM     20  C   UNL     1      45.664  58.194  48.480  1.00  0.00     0.000 C 
BRANCH  20  21
ATOM     21  C   UNL     1      45.080  56.840  48.045  1.00  0.00     0.000 C 
BRANCH  21  22
ATOM     22  C   UNL     1      46.120  55.758  47.696  1.00  0.00    -0.000 C 
BRANCH  22  23
ATOM     23  C   UNL     1      47.049  56.135  46.520  1.00  0.00    -0.000 C 
BRANCH  23  24
ATOM     24  C   UNL     1      47.386  54.928  45.627  1.00  0.00    -0.000 C 
BRANCH  24  25
ATOM     25  C   UNL     1      48.835  54.956  45.114  1.00  0.00    -0.000 C 
BRANCH  25  26
ATOM     26  C   UNL     1      49.378  53.556  44.787  1.00  0.00    -0.000 C 
BRANCH  26  27
ATOM     27  C   UNL     1      49.376  53.307  43.274  1.00  0.00    -0.000 C 
BRANCH  27  28
ATOM     28  C   UNL     1      47.946  53.147  42.741  1.00  0.00    -0.000 C 
BRANCH  28  29
ATOM     29  C   UNL     1      47.492  54.413  42.003  1.00  0.00    -0.003 C 
ATOM     30  C   UNL     1      48.655  55.374  41.782  1.00  0.00     0.004 C 
ENDBRANCH  28  29
ENDBRANCH  27  28
ENDBRANCH  26  27
ENDBRANCH  25  26
ENDBRANCH  24  25
ENDBRANCH  23  24
ENDBRANCH  22  23
ENDBRANCH  21  22
ENDBRANCH  20  21
ENDBRANCH  19  20
ENDBRANCH  18  19
ENDBRANCH  17  18
ENDBRANCH   1  17
TORSDOF 26
ENDMDL
MODEL 9
REMARK VINA RESULT:    -0.487      3.906      6.463
REMARK INTER + INTRA:          -4.717
REMARK INTER:                  -0.986
REMARK INTRA:                  -3.731
REMARK UNBOUND:                -3.490
REMARK SMILES CCCCCCCCCCCCCCCCCCCCCCCCCCCC(=O)[O-]
REMARK SMILES IDX 15 1 16 2 17 3 18 4 19 5 20 6 21 7 22 8 23 9 24 10 25 11
REMARK SMILES IDX 26 12 27 13 28 14 29 15 30 16 14 17 13 18 12 19 11 20 10 21
REMARK SMILES IDX 9 22 8 23 7 24 6 25 5 26 4 27 3 28 2 29 1 30
REMARK H PARENT
REMARK Flexibility Score: inf
ROOT
ATOM      1  C   UNL     1      40.038  56.037  47.758  1.00  0.00     0.000 C 
ENDROOT
BRANCH   1   2
ATOM      2  C   UNL     1      39.150  57.225  48.173  1.00  0.00     0.000 C 
BRANCH   2   3
ATOM      3  C   UNL     1      39.740  58.077  49.320  1.00  0.00     0.000 C 
BRANCH   3   4
ATOM      4  C   UNL     1      41.212  57.730  49.601  1.00  0.00     0.000 C 
BRANCH   4   5
ATOM      5  C   UNL     1      42.176  58.842  49.157  1.00  0.00     0.000 C 
BRANCH   5   6
ATOM      6  C   UNL     1      41.512  59.851  48.204  1.00  0.00     0.000 C 
BRANCH   6   7
ATOM      7  C   UNL     1      41.886  61.310  48.528  1.00  0.00     0.000 C 
BRANCH   7   8
ATOM      8  C   UNL     1      41.687  61.714  50.004  1.00  0.00     0.000 C 
BRANCH   8   9
ATOM      9  C   UNL     1      40.304  61.375  50.592  1.00  0.00     0.000 C 
BRANCH   9  10
ATOM     10  C   UNL     1      39.270  62.519  50.524  1.00  0.00     0.000 C 
BRANCH  10  11
ATOM     11  C   UNL     1      38.562  62.831  51.855  1.00  0.00     0.000 C 
BRANCH  11  12
ATOM     12  C   UNL     1      37.292  63.676  51.667  1.00  0.00     0.006 C 
BRANCH  12  13
ATOM     13  C   UNL     1      36.093  63.037  52.374  1.00  0.00     0.053 C 
BRANCH  13  14
ATOM     14  C   UNL     1      36.049  61.566  52.102  1.00  0.00     0.041 C 
ATOM     15  O   UNL     1      35.756  61.140  50.954  1.00  0.00    -0.550 OA
ATOM     16  O   UNL     1      36.275  60.662  53.136  1.00  0.00    -0.550 OA
ENDBRANCH  13  14
ENDBRANCH  12  13
ENDBRANCH  11  12
ENDBRANCH  10  11
ENDBRANCH   9  10
ENDBRANCH   8   9
ENDBRANCH   7   8
ENDBRANCH   6   7
ENDBRANCH   5   6
ENDBRANCH   4   5
ENDBRANCH   3   4
ENDBRANCH   2   3
ENDBRANCH   1   2
BRANCH   1  17
ATOM     17  C   UNL     1      40.757  56.200  46.408  1.00  0.00     0.000 C 
BRANCH  17  18
ATOM     18  C   UNL     1      40.335  57.478  45.660  1.00  0.00     0.000 C 
BRANCH  18  19
ATOM     19  C   UNL     1      41.514  58.167  44.954  1.00  0.00     0.000 C 
BRANCH  19  20
ATOM     20  C   UNL     1      42.611  57.172  44.537  1.00  0.00     0.000 C 
BRANCH  20  21
ATOM     21  C   UNL     1      44.017  57.623  44.966  1.00  0.00     0.000 C 
BRANCH  21  22
ATOM     22  C   UNL     1      44.150  58.046  46.443  1.00  0.00    -0.000 C 
BRANCH  22  23
ATOM     23  C   UNL     1      44.149  56.864  47.437  1.00  0.00    -0.000 C 
BRANCH  23  24
ATOM     24  C   UNL     1      45.568  56.479  47.893  1.00  0.00    -0.000 C 
BRANCH  24  25
ATOM     25  C   UNL     1      46.219  57.556  48.776  1.00  0.00    -0.000 C 
BRANCH  25  26
ATOM     26  C   UNL     1      45.255  58.129  49.825  1.00  0.00    -0.000 C 
BRANCH  26  27
ATOM     27  C   UNL     1      45.599  59.589  50.146  1.00  0.00    -0.000 C 
BRANCH  27  28
ATOM     28  C   UNL     1      45.364  60.494  48.930  1.00  0.00    -0.000 C 
BRANCH  28  29
ATOM     29  C   UNL     1      45.436  61.973  49.325  1.00  0.00    -0.003 C 
ATOM     30  C   UNL     1      46.089  62.809  48.228  1.00  0.00     0.004 C 
ENDBRANCH  28  29
ENDBRANCH  27  28
ENDBRANCH  26  27
ENDBRANCH  25  26
ENDBRANCH  24  25
ENDBRANCH  23  24
ENDBRANCH  22  23
ENDBRANCH  21  22
ENDBRANCH  20  21
ENDBRANCH  19  20
ENDBRANCH  18  19
ENDBRANCH  17  18
ENDBRANCH   1  17
TORSDOF 26
ENDMDL
