MODEL 1
REMARK VINA RESULT:    -6.287      0.000      0.000
REMARK INTER + INTRA:          -9.661
REMARK INTER:                  -8.676
REMARK INTRA:                  -0.985
REMARK UNBOUND:                -0.985
REMARK SMILES CC[C@@H](CC[C@@H](C)[C@H]1CC[C@H]2C3=CC[C@@H]4C[C@H](O)CC[C@]4(C)[C@@H]3CC[C@@]12C)C(C)C
REMARK SMILES IDX 5 1 4 2 3 3 2 4 1 5 28 6 29 7 30 8 6 9 7 10 8 11 9 12 26 13
REMARK SMILES IDX 10 14 11 15 25 16 27 17 12 18 24 19 23 20 13 21 21 22 14 23
REMARK SMILES IDX 15 24 20 25 22 26 16 27 19 28 17 29 18 30
REMARK H PARENT 18 31
REMARK Flexibility Score: inf
ROOT
ATOM      1  C   UNL     1      41.767  11.181   3.173  1.00  0.00     0.004 C 
ENDROOT
BRANCH   1   2
ATOM      2  C   UNL     1      40.986  10.221   2.241  1.00  0.00     0.004 C 
BRANCH   2   3
ATOM      3  C   UNL     1      41.552  10.171   0.789  1.00  0.00    -0.009 C 
BRANCH   3   4
ATOM      4  C   UNL     1      40.753  11.162  -0.105  1.00  0.00     0.000 C 
ATOM      5  C   UNL     1      39.852  12.125   0.664  1.00  0.00     0.004 C 
ENDBRANCH   3   4
BRANCH   3   6
ATOM      6  C   UNL     1      41.598   8.690   0.274  1.00  0.00    -0.014 C 
ATOM      7  C   UNL     1      40.991   7.678   1.257  1.00  0.00     0.007 C 
ATOM      8  C   UNL     1      41.006   8.511  -1.134  1.00  0.00     0.007 C 
ENDBRANCH   3   6
ENDBRANCH   2   3
ENDBRANCH   1   2
BRANCH   1   9
ATOM      9  C   UNL     1      41.667  10.792   4.675  1.00  0.00    -0.011 C 
ATOM     10  C   UNL     1      42.824  11.435   5.466  1.00  0.00     0.008 C 
BRANCH   9  11
ATOM     11  C   UNL     1      40.292  11.121   5.368  1.00  0.00    -0.002 C 
ATOM     12  C   UNL     1      39.258  11.912   4.551  1.00  0.00     0.005 C 
ATOM     13  C   UNL     1      39.501   9.930   5.972  1.00  0.00    -0.023 C 
ATOM     14  C   UNL     1      37.904  11.659   5.229  1.00  0.00     0.009 C 
ATOM     15  C   UNL     1      38.160  10.616   6.334  1.00  0.00     0.021 C 
ATOM     16  C   UNL     1      39.292   8.771   4.935  1.00  0.00     0.008 C 
ATOM     17  C   UNL     1      40.196   9.386   7.245  1.00  0.00     0.012 C 
ATOM     18  C   UNL     1      37.056   9.595   6.537  1.00  0.00    -0.067 C 
ATOM     19  C   UNL     1      38.145   7.802   5.298  1.00  0.00     0.009 C 
ATOM     20  C   UNL     1      36.818   8.589   5.428  1.00  0.00     0.021 C 
ATOM     21  C   UNL     1      36.706   9.277   7.800  1.00  0.00    -0.027 C 
ATOM     22  C   UNL     1      35.450   7.782   5.597  1.00  0.00    -0.023 C 
ATOM     23  C   UNL     1      36.112   7.937   8.108  1.00  0.00     0.031 C 
ATOM     24  C   UNL     1      34.996   7.626   7.110  1.00  0.00     0.002 C 
ATOM     25  C   UNL     1      35.477   6.395   4.871  1.00  0.00     0.010 C 
ATOM     26  C   UNL     1      34.351   8.619   4.883  1.00  0.00     0.012 C 
ATOM     27  C   UNL     1      34.326   6.268   7.414  1.00  0.00     0.036 C 
ATOM     28  C   UNL     1      36.026   5.267   5.752  1.00  0.00     0.032 C 
ATOM     29  C   UNL     1      35.182   5.044   7.021  1.00  0.00     0.114 C 
BRANCH  29  30
ATOM     30  O   UNL     1      36.024   4.696   8.093  1.00  0.00    -0.393 OA
ATOM     31  H   UNL     1      36.959   4.857   7.801  1.00  0.00     0.210 HD
ENDBRANCH  29  30
ENDBRANCH   9  11
ENDBRANCH   1   9
TORSDOF 7
ENDMDL
MODEL 2
REMARK VINA RESULT:    -5.312      9.275     14.857
REMARK INTER + INTRA:          -8.316
REMARK INTER:                  -7.137
REMARK INTRA:                  -1.180
REMARK UNBOUND:                -0.985
REMARK SMILES CC[C@@H](CC[C@@H](C)[C@H]1CC[C@H]2C3=CC[C@@H]4C[C@H](O)CC[C@]4(C)[C@@H]3CC[C@@]12C)C(C)C
REMARK SMILES IDX 5 1 4 2 3 3 2 4 1 5 28 6 29 7 30 8 6 9 7 10 8 11 9 12 26 13
REMARK SMILES IDX 10 14 11 15 25 16 27 17 12 18 24 19 23 20 13 21 21 22 14 23
REMARK SMILES IDX 15 24 20 25 22 26 16 27 19 28 17 29 18 30
REMARK H PARENT 18 31
REMARK Flexibility Score: inf
ROOT
ATOM      1  C   UNL     1      43.343   8.317  -6.304  1.00  0.00     0.004 C 
ENDROOT
BRANCH   1   2
ATOM      2  C   UNL     1      42.634   9.281  -5.321  1.00  0.00     0.004 C 
BRANCH   2   3
ATOM      3  C   UNL     1      41.842   8.548  -4.196  1.00  0.00    -0.009 C 
BRANCH   3   4
ATOM      4  C   UNL     1      40.327   8.869  -4.345  1.00  0.00     0.000 C 
ATOM      5  C   UNL     1      39.758   8.612  -5.738  1.00  0.00     0.004 C 
ENDBRANCH   3   4
BRANCH   3   6
ATOM      6  C   UNL     1      42.463   8.875  -2.793  1.00  0.00    -0.014 C 
ATOM      7  C   UNL     1      41.620   8.365  -1.614  1.00  0.00     0.007 C 
ATOM      8  C   UNL     1      43.928   8.432  -2.652  1.00  0.00     0.007 C 
ENDBRANCH   3   6
ENDBRANCH   2   3
ENDBRANCH   1   2
BRANCH   1   9
ATOM      9  C   UNL     1      42.881   8.494  -7.778  1.00  0.00    -0.011 C 
ATOM     10  C   UNL     1      43.581   9.715  -8.408  1.00  0.00     0.008 C 
BRANCH   9  11
ATOM     11  C   UNL     1      43.066   7.231  -8.700  1.00  0.00    -0.002 C 
ATOM     12  C   UNL     1      43.719   5.987  -8.076  1.00  0.00     0.005 C 
ATOM     13  C   UNL     1      41.806   6.699  -9.431  1.00  0.00    -0.023 C 
ATOM     14  C   UNL     1      43.327   4.809  -8.979  1.00  0.00     0.009 C 
ATOM     15  C   UNL     1      42.343   5.370 -10.022  1.00  0.00     0.021 C 
ATOM     16  C   UNL     1      40.610   6.448  -8.447  1.00  0.00     0.008 C 
ATOM     17  C   UNL     1      41.369   7.661 -10.564  1.00  0.00     0.012 C 
ATOM     18  C   UNL     1      41.207   4.443 -10.414  1.00  0.00    -0.067 C 
ATOM     19  C   UNL     1      39.525   5.500  -9.003  1.00  0.00     0.009 C 
ATOM     20  C   UNL     1      40.159   4.134  -9.363  1.00  0.00     0.021 C 
ATOM     21  C   UNL     1      40.877   4.355 -11.718  1.00  0.00    -0.027 C 
ATOM     22  C   UNL     1      39.206   2.917  -9.767  1.00  0.00    -0.023 C 
ATOM     23  C   UNL     1      39.484   3.981 -12.124  1.00  0.00     0.031 C 
ATOM     24  C   UNL     1      39.029   2.753 -11.336  1.00  0.00     0.002 C 
ATOM     25  C   UNL     1      37.817   2.977  -9.047  1.00  0.00     0.010 C 
ATOM     26  C   UNL     1      39.900   1.623  -9.256  1.00  0.00     0.012 C 
ATOM     27  C   UNL     1      37.610   2.306 -11.751  1.00  0.00     0.036 C 
ATOM     28  C   UNL     1      36.776   3.796  -9.818  1.00  0.00     0.032 C 
ATOM     29  C   UNL     1      36.483   3.216 -11.216  1.00  0.00     0.114 C 
BRANCH  29  30
ATOM     30  O   UNL     1      36.254   4.266 -12.124  1.00  0.00    -0.393 OA
ATOM     31  H   UNL     1      35.683   3.909 -12.853  1.00  0.00     0.210 HD
ENDBRANCH  29  30
ENDBRANCH   9  11
ENDBRANCH   1   9
TORSDOF 7
ENDMDL
MODEL 3
REMARK VINA RESULT:    -4.895     12.721     15.773
REMARK INTER + INTRA:          -7.740
REMARK INTER:                  -6.139
REMARK INTRA:                  -1.601
REMARK UNBOUND:                -0.985
REMARK SMILES CC[C@@H](CC[C@@H](C)[C@H]1CC[C@H]2C3=CC[C@@H]4C[C@H](O)CC[C@]4(C)[C@@H]3CC[C@@]12C)C(C)C
REMARK SMILES IDX 5 1 4 2 3 3 2 4 1 5 28 6 29 7 30 8 6 9 7 10 8 11 9 12 26 13
REMARK SMILES IDX 10 14 11 15 25 16 27 17 12 18 24 19 23 20 13 21 21 22 14 23
REMARK SMILES IDX 15 24 20 25 22 26 16 27 19 28 17 29 18 30
REMARK H PARENT 18 31
REMARK Flexibility Score: inf
ROOT
ATOM      1  C   UNL     1      39.723   1.597  -8.291  1.00  0.00     0.004 C 
ENDROOT
BRANCH   1   2
ATOM      2  C   UNL     1      41.248   1.661  -8.560  1.00  0.00     0.004 C 
BRANCH   2   3
ATOM      3  C   UNL     1      42.043   2.399  -7.441  1.00  0.00    -0.009 C 
BRANCH   3   4
ATOM      4  C   UNL     1      43.369   2.953  -8.039  1.00  0.00     0.000 C 
ATOM      5  C   UNL     1      43.624   2.557  -9.491  1.00  0.00     0.004 C 
ENDBRANCH   3   4
BRANCH   3   6
ATOM      6  C   UNL     1      42.209   1.471  -6.187  1.00  0.00    -0.014 C 
ATOM      7  C   UNL     1      43.670   1.282  -5.750  1.00  0.00     0.007 C 
ATOM      8  C   UNL     1      41.329   1.885  -4.997  1.00  0.00     0.007 C 
ENDBRANCH   3   6
ENDBRANCH   2   3
ENDBRANCH   1   2
BRANCH   1   9
ATOM      9  C   UNL     1      38.904   2.582  -9.173  1.00  0.00    -0.011 C 
ATOM     10  C   UNL     1      37.530   1.970  -9.512  1.00  0.00     0.008 C 
BRANCH   9  11
ATOM     11  C   UNL     1      38.719   4.028  -8.578  1.00  0.00    -0.002 C 
ATOM     12  C   UNL     1      39.009   4.220  -7.080  1.00  0.00     0.005 C 
ATOM     13  C   UNL     1      39.471   5.186  -9.285  1.00  0.00    -0.023 C 
ATOM     14  C   UNL     1      39.241   5.726  -6.888  1.00  0.00     0.009 C 
ATOM     15  C   UNL     1      39.221   6.352  -8.295  1.00  0.00     0.021 C 
ATOM     16  C   UNL     1      41.003   4.887  -9.446  1.00  0.00     0.008 C 
ATOM     17  C   UNL     1      38.842   5.499 -10.666  1.00  0.00     0.012 C 
ATOM     18  C   UNL     1      40.205   7.486  -8.520  1.00  0.00    -0.067 C 
ATOM     19  C   UNL     1      41.866   6.144  -9.693  1.00  0.00     0.009 C 
ATOM     20  C   UNL     1      41.681   7.142  -8.524  1.00  0.00     0.021 C 
ATOM     21  C   UNL     1      39.780   8.574  -9.193  1.00  0.00    -0.027 C 
ATOM     22  C   UNL     1      42.624   8.430  -8.446  1.00  0.00    -0.023 C 
ATOM     23  C   UNL     1      40.752   9.421  -9.956  1.00  0.00     0.031 C 
ATOM     24  C   UNL     1      41.967   9.728  -9.080  1.00  0.00     0.002 C 
ATOM     25  C   UNL     1      44.047   8.170  -9.044  1.00  0.00     0.010 C 
ATOM     26  C   UNL     1      42.840   8.729  -6.936  1.00  0.00     0.012 C 
ATOM     27  C   UNL     1      42.980  10.634  -9.814  1.00  0.00     0.036 C 
ATOM     28  C   UNL     1      44.125   8.443 -10.550  1.00  0.00     0.032 C 
ATOM     29  C   UNL     1      43.798   9.908 -10.903  1.00  0.00     0.114 C 
BRANCH  29  30
ATOM     30  O   UNL     1      43.102   9.954 -12.125  1.00  0.00    -0.393 OA
ATOM     31  H   UNL     1      42.692   9.062 -12.267  1.00  0.00     0.210 HD
ENDBRANCH  29  30
ENDBRANCH   9  11
ENDBRANCH   1   9
TORSDOF 7
ENDMDL
MODEL 4
REMARK VINA RESULT:    -4.581      8.670     14.459
REMARK INTER + INTRA:          -7.307
REMARK INTER:                  -7.524
REMARK INTRA:                   0.216
REMARK UNBOUND:                -0.985
REMARK SMILES CC[C@@H](CC[C@@H](C)[C@H]1CC[C@H]2C3=CC[C@@H]4C[C@H](O)CC[C@]4(C)[C@@H]3CC[C@@]12C)C(C)C
REMARK SMILES IDX 5 1 4 2 3 3 2 4 1 5 28 6 29 7 30 8 6 9 7 10 8 11 9 12 26 13
REMARK SMILES IDX 10 14 11 15 25 16 27 17 12 18 24 19 23 20 13 21 21 22 14 23
REMARK SMILES IDX 15 24 20 25 22 26 16 27 19 28 17 29 18 30
REMARK H PARENT 18 31
REMARK Flexibility Score: inf
ROOT
ATOM      1  C   UNL     1      42.014   8.780  -5.427  1.00  0.00     0.004 C 
ENDROOT
BRANCH   1   2
ATOM      2  C   UNL     1      42.499   8.895  -3.961  1.00  0.00     0.004 C 
BRANCH   2   3
ATOM      3  C   UNL     1      41.355   8.725  -2.915  1.00  0.00    -0.009 C 
BRANCH   3   4
ATOM      4  C   UNL     1      40.076   9.441  -3.436  1.00  0.00     0.000 C 
ATOM      5  C   UNL     1      39.113   8.539  -4.205  1.00  0.00     0.004 C 
ENDBRANCH   3   4
BRANCH   3   6
ATOM      6  C   UNL     1      41.845   9.176  -1.495  1.00  0.00    -0.014 C 
ATOM      7  C   UNL     1      40.949  10.241  -0.845  1.00  0.00     0.007 C 
ATOM      8  C   UNL     1      42.094   8.005  -0.531  1.00  0.00     0.007 C 
ENDBRANCH   3   6
ENDBRANCH   2   3
ENDBRANCH   1   2
BRANCH   1   9
ATOM      9  C   UNL     1      43.179   8.721  -6.455  1.00  0.00    -0.011 C 
ATOM     10  C   UNL     1      44.125   7.552  -6.117  1.00  0.00     0.008 C 
BRANCH   9  11
ATOM     11  C   UNL     1      42.743   8.641  -7.967  1.00  0.00    -0.002 C 
ATOM     12  C   UNL     1      43.848   8.424  -9.013  1.00  0.00     0.005 C 
ATOM     13  C   UNL     1      41.638   7.614  -8.330  1.00  0.00    -0.023 C 
ATOM     14  C   UNL     1      43.140   7.896 -10.268  1.00  0.00     0.009 C 
ATOM     15  C   UNL     1      41.665   7.684  -9.878  1.00  0.00     0.021 C 
ATOM     16  C   UNL     1      41.976   6.172  -7.814  1.00  0.00     0.008 C 
ATOM     17  C   UNL     1      40.258   8.064  -7.789  1.00  0.00     0.012 C 
ATOM     18  C   UNL     1      40.993   6.471 -10.496  1.00  0.00    -0.067 C 
ATOM     19  C   UNL     1      41.191   5.049  -8.527  1.00  0.00     0.009 C 
ATOM     20  C   UNL     1      41.470   5.103 -10.049  1.00  0.00     0.021 C 
ATOM     21  C   UNL     1      39.739   6.609 -10.970  1.00  0.00    -0.027 C 
ATOM     22  C   UNL     1      40.935   3.919 -10.980  1.00  0.00    -0.023 C 
ATOM     23  C   UNL     1      38.817   5.429 -11.031  1.00  0.00     0.031 C 
ATOM     24  C   UNL     1      39.541   4.243 -11.668  1.00  0.00     0.002 C 
ATOM     25  C   UNL     1      40.889   2.543 -10.234  1.00  0.00     0.010 C 
ATOM     26  C   UNL     1      41.973   3.753 -12.125  1.00  0.00     0.012 C 
ATOM     27  C   UNL     1      38.615   3.012 -11.788  1.00  0.00     0.036 C 
ATOM     28  C   UNL     1      39.566   2.303  -9.498  1.00  0.00     0.032 C 
ATOM     29  C   UNL     1      38.354   2.289 -10.450  1.00  0.00     0.114 C 
BRANCH  29  30
ATOM     30  O   UNL     1      37.244   2.871  -9.809  1.00  0.00    -0.393 OA
ATOM     31  H   UNL     1      37.534   3.751  -9.454  1.00  0.00     0.210 HD
ENDBRANCH  29  30
ENDBRANCH   9  11
ENDBRANCH   1   9
TORSDOF 7
ENDMDL
MODEL 5
REMARK VINA RESULT:    -4.157     13.368     16.519
REMARK INTER + INTRA:          -6.722
REMARK INTER:                  -5.887
REMARK INTRA:                  -0.834
REMARK UNBOUND:                -0.985
REMARK SMILES CC[C@@H](CC[C@@H](C)[C@H]1CC[C@H]2C3=CC[C@@H]4C[C@H](O)CC[C@]4(C)[C@@H]3CC[C@@]12C)C(C)C
REMARK SMILES IDX 5 1 4 2 3 3 2 4 1 5 28 6 29 7 30 8 6 9 7 10 8 11 9 12 26 13
REMARK SMILES IDX 10 14 11 15 25 16 27 17 12 18 24 19 23 20 13 21 21 22 14 23
REMARK SMILES IDX 15 24 20 25 22 26 16 27 19 28 17 29 18 30
REMARK H PARENT 18 31
REMARK Flexibility Score: inf
ROOT
ATOM      1  C   UNL     1      40.199   1.664  -8.023  1.00  0.00     0.004 C 
ENDROOT
BRANCH   1   2
ATOM      2  C   UNL     1      41.651   1.179  -7.793  1.00  0.00     0.004 C 
BRANCH   2   3
ATOM      3  C   UNL     1      42.623   2.317  -7.356  1.00  0.00    -0.009 C 
BRANCH   3   4
ATOM      4  C   UNL     1      43.918   2.241  -8.214  1.00  0.00     0.000 C 
ATOM      5  C   UNL     1      43.809   2.901  -9.587  1.00  0.00     0.004 C 
ENDBRANCH   3   4
BRANCH   3   6
ATOM      6  C   UNL     1      42.844   2.277  -5.803  1.00  0.00    -0.014 C 
ATOM      7  C   UNL     1      41.618   1.781  -5.020  1.00  0.00     0.007 C 
ATOM      8  C   UNL     1      44.109   1.512  -5.383  1.00  0.00     0.007 C 
ENDBRANCH   3   6
ENDBRANCH   2   3
ENDBRANCH   1   2
BRANCH   1   9
ATOM      9  C   UNL     1      39.736   1.536  -9.502  1.00  0.00    -0.011 C 
ATOM     10  C   UNL     1      38.794   0.326  -9.659  1.00  0.00     0.008 C 
BRANCH   9  11
ATOM     11  C   UNL     1      39.067   2.823 -10.114  1.00  0.00    -0.002 C 
ATOM     12  C   UNL     1      37.934   3.483  -9.312  1.00  0.00     0.005 C 
ATOM     13  C   UNL     1      40.009   3.990 -10.512  1.00  0.00    -0.023 C 
ATOM     14  C   UNL     1      37.823   4.918  -9.844  1.00  0.00     0.009 C 
ATOM     15  C   UNL     1      38.983   5.103 -10.840  1.00  0.00     0.021 C 
ATOM     16  C   UNL     1      40.959   4.412  -9.336  1.00  0.00     0.008 C 
ATOM     17  C   UNL     1      40.844   3.631 -11.767  1.00  0.00     0.012 C 
ATOM     18  C   UNL     1      39.637   6.474 -10.835  1.00  0.00    -0.067 C 
ATOM     19  C   UNL     1      41.563   5.825  -9.492  1.00  0.00     0.009 C 
ATOM     20  C   UNL     1      40.425   6.869  -9.603  1.00  0.00     0.021 C 
ATOM     21  C   UNL     1      39.939   7.039 -12.021  1.00  0.00    -0.027 C 
ATOM     22  C   UNL     1      40.792   8.424  -9.567  1.00  0.00    -0.023 C 
ATOM     23  C   UNL     1      41.058   8.030 -12.124  1.00  0.00     0.031 C 
ATOM     24  C   UNL     1      40.931   9.070 -11.011  1.00  0.00     0.002 C 
ATOM     25  C   UNL     1      42.056   8.724  -8.692  1.00  0.00     0.010 C 
ATOM     26  C   UNL     1      39.605   9.143  -8.867  1.00  0.00     0.012 C 
ATOM     27  C   UNL     1      42.044  10.137 -11.102  1.00  0.00     0.036 C 
ATOM     28  C   UNL     1      43.367   8.630  -9.480  1.00  0.00     0.032 C 
ATOM     29  C   UNL     1      43.431   9.639 -10.643  1.00  0.00     0.114 C 
BRANCH  29  30
ATOM     30  O   UNL     1      44.107   9.060 -11.733  1.00  0.00    -0.393 OA
ATOM     31  H   UNL     1      44.957   8.680 -11.389  1.00  0.00     0.210 HD
ENDBRANCH  29  30
ENDBRANCH   9  11
ENDBRANCH   1   9
TORSDOF 7
ENDMDL
MODEL 6
REMARK VINA RESULT:    -4.006      2.603      6.897
REMARK INTER + INTRA:          -6.514
REMARK INTER:                  -5.588
REMARK INTRA:                  -0.926
REMARK UNBOUND:                -0.985
REMARK SMILES CC[C@@H](CC[C@@H](C)[C@H]1CC[C@H]2C3=CC[C@@H]4C[C@H](O)CC[C@]4(C)[C@@H]3CC[C@@]12C)C(C)C
REMARK SMILES IDX 5 1 4 2 3 3 2 4 1 5 28 6 29 7 30 8 6 9 7 10 8 11 9 12 26 13
REMARK SMILES IDX 10 14 11 15 25 16 27 17 12 18 24 19 23 20 13 21 21 22 14 23
REMARK SMILES IDX 15 24 20 25 22 26 16 27 19 28 17 29 18 30
REMARK H PARENT 18 31
REMARK Flexibility Score: inf
ROOT
ATOM      1  C   UNL     1      33.580   8.283   4.171  1.00  0.00     0.004 C 
ENDROOT
BRANCH   1   2
ATOM      2  C   UNL     1      33.203   9.785   4.151  1.00  0.00     0.004 C 
BRANCH   2   3
ATOM      3  C   UNL     1      34.372  10.711   3.696  1.00  0.00    -0.009 C 
BRANCH   3   4
ATOM      4  C   UNL     1      34.302  12.048   4.489  1.00  0.00     0.000 C 
ATOM      5  C   UNL     1      34.741  11.945   5.947  1.00  0.00     0.004 C 
ENDBRANCH   3   4
BRANCH   3   6
ATOM      6  C   UNL     1      34.375  10.857   2.134  1.00  0.00    -0.014 C 
ATOM      7  C   UNL     1      33.856   9.611   1.400  1.00  0.00     0.007 C 
ATOM      8  C   UNL     1      33.664  12.125   1.635  1.00  0.00     0.007 C 
ENDBRANCH   3   6
ENDBRANCH   2   3
ENDBRANCH   1   2
BRANCH   1   9
ATOM      9  C   UNL     1      33.991   7.773   5.581  1.00  0.00    -0.011 C 
ATOM     10  C   UNL     1      32.905   6.832   6.140  1.00  0.00     0.008 C 
BRANCH   9  11
ATOM     11  C   UNL     1      35.401   7.077   5.663  1.00  0.00    -0.002 C 
ATOM     12  C   UNL     1      35.887   6.310   4.423  1.00  0.00     0.005 C 
ATOM     13  C   UNL     1      36.604   7.964   6.084  1.00  0.00    -0.023 C 
ATOM     14  C   UNL     1      37.409   6.183   4.577  1.00  0.00     0.009 C 
ATOM     15  C   UNL     1      37.789   7.000   5.827  1.00  0.00     0.021 C 
ATOM     16  C   UNL     1      36.718   9.261   5.209  1.00  0.00     0.008 C 
ATOM     17  C   UNL     1      36.523   8.340   7.585  1.00  0.00     0.012 C 
ATOM     18  C   UNL     1      39.104   7.753   5.740  1.00  0.00    -0.067 C 
ATOM     19  C   UNL     1      38.113   9.924   5.246  1.00  0.00     0.009 C 
ATOM     20  C   UNL     1      39.184   8.913   4.768  1.00  0.00     0.021 C 
ATOM     21  C   UNL     1      39.920   7.735   6.813  1.00  0.00    -0.027 C 
ATOM     22  C   UNL     1      40.679   9.422   4.523  1.00  0.00    -0.023 C 
ATOM     23  C   UNL     1      40.879   8.861   7.055  1.00  0.00     0.031 C 
ATOM     24  C   UNL     1      41.636   9.179   5.765  1.00  0.00     0.002 C 
ATOM     25  C   UNL     1      40.735  10.914   4.051  1.00  0.00     0.010 C 
ATOM     26  C   UNL     1      41.247   8.578   3.347  1.00  0.00     0.012 C 
ATOM     27  C   UNL     1      42.666  10.310   5.978  1.00  0.00     0.036 C 
ATOM     28  C   UNL     1      40.792  11.910   5.216  1.00  0.00     0.032 C 
ATOM     29  C   UNL     1      42.041  11.716   6.099  1.00  0.00     0.114 C 
BRANCH  29  30
ATOM     30  O   UNL     1      41.711  11.970   7.443  1.00  0.00    -0.393 OA
ATOM     31  H   UNL     1      42.552  11.928   7.968  1.00  0.00     0.210 HD
ENDBRANCH  29  30
ENDBRANCH   9  11
ENDBRANCH   1   9
TORSDOF 7
ENDMDL
