MODEL 1
REMARK VINA RESULT:    -5.374      0.000      0.000
REMARK INTER + INTRA:         -13.968
REMARK INTER:                 -12.286
REMARK INTRA:                  -1.682
REMARK UNBOUND:                -1.682
REMARK SMILES CCCCCCCCCCCCCCCCCCCCCCCC(=O)[O-]
REMARK SMILES IDX 13 1 14 2 15 3 16 4 17 5 18 6 19 7 20 8 21 9 22 10 23 11
REMARK SMILES IDX 24 12 25 13 26 14 12 15 11 16 10 17 9 18 8 19 7 20 6 21 5 22
REMARK SMILES IDX 4 23 3 24 2 25 1 26
REMARK H PARENT
REMARK Flexibility Score: inf
ROOT
ATOM      1  C   UNL     1       0.170  -4.657  -3.278  1.00  0.00     0.000 C 
ENDROOT
BRANCH   1   2
ATOM      2  C   UNL     1       0.717  -3.580  -2.315  1.00  0.00     0.000 C 
BRANCH   2   3
ATOM      3  C   UNL     1       0.666  -4.030  -0.843  1.00  0.00     0.000 C 
BRANCH   3   4
ATOM      4  C   UNL     1       1.168  -2.951   0.134  1.00  0.00     0.000 C 
BRANCH   4   5
ATOM      5  C   UNL     1       0.223  -1.746   0.324  1.00  0.00     0.000 C 
BRANCH   5   6
ATOM      6  C   UNL     1       0.746  -0.641   1.264  1.00  0.00     0.000 C 
BRANCH   6   7
ATOM      7  C   UNL     1       0.354   0.791   0.863  1.00  0.00     0.000 C 
BRANCH   7   8
ATOM      8  C   UNL     1      -0.625   0.831  -0.323  1.00  0.00     0.000 C 
BRANCH   8   9
ATOM      9  C   UNL     1      -1.637   1.990  -0.200  1.00  0.00     0.000 C 
BRANCH   9  10
ATOM     10  C   UNL     1      -1.512   3.038  -1.320  1.00  0.00     0.006 C 
BRANCH  10  11
ATOM     11  C   UNL     1      -0.812   2.495  -2.571  1.00  0.00     0.053 C 
BRANCH  11  12
ATOM     12  C   UNL     1       0.405   3.309  -2.887  1.00  0.00     0.041 C 
ATOM     13  O   UNL     1       0.864   4.119  -2.037  1.00  0.00    -0.550 OA
ATOM     14  O   UNL     1       1.057   3.143  -4.103  1.00  0.00    -0.550 OA
ENDBRANCH  11  12
ENDBRANCH  10  11
ENDBRANCH   9  10
ENDBRANCH   8   9
ENDBRANCH   7   8
ENDBRANCH   6   7
ENDBRANCH   5   6
ENDBRANCH   4   5
ENDBRANCH   3   4
ENDBRANCH   2   3
ENDBRANCH   1   2
BRANCH   1  15
ATOM     15  C   UNL     1       0.443  -4.355  -4.762  1.00  0.00     0.000 C 
BRANCH  15  16
ATOM     16  C   UNL     1       1.863  -4.751  -5.201  1.00  0.00     0.000 C 
BRANCH  16  17
ATOM     17  C   UNL     1       1.858  -5.780  -6.351  1.00  0.00     0.000 C 
BRANCH  17  18
ATOM     18  C   UNL     1       2.786  -6.986  -6.107  1.00  0.00    -0.000 C 
BRANCH  18  19
ATOM     19  C   UNL     1       2.521  -7.754  -4.802  1.00  0.00    -0.000 C 
BRANCH  19  20
ATOM     20  C   UNL     1       3.306  -9.071  -4.718  1.00  0.00    -0.000 C 
BRANCH  20  21
ATOM     21  C   UNL     1       2.904  -9.871  -3.474  1.00  0.00    -0.000 C 
BRANCH  21  22
ATOM     22  C   UNL     1       2.150  -8.986  -2.470  1.00  0.00    -0.000 C 
BRANCH  22  23
ATOM     23  C   UNL     1       1.500  -9.797  -1.336  1.00  0.00    -0.000 C 
BRANCH  23  24
ATOM     24  C   UNL     1       0.834  -8.903  -0.278  1.00  0.00    -0.000 C 
BRANCH  24  25
ATOM     25  C   UNL     1       0.027  -7.753  -0.902  1.00  0.00    -0.003 C 
ATOM     26  C   UNL     1      -1.466  -8.064  -1.010  1.00  0.00     0.004 C 
ENDBRANCH  24  25
ENDBRANCH  23  24
ENDBRANCH  22  23
ENDBRANCH  21  22
ENDBRANCH  20  21
ENDBRANCH  19  20
ENDBRANCH  18  19
ENDBRANCH  17  18
ENDBRANCH  16  17
ENDBRANCH  15  16
ENDBRANCH   1  15
TORSDOF 22
ENDMDL
MODEL 2
REMARK VINA RESULT:    -5.285      1.382      3.773
REMARK INTER + INTRA:         -13.764
REMARK INTER:                 -12.142
REMARK INTRA:                  -1.622
REMARK UNBOUND:                -1.682
REMARK SMILES CCCCCCCCCCCCCCCCCCCCCCCC(=O)[O-]
REMARK SMILES IDX 13 1 14 2 15 3 16 4 17 5 18 6 19 7 20 8 21 9 22 10 23 11
REMARK SMILES IDX 24 12 25 13 26 14 12 15 11 16 10 17 9 18 8 19 7 20 6 21 5 22
REMARK SMILES IDX 4 23 3 24 2 25 1 26
REMARK H PARENT
REMARK Flexibility Score: inf
ROOT
ATOM      1  C   UNL     1       0.000  -5.093  -2.194  1.00  0.00     0.000 C 
ENDROOT
BRANCH   1   2
ATOM      2  C   UNL     1       0.783  -3.811  -1.832  1.00  0.00     0.000 C 
BRANCH   2   3
ATOM      3  C   UNL     1       0.854  -3.576  -0.312  1.00  0.00     0.000 C 
BRANCH   3   4
ATOM      4  C   UNL     1       0.240  -2.231   0.119  1.00  0.00     0.000 C 
BRANCH   4   5
ATOM      5  C   UNL     1       1.108  -1.391   1.080  1.00  0.00     0.000 C 
BRANCH   5   6
ATOM      6  C   UNL     1       0.490  -0.049   1.521  1.00  0.00     0.000 C 
BRANCH   6   7
ATOM      7  C   UNL     1       0.262   0.964   0.387  1.00  0.00     0.000 C 
BRANCH   7   8
ATOM      8  C   UNL     1      -0.945   1.884   0.642  1.00  0.00     0.000 C 
BRANCH   8   9
ATOM      9  C   UNL     1      -1.549   2.424  -0.672  1.00  0.00     0.000 C 
BRANCH   9  10
ATOM     10  C   UNL     1      -1.089   1.655  -1.923  1.00  0.00     0.006 C 
BRANCH  10  11
ATOM     11  C   UNL     1      -0.861   2.566  -3.134  1.00  0.00     0.053 C 
BRANCH  11  12
ATOM     12  C   UNL     1       0.568   3.011  -3.194  1.00  0.00     0.041 C 
ATOM     13  O   UNL     1       1.443   2.266  -3.712  1.00  0.00    -0.550 OA
ATOM     14  O   UNL     1       0.927   4.266  -2.716  1.00  0.00    -0.550 OA
ENDBRANCH  11  12
ENDBRANCH  10  11
ENDBRANCH   9  10
ENDBRANCH   8   9
ENDBRANCH   7   8
ENDBRANCH   6   7
ENDBRANCH   5   6
ENDBRANCH   4   5
ENDBRANCH   3   4
ENDBRANCH   2   3
ENDBRANCH   1   2
BRANCH   1  15
ATOM     15  C   UNL     1       0.018  -6.162  -1.088  1.00  0.00     0.000 C 
BRANCH  15  16
ATOM     16  C   UNL     1      -0.859  -7.381  -1.421  1.00  0.00     0.000 C 
BRANCH  16  17
ATOM     17  C   UNL     1      -2.032  -7.549  -0.432  1.00  0.00     0.000 C 
BRANCH  17  18
ATOM     18  C   UNL     1      -2.052  -8.917   0.278  1.00  0.00    -0.000 C 
BRANCH  18  19
ATOM     19  C   UNL     1      -1.010  -9.927  -0.232  1.00  0.00    -0.000 C 
BRANCH  19  20
ATOM     20  C   UNL     1       0.157 -10.121   0.746  1.00  0.00    -0.000 C 
BRANCH  20  21
ATOM     21  C   UNL     1       1.500 -10.105   0.007  1.00  0.00    -0.000 C 
BRANCH  21  22
ATOM     22  C   UNL     1       1.291 -10.046  -1.514  1.00  0.00    -0.000 C 
BRANCH  22  23
ATOM     23  C   UNL     1       2.153  -8.965  -2.188  1.00  0.00    -0.000 C 
BRANCH  23  24
ATOM     24  C   UNL     1       3.103  -9.545  -3.249  1.00  0.00    -0.000 C 
BRANCH  24  25
ATOM     25  C   UNL     1       2.718  -9.126  -4.676  1.00  0.00    -0.003 C 
ATOM     26  C   UNL     1       3.800  -8.295  -5.365  1.00  0.00     0.004 C 
ENDBRANCH  24  25
ENDBRANCH  23  24
ENDBRANCH  22  23
ENDBRANCH  21  22
ENDBRANCH  20  21
ENDBRANCH  19  20
ENDBRANCH  18  19
ENDBRANCH  17  18
ENDBRANCH  16  17
ENDBRANCH  15  16
ENDBRANCH   1  15
TORSDOF 22
ENDMDL
MODEL 3
REMARK VINA RESULT:    -5.249      1.455      3.699
REMARK INTER + INTRA:         -13.683
REMARK INTER:                 -12.105
REMARK INTRA:                  -1.578
REMARK UNBOUND:                -1.682
REMARK SMILES CCCCCCCCCCCCCCCCCCCCCCCC(=O)[O-]
REMARK SMILES IDX 13 1 14 2 15 3 16 4 17 5 18 6 19 7 20 8 21 9 22 10 23 11
REMARK SMILES IDX 24 12 25 13 26 14 12 15 11 16 10 17 9 18 8 19 7 20 6 21 5 22
REMARK SMILES IDX 4 23 3 24 2 25 1 26
REMARK H PARENT
REMARK Flexibility Score: inf
ROOT
ATOM      1  C   UNL     1       0.690  -3.949  -1.888  1.00  0.00     0.000 C 
ENDROOT
BRANCH   1   2
ATOM      2  C   UNL     1       0.762  -3.625  -0.379  1.00  0.00     0.000 C 
BRANCH   2   3
ATOM      3  C   UNL     1       0.354  -2.174  -0.071  1.00  0.00     0.000 C 
BRANCH   3   4
ATOM      4  C   UNL     1       1.078  -1.592   1.157  1.00  0.00     0.000 C 
BRANCH   4   5
ATOM      5  C   UNL     1       0.690  -0.144   1.524  1.00  0.00     0.000 C 
BRANCH   5   6
ATOM      6  C   UNL     1       0.176   0.716   0.351  1.00  0.00     0.000 C 
BRANCH   6   7
ATOM      7  C   UNL     1      -1.094   1.529   0.653  1.00  0.00     0.000 C 
BRANCH   7   8
ATOM      8  C   UNL     1      -1.796   2.033  -0.619  1.00  0.00     0.000 C 
BRANCH   8   9
ATOM      9  C   UNL     1      -1.603   3.551  -0.826  1.00  0.00     0.000 C 
BRANCH   9  10
ATOM     10  C   UNL     1      -0.678   3.898  -2.007  1.00  0.00     0.006 C 
BRANCH  10  11
ATOM     11  C   UNL     1      -0.432   2.709  -2.942  1.00  0.00     0.053 C 
BRANCH  11  12
ATOM     12  C   UNL     1       0.810   2.926  -3.751  1.00  0.00     0.041 C 
ATOM     13  O   UNL     1       1.243   2.014  -4.504  1.00  0.00    -0.550 OA
ATOM     14  O   UNL     1       1.466   4.151  -3.705  1.00  0.00    -0.550 OA
ENDBRANCH  11  12
ENDBRANCH  10  11
ENDBRANCH   9  10
ENDBRANCH   8   9
ENDBRANCH   7   8
ENDBRANCH   6   7
ENDBRANCH   5   6
ENDBRANCH   4   5
ENDBRANCH   3   4
ENDBRANCH   2   3
ENDBRANCH   1   2
BRANCH   1  15
ATOM     15  C   UNL     1      -0.074  -5.245  -2.207  1.00  0.00     0.000 C 
BRANCH  15  16
ATOM     16  C   UNL     1       0.406  -6.444  -1.370  1.00  0.00     0.000 C 
BRANCH  16  17
ATOM     17  C   UNL     1      -0.683  -7.526  -1.215  1.00  0.00     0.000 C 
BRANCH  17  18
ATOM     18  C   UNL     1      -0.154  -8.862  -0.655  1.00  0.00    -0.000 C 
BRANCH  18  19
ATOM     19  C   UNL     1       1.111  -9.397  -1.346  1.00  0.00    -0.000 C 
BRANCH  19  20
ATOM     20  C   UNL     1       0.820 -10.011  -2.723  1.00  0.00    -0.000 C 
BRANCH  20  21
ATOM     21  C   UNL     1       1.886  -9.596  -3.745  1.00  0.00    -0.000 C 
BRANCH  21  22
ATOM     22  C   UNL     1       3.155  -9.089  -3.042  1.00  0.00    -0.000 C 
BRANCH  22  23
ATOM     23  C   UNL     1       4.290  -8.769  -4.029  1.00  0.00    -0.000 C 
BRANCH  23  24
ATOM     24  C   UNL     1       3.768  -8.284  -5.391  1.00  0.00    -0.000 C 
BRANCH  24  25
ATOM     25  C   UNL     1       4.537  -8.903  -6.570  1.00  0.00    -0.003 C 
ATOM     26  C   UNL     1       3.630  -9.661  -7.539  1.00  0.00     0.004 C 
ENDBRANCH  24  25
ENDBRANCH  23  24
ENDBRANCH  22  23
ENDBRANCH  21  22
ENDBRANCH  20  21
ENDBRANCH  19  20
ENDBRANCH  18  19
ENDBRANCH  17  18
ENDBRANCH  16  17
ENDBRANCH  15  16
ENDBRANCH   1  15
TORSDOF 22
ENDMDL
MODEL 4
REMARK VINA RESULT:    -5.245      1.131      2.210
REMARK INTER + INTRA:         -13.672
REMARK INTER:                 -11.803
REMARK INTRA:                  -1.869
REMARK UNBOUND:                -1.682
REMARK SMILES CCCCCCCCCCCCCCCCCCCCCCCC(=O)[O-]
REMARK SMILES IDX 13 1 14 2 15 3 16 4 17 5 18 6 19 7 20 8 21 9 22 10 23 11
REMARK SMILES IDX 24 12 25 13 26 14 12 15 11 16 10 17 9 18 8 19 7 20 6 21 5 22
REMARK SMILES IDX 4 23 3 24 2 25 1 26
REMARK H PARENT
REMARK Flexibility Score: inf
ROOT
ATOM      1  C   UNL     1       1.004  -3.472  -2.195  1.00  0.00     0.000 C 
ENDROOT
BRANCH   1   2
ATOM      2  C   UNL     1       0.954  -3.464  -0.651  1.00  0.00     0.000 C 
BRANCH   2   3
ATOM      3  C   UNL     1       0.295  -2.190  -0.092  1.00  0.00     0.000 C 
BRANCH   3   4
ATOM      4  C   UNL     1       1.025  -1.626   1.141  1.00  0.00     0.000 C 
BRANCH   4   5
ATOM      5  C   UNL     1       0.631  -0.187   1.536  1.00  0.00     0.000 C 
BRANCH   5   6
ATOM      6  C   UNL     1       0.268   0.742   0.360  1.00  0.00     0.000 C 
BRANCH   6   7
ATOM      7  C   UNL     1      -0.677   1.902   0.718  1.00  0.00     0.000 C 
BRANCH   7   8
ATOM      8  C   UNL     1      -1.926   1.952  -0.179  1.00  0.00     0.000 C 
BRANCH   8   9
ATOM      9  C   UNL     1      -1.716   1.195  -1.507  1.00  0.00     0.000 C 
BRANCH   9  10
ATOM     10  C   UNL     1      -1.526   2.122  -2.721  1.00  0.00     0.006 C 
BRANCH  10  11
ATOM     11  C   UNL     1      -0.059   2.262  -3.142  1.00  0.00     0.053 C 
BRANCH  11  12
ATOM     12  C   UNL     1       0.405   3.675  -2.967  1.00  0.00     0.041 C 
ATOM     13  O   UNL     1      -0.116   4.409  -2.084  1.00  0.00    -0.550 OA
ATOM     14  O   UNL     1       1.442   4.170  -3.749  1.00  0.00    -0.550 OA
ENDBRANCH  11  12
ENDBRANCH  10  11
ENDBRANCH   9  10
ENDBRANCH   8   9
ENDBRANCH   7   8
ENDBRANCH   6   7
ENDBRANCH   5   6
ENDBRANCH   4   5
ENDBRANCH   3   4
ENDBRANCH   2   3
ENDBRANCH   1   2
BRANCH   1  15
ATOM     15  C   UNL     1       0.185  -4.606  -2.835  1.00  0.00     0.000 C 
BRANCH  15  16
ATOM     16  C   UNL     1       0.028  -4.444  -4.357  1.00  0.00     0.000 C 
BRANCH  16  17
ATOM     17  C   UNL     1       1.386  -4.422  -5.089  1.00  0.00     0.000 C 
BRANCH  17  18
ATOM     18  C   UNL     1       1.560  -5.567  -6.107  1.00  0.00    -0.000 C 
BRANCH  18  19
ATOM     19  C   UNL     1       2.752  -6.499  -5.837  1.00  0.00    -0.000 C 
BRANCH  19  20
ATOM     20  C   UNL     1       2.877  -7.620  -6.879  1.00  0.00    -0.000 C 
BRANCH  20  21
ATOM     21  C   UNL     1       3.837  -8.713  -6.395  1.00  0.00    -0.000 C 
BRANCH  21  22
ATOM     22  C   UNL     1       4.274  -8.460  -4.944  1.00  0.00    -0.000 C 
BRANCH  22  23
ATOM     23  C   UNL     1       3.904  -9.619  -4.003  1.00  0.00    -0.000 C 
BRANCH  23  24
ATOM     24  C   UNL     1       2.389  -9.718  -3.757  1.00  0.00    -0.000 C 
BRANCH  24  25
ATOM     25  C   UNL     1       1.891  -8.688  -2.731  1.00  0.00    -0.003 C 
ATOM     26  C   UNL     1       1.535  -9.315  -1.383  1.00  0.00     0.004 C 
ENDBRANCH  24  25
ENDBRANCH  23  24
ENDBRANCH  22  23
ENDBRANCH  21  22
ENDBRANCH  20  21
ENDBRANCH  19  20
ENDBRANCH  18  19
ENDBRANCH  17  18
ENDBRANCH  16  17
ENDBRANCH  15  16
ENDBRANCH   1  15
TORSDOF 22
ENDMDL
MODEL 5
REMARK VINA RESULT:    -5.168      3.365     10.207
REMARK INTER + INTRA:         -13.496
REMARK INTER:                 -12.048
REMARK INTRA:                  -1.448
REMARK UNBOUND:                -1.682
REMARK SMILES CCCCCCCCCCCCCCCCCCCCCCCC(=O)[O-]
REMARK SMILES IDX 13 1 14 2 15 3 16 4 17 5 18 6 19 7 20 8 21 9 22 10 23 11
REMARK SMILES IDX 24 12 25 13 26 14 12 15 11 16 10 17 9 18 8 19 7 20 6 21 5 22
REMARK SMILES IDX 4 23 3 24 2 25 1 26
REMARK H PARENT
REMARK Flexibility Score: inf
ROOT
ATOM      1  C   UNL     1       0.367  -4.560  -2.903  1.00  0.00     0.000 C 
ENDROOT
BRANCH   1   2
ATOM      2  C   UNL     1       0.323  -4.464  -4.445  1.00  0.00     0.000 C 
BRANCH   2   3
ATOM      3  C   UNL     1       1.705  -4.681  -5.086  1.00  0.00     0.000 C 
BRANCH   3   4
ATOM      4  C   UNL     1       1.655  -5.578  -6.336  1.00  0.00     0.000 C 
BRANCH   4   5
ATOM      5  C   UNL     1       2.734  -6.679  -6.398  1.00  0.00     0.000 C 
BRANCH   5   6
ATOM      6  C   UNL     1       2.578  -7.812  -5.363  1.00  0.00     0.000 C 
BRANCH   6   7
ATOM      7  C   UNL     1       3.898  -8.339  -4.775  1.00  0.00     0.000 C 
BRANCH   7   8
ATOM      8  C   UNL     1       3.725  -8.949  -3.374  1.00  0.00     0.000 C 
BRANCH   8   9
ATOM      9  C   UNL     1       2.246  -9.248  -3.049  1.00  0.00     0.000 C 
BRANCH   9  10
ATOM     10  C   UNL     1       1.925  -9.202  -1.545  1.00  0.00     0.006 C 
BRANCH  10  11
ATOM     11  C   UNL     1       0.499  -9.664  -1.224  1.00  0.00     0.053 C 
BRANCH  11  12
ATOM     12  C   UNL     1      -0.385  -8.486  -0.951  1.00  0.00     0.041 C 
ATOM     13  O   UNL     1       0.083  -7.317  -1.001  1.00  0.00    -0.550 OA
ATOM     14  O   UNL     1      -1.736  -8.676  -0.683  1.00  0.00    -0.550 OA
ENDBRANCH  11  12
ENDBRANCH  10  11
ENDBRANCH   9  10
ENDBRANCH   8   9
ENDBRANCH   7   8
ENDBRANCH   6   7
ENDBRANCH   5   6
ENDBRANCH   4   5
ENDBRANCH   3   4
ENDBRANCH   2   3
ENDBRANCH   1   2
BRANCH   1  15
ATOM     15  C   UNL     1       1.003  -3.335  -2.225  1.00  0.00     0.000 C 
BRANCH  15  16
ATOM     16  C   UNL     1       0.839  -3.346  -0.696  1.00  0.00     0.000 C 
BRANCH  16  17
ATOM     17  C   UNL     1       0.134  -2.077  -0.171  1.00  0.00     0.000 C 
BRANCH  17  18
ATOM     18  C   UNL     1       0.819  -1.454   1.062  1.00  0.00    -0.000 C 
BRANCH  18  19
ATOM     19  C   UNL     1       0.589   0.056   1.236  1.00  0.00    -0.000 C 
BRANCH  19  20
ATOM     20  C   UNL     1       0.019   0.719  -0.027  1.00  0.00    -0.000 C 
BRANCH  20  21
ATOM     21  C   UNL     1      -1.065   1.741   0.333  1.00  0.00    -0.000 C 
BRANCH  21  22
ATOM     22  C   UNL     1      -1.712   2.327  -0.931  1.00  0.00    -0.000 C 
BRANCH  22  23
ATOM     23  C   UNL     1      -1.196   3.738  -1.261  1.00  0.00    -0.000 C 
BRANCH  23  24
ATOM     24  C   UNL     1       0.006   3.717  -2.220  1.00  0.00    -0.000 C 
BRANCH  24  25
ATOM     25  C   UNL     1      -0.067   2.561  -3.230  1.00  0.00    -0.003 C 
ATOM     26  C   UNL     1       0.951   2.695  -4.362  1.00  0.00     0.004 C 
ENDBRANCH  24  25
ENDBRANCH  23  24
ENDBRANCH  22  23
ENDBRANCH  21  22
ENDBRANCH  20  21
ENDBRANCH  19  20
ENDBRANCH  18  19
ENDBRANCH  17  18
ENDBRANCH  16  17
ENDBRANCH  15  16
ENDBRANCH   1  15
TORSDOF 22
ENDMDL
MODEL 6
REMARK VINA RESULT:    -5.097      3.888     10.384
REMARK INTER + INTRA:         -13.334
REMARK INTER:                 -11.751
REMARK INTRA:                  -1.583
REMARK UNBOUND:                -1.682
REMARK SMILES CCCCCCCCCCCCCCCCCCCCCCCC(=O)[O-]
REMARK SMILES IDX 13 1 14 2 15 3 16 4 17 5 18 6 19 7 20 8 21 9 22 10 23 11
REMARK SMILES IDX 24 12 25 13 26 14 12 15 11 16 10 17 9 18 8 19 7 20 6 21 5 22
REMARK SMILES IDX 4 23 3 24 2 25 1 26
REMARK H PARENT
REMARK Flexibility Score: inf
ROOT
ATOM      1  C   UNL     1       0.728  -3.575  -1.912  1.00  0.00     0.000 C 
ENDROOT
BRANCH   1   2
ATOM      2  C   UNL     1       0.386  -5.021  -2.334  1.00  0.00     0.000 C 
BRANCH   2   3
ATOM      3  C   UNL     1       0.027  -5.914  -1.133  1.00  0.00     0.000 C 
BRANCH   3   4
ATOM      4  C   UNL     1      -0.692  -7.213  -1.541  1.00  0.00     0.000 C 
BRANCH   4   5
ATOM      5  C   UNL     1      -1.170  -8.095  -0.369  1.00  0.00     0.000 C 
BRANCH   5   6
ATOM      6  C   UNL     1      -0.586  -9.522  -0.338  1.00  0.00     0.000 C 
BRANCH   6   7
ATOM      7  C   UNL     1       0.944  -9.599  -0.468  1.00  0.00     0.000 C 
BRANCH   7   8
ATOM      8  C   UNL     1       1.404 -10.005  -1.879  1.00  0.00     0.000 C 
BRANCH   8   9
ATOM      9  C   UNL     1       2.331  -8.947  -2.514  1.00  0.00     0.000 C 
BRANCH   9  10
ATOM     10  C   UNL     1       3.411  -9.546  -3.432  1.00  0.00     0.006 C 
BRANCH  10  11
ATOM     11  C   UNL     1       3.042  -9.471  -4.917  1.00  0.00     0.053 C 
BRANCH  11  12
ATOM     12  C   UNL     1       4.155  -8.849  -5.704  1.00  0.00     0.041 C 
ATOM     13  O   UNL     1       4.015  -8.633  -6.937  1.00  0.00    -0.550 OA
ATOM     14  O   UNL     1       5.330  -8.469  -5.066  1.00  0.00    -0.550 OA
ENDBRANCH  11  12
ENDBRANCH  10  11
ENDBRANCH   9  10
ENDBRANCH   8   9
ENDBRANCH   7   8
ENDBRANCH   6   7
ENDBRANCH   5   6
ENDBRANCH   4   5
ENDBRANCH   3   4
ENDBRANCH   2   3
ENDBRANCH   1   2
BRANCH   1  15
ATOM     15  C   UNL     1       1.013  -3.421  -0.408  1.00  0.00     0.000 C 
BRANCH  15  16
ATOM     16  C   UNL     1       0.228  -2.264   0.233  1.00  0.00     0.000 C 
BRANCH  16  17
ATOM     17  C   UNL     1       1.096  -1.426   1.196  1.00  0.00     0.000 C 
BRANCH  17  18
ATOM     18  C   UNL     1       0.493  -0.049   1.534  1.00  0.00    -0.000 C 
BRANCH  18  19
ATOM     19  C   UNL     1       0.510   0.967   0.380  1.00  0.00    -0.000 C 
BRANCH  19  20
ATOM     20  C   UNL     1      -0.819   1.722   0.235  1.00  0.00    -0.000 C 
BRANCH  20  21
ATOM     21  C   UNL     1      -1.654   1.145  -0.914  1.00  0.00    -0.000 C 
BRANCH  21  22
ATOM     22  C   UNL     1      -1.693   2.112  -2.107  1.00  0.00    -0.000 C 
BRANCH  22  23
ATOM     23  C   UNL     1      -1.038   3.467  -1.793  1.00  0.00    -0.000 C 
BRANCH  23  24
ATOM     24  C   UNL     1       0.310   3.652  -2.508  1.00  0.00    -0.000 C 
BRANCH  24  25
ATOM     25  C   UNL     1       0.639   2.486  -3.454  1.00  0.00    -0.003 C 
ATOM     26  C   UNL     1       1.017   2.948  -4.861  1.00  0.00     0.004 C 
ENDBRANCH  24  25
ENDBRANCH  23  24
ENDBRANCH  22  23
ENDBRANCH  21  22
ENDBRANCH  20  21
ENDBRANCH  19  20
ENDBRANCH  18  19
ENDBRANCH  17  18
ENDBRANCH  16  17
ENDBRANCH  15  16
ENDBRANCH   1  15
TORSDOF 22
ENDMDL
MODEL 7
REMARK VINA RESULT:    -4.947      4.136     10.287
REMARK INTER + INTRA:         -12.992
REMARK INTER:                 -11.559
REMARK INTRA:                  -1.434
REMARK UNBOUND:                -1.682
REMARK SMILES CCCCCCCCCCCCCCCCCCCCCCCC(=O)[O-]
REMARK SMILES IDX 13 1 14 2 15 3 16 4 17 5 18 6 19 7 20 8 21 9 22 10 23 11
REMARK SMILES IDX 24 12 25 13 26 14 12 15 11 16 10 17 9 18 8 19 7 20 6 21 5 22
REMARK SMILES IDX 4 23 3 24 2 25 1 26
REMARK H PARENT
REMARK Flexibility Score: inf
ROOT
ATOM      1  C   UNL     1       0.246  -6.227  -1.249  1.00  0.00     0.000 C 
ENDROOT
BRANCH   1   2
ATOM      2  C   UNL     1      -1.038  -7.020  -1.579  1.00  0.00     0.000 C 
BRANCH   2   3
ATOM      3  C   UNL     1      -1.750  -7.536  -0.316  1.00  0.00     0.000 C 
BRANCH   3   4
ATOM      4  C   UNL     1      -1.905  -9.068  -0.295  1.00  0.00     0.000 C 
BRANCH   4   5
ATOM      5  C   UNL     1      -0.990  -9.808   0.702  1.00  0.00     0.000 C 
BRANCH   5   6
ATOM      6  C   UNL     1       0.458 -10.036   0.222  1.00  0.00     0.000 C 
BRANCH   6   7
ATOM      7  C   UNL     1       0.628 -10.125  -1.304  1.00  0.00     0.000 C 
BRANCH   7   8
ATOM      8  C   UNL     1       2.061  -9.807  -1.764  1.00  0.00     0.000 C 
BRANCH   8   9
ATOM      9  C   UNL     1       2.084  -9.073  -3.122  1.00  0.00     0.000 C 
BRANCH   9  10
ATOM     10  C   UNL     1       3.486  -8.987  -3.751  1.00  0.00     0.006 C 
BRANCH  10  11
ATOM     11  C   UNL     1       3.491  -8.265  -5.103  1.00  0.00     0.053 C 
BRANCH  11  12
ATOM     12  C   UNL     1       4.493  -8.887  -6.027  1.00  0.00     0.041 C 
ATOM     13  O   UNL     1       5.662  -9.131  -5.623  1.00  0.00    -0.550 OA
ATOM     14  O   UNL     1       4.125  -9.236  -7.321  1.00  0.00    -0.550 OA
ENDBRANCH  11  12
ENDBRANCH  10  11
ENDBRANCH   9  10
ENDBRANCH   8   9
ENDBRANCH   7   8
ENDBRANCH   6   7
ENDBRANCH   5   6
ENDBRANCH   4   5
ENDBRANCH   3   4
ENDBRANCH   2   3
ENDBRANCH   1   2
BRANCH   1  15
ATOM     15  C   UNL     1       0.072  -4.701  -1.345  1.00  0.00     0.000 C 
BRANCH  15  16
ATOM     16  C   UNL     1       0.918  -3.938  -0.312  1.00  0.00     0.000 C 
BRANCH  16  17
ATOM     17  C   UNL     1       0.371  -2.521  -0.036  1.00  0.00     0.000 C 
BRANCH  17  18
ATOM     18  C   UNL     1       1.053  -1.814   1.152  1.00  0.00    -0.000 C 
BRANCH  18  19
ATOM     19  C   UNL     1       0.729  -0.317   1.288  1.00  0.00    -0.000 C 
BRANCH  19  20
ATOM     20  C   UNL     1      -0.050   0.233   0.084  1.00  0.00    -0.000 C 
BRANCH  20  21
ATOM     21  C   UNL     1      -0.551   1.656   0.360  1.00  0.00    -0.000 C 
BRANCH  21  22
ATOM     22  C   UNL     1      -1.930   1.887  -0.277  1.00  0.00    -0.000 C 
BRANCH  22  23
ATOM     23  C   UNL     1      -1.867   2.808  -1.507  1.00  0.00    -0.000 C 
BRANCH  23  24
ATOM     24  C   UNL     1      -1.036   2.205  -2.653  1.00  0.00    -0.000 C 
BRANCH  24  25
ATOM     25  C   UNL     1       0.285   2.957  -2.880  1.00  0.00    -0.003 C 
ATOM     26  C   UNL     1       0.919   2.650  -4.237  1.00  0.00     0.004 C 
ENDBRANCH  24  25
ENDBRANCH  23  24
ENDBRANCH  22  23
ENDBRANCH  21  22
ENDBRANCH  20  21
ENDBRANCH  19  20
ENDBRANCH  18  19
ENDBRANCH  17  18
ENDBRANCH  16  17
ENDBRANCH  15  16
ENDBRANCH   1  15
TORSDOF 22
ENDMDL
MODEL 8
REMARK VINA RESULT:    -4.520      2.551      9.955
REMARK INTER + INTRA:         -12.016
REMARK INTER:                 -10.492
REMARK INTRA:                  -1.523
REMARK UNBOUND:                -1.682
REMARK SMILES CCCCCCCCCCCCCCCCCCCCCCCC(=O)[O-]
REMARK SMILES IDX 13 1 14 2 15 3 16 4 17 5 18 6 19 7 20 8 21 9 22 10 23 11
REMARK SMILES IDX 24 12 25 13 26 14 12 15 11 16 10 17 9 18 8 19 7 20 6 21 5 22
REMARK SMILES IDX 4 23 3 24 2 25 1 26
REMARK H PARENT
REMARK Flexibility Score: inf
ROOT
ATOM      1  C   UNL     1       0.459  -5.255  -0.665  1.00  0.00     0.000 C 
ENDROOT
BRANCH   1   2
ATOM      2  C   UNL     1       0.074  -6.150  -1.864  1.00  0.00     0.000 C 
BRANCH   2   3
ATOM      3  C   UNL     1      -0.417  -7.541  -1.423  1.00  0.00     0.000 C 
BRANCH   3   4
ATOM      4  C   UNL     1       0.655  -8.346  -0.666  1.00  0.00     0.000 C 
BRANCH   4   5
ATOM      5  C   UNL     1       1.808  -8.887  -1.538  1.00  0.00     0.000 C 
BRANCH   5   6
ATOM      6  C   UNL     1       1.430 -10.047  -2.482  1.00  0.00     0.000 C 
BRANCH   6   7
ATOM      7  C   UNL     1       1.838  -9.845  -3.952  1.00  0.00     0.000 C 
BRANCH   7   8
ATOM      8  C   UNL     1       3.161  -9.076  -4.104  1.00  0.00     0.000 C 
BRANCH   8   9
ATOM      9  C   UNL     1       3.577  -8.924  -5.583  1.00  0.00     0.000 C 
BRANCH   9  10
ATOM     10  C   UNL     1       3.001  -7.667  -6.258  1.00  0.00     0.006 C 
BRANCH  10  11
ATOM     11  C   UNL     1       2.402  -6.673  -5.256  1.00  0.00     0.053 C 
BRANCH  11  12
ATOM     12  C   UNL     1       2.047  -5.388  -5.940  1.00  0.00     0.041 C 
ATOM     13  O   UNL     1       1.057  -5.337  -6.719  1.00  0.00    -0.550 OA
ATOM     14  O   UNL     1       2.783  -4.237  -5.686  1.00  0.00    -0.550 OA
ENDBRANCH  11  12
ENDBRANCH  10  11
ENDBRANCH   9  10
ENDBRANCH   8   9
ENDBRANCH   7   8
ENDBRANCH   6   7
ENDBRANCH   5   6
ENDBRANCH   4   5
ENDBRANCH   3   4
ENDBRANCH   2   3
ENDBRANCH   1   2
BRANCH   1  15
ATOM     15  C   UNL     1       0.735  -3.791  -1.049  1.00  0.00     0.000 C 
BRANCH  15  16
ATOM     16  C   UNL     1       1.103  -2.915   0.160  1.00  0.00     0.000 C 
BRANCH  16  17
ATOM     17  C   UNL     1       0.165  -1.698   0.312  1.00  0.00     0.000 C 
BRANCH  17  18
ATOM     18  C   UNL     1       0.759  -0.562   1.168  1.00  0.00    -0.000 C 
BRANCH  18  19
ATOM     19  C   UNL     1       0.361   0.856   0.728  1.00  0.00    -0.000 C 
BRANCH  19  20
ATOM     20  C   UNL     1      -0.710   0.857  -0.373  1.00  0.00    -0.000 C 
BRANCH  20  21
ATOM     21  C   UNL     1      -1.838   1.840  -0.039  1.00  0.00    -0.000 C 
BRANCH  21  22
ATOM     22  C   UNL     1      -1.594   3.205  -0.700  1.00  0.00    -0.000 C 
BRANCH  22  23
ATOM     23  C   UNL     1      -0.977   3.082  -2.103  1.00  0.00    -0.000 C 
BRANCH  23  24
ATOM     24  C   UNL     1       0.175   4.075  -2.330  1.00  0.00    -0.000 C 
BRANCH  24  25
ATOM     25  C   UNL     1       0.991   3.751  -3.592  1.00  0.00    -0.003 C 
ATOM     26  C   UNL     1       0.778   2.320  -4.086  1.00  0.00     0.004 C 
ENDBRANCH  24  25
ENDBRANCH  23  24
ENDBRANCH  22  23
ENDBRANCH  21  22
ENDBRANCH  20  21
ENDBRANCH  19  20
ENDBRANCH  18  19
ENDBRANCH  17  18
ENDBRANCH  16  17
ENDBRANCH  15  16
ENDBRANCH   1  15
TORSDOF 22
ENDMDL
MODEL 9
REMARK VINA RESULT:    -4.359      1.667      4.061
REMARK INTER + INTRA:         -11.647
REMARK INTER:                 -10.081
REMARK INTRA:                  -1.565
REMARK UNBOUND:                -1.682
REMARK SMILES CCCCCCCCCCCCCCCCCCCCCCCC(=O)[O-]
REMARK SMILES IDX 13 1 14 2 15 3 16 4 17 5 18 6 19 7 20 8 21 9 22 10 23 11
REMARK SMILES IDX 24 12 25 13 26 14 12 15 11 16 10 17 9 18 8 19 7 20 6 21 5 22
REMARK SMILES IDX 4 23 3 24 2 25 1 26
REMARK H PARENT
REMARK Flexibility Score: inf
ROOT
ATOM      1  C   UNL     1       1.044  -3.160   0.254  1.00  0.00     0.000 C 
ENDROOT
BRANCH   1   2
ATOM      2  C   UNL     1       0.301  -1.828   0.498  1.00  0.00     0.000 C 
BRANCH   2   3
ATOM      3  C   UNL     1       1.062  -0.899   1.461  1.00  0.00     0.000 C 
BRANCH   3   4
ATOM      4  C   UNL     1       0.358   0.454   1.676  1.00  0.00     0.000 C 
BRANCH   4   5
ATOM      5  C   UNL     1       0.103   1.272   0.393  1.00  0.00     0.000 C 
BRANCH   5   6
ATOM      6  C   UNL     1      -1.032   2.313   0.491  1.00  0.00     0.000 C 
BRANCH   6   7
ATOM      7  C   UNL     1      -2.169   2.128  -0.528  1.00  0.00     0.000 C 
BRANCH   7   8
ATOM      8  C   UNL     1      -1.939   0.935  -1.471  1.00  0.00     0.000 C 
BRANCH   8   9
ATOM      9  C   UNL     1      -1.574   1.389  -2.901  1.00  0.00     0.000 C 
BRANCH   9  10
ATOM     10  C   UNL     1      -0.076   1.684  -3.089  1.00  0.00     0.006 C 
BRANCH  10  11
ATOM     11  C   UNL     1       0.198   3.122  -3.543  1.00  0.00     0.053 C 
BRANCH  11  12
ATOM     12  C   UNL     1       0.204   4.051  -2.368  1.00  0.00     0.041 C 
ATOM     13  O   UNL     1       1.197   4.086  -1.592  1.00  0.00    -0.550 OA
ATOM     14  O   UNL     1      -0.869   4.908  -2.152  1.00  0.00    -0.550 OA
ENDBRANCH  11  12
ENDBRANCH  10  11
ENDBRANCH   9  10
ENDBRANCH   8   9
ENDBRANCH   7   8
ENDBRANCH   6   7
ENDBRANCH   5   6
ENDBRANCH   4   5
ENDBRANCH   3   4
ENDBRANCH   2   3
ENDBRANCH   1   2
BRANCH   1  15
ATOM     15  C   UNL     1       1.121  -3.563  -1.228  1.00  0.00     0.000 C 
BRANCH  15  16
ATOM     16  C   UNL     1       0.006  -4.540  -1.640  1.00  0.00     0.000 C 
BRANCH  16  17
ATOM     17  C   UNL     1       0.056  -5.860  -0.841  1.00  0.00     0.000 C 
BRANCH  17  18
ATOM     18  C   UNL     1       0.413  -7.090  -1.699  1.00  0.00    -0.000 C 
BRANCH  18  19
ATOM     19  C   UNL     1       0.641  -8.388  -0.907  1.00  0.00    -0.000 C 
BRANCH  19  20
ATOM     20  C   UNL     1       1.224  -9.516  -1.771  1.00  0.00    -0.000 C 
BRANCH  20  21
ATOM     21  C   UNL     1       2.429  -9.020  -2.579  1.00  0.00    -0.000 C 
BRANCH  21  22
ATOM     22  C   UNL     1       2.611  -9.846  -3.862  1.00  0.00    -0.000 C 
BRANCH  22  23
ATOM     23  C   UNL     1       3.992  -9.643  -4.507  1.00  0.00    -0.000 C 
BRANCH  23  24
ATOM     24  C   UNL     1       3.997  -8.508  -5.544  1.00  0.00    -0.000 C 
BRANCH  24  25
ATOM     25  C   UNL     1       4.456  -8.983  -6.933  1.00  0.00    -0.003 C 
ATOM     26  C   UNL     1       3.572 -10.091  -7.504  1.00  0.00     0.004 C 
ENDBRANCH  24  25
ENDBRANCH  23  24
ENDBRANCH  22  23
ENDBRANCH  21  22
ENDBRANCH  20  21
ENDBRANCH  19  20
ENDBRANCH  18  19
ENDBRANCH  17  18
ENDBRANCH  16  17
ENDBRANCH  15  16
ENDBRANCH   1  15
TORSDOF 22
ENDMDL
