MODEL 1
REMARK VINA RESULT:    -3.722      0.000      0.000
REMARK INTER + INTRA:          -8.693
REMARK INTER:                  -7.203
REMARK INTRA:                  -1.490
REMARK UNBOUND:                -1.490
REMARK SMILES CCCCCCCCCCCCCCCCCC(=O)[O-]
REMARK SMILES IDX 10 1 11 2 12 3 13 4 14 5 15 6 16 7 17 8 18 9 19 10 20 11
REMARK SMILES IDX 9 12 8 13 7 14 6 15 5 16 4 17 3 18 2 19 1 20
REMARK H PARENT
REMARK Flexibility Score: inf
ROOT
ATOM      1  C   UNL     1      15.611  -5.589  11.474  1.00  0.00     0.000 C 
ENDROOT
BRANCH   1   2
ATOM      2  C   UNL     1      16.886  -6.013  12.219  1.00  0.00     0.000 C 
BRANCH   2   3
ATOM      3  C   UNL     1      16.917  -5.504  13.671  1.00  0.00     0.000 C 
BRANCH   3   4
ATOM      4  C   UNL     1      15.742  -4.553  13.982  1.00  0.00     0.000 C 
BRANCH   4   5
ATOM      5  C   UNL     1      16.155  -3.313  14.795  1.00  0.00     0.000 C 
BRANCH   5   6
ATOM      6  C   UNL     1      15.539  -2.012  14.254  1.00  0.00     0.000 C 
BRANCH   6   7
ATOM      7  C   UNL     1      16.405  -0.780  14.559  1.00  0.00     0.006 C 
BRANCH   7   8
ATOM      8  C   UNL     1      16.291  -0.332  16.022  1.00  0.00     0.053 C 
BRANCH   8   9
ATOM      9  C   UNL     1      17.604  -0.486  16.725  1.00  0.00     0.041 C 
ATOM     10  O   UNL     1      18.505  -1.214  16.231  1.00  0.00    -0.550 OA
ATOM     11  O   UNL     1      17.822   0.153  17.941  1.00  0.00    -0.550 OA
ENDBRANCH   8   9
ENDBRANCH   7   8
ENDBRANCH   6   7
ENDBRANCH   5   6
ENDBRANCH   4   5
ENDBRANCH   3   4
ENDBRANCH   2   3
ENDBRANCH   1   2
BRANCH   1  12
ATOM     12  C   UNL     1      15.270  -6.531  10.305  1.00  0.00     0.000 C 
BRANCH  12  13
ATOM     13  C   UNL     1      16.520  -6.976   9.530  1.00  0.00    -0.000 C 
BRANCH  13  14
ATOM     14  C   UNL     1      16.583  -6.368   8.119  1.00  0.00    -0.000 C 
BRANCH  14  15
ATOM     15  C   UNL     1      17.217  -4.965   8.100  1.00  0.00    -0.000 C 
BRANCH  15  16
ATOM     16  C   UNL     1      18.069  -4.657   6.856  1.00  0.00    -0.000 C 
BRANCH  16  17
ATOM     17  C   UNL     1      19.530  -5.121   7.002  1.00  0.00    -0.000 C 
BRANCH  17  18
ATOM     18  C   UNL     1      20.143  -4.724   8.354  1.00  0.00    -0.000 C 
BRANCH  18  19
ATOM     19  C   UNL     1      20.787  -5.913   9.079  1.00  0.00    -0.003 C 
ATOM     20  C   UNL     1      20.070  -6.206  10.394  1.00  0.00     0.004 C 
ENDBRANCH  18  19
ENDBRANCH  17  18
ENDBRANCH  16  17
ENDBRANCH  15  16
ENDBRANCH  14  15
ENDBRANCH  13  14
ENDBRANCH  12  13
ENDBRANCH   1  12
TORSDOF 16
ENDMDL
MODEL 2
REMARK VINA RESULT:    -3.616     15.258     17.759
REMARK INTER + INTRA:          -8.487
REMARK INTER:                  -6.966
REMARK INTRA:                  -1.522
REMARK UNBOUND:                -1.490
REMARK SMILES CCCCCCCCCCCCCCCCCC(=O)[O-]
REMARK SMILES IDX 10 1 11 2 12 3 13 4 14 5 15 6 16 7 17 8 18 9 19 10 20 11
REMARK SMILES IDX 9 12 8 13 7 14 6 15 5 16 4 17 3 18 2 19 1 20
REMARK H PARENT
REMARK Flexibility Score: inf
ROOT
ATOM      1  C   UNL     1      21.007  11.713   8.258  1.00  0.00     0.000 C 
ENDROOT
BRANCH   1   2
ATOM      2  C   UNL     1      22.148  12.539   7.645  1.00  0.00     0.000 C 
BRANCH   2   3
ATOM      3  C   UNL     1      22.539  12.050   6.238  1.00  0.00     0.000 C 
BRANCH   3   4
ATOM      4  C   UNL     1      23.165  10.640   6.262  1.00  0.00     0.000 C 
BRANCH   4   5
ATOM      5  C   UNL     1      24.643  10.617   5.837  1.00  0.00     0.000 C 
BRANCH   5   6
ATOM      6  C   UNL     1      25.485   9.622   6.654  1.00  0.00     0.000 C 
BRANCH   6   7
ATOM      7  C   UNL     1      26.993   9.787   6.410  1.00  0.00     0.006 C 
BRANCH   7   8
ATOM      8  C   UNL     1      27.298  10.785   5.285  1.00  0.00     0.053 C 
BRANCH   8   9
ATOM      9  C   UNL     1      28.144  11.910   5.793  1.00  0.00     0.041 C 
ATOM     10  O   UNL     1      29.149  12.293   5.137  1.00  0.00    -0.550 OA
ATOM     11  O   UNL     1      27.838  12.520   7.006  1.00  0.00    -0.550 OA
ENDBRANCH   8   9
ENDBRANCH   7   8
ENDBRANCH   6   7
ENDBRANCH   5   6
ENDBRANCH   4   5
ENDBRANCH   3   4
ENDBRANCH   2   3
ENDBRANCH   1   2
BRANCH   1  12
ATOM     12  C   UNL     1      19.851  12.592   8.769  1.00  0.00     0.000 C 
BRANCH  12  13
ATOM     13  C   UNL     1      18.538  12.325   8.017  1.00  0.00    -0.000 C 
BRANCH  13  14
ATOM     14  C   UNL     1      18.771  11.666   6.647  1.00  0.00    -0.000 C 
BRANCH  14  15
ATOM     15  C   UNL     1      17.890  10.423   6.426  1.00  0.00    -0.000 C 
BRANCH  15  16
ATOM     16  C   UNL     1      17.583   9.613   7.698  1.00  0.00    -0.000 C 
BRANCH  16  17
ATOM     17  C   UNL     1      18.742   8.690   8.114  1.00  0.00    -0.000 C 
BRANCH  17  18
ATOM     18  C   UNL     1      18.638   8.234   9.578  1.00  0.00    -0.000 C 
BRANCH  18  19
ATOM     19  C   UNL     1      17.756   9.166  10.422  1.00  0.00    -0.003 C 
ATOM     20  C   UNL     1      17.100   8.406  11.571  1.00  0.00     0.004 C 
ENDBRANCH  18  19
ENDBRANCH  17  18
ENDBRANCH  16  17
ENDBRANCH  15  16
ENDBRANCH  14  15
ENDBRANCH  13  14
ENDBRANCH  12  13
ENDBRANCH   1  12
TORSDOF 16
ENDMDL
MODEL 3
REMARK VINA RESULT:    -3.549      1.568      2.206
REMARK INTER + INTRA:          -8.358
REMARK INTER:                  -7.244
REMARK INTRA:                  -1.114
REMARK UNBOUND:                -1.490
REMARK SMILES CCCCCCCCCCCCCCCCCC(=O)[O-]
REMARK SMILES IDX 10 1 11 2 12 3 13 4 14 5 15 6 16 7 17 8 18 9 19 10 20 11
REMARK SMILES IDX 9 12 8 13 7 14 6 15 5 16 4 17 3 18 2 19 1 20
REMARK H PARENT
REMARK Flexibility Score: inf
ROOT
ATOM      1  C   UNL     1      16.385  -6.531  11.851  1.00  0.00     0.000 C 
ENDROOT
BRANCH   1   2
ATOM      2  C   UNL     1      16.936  -5.632  12.968  1.00  0.00     0.000 C 
BRANCH   2   3
ATOM      3  C   UNL     1      15.930  -4.553  13.406  1.00  0.00     0.000 C 
BRANCH   3   4
ATOM      4  C   UNL     1      15.866  -4.402  14.941  1.00  0.00     0.000 C 
BRANCH   4   5
ATOM      5  C   UNL     1      15.718  -2.943  15.408  1.00  0.00     0.000 C 
BRANCH   5   6
ATOM      6  C   UNL     1      15.621  -1.948  14.240  1.00  0.00     0.000 C 
BRANCH   6   7
ATOM      7  C   UNL     1      16.412  -0.657  14.500  1.00  0.00     0.006 C 
BRANCH   7   8
ATOM      8  C   UNL     1      16.289  -0.176  15.951  1.00  0.00     0.053 C 
BRANCH   8   9
ATOM      9  C   UNL     1      15.885   1.264  15.998  1.00  0.00     0.041 C 
ATOM     10  O   UNL     1      15.537   1.789  17.088  1.00  0.00    -0.550 OA
ATOM     11  O   UNL     1      15.867   2.021  14.830  1.00  0.00    -0.550 OA
ENDBRANCH   8   9
ENDBRANCH   7   8
ENDBRANCH   6   7
ENDBRANCH   5   6
ENDBRANCH   4   5
ENDBRANCH   3   4
ENDBRANCH   2   3
ENDBRANCH   1   2
BRANCH   1  12
ATOM     12  C   UNL     1      15.497  -5.760  10.857  1.00  0.00     0.000 C 
BRANCH  12  13
ATOM     13  C   UNL     1      15.507  -6.390   9.455  1.00  0.00    -0.000 C 
BRANCH  13  14
ATOM     14  C   UNL     1      16.842  -7.084   9.134  1.00  0.00    -0.000 C 
BRANCH  14  15
ATOM     15  C   UNL     1      17.870  -6.133   8.495  1.00  0.00    -0.000 C 
BRANCH  15  16
ATOM     16  C   UNL     1      19.230  -6.074   9.213  1.00  0.00    -0.000 C 
BRANCH  16  17
ATOM     17  C   UNL     1      20.201  -5.064   8.575  1.00  0.00    -0.000 C 
BRANCH  17  18
ATOM     18  C   UNL     1      19.474  -3.958   7.795  1.00  0.00    -0.000 C 
BRANCH  18  19
ATOM     19  C   UNL     1      20.243  -2.630   7.802  1.00  0.00    -0.003 C 
ATOM     20  C   UNL     1      21.567  -2.768   8.548  1.00  0.00     0.004 C 
ENDBRANCH  18  19
ENDBRANCH  17  18
ENDBRANCH  16  17
ENDBRANCH  15  16
ENDBRANCH  14  15
ENDBRANCH  13  14
ENDBRANCH  12  13
ENDBRANCH   1  12
TORSDOF 16
ENDMDL
MODEL 4
REMARK VINA RESULT:    -3.497     15.241     17.041
REMARK INTER + INTRA:          -8.259
REMARK INTER:                  -6.406
REMARK INTRA:                  -1.853
REMARK UNBOUND:                -1.490
REMARK SMILES CCCCCCCCCCCCCCCCCC(=O)[O-]
REMARK SMILES IDX 10 1 11 2 12 3 13 4 14 5 15 6 16 7 17 8 18 9 19 10 20 11
REMARK SMILES IDX 9 12 8 13 7 14 6 15 5 16 4 17 3 18 2 19 1 20
REMARK H PARENT
REMARK Flexibility Score: inf
ROOT
ATOM      1  C   UNL     1      23.555  10.254   4.468  1.00  0.00     0.000 C 
ENDROOT
BRANCH   1   2
ATOM      2  C   UNL     1      22.762  10.644   5.725  1.00  0.00     0.000 C 
BRANCH   2   3
ATOM      3  C   UNL     1      21.243  10.474   5.540  1.00  0.00     0.000 C 
BRANCH   3   4
ATOM      4  C   UNL     1      20.448  10.952   6.773  1.00  0.00     0.000 C 
BRANCH   4   5
ATOM      5  C   UNL     1      21.230  10.834   8.092  1.00  0.00     0.000 C 
BRANCH   5   6
ATOM      6  C   UNL     1      20.679   9.737   9.018  1.00  0.00     0.000 C 
BRANCH   6   7
ATOM      7  C   UNL     1      19.226   9.363   8.687  1.00  0.00     0.006 C 
BRANCH   7   8
ATOM      8  C   UNL     1      18.706   8.211   9.556  1.00  0.00     0.053 C 
BRANCH   8   9
ATOM      9  C   UNL     1      17.814   8.728  10.641  1.00  0.00     0.041 C 
ATOM     10  O   UNL     1      17.687   9.969  10.819  1.00  0.00    -0.550 OA
ATOM     11  O   UNL     1      17.143   7.839  11.475  1.00  0.00    -0.550 OA
ENDBRANCH   8   9
ENDBRANCH   7   8
ENDBRANCH   6   7
ENDBRANCH   5   6
ENDBRANCH   4   5
ENDBRANCH   3   4
ENDBRANCH   2   3
ENDBRANCH   1   2
BRANCH   1  12
ATOM     12  C   UNL     1      24.300  11.450   3.847  1.00  0.00     0.000 C 
BRANCH  12  13
ATOM     13  C   UNL     1      24.584  12.558   4.873  1.00  0.00    -0.000 C 
BRANCH  13  14
ATOM     14  C   UNL     1      26.043  13.042   4.826  1.00  0.00    -0.000 C 
BRANCH  14  15
ATOM     15  C   UNL     1      26.803  12.778   6.139  1.00  0.00    -0.000 C 
BRANCH  15  16
ATOM     16  C   UNL     1      27.755  11.569   6.103  1.00  0.00    -0.000 C 
BRANCH  16  17
ATOM     17  C   UNL     1      27.168  10.325   6.795  1.00  0.00    -0.000 C 
BRANCH  17  18
ATOM     18  C   UNL     1      26.781   9.222   5.797  1.00  0.00    -0.000 C 
BRANCH  18  19
ATOM     19  C   UNL     1      27.790   9.089   4.648  1.00  0.00    -0.003 C 
ATOM     20  C   UNL     1      27.083   9.082   3.296  1.00  0.00     0.004 C 
ENDBRANCH  18  19
ENDBRANCH  17  18
ENDBRANCH  16  17
ENDBRANCH  15  16
ENDBRANCH  14  15
ENDBRANCH  13  14
ENDBRANCH  12  13
ENDBRANCH   1  12
TORSDOF 16
ENDMDL
MODEL 5
REMARK VINA RESULT:    -3.483      5.387      8.331
REMARK INTER + INTRA:          -8.232
REMARK INTER:                  -5.567
REMARK INTRA:                  -2.665
REMARK UNBOUND:                -1.490
REMARK SMILES CCCCCCCCCCCCCCCCCC(=O)[O-]
REMARK SMILES IDX 10 1 11 2 12 3 13 4 14 5 15 6 16 7 17 8 18 9 19 10 20 11
REMARK SMILES IDX 9 12 8 13 7 14 6 15 5 16 4 17 3 18 2 19 1 20
REMARK H PARENT
REMARK Flexibility Score: inf
ROOT
ATOM      1  C   UNL     1      16.386  -0.651  14.447  1.00  0.00     0.000 C 
ENDROOT
BRANCH   1   2
ATOM      2  C   UNL     1      15.974   0.528  15.342  1.00  0.00     0.000 C 
BRANCH   2   3
ATOM      3  C   UNL     1      16.491   0.380  16.785  1.00  0.00     0.000 C 
BRANCH   3   4
ATOM      4  C   UNL     1      17.785  -0.457  16.859  1.00  0.00     0.000 C 
BRANCH   4   5
ATOM      5  C   UNL     1      17.920  -1.263  18.163  1.00  0.00     0.000 C 
BRANCH   5   6
ATOM      6  C   UNL     1      18.728  -0.523  19.242  1.00  0.00     0.000 C 
BRANCH   6   7
ATOM      7  C   UNL     1      20.170  -1.041  19.357  1.00  0.00     0.006 C 
BRANCH   7   8
ATOM      8  C   UNL     1      21.110  -0.389  18.335  1.00  0.00     0.053 C 
BRANCH   8   9
ATOM      9  C   UNL     1      21.564  -1.392  17.321  1.00  0.00     0.041 C 
ATOM     10  O   UNL     1      22.064  -1.008  16.230  1.00  0.00    -0.550 OA
ATOM     11  O   UNL     1      21.411  -2.752  17.569  1.00  0.00    -0.550 OA
ENDBRANCH   8   9
ENDBRANCH   7   8
ENDBRANCH   6   7
ENDBRANCH   5   6
ENDBRANCH   4   5
ENDBRANCH   3   4
ENDBRANCH   2   3
ENDBRANCH   1   2
BRANCH   1  12
ATOM     12  C   UNL     1      15.348  -1.788  14.454  1.00  0.00     0.000 C 
BRANCH  12  13
ATOM     13  C   UNL     1      15.970  -3.143  14.827  1.00  0.00    -0.000 C 
BRANCH  13  14
ATOM     14  C   UNL     1      15.662  -3.550  16.279  1.00  0.00    -0.000 C 
BRANCH  14  15
ATOM     15  C   UNL     1      14.296  -3.034  16.766  1.00  0.00    -0.000 C 
BRANCH  15  16
ATOM     16  C   UNL     1      14.344  -2.202  18.060  1.00  0.00    -0.000 C 
BRANCH  16  17
ATOM     17  C   UNL     1      13.203  -1.173  18.153  1.00  0.00    -0.000 C 
BRANCH  17  18
ATOM     18  C   UNL     1      12.734  -0.686  16.773  1.00  0.00    -0.000 C 
BRANCH  18  19
ATOM     19  C   UNL     1      11.940   0.625  16.850  1.00  0.00    -0.003 C 
ATOM     20  C   UNL     1      12.873   1.821  17.021  1.00  0.00     0.004 C 
ENDBRANCH  18  19
ENDBRANCH  17  18
ENDBRANCH  16  17
ENDBRANCH  15  16
ENDBRANCH  14  15
ENDBRANCH  13  14
ENDBRANCH  12  13
ENDBRANCH   1  12
TORSDOF 16
ENDMDL
MODEL 6
REMARK VINA RESULT:    -3.483      7.730     11.134
REMARK INTER + INTRA:          -8.231
REMARK INTER:                  -5.617
REMARK INTRA:                  -2.615
REMARK UNBOUND:                -1.490
REMARK SMILES CCCCCCCCCCCCCCCCCC(=O)[O-]
REMARK SMILES IDX 10 1 11 2 12 3 13 4 14 5 15 6 16 7 17 8 18 9 19 10 20 11
REMARK SMILES IDX 9 12 8 13 7 14 6 15 5 16 4 17 3 18 2 19 1 20
REMARK H PARENT
REMARK Flexibility Score: inf
ROOT
ATOM      1  C   UNL     1      24.938   2.513   6.218  1.00  0.00     0.000 C 
ENDROOT
BRANCH   1   2
ATOM      2  C   UNL     1      23.800   2.777   5.222  1.00  0.00     0.000 C 
BRANCH   2   3
ATOM      3  C   UNL     1      22.417   2.800   5.898  1.00  0.00     0.000 C 
BRANCH   3   4
ATOM      4  C   UNL     1      21.325   2.158   5.018  1.00  0.00     0.000 C 
BRANCH   4   5
ATOM      5  C   UNL     1      21.540   0.654   4.772  1.00  0.00     0.000 C 
BRANCH   5   6
ATOM      6  C   UNL     1      21.615  -0.160   6.075  1.00  0.00     0.000 C 
BRANCH   6   7
ATOM      7  C   UNL     1      21.718  -1.671   5.819  1.00  0.00     0.006 C 
BRANCH   7   8
ATOM      8  C   UNL     1      22.409  -2.414   6.970  1.00  0.00     0.053 C 
BRANCH   8   9
ATOM      9  C   UNL     1      21.425  -2.759   8.043  1.00  0.00     0.041 C 
ATOM     10  O   UNL     1      20.203  -2.887   7.764  1.00  0.00    -0.550 OA
ATOM     11  O   UNL     1      21.853  -2.911   9.358  1.00  0.00    -0.550 OA
ENDBRANCH   8   9
ENDBRANCH   7   8
ENDBRANCH   6   7
ENDBRANCH   5   6
ENDBRANCH   4   5
ENDBRANCH   3   4
ENDBRANCH   2   3
ENDBRANCH   1   2
BRANCH   1  12
ATOM     12  C   UNL     1      24.878   1.098   6.822  1.00  0.00     0.000 C 
BRANCH  12  13
ATOM     13  C   UNL     1      25.596   0.059   5.947  1.00  0.00    -0.000 C 
BRANCH  13  14
ATOM     14  C   UNL     1      25.925  -1.231   6.718  1.00  0.00    -0.000 C 
BRANCH  14  15
ATOM     15  C   UNL     1      25.637  -1.114   8.226  1.00  0.00    -0.000 C 
BRANCH  15  16
ATOM     16  C   UNL     1      26.877  -0.860   9.102  1.00  0.00    -0.000 C 
BRANCH  16  17
ATOM     17  C   UNL     1      26.754   0.414   9.958  1.00  0.00    -0.000 C 
BRANCH  17  18
ATOM     18  C   UNL     1      27.518   1.604   9.357  1.00  0.00    -0.000 C 
BRANCH  18  19
ATOM     19  C   UNL     1      28.638   1.163   8.403  1.00  0.00    -0.003 C 
ATOM     20  C   UNL     1      28.613   1.979   7.115  1.00  0.00     0.004 C 
ENDBRANCH  18  19
ENDBRANCH  17  18
ENDBRANCH  16  17
ENDBRANCH  15  16
ENDBRANCH  14  15
ENDBRANCH  13  14
ENDBRANCH  12  13
ENDBRANCH   1  12
TORSDOF 16
ENDMDL
MODEL 7
REMARK VINA RESULT:    -3.457      9.624     11.816
REMARK INTER + INTRA:          -8.180
REMARK INTER:                  -5.309
REMARK INTRA:                  -2.871
REMARK UNBOUND:                -1.490
REMARK SMILES CCCCCCCCCCCCCCCCCC(=O)[O-]
REMARK SMILES IDX 10 1 11 2 12 3 13 4 14 5 15 6 16 7 17 8 18 9 19 10 20 11
REMARK SMILES IDX 9 12 8 13 7 14 6 15 5 16 4 17 3 18 2 19 1 20
REMARK H PARENT
REMARK Flexibility Score: inf
ROOT
ATOM      1  C   UNL     1      22.024  -0.628   5.887  1.00  0.00     0.000 C 
ENDROOT
BRANCH   1   2
ATOM      2  C   UNL     1      23.360  -1.356   5.673  1.00  0.00     0.000 C 
BRANCH   2   3
ATOM      3  C   UNL     1      24.392  -1.029   6.768  1.00  0.00     0.000 C 
BRANCH   3   4
ATOM      4  C   UNL     1      25.838  -1.318   6.314  1.00  0.00     0.000 C 
BRANCH   4   5
ATOM      5  C   UNL     1      26.901  -0.569   7.137  1.00  0.00     0.000 C 
BRANCH   5   6
ATOM      6  C   UNL     1      26.347  -0.006   8.456  1.00  0.00     0.000 C 
BRANCH   6   7
ATOM      7  C   UNL     1      26.875   1.405   8.762  1.00  0.00     0.006 C 
BRANCH   7   8
ATOM      8  C   UNL     1      28.274   1.645   8.181  1.00  0.00     0.053 C 
BRANCH   8   9
ATOM      9  C   UNL     1      29.157   2.312   9.188  1.00  0.00     0.041 C 
ATOM     10  O   UNL     1      28.756   2.476  10.371  1.00  0.00    -0.550 OA
ATOM     11  O   UNL     1      30.414   2.778   8.814  1.00  0.00    -0.550 OA
ENDBRANCH   8   9
ENDBRANCH   7   8
ENDBRANCH   6   7
ENDBRANCH   5   6
ENDBRANCH   4   5
ENDBRANCH   3   4
ENDBRANCH   2   3
ENDBRANCH   1   2
BRANCH   1  12
ATOM     12  C   UNL     1      21.612   0.217   4.668  1.00  0.00     0.000 C 
BRANCH  12  13
ATOM     13  C   UNL     1      21.158   1.631   5.066  1.00  0.00    -0.000 C 
BRANCH  13  14
ATOM     14  C   UNL     1      22.022   2.229   6.190  1.00  0.00    -0.000 C 
BRANCH  14  15
ATOM     15  C   UNL     1      23.216   3.042   5.657  1.00  0.00    -0.000 C 
BRANCH  15  16
ATOM     16  C   UNL     1      24.585   2.623   6.222  1.00  0.00    -0.000 C 
BRANCH  16  17
ATOM     17  C   UNL     1      25.600   2.261   5.123  1.00  0.00    -0.000 C 
BRANCH  17  18
ATOM     18  C   UNL     1      24.972   1.437   3.988  1.00  0.00    -0.000 C 
BRANCH  18  19
ATOM     19  C   UNL     1      25.132   2.108   2.617  1.00  0.00    -0.003 C 
ATOM     20  C   UNL     1      23.772   2.452   2.015  1.00  0.00     0.004 C 
ENDBRANCH  18  19
ENDBRANCH  17  18
ENDBRANCH  16  17
ENDBRANCH  15  16
ENDBRANCH  14  15
ENDBRANCH  13  14
ENDBRANCH  12  13
ENDBRANCH   1  12
TORSDOF 16
ENDMDL
MODEL 8
REMARK VINA RESULT:    -3.453      5.661      8.041
REMARK INTER + INTRA:          -8.173
REMARK INTER:                  -6.255
REMARK INTRA:                  -1.918
REMARK UNBOUND:                -1.490
REMARK SMILES CCCCCCCCCCCCCCCCCC(=O)[O-]
REMARK SMILES IDX 10 1 11 2 12 3 13 4 14 5 15 6 16 7 17 8 18 9 19 10 20 11
REMARK SMILES IDX 9 12 8 13 7 14 6 15 5 16 4 17 3 18 2 19 1 20
REMARK H PARENT
REMARK Flexibility Score: inf
ROOT
ATOM      1  C   UNL     1      19.395  -4.269   6.700  1.00  0.00     0.000 C 
ENDROOT
BRANCH   1   2
ATOM      2  C   UNL     1      19.256  -3.170   7.764  1.00  0.00     0.000 C 
BRANCH   2   3
ATOM      3  C   UNL     1      20.503  -2.272   7.851  1.00  0.00     0.000 C 
BRANCH   3   4
ATOM      4  C   UNL     1      21.721  -2.892   7.135  1.00  0.00     0.000 C 
BRANCH   4   5
ATOM      5  C   UNL     1      22.559  -1.869   6.349  1.00  0.00     0.000 C 
BRANCH   5   6
ATOM      6  C   UNL     1      21.741  -0.646   5.900  1.00  0.00     0.000 C 
BRANCH   6   7
ATOM      7  C   UNL     1      22.575   0.350   5.080  1.00  0.00     0.006 C 
BRANCH   7   8
ATOM      8  C   UNL     1      23.753   0.924   5.877  1.00  0.00     0.053 C 
BRANCH   8   9
ATOM      9  C   UNL     1      23.532   2.373   6.176  1.00  0.00     0.041 C 
ATOM     10  O   UNL     1      22.362   2.830   6.268  1.00  0.00    -0.550 OA
ATOM     11  O   UNL     1      24.620   3.227   6.327  1.00  0.00    -0.550 OA
ENDBRANCH   8   9
ENDBRANCH   7   8
ENDBRANCH   6   7
ENDBRANCH   5   6
ENDBRANCH   4   5
ENDBRANCH   3   4
ENDBRANCH   2   3
ENDBRANCH   1   2
BRANCH   1  12
ATOM     12  C   UNL     1      18.040  -4.884   6.307  1.00  0.00     0.000 C 
BRANCH  12  13
ATOM     13  C   UNL     1      17.692  -6.119   7.153  1.00  0.00    -0.000 C 
BRANCH  13  14
ATOM     14  C   UNL     1      16.816  -5.770   8.368  1.00  0.00    -0.000 C 
BRANCH  14  15
ATOM     15  C   UNL     1      17.505  -6.077   9.710  1.00  0.00    -0.000 C 
BRANCH  15  16
ATOM     16  C   UNL     1      18.883  -6.753   9.588  1.00  0.00    -0.000 C 
BRANCH  16  17
ATOM     17  C   UNL     1      19.909  -6.203  10.596  1.00  0.00    -0.000 C 
BRANCH  17  18
ATOM     18  C   UNL     1      21.079  -5.479   9.911  1.00  0.00    -0.000 C 
BRANCH  18  19
ATOM     19  C   UNL     1      22.183  -5.078  10.900  1.00  0.00    -0.003 C 
ATOM     20  C   UNL     1      22.751  -3.704  10.559  1.00  0.00     0.004 C 
ENDBRANCH  18  19
ENDBRANCH  17  18
ENDBRANCH  16  17
ENDBRANCH  15  16
ENDBRANCH  14  15
ENDBRANCH  13  14
ENDBRANCH  12  13
ENDBRANCH   1  12
TORSDOF 16
ENDMDL
MODEL 9
REMARK VINA RESULT:    -3.452      7.647     11.065
REMARK INTER + INTRA:          -8.171
REMARK INTER:                  -5.624
REMARK INTRA:                  -2.547
REMARK UNBOUND:                -1.490
REMARK SMILES CCCCCCCCCCCCCCCCCC(=O)[O-]
REMARK SMILES IDX 10 1 11 2 12 3 13 4 14 5 15 6 16 7 17 8 18 9 19 10 20 11
REMARK SMILES IDX 9 12 8 13 7 14 6 15 5 16 4 17 3 18 2 19 1 20
REMARK H PARENT
REMARK Flexibility Score: inf
ROOT
ATOM      1  C   UNL     1      22.804   3.037   5.562  1.00  0.00     0.000 C 
ENDROOT
BRANCH   1   2
ATOM      2  C   UNL     1      24.214   3.001   6.172  1.00  0.00     0.000 C 
BRANCH   2   3
ATOM      3  C   UNL     1      25.116   1.944   5.508  1.00  0.00     0.000 C 
BRANCH   3   4
ATOM      4  C   UNL     1      25.241   0.664   6.361  1.00  0.00     0.000 C 
BRANCH   4   5
ATOM      5  C   UNL     1      24.605  -0.574   5.705  1.00  0.00     0.000 C 
BRANCH   5   6
ATOM      6  C   UNL     1      24.143  -1.623   6.732  1.00  0.00     0.000 C 
BRANCH   6   7
ATOM      7  C   UNL     1      22.618  -1.812   6.734  1.00  0.00     0.006 C 
BRANCH   7   8
ATOM      8  C   UNL     1      22.170  -2.938   7.675  1.00  0.00     0.053 C 
BRANCH   8   9
ATOM      9  C   UNL     1      20.694  -2.870   7.913  1.00  0.00     0.041 C 
ATOM     10  O   UNL     1      20.118  -1.753   8.008  1.00  0.00    -0.550 OA
ATOM     11  O   UNL     1      19.957  -4.041   8.060  1.00  0.00    -0.550 OA
ENDBRANCH   8   9
ENDBRANCH   7   8
ENDBRANCH   6   7
ENDBRANCH   5   6
ENDBRANCH   4   5
ENDBRANCH   3   4
ENDBRANCH   2   3
ENDBRANCH   1   2
BRANCH   1  12
ATOM     12  C   UNL     1      21.859   2.003   6.200  1.00  0.00     0.000 C 
BRANCH  12  13
ATOM     13  C   UNL     1      21.197   1.095   5.152  1.00  0.00    -0.000 C 
BRANCH  13  14
ATOM     14  C   UNL     1      21.843   1.233   3.763  1.00  0.00    -0.000 C 
BRANCH  14  15
ATOM     15  C   UNL     1      20.809   1.424   2.639  1.00  0.00    -0.000 C 
BRANCH  15  16
ATOM     16  C   UNL     1      19.350   1.537   3.117  1.00  0.00    -0.000 C 
BRANCH  16  17
ATOM     17  C   UNL     1      18.806   2.976   3.045  1.00  0.00    -0.000 C 
BRANCH  17  18
ATOM     18  C   UNL     1      18.708   3.639   4.428  1.00  0.00    -0.000 C 
BRANCH  18  19
ATOM     19  C   UNL     1      19.699   4.799   4.596  1.00  0.00    -0.003 C 
ATOM     20  C   UNL     1      20.463   5.058   3.300  1.00  0.00     0.004 C 
ENDBRANCH  18  19
ENDBRANCH  17  18
ENDBRANCH  16  17
ENDBRANCH  15  16
ENDBRANCH  14  15
ENDBRANCH  13  14
ENDBRANCH  12  13
ENDBRANCH   1  12
TORSDOF 16
ENDMDL
