MODEL 1
REMARK VINA RESULT:    -3.330      0.000      0.000
REMARK INTER + INTRA:          -5.609
REMARK INTER:                  -4.888
REMARK INTRA:                  -0.721
REMARK UNBOUND:                -0.721
REMARK SMILES O=c1c(O[C@@H]2O[C@H](CO)[C@@H](O)[C@H](O)[C@H]2O)c(-c2ccc(O)c(O)c2)oc2cc(O)cc(O)c12
REMARK SMILES IDX 4 1 3 2 16 3 25 4 2 5 26 6 1 7 33 8 27 9 31 10 28 11 30 12
REMARK SMILES IDX 17 13 18 14 19 15 20 16 24 17 22 18 21 19 23 21 32 23 29 25
REMARK SMILES IDX 5 27 14 28 6 29 12 30 7 31 10 32 15 33 13 35 8 37 9 38 11 40
REMARK H PARENT 21 20 23 22 32 24 29 26 15 34 13 36 9 39 11 41
REMARK Flexibility Score: inf
ROOT
ATOM      1  O   UNL     1      12.860  14.694  -2.602  1.00  0.00    -0.454 OA
ENDROOT
BRANCH   1   2
ATOM      2  C   UNL     1      12.318  13.419  -2.408  1.00  0.00     0.214 A 
ATOM      3  C   UNL     1      10.941  13.266  -2.171  1.00  0.00     0.180 A 
ATOM      4  O   UNL     1      10.418  12.047  -2.093  1.00  0.00    -0.452 OA
ATOM      5  C   UNL     1      13.125  12.275  -2.495  1.00  0.00     0.239 A 
ATOM      6  C   UNL     1      11.138  10.935  -2.187  1.00  0.00     0.146 A 
ATOM      7  O   UNL     1      14.349  12.420  -2.742  1.00  0.00    -0.285 OA
ATOM      8  C   UNL     1      12.547  10.992  -2.346  1.00  0.00     0.111 A 
ATOM      9  C   UNL     1      10.479   9.705  -2.133  1.00  0.00     0.094 A 
ATOM     10  C   UNL     1      13.278   9.769  -2.389  1.00  0.00     0.134 A 
ATOM     11  C   UNL     1      11.197   8.513  -2.240  1.00  0.00     0.123 A 
ATOM     12  C   UNL     1      12.585   8.551  -2.366  1.00  0.00     0.093 A 
BRANCH   3  13
ATOM     13  C   UNL     1      10.028  14.427  -2.066  1.00  0.00     0.025 A 
ATOM     14  C   UNL     1      10.016  15.443  -3.037  1.00  0.00     0.016 A 
ATOM     15  C   UNL     1       9.134  16.519  -2.923  1.00  0.00     0.051 A 
ATOM     16  C   UNL     1       8.265  16.609  -1.832  1.00  0.00     0.157 A 
ATOM     17  C   UNL     1       9.165  14.528  -0.963  1.00  0.00     0.062 A 
ATOM     18  C   UNL     1       8.282  15.612  -0.844  1.00  0.00     0.158 A 
BRANCH  16  19
ATOM     19  O   UNL     1       7.393  17.693  -1.746  1.00  0.00    -0.504 OA
ATOM     20  H   UNL     1       7.584  18.491  -1.151  1.00  0.00     0.293 HD
ENDBRANCH  16  19
BRANCH  18  21
ATOM     21  O   UNL     1       7.424  15.698   0.251  1.00  0.00    -0.504 OA
ATOM     22  H   UNL     1       6.518  16.145   0.181  1.00  0.00     0.293 HD
ENDBRANCH  18  21
ENDBRANCH   3  13
BRANCH  10  23
ATOM     23  O   UNL     1      14.673   9.696  -2.425  1.00  0.00    -0.507 OA
ATOM     24  H   UNL     1      15.279  10.072  -1.713  1.00  0.00     0.293 HD
ENDBRANCH  10  23
BRANCH  11  25
ATOM     25  O   UNL     1      10.542   7.283  -2.211  1.00  0.00    -0.508 OA
ATOM     26  H   UNL     1      11.054   6.411  -2.169  1.00  0.00     0.293 HD
ENDBRANCH  11  25
ENDBRANCH   1   2
BRANCH   1  27
ATOM     27  C   UNL     1      14.215  15.003  -2.271  1.00  0.00     0.339 C 
ATOM     28  C   UNL     1      14.728  16.188  -3.112  1.00  0.00     0.214 C 
ATOM     29  O   UNL     1      14.378  15.192  -0.873  1.00  0.00    -0.332 OA
ATOM     30  C   UNL     1      14.087  17.510  -2.679  1.00  0.00     0.180 C 
ATOM     31  C   UNL     1      13.808  16.393  -0.360  1.00  0.00     0.179 C 
ATOM     32  C   UNL     1      14.163  17.687  -1.146  1.00  0.00     0.177 C 
BRANCH  28  33
ATOM     33  O   UNL     1      16.132  16.273  -3.076  1.00  0.00    -0.384 OA
ATOM     34  H   UNL     1      16.397  17.201  -3.309  1.00  0.00     0.211 HD
ENDBRANCH  28  33
BRANCH  30  35
ATOM     35  O   UNL     1      12.757  17.556  -3.125  1.00  0.00    -0.387 OA
ATOM     36  H   UNL     1      12.181  17.449  -2.323  1.00  0.00     0.211 HD
ENDBRANCH  30  35
BRANCH  31  37
ATOM     37  C   UNL     1      12.315  16.242   0.003  1.00  0.00     0.191 C 
BRANCH  37  38
ATOM     38  O   UNL     1      11.571  17.376  -0.345  1.00  0.00    -0.394 OA
ATOM     39  H   UNL     1      11.859  17.631  -1.261  1.00  0.00     0.210 HD
ENDBRANCH  37  38
ENDBRANCH  31  37
BRANCH  32  40
ATOM     40  O   UNL     1      15.461  18.094  -0.789  1.00  0.00    -0.387 OA
ATOM     41  H   UNL     1      15.367  18.758  -0.054  1.00  0.00     0.211 HD
ENDBRANCH  32  40
ENDBRANCH   1  27
TORSDOF 12
ENDMDL
MODEL 2
REMARK VINA RESULT:    -3.317      2.344      6.161
REMARK INTER + INTRA:          -5.589
REMARK INTER:                  -6.075
REMARK INTRA:                   0.486
REMARK UNBOUND:                -0.721
REMARK SMILES O=c1c(O[C@@H]2O[C@H](CO)[C@@H](O)[C@H](O)[C@H]2O)c(-c2ccc(O)c(O)c2)oc2cc(O)cc(O)c12
REMARK SMILES IDX 4 1 3 2 16 3 25 4 2 5 26 6 1 7 33 8 27 9 31 10 28 11 30 12
REMARK SMILES IDX 17 13 18 14 19 15 20 16 24 17 22 18 21 19 23 21 32 23 29 25
REMARK SMILES IDX 5 27 14 28 6 29 12 30 7 31 10 32 15 33 13 35 8 37 9 38 11 40
REMARK H PARENT 21 20 23 22 32 24 29 26 15 34 13 36 9 39 11 41
REMARK Flexibility Score: inf
ROOT
ATOM      1  O   UNL     1      10.490  11.616  -1.874  1.00  0.00    -0.454 OA
ENDROOT
BRANCH   1   2
ATOM      2  C   UNL     1      10.480  10.247  -2.166  1.00  0.00     0.214 A 
ATOM      3  C   UNL     1      11.666   9.598  -2.549  1.00  0.00     0.180 A 
ATOM      4  O   UNL     1      11.668   8.281  -2.721  1.00  0.00    -0.452 OA
ATOM      5  C   UNL     1       9.303   9.495  -2.036  1.00  0.00     0.239 A 
ATOM      6  C   UNL     1      10.585   7.524  -2.592  1.00  0.00     0.146 A 
ATOM      7  O   UNL     1       8.255  10.078  -1.659  1.00  0.00    -0.285 OA
ATOM      8  C   UNL     1       9.326   8.102  -2.286  1.00  0.00     0.111 A 
ATOM      9  C   UNL     1      10.710   6.142  -2.754  1.00  0.00     0.094 A 
ATOM     10  C   UNL     1       8.185   7.251  -2.209  1.00  0.00     0.134 A 
ATOM     11  C   UNL     1       9.598   5.310  -2.615  1.00  0.00     0.123 A 
ATOM     12  C   UNL     1       8.348   5.866  -2.345  1.00  0.00     0.093 A 
BRANCH   3  13
ATOM     13  C   UNL     1      12.945  10.326  -2.708  1.00  0.00     0.025 A 
ATOM     14  C   UNL     1      12.978  11.716  -2.920  1.00  0.00     0.016 A 
ATOM     15  C   UNL     1      14.198  12.381  -3.051  1.00  0.00     0.051 A 
ATOM     16  C   UNL     1      15.401  11.672  -2.993  1.00  0.00     0.157 A 
ATOM     17  C   UNL     1      14.154   9.614  -2.667  1.00  0.00     0.062 A 
ATOM     18  C   UNL     1      15.381  10.281  -2.805  1.00  0.00     0.158 A 
BRANCH  16  19
ATOM     19  O   UNL     1      16.604  12.364  -3.125  1.00  0.00    -0.504 OA
ATOM     20  H   UNL     1      16.808  13.197  -2.585  1.00  0.00     0.293 HD
ENDBRANCH  16  19
BRANCH  18  21
ATOM     21  O   UNL     1      16.576   9.564  -2.754  1.00  0.00    -0.504 OA
ATOM     22  H   UNL     1      16.799   8.854  -3.442  1.00  0.00     0.293 HD
ENDBRANCH  18  21
ENDBRANCH   3  13
BRANCH  10  23
ATOM     23  O   UNL     1       6.878   7.714  -2.032  1.00  0.00    -0.507 OA
ATOM     24  H   UNL     1       6.102   7.131  -1.762  1.00  0.00     0.293 HD
ENDBRANCH  10  23
BRANCH  11  25
ATOM     25  O   UNL     1       9.722   3.929  -2.752  1.00  0.00    -0.508 OA
ATOM     26  H   UNL     1       9.233   3.422  -3.478  1.00  0.00     0.293 HD
ENDBRANCH  11  25
ENDBRANCH   1   2
BRANCH   1  27
ATOM     27  C   UNL     1       9.817  12.573  -2.692  1.00  0.00     0.339 C 
ATOM     28  C   UNL     1       8.399  12.850  -2.157  1.00  0.00     0.214 C 
ATOM     29  O   UNL     1      10.594  13.750  -2.862  1.00  0.00    -0.332 OA
ATOM     30  C   UNL     1       8.430  13.655  -0.854  1.00  0.00     0.180 C 
ATOM     31  C   UNL     1      10.698  14.572  -1.702  1.00  0.00     0.179 C 
ATOM     32  C   UNL     1       9.353  14.887  -0.986  1.00  0.00     0.177 C 
BRANCH  28  33
ATOM     33  O   UNL     1       7.601  13.488  -3.125  1.00  0.00    -0.384 OA
ATOM     34  H   UNL     1       7.916  14.425  -3.224  1.00  0.00     0.211 HD
ENDBRANCH  28  33
BRANCH  30  35
ATOM     35  O   UNL     1       8.844  12.826   0.200  1.00  0.00    -0.387 OA
ATOM     36  H   UNL     1       8.433  13.187   1.028  1.00  0.00     0.211 HD
ENDBRANCH  30  35
BRANCH  31  37
ATOM     37  C   UNL     1      11.849  14.147  -0.765  1.00  0.00     0.191 C 
BRANCH  37  38
ATOM     38  O   UNL     1      12.945  15.013  -0.850  1.00  0.00    -0.394 OA
ATOM     39  H   UNL     1      12.965  15.525  -0.001  1.00  0.00     0.210 HD
ENDBRANCH  37  38
ENDBRANCH  31  37
BRANCH  32  40
ATOM     40  O   UNL     1       8.683  15.895  -1.699  1.00  0.00    -0.387 OA
ATOM     41  H   UNL     1       9.215  16.076  -2.520  1.00  0.00     0.211 HD
ENDBRANCH  32  40
ENDBRANCH   1  27
TORSDOF 12
ENDMDL
MODEL 3
REMARK VINA RESULT:    -3.003      1.655      5.288
REMARK INTER + INTRA:          -5.128
REMARK INTER:                  -5.621
REMARK INTRA:                   0.493
REMARK UNBOUND:                -0.721
REMARK SMILES O=c1c(O[C@@H]2O[C@H](CO)[C@@H](O)[C@H](O)[C@H]2O)c(-c2ccc(O)c(O)c2)oc2cc(O)cc(O)c12
REMARK SMILES IDX 4 1 3 2 16 3 25 4 2 5 26 6 1 7 33 8 27 9 31 10 28 11 30 12
REMARK SMILES IDX 17 13 18 14 19 15 20 16 24 17 22 18 21 19 23 21 32 23 29 25
REMARK SMILES IDX 5 27 14 28 6 29 12 30 7 31 10 32 15 33 13 35 8 37 9 38 11 40
REMARK H PARENT 21 20 23 22 32 24 29 26 15 34 13 36 9 39 11 41
REMARK Flexibility Score: inf
ROOT
ATOM      1  O   UNL     1      10.611  12.757  -1.823  1.00  0.00    -0.454 OA
ENDROOT
BRANCH   1   2
ATOM      2  C   UNL     1      11.207  11.520  -2.093  1.00  0.00     0.214 A 
ATOM      3  C   UNL     1      12.564  11.455  -2.453  1.00  0.00     0.180 A 
ATOM      4  O   UNL     1      13.148  10.271  -2.605  1.00  0.00    -0.452 OA
ATOM      5  C   UNL     1      10.479  10.328  -1.962  1.00  0.00     0.239 A 
ATOM      6  C   UNL     1      12.505   9.116  -2.474  1.00  0.00     0.146 A 
ATOM      7  O   UNL     1       9.276  10.395  -1.605  1.00  0.00    -0.285 OA
ATOM      8  C   UNL     1      11.116   9.085  -2.190  1.00  0.00     0.111 A 
ATOM      9  C   UNL     1      13.228   7.929  -2.612  1.00  0.00     0.094 A 
ATOM     10  C   UNL     1      10.465   7.820  -2.111  1.00  0.00     0.134 A 
ATOM     11  C   UNL     1      12.593   6.695  -2.471  1.00  0.00     0.123 A 
ATOM     12  C   UNL     1      11.223   6.646  -2.222  1.00  0.00     0.093 A 
BRANCH   3  13
ATOM     13  C   UNL     1      13.395  12.670  -2.612  1.00  0.00     0.025 A 
ATOM     14  C   UNL     1      14.797  12.599  -2.672  1.00  0.00     0.016 A 
ATOM     15  C   UNL     1      15.557  13.758  -2.839  1.00  0.00     0.051 A 
ATOM     16  C   UNL     1      14.934  15.005  -2.927  1.00  0.00     0.157 A 
ATOM     17  C   UNL     1      12.772  13.926  -2.684  1.00  0.00     0.062 A 
ATOM     18  C   UNL     1      13.535  15.093  -2.845  1.00  0.00     0.158 A 
BRANCH  16  19
ATOM     19  O   UNL     1      15.718  16.146  -3.095  1.00  0.00    -0.504 OA
ATOM     20  H   UNL     1      16.576  16.290  -2.575  1.00  0.00     0.293 HD
ENDBRANCH  16  19
BRANCH  18  21
ATOM     21  O   UNL     1      12.906  16.334  -2.924  1.00  0.00    -0.504 OA
ATOM     22  H   UNL     1      13.431  17.186  -3.087  1.00  0.00     0.293 HD
ENDBRANCH  18  21
ENDBRANCH   3  13
BRANCH  10  23
ATOM     23  O   UNL     1       9.085   7.663  -1.953  1.00  0.00    -0.507 OA
ATOM     24  H   UNL     1       8.580   7.893  -1.111  1.00  0.00     0.293 HD
ENDBRANCH  10  23
BRANCH  11  25
ATOM     25  O   UNL     1      13.314   5.507  -2.584  1.00  0.00    -0.508 OA
ATOM     26  H   UNL     1      12.879   4.606  -2.434  1.00  0.00     0.293 HD
ENDBRANCH  11  25
ENDBRANCH   1   2
BRANCH   1  27
ATOM     27  C   UNL     1       9.572  13.295  -2.642  1.00  0.00     0.339 C 
ATOM     28  C   UNL     1       8.187  12.850  -2.135  1.00  0.00     0.214 C 
ATOM     29  O   UNL     1       9.696  14.704  -2.780  1.00  0.00    -0.332 OA
ATOM     30  C   UNL     1       7.815  13.544  -0.821  1.00  0.00     0.180 C 
ATOM     31  C   UNL     1       9.381  15.450  -1.607  1.00  0.00     0.179 C 
ATOM     32  C   UNL     1       8.040  15.070  -0.916  1.00  0.00     0.177 C 
BRANCH  28  33
ATOM     33  O   UNL     1       7.194  13.053  -3.111  1.00  0.00    -0.384 OA
ATOM     34  H   UNL     1       7.523  13.727  -3.760  1.00  0.00     0.211 HD
ENDBRANCH  28  33
BRANCH  30  35
ATOM     35  O   UNL     1       8.561  12.990   0.231  1.00  0.00    -0.387 OA
ATOM     36  H   UNL     1       8.152  12.109   0.439  1.00  0.00     0.211 HD
ENDBRANCH  30  35
BRANCH  31  37
ATOM     37  C   UNL     1      10.583  15.604  -0.652  1.00  0.00     0.191 C 
BRANCH  37  38
ATOM     38  O   UNL     1      11.054  16.922  -0.605  1.00  0.00    -0.394 OA
ATOM     39  H   UNL     1      11.562  17.008   0.244  1.00  0.00     0.210 HD
ENDBRANCH  37  38
ENDBRANCH  31  37
BRANCH  32  40
ATOM     40  O   UNL     1       6.979  15.653  -1.630  1.00  0.00    -0.387 OA
ATOM     41  H   UNL     1       7.351  15.980  -2.492  1.00  0.00     0.211 HD
ENDBRANCH  32  40
ENDBRANCH   1  27
TORSDOF 12
ENDMDL
MODEL 4
REMARK VINA RESULT:    -2.667      1.586      2.693
REMARK INTER + INTRA:          -4.635
REMARK INTER:                  -3.837
REMARK INTRA:                  -0.798
REMARK UNBOUND:                -0.721
REMARK SMILES O=c1c(O[C@@H]2O[C@H](CO)[C@@H](O)[C@H](O)[C@H]2O)c(-c2ccc(O)c(O)c2)oc2cc(O)cc(O)c12
REMARK SMILES IDX 4 1 3 2 16 3 25 4 2 5 26 6 1 7 33 8 27 9 31 10 28 11 30 12
REMARK SMILES IDX 17 13 18 14 19 15 20 16 24 17 22 18 21 19 23 21 32 23 29 25
REMARK SMILES IDX 5 27 14 28 6 29 12 30 7 31 10 32 15 33 13 35 8 37 9 38 11 40
REMARK H PARENT 21 20 23 22 32 24 29 26 15 34 13 36 9 39 11 41
REMARK Flexibility Score: inf
ROOT
ATOM      1  O   UNL     1      11.478  13.859  -1.323  1.00  0.00    -0.454 OA
ENDROOT
BRANCH   1   2
ATOM      2  C   UNL     1      10.633  12.762  -1.525  1.00  0.00     0.214 A 
ATOM      3  C   UNL     1       9.260  12.961  -1.748  1.00  0.00     0.180 A 
ATOM      4  O   UNL     1       8.484  11.923  -2.043  1.00  0.00    -0.452 OA
ATOM      5  C   UNL     1      11.146  11.456  -1.555  1.00  0.00     0.239 A 
ATOM      6  C   UNL     1       8.927  10.673  -2.101  1.00  0.00     0.146 A 
ATOM      7  O   UNL     1      12.381  11.292  -1.389  1.00  0.00    -0.285 OA
ATOM      8  C   UNL     1      10.282  10.366  -1.811  1.00  0.00     0.111 A 
ATOM      9  C   UNL     1       8.033   9.662  -2.462  1.00  0.00     0.094 A 
ATOM     10  C   UNL     1      10.692   9.001  -1.838  1.00  0.00     0.134 A 
ATOM     11  C   UNL     1       8.460   8.337  -2.546  1.00  0.00     0.123 A 
ATOM     12  C   UNL     1       9.780   8.015  -2.235  1.00  0.00     0.093 A 
BRANCH   3  13
ATOM     13  C   UNL     1       8.648  14.309  -1.730  1.00  0.00     0.025 A 
ATOM     14  C   UNL     1       8.416  15.027  -2.915  1.00  0.00     0.016 A 
ATOM     15  C   UNL     1       7.822  16.290  -2.872  1.00  0.00     0.051 A 
ATOM     16  C   UNL     1       7.469  16.864  -1.648  1.00  0.00     0.157 A 
ATOM     17  C   UNL     1       8.307  14.894  -0.500  1.00  0.00     0.062 A 
ATOM     18  C   UNL     1       7.716  16.166  -0.454  1.00  0.00     0.158 A 
BRANCH  16  19
ATOM     19  O   UNL     1       6.875  18.125  -1.635  1.00  0.00    -0.504 OA
ATOM     20  H   UNL     1       7.000  18.771  -0.864  1.00  0.00     0.293 HD
ENDBRANCH  16  19
BRANCH  18  21
ATOM     21  O   UNL     1       7.373  16.734   0.772  1.00  0.00    -0.504 OA
ATOM     22  H   UNL     1       6.806  16.236   1.448  1.00  0.00     0.293 HD
ENDBRANCH  18  21
ENDBRANCH   3  13
BRANCH  10  23
ATOM     23  O   UNL     1      11.965   8.564  -1.459  1.00  0.00    -0.507 OA
ATOM     24  H   UNL     1      12.708   8.353  -2.107  1.00  0.00     0.293 HD
ENDBRANCH  10  23
BRANCH  11  25
ATOM     25  O   UNL     1       7.578   7.328  -2.930  1.00  0.00    -0.508 OA
ATOM     26  H   UNL     1       7.482   6.475  -2.393  1.00  0.00     0.293 HD
ENDBRANCH  11  25
ENDBRANCH   1   2
BRANCH   1  27
ATOM     27  C   UNL     1      11.481  14.988  -2.197  1.00  0.00     0.339 C 
ATOM     28  C   UNL     1      11.442  16.302  -1.395  1.00  0.00     0.214 C 
ATOM     29  O   UNL     1      12.555  14.926  -3.125  1.00  0.00    -0.332 OA
ATOM     30  C   UNL     1      12.771  16.571  -0.683  1.00  0.00     0.180 C 
ATOM     31  C   UNL     1      13.845  15.153  -2.564  1.00  0.00     0.179 C 
ATOM     32  C   UNL     1      13.963  16.408  -1.652  1.00  0.00     0.177 C 
BRANCH  28  33
ATOM     33  O   UNL     1      11.077  17.391  -2.209  1.00  0.00    -0.384 OA
ATOM     34  H   UNL     1      10.586  17.042  -2.998  1.00  0.00     0.211 HD
ENDBRANCH  28  33
BRANCH  30  35
ATOM     35  O   UNL     1      12.897  15.710   0.419  1.00  0.00    -0.387 OA
ATOM     36  H   UNL     1      13.755  15.937   0.864  1.00  0.00     0.211 HD
ENDBRANCH  30  35
BRANCH  31  37
ATOM     37  C   UNL     1      14.485  13.871  -1.990  1.00  0.00     0.191 C 
BRANCH  37  38
ATOM     38  O   UNL     1      14.196  12.743  -2.769  1.00  0.00    -0.394 OA
ATOM     39  H   UNL     1      13.361  12.354  -2.400  1.00  0.00     0.210 HD
ENDBRANCH  37  38
ENDBRANCH  31  37
BRANCH  32  40
ATOM     40  O   UNL     1      14.062  17.552  -2.464  1.00  0.00    -0.387 OA
ATOM     41  H   UNL     1      13.590  17.348  -3.315  1.00  0.00     0.211 HD
ENDBRANCH  32  40
ENDBRANCH   1  27
TORSDOF 12
ENDMDL
MODEL 5
REMARK VINA RESULT:    -2.137      2.042      5.503
REMARK INTER + INTRA:          -3.858
REMARK INTER:                  -3.862
REMARK INTRA:                   0.004
REMARK UNBOUND:                -0.721
REMARK SMILES O=c1c(O[C@@H]2O[C@H](CO)[C@@H](O)[C@H](O)[C@H]2O)c(-c2ccc(O)c(O)c2)oc2cc(O)cc(O)c12
REMARK SMILES IDX 4 1 3 2 16 3 25 4 2 5 26 6 1 7 33 8 27 9 31 10 28 11 30 12
REMARK SMILES IDX 17 13 18 14 19 15 20 16 24 17 22 18 21 19 23 21 32 23 29 25
REMARK SMILES IDX 5 27 14 28 6 29 12 30 7 31 10 32 15 33 13 35 8 37 9 38 11 40
REMARK H PARENT 21 20 23 22 32 24 29 26 15 34 13 36 9 39 11 41
REMARK Flexibility Score: inf
ROOT
ATOM      1  O   UNL     1      10.420  15.101  -2.178  1.00  0.00    -0.454 OA
ENDROOT
BRANCH   1   2
ATOM      2  C   UNL     1      11.712  14.567  -2.238  1.00  0.00     0.214 A 
ATOM      3  C   UNL     1      11.900  13.174  -2.239  1.00  0.00     0.180 A 
ATOM      4  O   UNL     1      13.121  12.676  -2.403  1.00  0.00    -0.452 OA
ATOM      5  C   UNL     1      12.831  15.405  -2.348  1.00  0.00     0.239 A 
ATOM      6  C   UNL     1      14.207  13.428  -2.529  1.00  0.00     0.146 A 
ATOM      7  O   UNL     1      12.649  16.648  -2.382  1.00  0.00    -0.285 OA
ATOM      8  C   UNL     1      14.124  14.843  -2.460  1.00  0.00     0.111 A 
ATOM      9  C   UNL     1      15.437  12.799  -2.739  1.00  0.00     0.094 A 
ATOM     10  C   UNL     1      15.328  15.601  -2.549  1.00  0.00     0.134 A 
ATOM     11  C   UNL     1      16.601  13.554  -2.888  1.00  0.00     0.123 A 
ATOM     12  C   UNL     1      16.541  14.943  -2.793  1.00  0.00     0.093 A 
BRANCH   3  13
ATOM     13  C   UNL     1      10.768  12.228  -2.126  1.00  0.00     0.025 A 
ATOM     14  C   UNL     1      10.783  10.981  -2.776  1.00  0.00     0.016 A 
ATOM     15  C   UNL     1       9.709  10.099  -2.639  1.00  0.00     0.051 A 
ATOM     16  C   UNL     1       8.597  10.454  -1.871  1.00  0.00     0.157 A 
ATOM     17  C   UNL     1       9.641  12.588  -1.368  1.00  0.00     0.062 A 
ATOM     18  C   UNL     1       8.559  11.705  -1.235  1.00  0.00     0.158 A 
BRANCH  16  19
ATOM     19  O   UNL     1       7.540   9.552  -1.751  1.00  0.00    -0.504 OA
ATOM     20  H   UNL     1       6.585   9.811  -1.969  1.00  0.00     0.293 HD
ENDBRANCH  16  19
BRANCH  18  21
ATOM     21  O   UNL     1       7.449  12.069  -0.474  1.00  0.00    -0.504 OA
ATOM     22  H   UNL     1       7.239  11.616   0.408  1.00  0.00     0.293 HD
ENDBRANCH  18  21
ENDBRANCH   3  13
BRANCH  10  23
ATOM     23  O   UNL     1      15.389  16.987  -2.378  1.00  0.00    -0.507 OA
ATOM     24  H   UNL     1      15.847  17.617  -3.019  1.00  0.00     0.293 HD
ENDBRANCH  10  23
BRANCH  11  25
ATOM     25  O   UNL     1      17.826  12.932  -3.123  1.00  0.00    -0.508 OA
ATOM     26  H   UNL     1      17.991  12.382  -3.956  1.00  0.00     0.293 HD
ENDBRANCH  11  25
ENDBRANCH   1   2
BRANCH   1  27
ATOM     27  C   UNL     1       9.862  15.607  -0.965  1.00  0.00     0.339 C 
ATOM     28  C   UNL     1      10.153  17.112  -0.813  1.00  0.00     0.214 C 
ATOM     29  O   UNL     1       8.483  15.286  -0.853  1.00  0.00    -0.332 OA
ATOM     30  C   UNL     1       9.334  17.951  -1.799  1.00  0.00     0.180 C 
ATOM     31  C   UNL     1       7.627  16.005  -1.737  1.00  0.00     0.179 C 
ATOM     32  C   UNL     1       7.843  17.545  -1.767  1.00  0.00     0.177 C 
BRANCH  28  33
ATOM     33  O   UNL     1       9.945  17.545   0.510  1.00  0.00    -0.384 OA
ATOM     34  H   UNL     1       9.074  17.187   0.824  1.00  0.00     0.211 HD
ENDBRANCH  28  33
BRANCH  30  35
ATOM     35  O   UNL     1       9.866  17.810  -3.091  1.00  0.00    -0.387 OA
ATOM     36  H   UNL     1       9.211  17.277  -3.615  1.00  0.00     0.211 HD
ENDBRANCH  30  35
BRANCH  31  37
ATOM     37  C   UNL     1       7.500  15.339  -3.124  1.00  0.00     0.191 C 
BRANCH  37  38
ATOM     38  O   UNL     1       6.932  14.062  -3.045  1.00  0.00    -0.394 OA
ATOM     39  H   UNL     1       6.138  14.143  -2.456  1.00  0.00     0.210 HD
ENDBRANCH  37  38
ENDBRANCH  31  37
BRANCH  32  40
ATOM     40  O   UNL     1       7.232  18.113  -0.636  1.00  0.00    -0.387 OA
ATOM     41  H   UNL     1       7.922  18.662  -0.175  1.00  0.00     0.211 HD
ENDBRANCH  32  40
ENDBRANCH   1  27
TORSDOF 12
ENDMDL
MODEL 6
REMARK VINA RESULT:    -1.939      1.512      2.141
REMARK INTER + INTRA:          -3.567
REMARK INTER:                  -3.632
REMARK INTRA:                   0.065
REMARK UNBOUND:                -0.721
REMARK SMILES O=c1c(O[C@@H]2O[C@H](CO)[C@@H](O)[C@H](O)[C@H]2O)c(-c2ccc(O)c(O)c2)oc2cc(O)cc(O)c12
REMARK SMILES IDX 4 1 3 2 16 3 25 4 2 5 26 6 1 7 33 8 27 9 31 10 28 11 30 12
REMARK SMILES IDX 17 13 18 14 19 15 20 16 24 17 22 18 21 19 23 21 32 23 29 25
REMARK SMILES IDX 5 27 14 28 6 29 12 30 7 31 10 32 15 33 13 35 8 37 9 38 11 40
REMARK H PARENT 21 20 23 22 32 24 29 26 15 34 13 36 9 39 11 41
REMARK Flexibility Score: inf
ROOT
ATOM      1  O   UNL     1      11.616  13.921  -1.105  1.00  0.00    -0.454 OA
ENDROOT
BRANCH   1   2
ATOM      2  C   UNL     1      10.809  12.804  -1.349  1.00  0.00     0.214 A 
ATOM      3  C   UNL     1       9.412  12.943  -1.414  1.00  0.00     0.180 A 
ATOM      4  O   UNL     1       8.662  11.899  -1.751  1.00  0.00    -0.452 OA
ATOM      5  C   UNL     1      11.379  11.544  -1.582  1.00  0.00     0.239 A 
ATOM      6  C   UNL     1       9.158  10.692  -1.997  1.00  0.00     0.146 A 
ATOM      7  O   UNL     1      12.632  11.437  -1.556  1.00  0.00    -0.285 OA
ATOM      8  C   UNL     1      10.548  10.438  -1.878  1.00  0.00     0.111 A 
ATOM      9  C   UNL     1       8.281   9.675  -2.385  1.00  0.00     0.094 A 
ATOM     10  C   UNL     1      11.021   9.112  -2.103  1.00  0.00     0.134 A 
ATOM     11  C   UNL     1       8.762   8.396  -2.664  1.00  0.00     0.123 A 
ATOM     12  C   UNL     1      10.122   8.122  -2.522  1.00  0.00     0.093 A 
BRANCH   3  13
ATOM     13  C   UNL     1       8.739  14.241  -1.179  1.00  0.00     0.025 A 
ATOM     14  C   UNL     1       7.572  14.333  -0.402  1.00  0.00     0.016 A 
ATOM     15  C   UNL     1       6.966  15.572  -0.182  1.00  0.00     0.051 A 
ATOM     16  C   UNL     1       7.501  16.731  -0.749  1.00  0.00     0.157 A 
ATOM     17  C   UNL     1       9.265  15.405  -1.761  1.00  0.00     0.062 A 
ATOM     18  C   UNL     1       8.654  16.650  -1.546  1.00  0.00     0.158 A 
BRANCH  16  19
ATOM     19  O   UNL     1       6.875  17.954  -0.510  1.00  0.00    -0.504 OA
ATOM     20  H   UNL     1       6.242  18.092   0.269  1.00  0.00     0.293 HD
ENDBRANCH  16  19
BRANCH  18  21
ATOM     21  O   UNL     1       9.189  17.801  -2.122  1.00  0.00    -0.504 OA
ATOM     22  H   UNL     1       8.728  18.699  -2.039  1.00  0.00     0.293 HD
ENDBRANCH  18  21
ENDBRANCH   3  13
BRANCH  10  23
ATOM     23  O   UNL     1      12.345   8.713  -1.903  1.00  0.00    -0.507 OA
ATOM     24  H   UNL     1      12.788   8.648  -1.000  1.00  0.00     0.293 HD
ENDBRANCH  10  23
BRANCH  11  25
ATOM     25  O   UNL     1       7.896   7.384  -3.075  1.00  0.00    -0.508 OA
ATOM     26  H   UNL     1       8.228   6.448  -3.268  1.00  0.00     0.293 HD
ENDBRANCH  11  25
ENDBRANCH   1   2
BRANCH   1  27
ATOM     27  C   UNL     1      13.026  13.904  -1.329  1.00  0.00     0.339 C 
ATOM     28  C   UNL     1      13.355  14.287  -2.784  1.00  0.00     0.214 C 
ATOM     29  O   UNL     1      13.714  14.695  -0.369  1.00  0.00    -0.332 OA
ATOM     30  C   UNL     1      13.106  15.775  -3.050  1.00  0.00     0.180 C 
ATOM     31  C   UNL     1      13.543  16.101  -0.518  1.00  0.00     0.179 C 
ATOM     32  C   UNL     1      13.762  16.650  -1.958  1.00  0.00     0.177 C 
BRANCH  28  33
ATOM     33  O   UNL     1      14.672  13.928  -3.125  1.00  0.00    -0.384 OA
ATOM     34  H   UNL     1      15.280  14.661  -2.846  1.00  0.00     0.211 HD
ENDBRANCH  28  33
BRANCH  30  35
ATOM     35  O   UNL     1      11.725  16.015  -3.125  1.00  0.00    -0.387 OA
ATOM     36  H   UNL     1      11.335  15.720  -2.260  1.00  0.00     0.211 HD
ENDBRANCH  30  35
BRANCH  31  37
ATOM     37  C   UNL     1      12.281  16.632   0.194  1.00  0.00     0.191 C 
BRANCH  37  38
ATOM     38  O   UNL     1      11.658  17.656  -0.530  1.00  0.00    -0.394 OA
ATOM     39  H   UNL     1      10.961  18.037   0.065  1.00  0.00     0.210 HD
ENDBRANCH  37  38
ENDBRANCH  31  37
BRANCH  32  40
ATOM     40  O   UNL     1      15.142  16.744  -2.204  1.00  0.00    -0.387 OA
ATOM     41  H   UNL     1      15.403  15.933  -2.719  1.00  0.00     0.211 HD
ENDBRANCH  32  40
ENDBRANCH   1  27
TORSDOF 12
ENDMDL
MODEL 7
REMARK VINA RESULT:    -1.932      3.318      7.423
REMARK INTER + INTRA:          -3.557
REMARK INTER:                  -3.009
REMARK INTRA:                  -0.548
REMARK UNBOUND:                -0.721
REMARK SMILES O=c1c(O[C@@H]2O[C@H](CO)[C@@H](O)[C@H](O)[C@H]2O)c(-c2ccc(O)c(O)c2)oc2cc(O)cc(O)c12
REMARK SMILES IDX 4 1 3 2 16 3 25 4 2 5 26 6 1 7 33 8 27 9 31 10 28 11 30 12
REMARK SMILES IDX 17 13 18 14 19 15 20 16 24 17 22 18 21 19 23 21 32 23 29 25
REMARK SMILES IDX 5 27 14 28 6 29 12 30 7 31 10 32 15 33 13 35 8 37 9 38 11 40
REMARK H PARENT 21 20 23 22 32 24 29 26 15 34 13 36 9 39 11 41
REMARK Flexibility Score: inf
ROOT
ATOM      1  O   UNL     1      11.991   8.632  -1.862  1.00  0.00    -0.454 OA
ENDROOT
BRANCH   1   2
ATOM      2  C   UNL     1      12.851   9.689  -2.182  1.00  0.00     0.214 A 
ATOM      3  C   UNL     1      12.360  11.005  -2.237  1.00  0.00     0.180 A 
ATOM      4  O   UNL     1      13.202  12.013  -2.437  1.00  0.00    -0.452 OA
ATOM      5  C   UNL     1      14.217   9.462  -2.404  1.00  0.00     0.239 A 
ATOM      6  C   UNL     1      14.505  11.849  -2.634  1.00  0.00     0.146 A 
ATOM      7  O   UNL     1      14.652   8.286  -2.318  1.00  0.00    -0.285 OA
ATOM      8  C   UNL     1      15.077  10.551  -2.675  1.00  0.00     0.111 A 
ATOM      9  C   UNL     1      15.306  12.983  -2.792  1.00  0.00     0.094 A 
ATOM     10  C   UNL     1      16.472  10.430  -2.941  1.00  0.00     0.134 A 
ATOM     11  C   UNL     1      16.681  12.855  -2.989  1.00  0.00     0.123 A 
ATOM     12  C   UNL     1      17.254  11.586  -3.063  1.00  0.00     0.093 A 
BRANCH   3  13
ATOM     13  C   UNL     1      10.931  11.321  -2.015  1.00  0.00     0.025 A 
ATOM     14  C   UNL     1       9.935  10.888  -2.907  1.00  0.00     0.016 A 
ATOM     15  C   UNL     1       8.592  11.186  -2.666  1.00  0.00     0.051 A 
ATOM     16  C   UNL     1       8.224  11.936  -1.546  1.00  0.00     0.157 A 
ATOM     17  C   UNL     1      10.560  12.089  -0.899  1.00  0.00     0.062 A 
ATOM     18  C   UNL     1       9.212  12.394  -0.659  1.00  0.00     0.158 A 
BRANCH  16  19
ATOM     19  O   UNL     1       6.876  12.216  -1.330  1.00  0.00    -0.504 OA
ATOM     20  H   UNL     1       6.144  11.557  -1.571  1.00  0.00     0.293 HD
ENDBRANCH  16  19
BRANCH  18  21
ATOM     21  O   UNL     1       8.854  13.149   0.457  1.00  0.00    -0.504 OA
ATOM     22  H   UNL     1       9.224  12.944   1.378  1.00  0.00     0.293 HD
ENDBRANCH  18  21
ENDBRANCH   3  13
BRANCH  10  23
ATOM     23  O   UNL     1      17.127   9.208  -3.122  1.00  0.00    -0.507 OA
ATOM     24  H   UNL     1      18.126   9.108  -3.211  1.00  0.00     0.293 HD
ENDBRANCH  10  23
BRANCH  11  25
ATOM     25  O   UNL     1      17.489  13.983  -3.123  1.00  0.00    -0.508 OA
ATOM     26  H   UNL     1      17.855  14.269  -4.022  1.00  0.00     0.293 HD
ENDBRANCH  11  25
ENDBRANCH   1   2
BRANCH   1  27
ATOM     27  C   UNL     1      11.835   7.495  -2.712  1.00  0.00     0.339 C 
ATOM     28  C   UNL     1      12.504   6.252  -2.094  1.00  0.00     0.214 C 
ATOM     29  O   UNL     1      10.473   7.288  -3.058  1.00  0.00    -0.332 OA
ATOM     30  C   UNL     1      11.724   5.732  -0.883  1.00  0.00     0.180 C 
ATOM     31  C   UNL     1       9.651   6.811  -1.997  1.00  0.00     0.179 C 
ATOM     32  C   UNL     1      10.220   5.596  -1.208  1.00  0.00     0.177 C 
BRANCH  28  33
ATOM     33  O   UNL     1      12.684   5.237  -3.052  1.00  0.00    -0.384 OA
ATOM     34  H   UNL     1      11.869   4.670  -3.067  1.00  0.00     0.211 HD
ENDBRANCH  28  33
BRANCH  30  35
ATOM     35  O   UNL     1      11.928   6.588   0.210  1.00  0.00    -0.387 OA
ATOM     36  H   UNL     1      12.638   7.230  -0.056  1.00  0.00     0.211 HD
ENDBRANCH  30  35
BRANCH  31  37
ATOM     37  C   UNL     1       9.083   7.946  -1.119  1.00  0.00     0.191 C 
BRANCH  37  38
ATOM     38  O   UNL     1       7.685   8.000  -1.166  1.00  0.00    -0.394 OA
ATOM     39  H   UNL     1       7.452   8.593  -1.927  1.00  0.00     0.210 HD
ENDBRANCH  37  38
ENDBRANCH  31  37
BRANCH  32  40
ATOM     40  O   UNL     1      10.010   4.427  -1.960  1.00  0.00    -0.387 OA
ATOM     41  H   UNL     1       9.245   3.946  -1.545  1.00  0.00     0.211 HD
ENDBRANCH  32  40
ENDBRANCH   1  27
TORSDOF 12
ENDMDL
MODEL 8
REMARK VINA RESULT:    -1.791      1.581      4.895
REMARK INTER + INTRA:          -3.350
REMARK INTER:                  -3.775
REMARK INTRA:                   0.425
REMARK UNBOUND:                -0.721
REMARK SMILES O=c1c(O[C@@H]2O[C@H](CO)[C@@H](O)[C@H](O)[C@H]2O)c(-c2ccc(O)c(O)c2)oc2cc(O)cc(O)c12
REMARK SMILES IDX 4 1 3 2 16 3 25 4 2 5 26 6 1 7 33 8 27 9 31 10 28 11 30 12
REMARK SMILES IDX 17 13 18 14 19 15 20 16 24 17 22 18 21 19 23 21 32 23 29 25
REMARK SMILES IDX 5 27 14 28 6 29 12 30 7 31 10 32 15 33 13 35 8 37 9 38 11 40
REMARK H PARENT 21 20 23 22 32 24 29 26 15 34 13 36 9 39 11 41
REMARK Flexibility Score: inf
ROOT
ATOM      1  O   UNL     1       9.555  13.476  -1.120  1.00  0.00    -0.454 OA
ENDROOT
BRANCH   1   2
ATOM      2  C   UNL     1      10.494  12.540  -1.568  1.00  0.00     0.214 A 
ATOM      3  C   UNL     1      11.852  12.890  -1.657  1.00  0.00     0.180 A 
ATOM      4  O   UNL     1      12.749  11.965  -1.982  1.00  0.00    -0.452 OA
ATOM      5  C   UNL     1      10.105  11.230  -1.887  1.00  0.00     0.239 A 
ATOM      6  C   UNL     1      12.432  10.709  -2.275  1.00  0.00     0.146 A 
ATOM      7  O   UNL     1       8.894  10.918  -1.771  1.00  0.00    -0.285 OA
ATOM      8  C   UNL     1      11.078  10.285  -2.289  1.00  0.00     0.111 A 
ATOM      9  C   UNL     1      13.461   9.809  -2.561  1.00  0.00     0.094 A 
ATOM     10  C   UNL     1      10.790   8.940  -2.660  1.00  0.00     0.134 A 
ATOM     11  C   UNL     1      13.172   8.478  -2.862  1.00  0.00     0.123 A 
ATOM     12  C   UNL     1      11.845   8.052  -2.910  1.00  0.00     0.093 A 
BRANCH   3  13
ATOM     13  C   UNL     1      12.335  14.252  -1.338  1.00  0.00     0.025 A 
ATOM     14  C   UNL     1      12.303  14.755  -0.025  1.00  0.00     0.016 A 
ATOM     15  C   UNL     1      12.780  16.037   0.252  1.00  0.00     0.051 A 
ATOM     16  C   UNL     1      13.277  16.844  -0.775  1.00  0.00     0.157 A 
ATOM     17  C   UNL     1      12.820  15.071  -2.370  1.00  0.00     0.062 A 
ATOM     18  C   UNL     1      13.294  16.362  -2.094  1.00  0.00     0.158 A 
BRANCH  16  19
ATOM     19  O   UNL     1      13.749  18.120  -0.468  1.00  0.00    -0.504 OA
ATOM     20  H   UNL     1      13.985  18.393   0.480  1.00  0.00     0.293 HD
ENDBRANCH  16  19
BRANCH  18  21
ATOM     21  O   UNL     1      13.782  17.164  -3.125  1.00  0.00    -0.504 OA
ATOM     22  H   UNL     1      14.445  16.810  -3.805  1.00  0.00     0.293 HD
ENDBRANCH  18  21
ENDBRANCH   3  13
BRANCH  10  23
ATOM     23  O   UNL     1       9.496   8.437  -2.824  1.00  0.00    -0.507 OA
ATOM     24  H   UNL     1       8.812   8.828  -3.453  1.00  0.00     0.293 HD
ENDBRANCH  10  23
BRANCH  11  25
ATOM     25  O   UNL     1      14.196   7.569  -3.125  1.00  0.00    -0.508 OA
ATOM     26  H   UNL     1      14.591   6.990  -2.395  1.00  0.00     0.293 HD
ENDBRANCH  11  25
ENDBRANCH   1   2
BRANCH   1  27
ATOM     27  C   UNL     1       9.715  14.878  -1.337  1.00  0.00     0.339 C 
ATOM     28  C   UNL     1       9.354  15.253  -2.787  1.00  0.00     0.214 C 
ATOM     29  O   UNL     1       9.010  15.639  -0.367  1.00  0.00    -0.332 OA
ATOM     30  C   UNL     1       7.846  15.162  -3.039  1.00  0.00     0.180 C 
ATOM     31  C   UNL     1       7.591  15.615  -0.502  1.00  0.00     0.179 C 
ATOM     32  C   UNL     1       7.054  15.898  -1.935  1.00  0.00     0.177 C 
BRANCH  28  33
ATOM     33  O   UNL     1       9.845  16.529  -3.125  1.00  0.00    -0.384 OA
ATOM     34  H   UNL     1      10.516  16.798  -2.444  1.00  0.00     0.211 HD
ENDBRANCH  28  33
BRANCH  30  35
ATOM     35  O   UNL     1       7.464  13.814  -3.118  1.00  0.00    -0.387 OA
ATOM     36  H   UNL     1       7.857  13.453  -3.956  1.00  0.00     0.211 HD
ENDBRANCH  30  35
BRANCH  31  37
ATOM     37  C   UNL     1       6.939  14.410   0.210  1.00  0.00     0.191 C 
BRANCH  37  38
ATOM     38  O   UNL     1       6.992  13.247  -0.568  1.00  0.00    -0.394 OA
ATOM     39  H   UNL     1       6.709  13.508  -1.483  1.00  0.00     0.210 HD
ENDBRANCH  37  38
ENDBRANCH  31  37
BRANCH  32  40
ATOM     40  O   UNL     1       7.102  17.282  -2.173  1.00  0.00    -0.387 OA
ATOM     41  H   UNL     1       6.738  17.731  -1.364  1.00  0.00     0.211 HD
ENDBRANCH  32  40
ENDBRANCH   1  27
TORSDOF 12
ENDMDL
