MODEL 1
REMARK VINA RESULT:    -2.956      0.000      0.000
REMARK INTER + INTRA:          -7.851
REMARK INTER:                  -6.411
REMARK INTRA:                  -1.439
REMARK UNBOUND:                -1.439
REMARK SMILES CCCCCCCCCCCCCCCCCCCCCC(=O)[O-]
REMARK SMILES IDX 12 1 11 2 10 3 9 4 8 5 7 6 6 7 5 8 4 9 3 10 2 11 1 12 13 13
REMARK SMILES IDX 14 14 15 15 16 16 17 17 18 18 19 19 20 20 21 21 22 22 23 23
REMARK SMILES IDX 24 24
REMARK H PARENT
REMARK Flexibility Score: inf
ROOT
ATOM      1  C   UNL     1      -1.237  -5.738 -10.507  1.00  0.00     0.000 C 
ENDROOT
BRANCH   1   2
ATOM      2  C   UNL     1      -1.091  -4.208 -10.461  1.00  0.00     0.000 C 
BRANCH   2   3
ATOM      3  C   UNL     1      -0.862  -3.594 -11.851  1.00  0.00     0.000 C 
BRANCH   3   4
ATOM      4  C   UNL     1       0.615  -3.251 -12.116  1.00  0.00    -0.000 C 
BRANCH   4   5
ATOM      5  C   UNL     1       1.510  -3.346 -10.861  1.00  0.00    -0.000 C 
BRANCH   5   6
ATOM      6  C   UNL     1       1.952  -1.962 -10.358  1.00  0.00    -0.000 C 
BRANCH   6   7
ATOM      7  C   UNL     1       2.689  -1.148 -11.433  1.00  0.00    -0.000 C 
BRANCH   7   8
ATOM      8  C   UNL     1       4.023  -1.789 -11.849  1.00  0.00    -0.000 C 
BRANCH   8   9
ATOM      9  C   UNL     1       5.172  -1.295 -10.959  1.00  0.00    -0.000 C 
BRANCH   9  10
ATOM     10  C   UNL     1       6.471  -1.058 -11.746  1.00  0.00    -0.000 C 
BRANCH  10  11
ATOM     11  C   UNL     1       7.610  -1.992 -11.307  1.00  0.00    -0.003 C 
ATOM     12  C   UNL     1       8.329  -1.442 -10.079  1.00  0.00     0.004 C 
ENDBRANCH  10  11
ENDBRANCH   9  10
ENDBRANCH   8   9
ENDBRANCH   7   8
ENDBRANCH   6   7
ENDBRANCH   5   6
ENDBRANCH   4   5
ENDBRANCH   3   4
ENDBRANCH   2   3
ENDBRANCH   1   2
BRANCH   1  13
ATOM     13  C   UNL     1      -1.120  -6.300 -11.932  1.00  0.00     0.000 C 
BRANCH  13  14
ATOM     14  C   UNL     1       0.216  -7.028 -12.125  1.00  0.00     0.000 C 
BRANCH  14  15
ATOM     15  C   UNL     1       0.385  -8.157 -11.096  1.00  0.00     0.000 C 
BRANCH  15  16
ATOM     16  C   UNL     1       1.725  -8.902 -11.239  1.00  0.00     0.000 C 
BRANCH  16  17
ATOM     17  C   UNL     1       1.663 -10.205 -12.059  1.00  0.00     0.000 C 
BRANCH  17  18
ATOM     18  C   UNL     1       1.591 -11.496 -11.222  1.00  0.00     0.000 C 
BRANCH  18  19
ATOM     19  C   UNL     1       0.158 -12.046 -11.052  1.00  0.00     0.000 C 
BRANCH  19  20
ATOM     20  C   UNL     1      -0.857 -11.337 -11.965  1.00  0.00     0.006 C 
BRANCH  20  21
ATOM     21  C   UNL     1      -2.286 -11.851 -11.752  1.00  0.00     0.053 C 
BRANCH  21  22
ATOM     22  C   UNL     1      -3.116 -10.878 -10.970  1.00  0.00     0.041 C 
ATOM     23  O   UNL     1      -4.362 -11.034 -10.881  1.00  0.00    -0.550 OA
ATOM     24  O   UNL     1      -2.506  -9.820 -10.310  1.00  0.00    -0.550 OA
ENDBRANCH  21  22
ENDBRANCH  20  21
ENDBRANCH  19  20
ENDBRANCH  18  19
ENDBRANCH  17  18
ENDBRANCH  16  17
ENDBRANCH  15  16
ENDBRANCH  14  15
ENDBRANCH  13  14
ENDBRANCH   1  13
TORSDOF 20
ENDMDL
MODEL 2
REMARK VINA RESULT:    -2.740      1.189      2.591
REMARK INTER + INTRA:          -7.382
REMARK INTER:                  -6.284
REMARK INTRA:                  -1.099
REMARK UNBOUND:                -1.439
REMARK SMILES CCCCCCCCCCCCCCCCCCCCCC(=O)[O-]
REMARK SMILES IDX 12 1 11 2 10 3 9 4 8 5 7 6 6 7 5 8 4 9 3 10 2 11 1 12 13 13
REMARK SMILES IDX 14 14 15 15 16 16 17 17 18 18 19 19 20 20 21 21 22 22 23 23
REMARK SMILES IDX 24 24
REMARK H PARENT
REMARK Flexibility Score: inf
ROOT
ATOM      1  C   UNL     1       0.749  -4.300 -10.633  1.00  0.00     0.000 C 
ENDROOT
BRANCH   1   2
ATOM      2  C   UNL     1       1.253  -2.849 -10.568  1.00  0.00     0.000 C 
BRANCH   2   3
ATOM      3  C   UNL     1       1.218  -2.150 -11.937  1.00  0.00     0.000 C 
BRANCH   3   4
ATOM      4  C   UNL     1       2.366  -1.141 -12.121  1.00  0.00    -0.000 C 
BRANCH   4   5
ATOM      5  C   UNL     1       3.768  -1.789 -12.125  1.00  0.00    -0.000 C 
BRANCH   5   6
ATOM      6  C   UNL     1       4.638  -1.297 -10.957  1.00  0.00    -0.000 C 
BRANCH   6   7
ATOM      7  C   UNL     1       6.126  -1.192 -11.330  1.00  0.00    -0.000 C 
BRANCH   7   8
ATOM      8  C   UNL     1       7.040  -1.115 -10.097  1.00  0.00    -0.000 C 
BRANCH   8   9
ATOM      9  C   UNL     1       8.504  -1.379 -10.480  1.00  0.00    -0.000 C 
BRANCH   9  10
ATOM     10  C   UNL     1       8.648  -1.991 -11.882  1.00  0.00    -0.000 C 
BRANCH  10  11
ATOM     11  C   UNL     1       8.831  -3.517 -11.848  1.00  0.00    -0.003 C 
ATOM     12  C   UNL     1       9.038  -4.014 -10.420  1.00  0.00     0.004 C 
ENDBRANCH  10  11
ENDBRANCH   9  10
ENDBRANCH   8   9
ENDBRANCH   7   8
ENDBRANCH   6   7
ENDBRANCH   5   6
ENDBRANCH   4   5
ENDBRANCH   3   4
ENDBRANCH   2   3
ENDBRANCH   1   2
BRANCH   1  13
ATOM     13  C   UNL     1      -0.772  -4.390 -10.824  1.00  0.00     0.000 C 
BRANCH  13  14
ATOM     14  C   UNL     1      -1.119  -5.127 -12.123  1.00  0.00     0.000 C 
BRANCH  14  15
ATOM     15  C   UNL     1      -1.625  -6.549 -11.834  1.00  0.00     0.000 C 
BRANCH  15  16
ATOM     16  C   UNL     1      -1.053  -7.136 -10.531  1.00  0.00     0.000 C 
BRANCH  16  17
ATOM     17  C   UNL     1       0.389  -7.668 -10.633  1.00  0.00     0.000 C 
BRANCH  17  18
ATOM     18  C   UNL     1       0.692  -8.485 -11.903  1.00  0.00     0.000 C 
BRANCH  18  19
ATOM     19  C   UNL     1       0.808 -10.003 -11.651  1.00  0.00     0.000 C 
BRANCH  19  20
ATOM     20  C   UNL     1      -0.549 -10.721 -11.747  1.00  0.00     0.006 C 
BRANCH  20  21
ATOM     21  C   UNL     1      -1.156 -11.001 -10.366  1.00  0.00     0.053 C 
BRANCH  21  22
ATOM     22  C   UNL     1      -2.637 -11.214 -10.444  1.00  0.00     0.041 C 
ATOM     23  O   UNL     1      -3.105 -12.370 -10.615  1.00  0.00    -0.550 OA
ATOM     24  O   UNL     1      -3.502 -10.139 -10.289  1.00  0.00    -0.550 OA
ENDBRANCH  21  22
ENDBRANCH  20  21
ENDBRANCH  19  20
ENDBRANCH  18  19
ENDBRANCH  17  18
ENDBRANCH  16  17
ENDBRANCH  15  16
ENDBRANCH  14  15
ENDBRANCH  13  14
ENDBRANCH   1  13
TORSDOF 20
ENDMDL
MODEL 3
REMARK VINA RESULT:    -2.433      1.482      2.113
REMARK INTER + INTRA:          -6.718
REMARK INTER:                  -5.362
REMARK INTRA:                  -1.355
REMARK UNBOUND:                -1.439
REMARK SMILES CCCCCCCCCCCCCCCCCCCCCC(=O)[O-]
REMARK SMILES IDX 12 1 11 2 10 3 9 4 8 5 7 6 6 7 5 8 4 9 3 10 2 11 1 12 13 13
REMARK SMILES IDX 14 14 15 15 16 16 17 17 18 18 19 19 20 20 21 21 22 22 23 23
REMARK SMILES IDX 24 24
REMARK H PARENT
REMARK Flexibility Score: inf
ROOT
ATOM      1  C   UNL     1       1.102  -5.538 -10.506  1.00  0.00     0.000 C 
ENDROOT
BRANCH   1   2
ATOM      2  C   UNL     1       1.028  -4.761 -11.831  1.00  0.00     0.000 C 
BRANCH   2   3
ATOM      3  C   UNL     1       1.386  -3.275 -11.666  1.00  0.00     0.000 C 
BRANCH   3   4
ATOM      4  C   UNL     1       1.920  -2.941 -10.262  1.00  0.00    -0.000 C 
BRANCH   4   5
ATOM      5  C   UNL     1       2.831  -1.695 -10.225  1.00  0.00    -0.000 C 
BRANCH   5   6
ATOM      6  C   UNL     1       3.050  -1.094 -11.623  1.00  0.00    -0.000 C 
BRANCH   6   7
ATOM      7  C   UNL     1       4.495  -1.260 -12.121  1.00  0.00    -0.000 C 
BRANCH   7   8
ATOM      8  C   UNL     1       5.509  -1.348 -10.969  1.00  0.00    -0.000 C 
BRANCH   8   9
ATOM      9  C   UNL     1       6.815  -0.625 -11.329  1.00  0.00    -0.000 C 
BRANCH   9  10
ATOM     10  C   UNL     1       7.926  -1.594 -11.766  1.00  0.00    -0.000 C 
BRANCH  10  11
ATOM     11  C   UNL     1       7.550  -3.067 -11.545  1.00  0.00    -0.003 C 
ATOM     12  C   UNL     1       8.784  -3.964 -11.598  1.00  0.00     0.004 C 
ENDBRANCH  10  11
ENDBRANCH   9  10
ENDBRANCH   8   9
ENDBRANCH   7   8
ENDBRANCH   6   7
ENDBRANCH   5   6
ENDBRANCH   4   5
ENDBRANCH   3   4
ENDBRANCH   2   3
ENDBRANCH   1   2
BRANCH   1  13
ATOM     13  C   UNL     1       2.294  -6.505 -10.453  1.00  0.00     0.000 C 
BRANCH  13  14
ATOM     14  C   UNL     1       1.817  -7.956 -10.316  1.00  0.00     0.000 C 
BRANCH  14  15
ATOM     15  C   UNL     1       1.968  -8.715 -11.643  1.00  0.00     0.000 C 
BRANCH  15  16
ATOM     16  C   UNL     1       2.310 -10.204 -11.446  1.00  0.00     0.000 C 
BRANCH  16  17
ATOM     17  C   UNL     1       1.337 -11.191 -12.118  1.00  0.00     0.000 C 
BRANCH  17  18
ATOM     18  C   UNL     1      -0.157 -10.869 -11.917  1.00  0.00     0.000 C 
BRANCH  18  19
ATOM     19  C   UNL     1      -0.877 -11.840 -10.957  1.00  0.00     0.000 C 
BRANCH  19  20
ATOM     20  C   UNL     1      -1.688 -11.106  -9.876  1.00  0.00     0.006 C 
BRANCH  20  21
ATOM     21  C   UNL     1      -2.416  -9.876 -10.433  1.00  0.00     0.053 C 
BRANCH  21  22
ATOM     22  C   UNL     1      -3.675 -10.254 -11.153  1.00  0.00     0.041 C 
ATOM     23  O   UNL     1      -4.241  -9.430 -11.917  1.00  0.00    -0.550 OA
ATOM     24  O   UNL     1      -4.201 -11.531 -11.007  1.00  0.00    -0.550 OA
ENDBRANCH  21  22
ENDBRANCH  20  21
ENDBRANCH  19  20
ENDBRANCH  18  19
ENDBRANCH  17  18
ENDBRANCH  16  17
ENDBRANCH  15  16
ENDBRANCH  14  15
ENDBRANCH  13  14
ENDBRANCH   1  13
TORSDOF 20
ENDMDL
MODEL 4
REMARK VINA RESULT:    -2.400      1.420      2.162
REMARK INTER + INTRA:          -6.645
REMARK INTER:                  -6.300
REMARK INTRA:                  -0.345
REMARK UNBOUND:                -1.439
REMARK SMILES CCCCCCCCCCCCCCCCCCCCCC(=O)[O-]
REMARK SMILES IDX 12 1 11 2 10 3 9 4 8 5 7 6 6 7 5 8 4 9 3 10 2 11 1 12 13 13
REMARK SMILES IDX 14 14 15 15 16 16 17 17 18 18 19 19 20 20 21 21 22 22 23 23
REMARK SMILES IDX 24 24
REMARK H PARENT
REMARK Flexibility Score: inf
ROOT
ATOM      1  C   UNL     1      -0.937  -4.669 -10.301  1.00  0.00     0.000 C 
ENDROOT
BRANCH   1   2
ATOM      2  C   UNL     1      -0.396  -3.322 -10.806  1.00  0.00     0.000 C 
BRANCH   2   3
ATOM      3  C   UNL     1       0.766  -3.487 -11.799  1.00  0.00     0.000 C 
BRANCH   3   4
ATOM      4  C   UNL     1       1.576  -2.192 -11.991  1.00  0.00    -0.000 C 
BRANCH   4   5
ATOM      5  C   UNL     1       2.622  -1.944 -10.883  1.00  0.00    -0.000 C 
BRANCH   5   6
ATOM      6  C   UNL     1       3.842  -1.163 -11.400  1.00  0.00    -0.000 C 
BRANCH   6   7
ATOM      7  C   UNL     1       4.866  -2.064 -12.110  1.00  0.00    -0.000 C 
BRANCH   7   8
ATOM      8  C   UNL     1       6.315  -1.729 -11.724  1.00  0.00    -0.000 C 
BRANCH   8   9
ATOM      9  C   UNL     1       6.386  -1.152 -10.302  1.00  0.00    -0.000 C 
BRANCH   9  10
ATOM     10  C   UNL     1       7.761  -0.547  -9.977  1.00  0.00    -0.000 C 
BRANCH  10  11
ATOM     11  C   UNL     1       8.582  -1.420  -9.015  1.00  0.00    -0.003 C 
ATOM     12  C   UNL     1       8.667  -0.781  -7.631  1.00  0.00     0.004 C 
ENDBRANCH  10  11
ENDBRANCH   9  10
ENDBRANCH   8   9
ENDBRANCH   7   8
ENDBRANCH   6   7
ENDBRANCH   5   6
ENDBRANCH   4   5
ENDBRANCH   3   4
ENDBRANCH   2   3
ENDBRANCH   1   2
BRANCH   1  13
ATOM     13  C   UNL     1      -1.145  -5.685 -11.434  1.00  0.00     0.000 C 
BRANCH  13  14
ATOM     14  C   UNL     1       0.198  -6.233 -11.932  1.00  0.00     0.000 C 
BRANCH  14  15
ATOM     15  C   UNL     1       0.286  -7.753 -11.726  1.00  0.00     0.000 C 
BRANCH  15  16
ATOM     16  C   UNL     1      -1.053  -8.379 -11.295  1.00  0.00     0.000 C 
BRANCH  16  17
ATOM     17  C   UNL     1      -0.992  -9.234 -10.015  1.00  0.00     0.000 C 
BRANCH  17  18
ATOM     18  C   UNL     1      -0.708 -10.730 -10.247  1.00  0.00     0.000 C 
BRANCH  18  19
ATOM     19  C   UNL     1      -1.669 -11.669  -9.486  1.00  0.00     0.000 C 
BRANCH  19  20
ATOM     20  C   UNL     1      -2.009 -12.938 -10.285  1.00  0.00     0.006 C 
BRANCH  20  21
ATOM     21  C   UNL     1      -2.555 -12.615 -11.682  1.00  0.00     0.053 C 
BRANCH  21  22
ATOM     22  C   UNL     1      -3.992 -12.194 -11.633  1.00  0.00     0.041 C 
ATOM     23  O   UNL     1      -4.295 -10.992 -11.413  1.00  0.00    -0.550 OA
ATOM     24  O   UNL     1      -4.996 -13.125 -11.867  1.00  0.00    -0.550 OA
ENDBRANCH  21  22
ENDBRANCH  20  21
ENDBRANCH  19  20
ENDBRANCH  18  19
ENDBRANCH  17  18
ENDBRANCH  16  17
ENDBRANCH  15  16
ENDBRANCH  14  15
ENDBRANCH  13  14
ENDBRANCH   1  13
TORSDOF 20
ENDMDL
MODEL 5
REMARK VINA RESULT:    -2.095      3.863      5.717
REMARK INTER + INTRA:          -5.983
REMARK INTER:                  -4.960
REMARK INTRA:                  -1.023
REMARK UNBOUND:                -1.439
REMARK SMILES CCCCCCCCCCCCCCCCCCCCCC(=O)[O-]
REMARK SMILES IDX 12 1 11 2 10 3 9 4 8 5 7 6 6 7 5 8 4 9 3 10 2 11 1 12 13 13
REMARK SMILES IDX 14 14 15 15 16 16 17 17 18 18 19 19 20 20 21 21 22 22 23 23
REMARK SMILES IDX 24 24
REMARK H PARENT
REMARK Flexibility Score: inf
ROOT
ATOM      1  C   UNL     1       1.541  -8.269 -10.435  1.00  0.00     0.000 C 
ENDROOT
BRANCH   1   2
ATOM      2  C   UNL     1       2.447  -7.159  -9.878  1.00  0.00     0.000 C 
BRANCH   2   3
ATOM      3  C   UNL     1       2.418  -5.885 -10.738  1.00  0.00     0.000 C 
BRANCH   3   4
ATOM      4  C   UNL     1       3.081  -6.077 -12.113  1.00  0.00    -0.000 C 
BRANCH   4   5
ATOM      5  C   UNL     1       4.602  -5.806 -12.111  1.00  0.00    -0.000 C 
BRANCH   5   6
ATOM      6  C   UNL     1       5.422  -7.099 -11.965  1.00  0.00    -0.000 C 
BRANCH   6   7
ATOM      7  C   UNL     1       6.878  -6.833 -11.549  1.00  0.00    -0.000 C 
BRANCH   7   8
ATOM      8  C   UNL     1       7.706  -8.124 -11.443  1.00  0.00    -0.000 C 
BRANCH   8   9
ATOM      9  C   UNL     1       6.980  -9.175 -10.591  1.00  0.00    -0.000 C 
BRANCH   9  10
ATOM     10  C   UNL     1       7.905  -9.841  -9.559  1.00  0.00    -0.000 C 
BRANCH  10  11
ATOM     11  C   UNL     1       8.415 -11.215 -10.020  1.00  0.00    -0.003 C 
ATOM     12  C   UNL     1       7.296 -12.031 -10.663  1.00  0.00     0.004 C 
ENDBRANCH  10  11
ENDBRANCH   9  10
ENDBRANCH   8   9
ENDBRANCH   7   8
ENDBRANCH   6   7
ENDBRANCH   5   6
ENDBRANCH   4   5
ENDBRANCH   3   4
ENDBRANCH   2   3
ENDBRANCH   1   2
BRANCH   1  13
ATOM     13  C   UNL     1       0.441  -7.726 -11.360  1.00  0.00     0.000 C 
BRANCH  13  14
ATOM     14  C   UNL     1      -0.642  -8.784 -11.603  1.00  0.00     0.000 C 
BRANCH  14  15
ATOM     15  C   UNL     1      -1.835  -8.581 -10.656  1.00  0.00     0.000 C 
BRANCH  15  16
ATOM     16  C   UNL     1      -2.954  -9.618 -10.869  1.00  0.00     0.000 C 
BRANCH  16  17
ATOM     17  C   UNL     1      -2.692 -10.999 -10.239  1.00  0.00     0.000 C 
BRANCH  17  18
ATOM     18  C   UNL     1      -1.395 -11.101  -9.414  1.00  0.00     0.000 C 
BRANCH  18  19
ATOM     19  C   UNL     1      -0.914 -12.551  -9.192  1.00  0.00     0.000 C 
BRANCH  19  20
ATOM     20  C   UNL     1       0.412 -12.848  -9.912  1.00  0.00     0.006 C 
BRANCH  20  21
ATOM     21  C   UNL     1       0.451 -12.253 -11.325  1.00  0.00     0.053 C 
BRANCH  21  22
ATOM     22  C   UNL     1       1.854 -11.984 -11.776  1.00  0.00     0.041 C 
ATOM     23  O   UNL     1       2.285 -10.802 -11.840  1.00  0.00    -0.550 OA
ATOM     24  O   UNL     1       2.697 -13.041 -12.091  1.00  0.00    -0.550 OA
ENDBRANCH  21  22
ENDBRANCH  20  21
ENDBRANCH  19  20
ENDBRANCH  18  19
ENDBRANCH  17  18
ENDBRANCH  16  17
ENDBRANCH  15  16
ENDBRANCH  14  15
ENDBRANCH  13  14
ENDBRANCH   1  13
TORSDOF 20
ENDMDL
