MODEL 1
REMARK VINA RESULT:    -5.941      0.000      0.000
REMARK INTER + INTRA:          -6.912
REMARK INTER:                  -7.157
REMARK INTRA:                   0.245
REMARK UNBOUND:                 0.245
REMARK SMILES O=c1c(O)c(-c2ccc(O)c(O)c2)oc2cc(O)cc(O)c12
REMARK SMILES IDX 5 1 3 2 2 3 1 4 22 5 20 6 19 7 17 8 16 9 15 10 14 11 6 12
REMARK SMILES IDX 7 13 8 14 9 15 13 16 11 17 10 18 12 20 4 22 21 24 18 26
REMARK H PARENT 10 19 12 21 4 23 21 25 18 27
REMARK Flexibility Score: inf
ROOT
ATOM      1  C   UNL     1      22.824  53.090  78.103  1.00  0.00     0.180 A 
ATOM      2  C   UNL     1      21.869  53.697  78.938  1.00  0.00     0.208 A 
ATOM      3  C   UNL     1      22.200  54.895  79.593  1.00  0.00     0.238 A 
ATOM      4  O   UNL     1      21.323  55.461  80.295  1.00  0.00    -0.285 OA
ATOM      5  C   UNL     1      23.486  55.460  79.419  1.00  0.00     0.111 A 
ATOM      6  C   UNL     1      23.943  56.648  80.065  1.00  0.00     0.134 A 
ATOM      7  C   UNL     1      25.188  57.188  79.719  1.00  0.00     0.093 A 
ATOM      8  C   UNL     1      26.019  56.547  78.797  1.00  0.00     0.123 A 
ATOM      9  C   UNL     1      25.607  55.356  78.206  1.00  0.00     0.094 A 
ATOM     10  C   UNL     1      24.356  54.811  78.504  1.00  0.00     0.146 A 
ATOM     11  O   UNL     1      23.998  53.680  77.909  1.00  0.00    -0.452 OA
ENDROOT
BRANCH   1  12
ATOM     12  C   UNL     1      22.559  51.814  77.399  1.00  0.00     0.025 A 
ATOM     13  C   UNL     1      21.686  50.851  77.934  1.00  0.00     0.016 A 
ATOM     14  C   UNL     1      21.469  49.645  77.263  1.00  0.00     0.051 A 
ATOM     15  C   UNL     1      22.129  49.377  76.058  1.00  0.00     0.157 A 
ATOM     16  C   UNL     1      23.234  51.533  76.201  1.00  0.00     0.062 A 
ATOM     17  C   UNL     1      23.019  50.326  75.526  1.00  0.00     0.158 A 
BRANCH  15  18
ATOM     18  O   UNL     1      21.909  48.173  75.390  1.00  0.00    -0.504 OA
ATOM     19  H   UNL     1      21.480  47.381  75.853  1.00  0.00     0.293 HD
ENDBRANCH  15  18
BRANCH  17  20
ATOM     20  O   UNL     1      23.697  50.088  74.331  1.00  0.00    -0.504 OA
ATOM     21  H   UNL     1      23.275  49.575  73.565  1.00  0.00     0.293 HD
ENDBRANCH  17  20
ENDBRANCH   1  12
BRANCH   2  22
ATOM     22  O   UNL     1      20.599  53.133  79.078  1.00  0.00    -0.502 OA
ATOM     23  H   UNL     1      20.211  52.882  79.980  1.00  0.00     0.293 HD
ENDBRANCH   2  22
BRANCH   6  24
ATOM     24  O   UNL     1      23.231  57.315  81.067  1.00  0.00    -0.507 OA
ATOM     25  H   UNL     1      22.790  56.865  81.856  1.00  0.00     0.293 HD
ENDBRANCH   6  24
BRANCH   8  26
ATOM     26  O   UNL     1      27.263  57.084  78.470  1.00  0.00    -0.508 OA
ATOM     27  H   UNL     1      27.904  57.410  79.183  1.00  0.00     0.293 HD
ENDBRANCH   8  26
TORSDOF 6
ENDMDL
MODEL 2
REMARK VINA RESULT:    -5.610      2.238      6.912
REMARK INTER + INTRA:          -6.513
REMARK INTER:                  -6.242
REMARK INTRA:                  -0.271
REMARK UNBOUND:                 0.245
REMARK SMILES O=c1c(O)c(-c2ccc(O)c(O)c2)oc2cc(O)cc(O)c12
REMARK SMILES IDX 5 1 3 2 2 3 1 4 22 5 20 6 19 7 17 8 16 9 15 10 14 11 6 12
REMARK SMILES IDX 7 13 8 14 9 15 13 16 11 17 10 18 12 20 4 22 21 24 18 26
REMARK H PARENT 10 19 12 21 4 23 21 25 18 27
REMARK Flexibility Score: inf
ROOT
ATOM      1  C   UNL     1      25.923  54.832  79.332  1.00  0.00     0.180 A 
ATOM      2  C   UNL     1      24.869  54.924  80.257  1.00  0.00     0.208 A 
ATOM      3  C   UNL     1      23.630  54.346  79.937  1.00  0.00     0.238 A 
ATOM      4  O   UNL     1      22.707  54.383  80.792  1.00  0.00    -0.285 OA
ATOM      5  C   UNL     1      23.455  53.701  78.689  1.00  0.00     0.111 A 
ATOM      6  C   UNL     1      22.232  53.116  78.243  1.00  0.00     0.134 A 
ATOM      7  C   UNL     1      22.209  52.390  77.046  1.00  0.00     0.093 A 
ATOM      8  C   UNL     1      23.350  52.282  76.248  1.00  0.00     0.123 A 
ATOM      9  C   UNL     1      24.534  52.898  76.645  1.00  0.00     0.094 A 
ATOM     10  C   UNL     1      24.597  53.600  77.852  1.00  0.00     0.146 A 
ATOM     11  O   UNL     1      25.748  54.163  78.198  1.00  0.00    -0.452 OA
ENDROOT
BRANCH   1  12
ATOM     12  C   UNL     1      27.251  55.438  79.587  1.00  0.00     0.025 A 
ATOM     13  C   UNL     1      28.168  54.845  80.472  1.00  0.00     0.016 A 
ATOM     14  C   UNL     1      29.405  55.447  80.715  1.00  0.00     0.051 A 
ATOM     15  C   UNL     1      29.739  56.655  80.090  1.00  0.00     0.157 A 
ATOM     16  C   UNL     1      27.582  56.659  78.978  1.00  0.00     0.062 A 
ATOM     17  C   UNL     1      28.821  57.265  79.219  1.00  0.00     0.158 A 
BRANCH  15  18
ATOM     18  O   UNL     1      30.975  57.252  80.333  1.00  0.00    -0.504 OA
ATOM     19  H   UNL     1      31.841  56.824  80.026  1.00  0.00     0.293 HD
ENDBRANCH  15  18
BRANCH  17  20
ATOM     20  O   UNL     1      29.120  58.470  78.584  1.00  0.00    -0.504 OA
ATOM     21  H   UNL     1      29.692  58.512  77.749  1.00  0.00     0.293 HD
ENDBRANCH  17  20
ENDBRANCH   1  12
BRANCH   2  22
ATOM     22  O   UNL     1      25.070  55.546  81.492  1.00  0.00    -0.502 OA
ATOM     23  H   UNL     1      25.228  55.024  82.345  1.00  0.00     0.293 HD
ENDBRANCH   2  22
BRANCH   6  24
ATOM     24  O   UNL     1      21.014  53.243  78.919  1.00  0.00    -0.507 OA
ATOM     25  H   UNL     1      20.481  52.473  79.294  1.00  0.00     0.293 HD
ENDBRANCH   6  24
BRANCH   8  26
ATOM     26  O   UNL     1      23.315  51.569  75.051  1.00  0.00    -0.508 OA
ATOM     27  H   UNL     1      22.456  51.158  74.704  1.00  0.00     0.293 HD
ENDBRANCH   8  26
TORSDOF 6
ENDMDL
MODEL 3
REMARK VINA RESULT:    -5.447      2.412      6.949
REMARK INTER + INTRA:          -6.317
REMARK INTER:                  -5.987
REMARK INTRA:                  -0.330
REMARK UNBOUND:                 0.245
REMARK SMILES O=c1c(O)c(-c2ccc(O)c(O)c2)oc2cc(O)cc(O)c12
REMARK SMILES IDX 5 1 3 2 2 3 1 4 22 5 20 6 19 7 17 8 16 9 15 10 14 11 6 12
REMARK SMILES IDX 7 13 8 14 9 15 13 16 11 17 10 18 12 20 4 22 21 24 18 26
REMARK H PARENT 10 19 12 21 4 23 21 25 18 27
REMARK Flexibility Score: inf
ROOT
ATOM      1  C   UNL     1      25.994  55.030  79.258  1.00  0.00     0.180 A 
ATOM      2  C   UNL     1      24.965  55.137  80.210  1.00  0.00     0.208 A 
ATOM      3  C   UNL     1      23.723  54.540  79.940  1.00  0.00     0.238 A 
ATOM      4  O   UNL     1      22.824  54.593  80.819  1.00  0.00    -0.285 OA
ATOM      5  C   UNL     1      23.520  53.860  78.716  1.00  0.00     0.111 A 
ATOM      6  C   UNL     1      22.290  53.253  78.319  1.00  0.00     0.134 A 
ATOM      7  C   UNL     1      22.241  52.495  77.143  1.00  0.00     0.093 A 
ATOM      8  C   UNL     1      23.360  52.375  76.317  1.00  0.00     0.123 A 
ATOM      9  C   UNL     1      24.548  53.012  76.664  1.00  0.00     0.094 A 
ATOM     10  C   UNL     1      24.639  53.747  77.849  1.00  0.00     0.146 A 
ATOM     11  O   UNL     1      25.793  54.329  78.148  1.00  0.00    -0.452 OA
ENDROOT
BRANCH   1  12
ATOM     12  C   UNL     1      27.322  55.654  79.460  1.00  0.00     0.025 A 
ATOM     13  C   UNL     1      27.594  56.959  79.015  1.00  0.00     0.016 A 
ATOM     14  C   UNL     1      28.862  57.517  79.195  1.00  0.00     0.051 A 
ATOM     15  C   UNL     1      29.879  56.778  79.810  1.00  0.00     0.157 A 
ATOM     16  C   UNL     1      28.352  54.909  80.057  1.00  0.00     0.062 A 
ATOM     17  C   UNL     1      29.623  55.465  80.240  1.00  0.00     0.158 A 
BRANCH  15  18
ATOM     18  O   UNL     1      31.143  57.339  79.990  1.00  0.00    -0.504 OA
ATOM     19  H   UNL     1      31.921  57.098  79.389  1.00  0.00     0.293 HD
ENDBRANCH  15  18
BRANCH  17  20
ATOM     20  O   UNL     1      30.616  54.700  80.851  1.00  0.00    -0.504 OA
ATOM     21  H   UNL     1      30.787  54.736  81.849  1.00  0.00     0.293 HD
ENDBRANCH  17  20
ENDBRANCH   1  12
BRANCH   2  22
ATOM     22  O   UNL     1      25.194  55.794  81.421  1.00  0.00    -0.502 OA
ATOM     23  H   UNL     1      24.662  56.607  81.708  1.00  0.00     0.293 HD
ENDBRANCH   2  22
BRANCH   6  24
ATOM     24  O   UNL     1      21.090  53.388  79.025  1.00  0.00    -0.507 OA
ATOM     25  H   UNL     1      20.761  54.247  79.439  1.00  0.00     0.293 HD
ENDBRANCH   6  24
BRANCH   8  26
ATOM     26  O   UNL     1      23.298  51.630  75.140  1.00  0.00    -0.508 OA
ATOM     27  H   UNL     1      22.414  51.418  74.693  1.00  0.00     0.293 HD
ENDBRANCH   8  26
TORSDOF 6
ENDMDL
MODEL 4
REMARK VINA RESULT:    -5.443      1.615      2.062
REMARK INTER + INTRA:          -6.312
REMARK INTER:                  -5.989
REMARK INTRA:                  -0.323
REMARK UNBOUND:                 0.245
REMARK SMILES O=c1c(O)c(-c2ccc(O)c(O)c2)oc2cc(O)cc(O)c12
REMARK SMILES IDX 5 1 3 2 2 3 1 4 22 5 20 6 19 7 17 8 16 9 15 10 14 11 6 12
REMARK SMILES IDX 7 13 8 14 9 15 13 16 11 17 10 18 12 20 4 22 21 24 18 26
REMARK H PARENT 10 19 12 21 4 23 21 25 18 27
REMARK Flexibility Score: inf
ROOT
ATOM      1  C   UNL     1      23.510  51.620  77.379  1.00  0.00     0.180 A 
ATOM      2  C   UNL     1      22.302  51.882  78.049  1.00  0.00     0.208 A 
ATOM      3  C   UNL     1      22.128  53.126  78.677  1.00  0.00     0.238 A 
ATOM      4  O   UNL     1      21.025  53.376  79.228  1.00  0.00    -0.285 OA
ATOM      5  C   UNL     1      23.169  54.084  78.643  1.00  0.00     0.111 A 
ATOM      6  C   UNL     1      23.118  55.361  79.279  1.00  0.00     0.134 A 
ATOM      7  C   UNL     1      24.154  56.280  79.069  1.00  0.00     0.093 A 
ATOM      8  C   UNL     1      25.269  55.944  78.298  1.00  0.00     0.123 A 
ATOM      9  C   UNL     1      25.356  54.680  77.722  1.00  0.00     0.094 A 
ATOM     10  C   UNL     1      24.323  53.754  77.884  1.00  0.00     0.146 A 
ATOM     11  O   UNL     1      24.442  52.564  77.308  1.00  0.00    -0.452 OA
ENDROOT
BRANCH   1  12
ATOM     12  C   UNL     1      23.777  50.323  76.714  1.00  0.00     0.025 A 
ATOM     13  C   UNL     1      24.243  49.212  77.438  1.00  0.00     0.016 A 
ATOM     14  C   UNL     1      24.510  48.006  76.786  1.00  0.00     0.051 A 
ATOM     15  C   UNL     1      24.329  47.895  75.402  1.00  0.00     0.157 A 
ATOM     16  C   UNL     1      23.616  50.213  75.324  1.00  0.00     0.062 A 
ATOM     17  C   UNL     1      23.883  49.007  74.667  1.00  0.00     0.158 A 
BRANCH  15  18
ATOM     18  O   UNL     1      24.595  46.690  74.754  1.00  0.00    -0.504 OA
ATOM     19  H   UNL     1      24.011  46.354  73.998  1.00  0.00     0.293 HD
ENDBRANCH  15  18
BRANCH  17  20
ATOM     20  O   UNL     1      23.698  48.931  73.287  1.00  0.00    -0.504 OA
ATOM     21  H   UNL     1      23.692  48.047  72.792  1.00  0.00     0.293 HD
ENDBRANCH  17  20
ENDBRANCH   1  12
BRANCH   2  22
ATOM     22  O   UNL     1      21.279  50.931  78.052  1.00  0.00    -0.502 OA
ATOM     23  H   UNL     1      21.463  49.935  78.086  1.00  0.00     0.293 HD
ENDBRANCH   2  22
BRANCH   6  24
ATOM     24  O   UNL     1      22.094  55.762  80.143  1.00  0.00    -0.507 OA
ATOM     25  H   UNL     1      22.092  55.611  81.141  1.00  0.00     0.293 HD
ENDBRANCH   6  24
BRANCH   8  26
ATOM     26  O   UNL     1      26.302  56.860  78.107  1.00  0.00    -0.508 OA
ATOM     27  H   UNL     1      26.155  57.727  77.605  1.00  0.00     0.293 HD
ENDBRANCH   8  26
TORSDOF 6
ENDMDL
MODEL 5
REMARK VINA RESULT:    -5.298      2.433      7.070
REMARK INTER + INTRA:          -6.137
REMARK INTER:                  -5.856
REMARK INTRA:                  -0.281
REMARK UNBOUND:                 0.245
REMARK SMILES O=c1c(O)c(-c2ccc(O)c(O)c2)oc2cc(O)cc(O)c12
REMARK SMILES IDX 5 1 3 2 2 3 1 4 22 5 20 6 19 7 17 8 16 9 15 10 14 11 6 12
REMARK SMILES IDX 7 13 8 14 9 15 13 16 11 17 10 18 12 20 4 22 21 24 18 26
REMARK H PARENT 10 19 12 21 4 23 21 25 18 27
REMARK Flexibility Score: inf
ROOT
ATOM      1  C   UNL     1      24.482  52.433  77.260  1.00  0.00     0.180 A 
ATOM      2  C   UNL     1      23.292  51.977  76.668  1.00  0.00     0.208 A 
ATOM      3  C   UNL     1      23.291  50.737  76.008  1.00  0.00     0.238 A 
ATOM      4  O   UNL     1      22.209  50.309  75.528  1.00  0.00    -0.285 OA
ATOM      5  C   UNL     1      24.483  49.978  75.935  1.00  0.00     0.111 A 
ATOM      6  C   UNL     1      24.607  48.727  75.258  1.00  0.00     0.134 A 
ATOM      7  C   UNL     1      25.800  48.001  75.360  1.00  0.00     0.093 A 
ATOM      8  C   UNL     1      26.895  48.511  76.062  1.00  0.00     0.123 A 
ATOM      9  C   UNL     1      26.804  49.757  76.677  1.00  0.00     0.094 A 
ATOM     10  C   UNL     1      25.615  50.489  76.622  1.00  0.00     0.146 A 
ATOM     11  O   UNL     1      25.567  51.668  77.231  1.00  0.00    -0.452 OA
ENDROOT
BRANCH   1  12
ATOM     12  C   UNL     1      24.569  53.740  77.951  1.00  0.00     0.025 A 
ATOM     13  C   UNL     1      25.180  54.851  77.343  1.00  0.00     0.016 A 
ATOM     14  C   UNL     1      25.270  56.067  78.023  1.00  0.00     0.051 A 
ATOM     15  C   UNL     1      24.764  56.191  79.323  1.00  0.00     0.157 A 
ATOM     16  C   UNL     1      24.081  53.863  79.262  1.00  0.00     0.062 A 
ATOM     17  C   UNL     1      24.169  55.081  79.946  1.00  0.00     0.158 A 
BRANCH  15  18
ATOM     18  O   UNL     1      24.854  57.407  79.998  1.00  0.00    -0.504 OA
ATOM     19  H   UNL     1      24.096  58.078  79.985  1.00  0.00     0.293 HD
ENDBRANCH  15  18
BRANCH  17  20
ATOM     20  O   UNL     1      23.662  55.168  81.242  1.00  0.00    -0.504 OA
ATOM     21  H   UNL     1      24.169  55.627  81.989  1.00  0.00     0.293 HD
ENDBRANCH  17  20
ENDBRANCH   1  12
BRANCH   2  22
ATOM     22  O   UNL     1      22.121  52.732  76.771  1.00  0.00    -0.502 OA
ATOM     23  H   UNL     1      22.069  53.699  76.470  1.00  0.00     0.293 HD
ENDBRANCH   2  22
BRANCH   6  24
ATOM     24  O   UNL     1      23.606  48.172  74.454  1.00  0.00    -0.507 OA
ATOM     25  H   UNL     1      23.589  48.215  73.446  1.00  0.00     0.293 HD
ENDBRANCH   6  24
BRANCH   8  26
ATOM     26  O   UNL     1      28.084  47.788  76.146  1.00  0.00    -0.508 OA
ATOM     27  H   UNL     1      28.851  47.953  75.505  1.00  0.00     0.293 HD
ENDBRANCH   8  26
TORSDOF 6
ENDMDL
MODEL 6
REMARK VINA RESULT:    -5.285      2.722      6.487
REMARK INTER + INTRA:          -6.122
REMARK INTER:                  -6.071
REMARK INTRA:                  -0.051
REMARK UNBOUND:                 0.245
REMARK SMILES O=c1c(O)c(-c2ccc(O)c(O)c2)oc2cc(O)cc(O)c12
REMARK SMILES IDX 5 1 3 2 2 3 1 4 22 5 20 6 19 7 17 8 16 9 15 10 14 11 6 12
REMARK SMILES IDX 7 13 8 14 9 15 13 16 11 17 10 18 12 20 4 22 21 24 18 26
REMARK H PARENT 10 19 12 21 4 23 21 25 18 27
REMARK Flexibility Score: inf
ROOT
ATOM      1  C   UNL     1      23.998  53.061  78.092  1.00  0.00     0.180 A 
ATOM      2  C   UNL     1      23.376  52.391  77.024  1.00  0.00     0.208 A 
ATOM      3  C   UNL     1      24.008  51.268  76.465  1.00  0.00     0.238 A 
ATOM      4  O   UNL     1      23.420  50.639  75.547  1.00  0.00    -0.285 OA
ATOM      5  C   UNL     1      25.260  50.840  76.969  1.00  0.00     0.111 A 
ATOM      6  C   UNL     1      26.009  49.740  76.452  1.00  0.00     0.134 A 
ATOM      7  C   UNL     1      27.173  49.327  77.111  1.00  0.00     0.093 A 
ATOM      8  C   UNL     1      27.649  50.014  78.230  1.00  0.00     0.123 A 
ATOM      9  C   UNL     1      26.958  51.124  78.707  1.00  0.00     0.094 A 
ATOM     10  C   UNL     1      25.774  51.540  78.092  1.00  0.00     0.146 A 
ATOM     11  O   UNL     1      25.141  52.597  78.585  1.00  0.00    -0.452 OA
ENDROOT
BRANCH   1  12
ATOM     12  C   UNL     1      23.407  54.267  78.717  1.00  0.00     0.025 A 
ATOM     13  C   UNL     1      24.126  55.471  78.809  1.00  0.00     0.016 A 
ATOM     14  C   UNL     1      23.556  56.589  79.423  1.00  0.00     0.051 A 
ATOM     15  C   UNL     1      22.267  56.518  79.966  1.00  0.00     0.157 A 
ATOM     16  C   UNL     1      22.123  54.194  79.280  1.00  0.00     0.062 A 
ATOM     17  C   UNL     1      21.548  55.312  79.896  1.00  0.00     0.158 A 
BRANCH  15  18
ATOM     18  O   UNL     1      21.700  57.635  80.577  1.00  0.00    -0.504 OA
ATOM     19  H   UNL     1      21.965  58.576  80.311  1.00  0.00     0.293 HD
ENDBRANCH  15  18
BRANCH  17  20
ATOM     20  O   UNL     1      20.265  55.205  80.432  1.00  0.00    -0.504 OA
ATOM     21  H   UNL     1      20.086  55.305  81.424  1.00  0.00     0.293 HD
ENDBRANCH  17  20
ENDBRANCH   1  12
BRANCH   2  22
ATOM     22  O   UNL     1      22.130  52.816  76.557  1.00  0.00    -0.502 OA
ATOM     23  H   UNL     1      21.381  52.170  76.341  1.00  0.00     0.293 HD
ENDBRANCH   2  22
BRANCH   6  24
ATOM     24  O   UNL     1      25.670  49.044  75.288  1.00  0.00    -0.507 OA
ATOM     25  H   UNL     1      25.693  49.435  74.357  1.00  0.00     0.293 HD
ENDBRANCH   6  24
BRANCH   8  26
ATOM     26  O   UNL     1      28.817  49.604  78.872  1.00  0.00    -0.508 OA
ATOM     27  H   UNL     1      29.412  50.262  79.360  1.00  0.00     0.293 HD
ENDBRANCH   8  26
TORSDOF 6
ENDMDL
MODEL 7
REMARK VINA RESULT:    -5.239      1.538      2.994
REMARK INTER + INTRA:          -6.066
REMARK INTER:                  -5.791
REMARK INTRA:                  -0.275
REMARK UNBOUND:                 0.245
REMARK SMILES O=c1c(O)c(-c2ccc(O)c(O)c2)oc2cc(O)cc(O)c12
REMARK SMILES IDX 5 1 3 2 2 3 1 4 22 5 20 6 19 7 17 8 16 9 15 10 14 11 6 12
REMARK SMILES IDX 7 13 8 14 9 15 13 16 11 17 10 18 12 20 4 22 21 24 18 26
REMARK H PARENT 10 19 12 21 4 23 21 25 18 27
REMARK Flexibility Score: inf
ROOT
ATOM      1  C   UNL     1      22.944  51.904  77.939  1.00  0.00     0.180 A 
ATOM      2  C   UNL     1      24.349  51.913  77.998  1.00  0.00     0.208 A 
ATOM      3  C   UNL     1      25.006  53.082  78.415  1.00  0.00     0.238 A 
ATOM      4  O   UNL     1      26.260  53.066  78.518  1.00  0.00    -0.285 OA
ATOM      5  C   UNL     1      24.252  54.232  78.750  1.00  0.00     0.111 A 
ATOM      6  C   UNL     1      24.813  55.483  79.147  1.00  0.00     0.134 A 
ATOM      7  C   UNL     1      23.970  56.513  79.581  1.00  0.00     0.093 A 
ATOM      8  C   UNL     1      22.582  56.358  79.573  1.00  0.00     0.123 A 
ATOM      9  C   UNL     1      22.021  55.162  79.132  1.00  0.00     0.094 A 
ATOM     10  C   UNL     1      22.838  54.104  78.725  1.00  0.00     0.146 A 
ATOM     11  O   UNL     1      22.263  52.978  78.323  1.00  0.00    -0.452 OA
ENDROOT
BRANCH   1  12
ATOM     12  C   UNL     1      22.182  50.718  77.485  1.00  0.00     0.025 A 
ATOM     13  C   UNL     1      21.550  49.859  78.401  1.00  0.00     0.016 A 
ATOM     14  C   UNL     1      20.857  48.733  77.951  1.00  0.00     0.051 A 
ATOM     15  C   UNL     1      20.794  48.441  76.583  1.00  0.00     0.157 A 
ATOM     16  C   UNL     1      22.134  50.410  76.116  1.00  0.00     0.062 A 
ATOM     17  C   UNL     1      21.439  49.283  75.662  1.00  0.00     0.158 A 
BRANCH  15  18
ATOM     18  O   UNL     1      20.099  47.318  76.137  1.00  0.00    -0.504 OA
ATOM     19  H   UNL     1      19.087  47.297  76.108  1.00  0.00     0.293 HD
ENDBRANCH  15  18
BRANCH  17  20
ATOM     20  O   UNL     1      21.402  49.017  74.293  1.00  0.00    -0.504 OA
ATOM     21  H   UNL     1      21.855  49.618  73.615  1.00  0.00     0.293 HD
ENDBRANCH  17  20
ENDBRANCH   1  12
BRANCH   2  22
ATOM     22  O   UNL     1      25.072  50.760  77.683  1.00  0.00    -0.502 OA
ATOM     23  H   UNL     1      24.630  49.857  77.559  1.00  0.00     0.293 HD
ENDBRANCH   2  22
BRANCH   6  24
ATOM     24  O   UNL     1      26.181  55.773  79.104  1.00  0.00    -0.507 OA
ATOM     25  H   UNL     1      26.629  56.508  79.630  1.00  0.00     0.293 HD
ENDBRANCH   6  24
BRANCH   8  26
ATOM     26  O   UNL     1      21.749  57.394  79.993  1.00  0.00    -0.508 OA
ATOM     27  H   UNL     1      21.716  58.280  79.503  1.00  0.00     0.293 HD
ENDBRANCH   8  26
TORSDOF 6
ENDMDL
MODEL 8
REMARK VINA RESULT:    -5.157      2.392      7.232
REMARK INTER + INTRA:          -5.968
REMARK INTER:                  -5.817
REMARK INTRA:                  -0.151
REMARK UNBOUND:                 0.245
REMARK SMILES O=c1c(O)c(-c2ccc(O)c(O)c2)oc2cc(O)cc(O)c12
REMARK SMILES IDX 5 1 3 2 2 3 1 4 22 5 20 6 19 7 17 8 16 9 15 10 14 11 6 12
REMARK SMILES IDX 7 13 8 14 9 15 13 16 11 17 10 18 12 20 4 22 21 24 18 26
REMARK H PARENT 10 19 12 21 4 23 21 25 18 27
REMARK Flexibility Score: inf
ROOT
ATOM      1  C   UNL     1      25.896  55.305  79.348  1.00  0.00     0.180 A 
ATOM      2  C   UNL     1      24.525  55.594  79.454  1.00  0.00     0.208 A 
ATOM      3  C   UNL     1      23.602  54.772  78.787  1.00  0.00     0.238 A 
ATOM      4  O   UNL     1      22.373  55.003  78.930  1.00  0.00    -0.285 OA
ATOM      5  C   UNL     1      24.063  53.683  78.008  1.00  0.00     0.111 A 
ATOM      6  C   UNL     1      23.220  52.809  77.257  1.00  0.00     0.134 A 
ATOM      7  C   UNL     1      23.773  51.687  76.629  1.00  0.00     0.093 A 
ATOM      8  C   UNL     1      25.148  51.443  76.671  1.00  0.00     0.123 A 
ATOM      9  C   UNL     1      25.987  52.322  77.352  1.00  0.00     0.094 A 
ATOM     10  C   UNL     1      25.460  53.431  78.018  1.00  0.00     0.146 A 
ATOM     11  O   UNL     1      26.293  54.238  78.664  1.00  0.00    -0.452 OA
ENDROOT
BRANCH   1  12
ATOM     12  C   UNL     1      26.930  56.140  80.002  1.00  0.00     0.025 A 
ATOM     13  C   UNL     1      27.005  56.251  81.401  1.00  0.00     0.016 A 
ATOM     14  C   UNL     1      27.974  57.064  81.994  1.00  0.00     0.051 A 
ATOM     15  C   UNL     1      28.874  57.786  81.200  1.00  0.00     0.157 A 
ATOM     16  C   UNL     1      27.822  56.882  79.210  1.00  0.00     0.062 A 
ATOM     17  C   UNL     1      28.794  57.696  79.801  1.00  0.00     0.158 A 
BRANCH  15  18
ATOM     18  O   UNL     1      29.842  58.594  81.796  1.00  0.00    -0.504 OA
ATOM     19  H   UNL     1      30.723  58.791  81.338  1.00  0.00     0.293 HD
ENDBRANCH  15  18
BRANCH  17  20
ATOM     20  O   UNL     1      29.671  58.407  78.981  1.00  0.00    -0.504 OA
ATOM     21  H   UNL     1      30.650  58.525  79.215  1.00  0.00     0.293 HD
ENDBRANCH  17  20
ENDBRANCH   1  12
BRANCH   2  22
ATOM     22  O   UNL     1      24.090  56.660  80.245  1.00  0.00    -0.502 OA
ATOM     23  H   UNL     1      23.823  57.555  79.853  1.00  0.00     0.293 HD
ENDBRANCH   2  22
BRANCH   6  24
ATOM     24  O   UNL     1      21.849  53.013  77.075  1.00  0.00    -0.507 OA
ATOM     25  H   UNL     1      21.236  53.440  77.754  1.00  0.00     0.293 HD
ENDBRANCH   6  24
BRANCH   8  26
ATOM     26  O   UNL     1      25.692  50.331  76.030  1.00  0.00    -0.508 OA
ATOM     27  H   UNL     1      25.134  49.745  75.420  1.00  0.00     0.293 HD
ENDBRANCH   8  26
TORSDOF 6
ENDMDL
MODEL 9
REMARK VINA RESULT:    -5.000      2.504      7.313
REMARK INTER + INTRA:          -5.778
REMARK INTER:                  -5.446
REMARK INTRA:                  -0.332
REMARK UNBOUND:                 0.245
REMARK SMILES O=c1c(O)c(-c2ccc(O)c(O)c2)oc2cc(O)cc(O)c12
REMARK SMILES IDX 5 1 3 2 2 3 1 4 22 5 20 6 19 7 17 8 16 9 15 10 14 11 6 12
REMARK SMILES IDX 7 13 8 14 9 15 13 16 11 17 10 18 12 20 4 22 21 24 18 26
REMARK H PARENT 10 19 12 21 4 23 21 25 18 27
REMARK Flexibility Score: inf
ROOT
ATOM      1  C   UNL     1      23.106  55.730  80.187  1.00  0.00     0.180 A 
ATOM      2  C   UNL     1      24.236  56.141  79.459  1.00  0.00     0.208 A 
ATOM      3  C   UNL     1      24.680  55.351  78.386  1.00  0.00     0.238 A 
ATOM      4  O   UNL     1      25.658  55.752  77.704  1.00  0.00    -0.285 OA
ATOM      5  C   UNL     1      23.999  54.152  78.067  1.00  0.00     0.111 A 
ATOM      6  C   UNL     1      24.384  53.253  77.027  1.00  0.00     0.134 A 
ATOM      7  C   UNL     1      23.562  52.163  76.715  1.00  0.00     0.093 A 
ATOM      8  C   UNL     1      22.401  51.905  77.448  1.00  0.00     0.123 A 
ATOM      9  C   UNL     1      22.047  52.742  78.503  1.00  0.00     0.094 A 
ATOM     10  C   UNL     1      22.829  53.857  78.815  1.00  0.00     0.146 A 
ATOM     11  O   UNL     1      22.450  54.635  79.821  1.00  0.00    -0.452 OA
ENDROOT
BRANCH   1  12
ATOM     12  C   UNL     1      22.594  56.498  81.346  1.00  0.00     0.025 A 
ATOM     13  C   UNL     1      23.099  56.292  82.641  1.00  0.00     0.016 A 
ATOM     14  C   UNL     1      22.583  57.010  83.723  1.00  0.00     0.051 A 
ATOM     15  C   UNL     1      21.549  57.934  83.530  1.00  0.00     0.157 A 
ATOM     16  C   UNL     1      21.542  57.410  81.161  1.00  0.00     0.062 A 
ATOM     17  C   UNL     1      21.024  58.132  82.242  1.00  0.00     0.158 A 
BRANCH  15  18
ATOM     18  O   UNL     1      21.038  58.651  84.611  1.00  0.00    -0.504 OA
ATOM     19  H   UNL     1      21.600  58.847  85.430  1.00  0.00     0.293 HD
ENDBRANCH  15  18
BRANCH  17  20
ATOM     20  O   UNL     1      19.989  59.039  82.016  1.00  0.00    -0.504 OA
ATOM     21  H   UNL     1      19.208  58.825  81.408  1.00  0.00     0.293 HD
ENDBRANCH  17  20
ENDBRANCH   1  12
BRANCH   2  22
ATOM     22  O   UNL     1      24.880  57.339  79.778  1.00  0.00    -0.502 OA
ATOM     23  H   UNL     1      25.889  57.415  79.843  1.00  0.00     0.293 HD
ENDBRANCH   2  22
BRANCH   6  24
ATOM     24  O   UNL     1      25.570  53.368  76.296  1.00  0.00    -0.507 OA
ATOM     25  H   UNL     1      26.469  53.601  76.691  1.00  0.00     0.293 HD
ENDBRANCH   6  24
BRANCH   8  26
ATOM     26  O   UNL     1      21.596  50.810  77.140  1.00  0.00    -0.508 OA
ATOM     27  H   UNL     1      20.613  50.788  77.387  1.00  0.00     0.293 HD
ENDBRANCH   8  26
TORSDOF 6
ENDMDL
