MODEL 1
REMARK VINA RESULT:    -0.741      0.000      0.000
REMARK INTER + INTRA:          -2.130
REMARK INTER:                  -1.261
REMARK INTRA:                  -0.869
REMARK UNBOUND:                -0.869
REMARK SMILES CCCCCCCCCCCCCC(=O)[O-]
REMARK SMILES IDX 8 1 9 2 10 3 11 4 12 5 13 6 14 7 15 8 16 9 7 10 6 11 5 12
REMARK SMILES IDX 4 13 3 14 2 15 1 16
REMARK H PARENT
REMARK Flexibility Score: inf
ROOT
ATOM      1  C   UNL     1      17.960   1.267  25.325  1.00  0.00     0.000 C 
ENDROOT
BRANCH   1   2
ATOM      2  C   UNL     1      17.253   2.544  24.857  1.00  0.00     0.000 C 
BRANCH   2   3
ATOM      3  C   UNL     1      16.652   3.308  26.045  1.00  0.00     0.000 C 
BRANCH   3   4
ATOM      4  C   UNL     1      15.168   3.611  25.810  1.00  0.00     0.000 C 
BRANCH   4   5
ATOM      5  C   UNL     1      14.390   2.329  25.480  1.00  0.00     0.006 C 
BRANCH   5   6
ATOM      6  C   UNL     1      13.158   2.606  24.609  1.00  0.00     0.053 C 
BRANCH   6   7
ATOM      7  C   UNL     1      13.508   3.392  23.382  1.00  0.00     0.041 C 
ATOM      8  O   UNL     1      14.162   2.853  22.451  1.00  0.00    -0.550 OA
ATOM      9  O   UNL     1      13.083   4.708  23.254  1.00  0.00    -0.550 OA
ENDBRANCH   6   7
ENDBRANCH   5   6
ENDBRANCH   4   5
ENDBRANCH   3   4
ENDBRANCH   2   3
ENDBRANCH   1   2
BRANCH   1  10
ATOM     10  C   UNL     1      19.485   1.403  25.193  1.00  0.00     0.000 C 
BRANCH  10  11
ATOM     11  C   UNL     1      20.217   1.203  26.529  1.00  0.00    -0.000 C 
BRANCH  11  12
ATOM     12  C   UNL     1      19.254   1.152  27.728  1.00  0.00    -0.000 C 
BRANCH  12  13
ATOM     13  C   UNL     1      19.107   2.511  28.436  1.00  0.00    -0.000 C 
BRANCH  13  14
ATOM     14  C   UNL     1      19.368   2.489  29.954  1.00  0.00    -0.000 C 
BRANCH  14  15
ATOM     15  C   UNL     1      19.088   3.839  30.629  1.00  0.00    -0.003 C 
ATOM     16  C   UNL     1      17.601   4.180  30.581  1.00  0.00     0.004 C 
ENDBRANCH  14  15
ENDBRANCH  13  14
ENDBRANCH  12  13
ENDBRANCH  11  12
ENDBRANCH  10  11
ENDBRANCH   1  10
TORSDOF 12
ENDMDL
MODEL 2
REMARK VINA RESULT:    -0.462      3.492      6.919
REMARK INTER + INTRA:          -1.656
REMARK INTER:                  -0.617
REMARK INTRA:                  -1.039
REMARK UNBOUND:                -0.869
REMARK SMILES CCCCCCCCCCCCCC(=O)[O-]
REMARK SMILES IDX 8 1 9 2 10 3 11 4 12 5 13 6 14 7 15 8 16 9 7 10 6 11 5 12
REMARK SMILES IDX 4 13 3 14 2 15 1 16
REMARK H PARENT
REMARK Flexibility Score: inf
ROOT
ATOM      1  C   UNL     1      17.233   2.120  24.939  1.00  0.00     0.000 C 
ENDROOT
BRANCH   1   2
ATOM      2  C   UNL     1      18.356   1.256  25.524  1.00  0.00     0.000 C 
BRANCH   2   3
ATOM      3  C   UNL     1      19.088   1.994  26.653  1.00  0.00     0.000 C 
BRANCH   3   4
ATOM      4  C   UNL     1      19.502   1.025  27.766  1.00  0.00     0.000 C 
BRANCH   4   5
ATOM      5  C   UNL     1      19.469   1.716  29.137  1.00  0.00     0.006 C 
BRANCH   5   6
ATOM      6  C   UNL     1      18.857   3.121  29.064  1.00  0.00     0.053 C 
BRANCH   6   7
ATOM      7  C   UNL     1      18.650   3.709  30.427  1.00  0.00     0.041 C 
ATOM      8  O   UNL     1      19.488   3.495  31.342  1.00  0.00    -0.550 OA
ATOM      9  O   UNL     1      17.550   4.520  30.676  1.00  0.00    -0.550 OA
ENDBRANCH   6   7
ENDBRANCH   5   6
ENDBRANCH   4   5
ENDBRANCH   3   4
ENDBRANCH   2   3
ENDBRANCH   1   2
BRANCH   1  10
ATOM     10  C   UNL     1      16.798   3.206  25.936  1.00  0.00     0.000 C 
BRANCH  10  11
ATOM     11  C   UNL     1      15.337   3.642  25.740  1.00  0.00    -0.000 C 
BRANCH  11  12
ATOM     12  C   UNL     1      14.363   2.452  25.723  1.00  0.00    -0.000 C 
BRANCH  12  13
ATOM     13  C   UNL     1      13.393   2.489  24.527  1.00  0.00    -0.000 C 
BRANCH  13  14
ATOM     14  C   UNL     1      13.897   3.270  23.299  1.00  0.00    -0.000 C 
BRANCH  14  15
ATOM     15  C   UNL     1      12.856   4.254  22.748  1.00  0.00    -0.003 C 
ATOM     16  C   UNL     1      13.236   5.696  23.076  1.00  0.00     0.004 C 
ENDBRANCH  14  15
ENDBRANCH  13  14
ENDBRANCH  12  13
ENDBRANCH  11  12
ENDBRANCH  10  11
ENDBRANCH   1  10
TORSDOF 12
ENDMDL
MODEL 3
REMARK VINA RESULT:     0.659     13.187     15.749
REMARK INTER + INTRA:           0.253
REMARK INTER:                   0.475
REMARK INTRA:                  -0.222
REMARK UNBOUND:                -0.869
REMARK SMILES CCCCCCCCCCCCCC(=O)[O-]
REMARK SMILES IDX 8 1 9 2 10 3 11 4 12 5 13 6 14 7 15 8 16 9 7 10 6 11 5 12
REMARK SMILES IDX 4 13 3 14 2 15 1 16
REMARK H PARENT
REMARK Flexibility Score: inf
ROOT
ATOM      1  C   UNL     1      12.702  16.992  22.493  1.00  0.00     0.000 C 
ENDROOT
BRANCH   1   2
ATOM      2  C   UNL     1      11.892  18.125  23.133  1.00  0.00     0.000 C 
BRANCH   2   3
ATOM      3  C   UNL     1      11.033  17.602  24.292  1.00  0.00     0.000 C 
BRANCH   3   4
ATOM      4  C   UNL     1      11.715  17.858  25.642  1.00  0.00     0.000 C 
BRANCH   4   5
ATOM      5  C   UNL     1      10.967  17.146  26.779  1.00  0.00     0.006 C 
BRANCH   5   6
ATOM      6  C   UNL     1      11.672  15.856  27.219  1.00  0.00     0.053 C 
BRANCH   6   7
ATOM      7  C   UNL     1      11.212  14.671  26.424  1.00  0.00     0.041 C 
ATOM      8  O   UNL     1      10.876  13.608  27.011  1.00  0.00    -0.550 OA
ATOM      9  O   UNL     1      11.122  14.752  25.041  1.00  0.00    -0.550 OA
ENDBRANCH   6   7
ENDBRANCH   5   6
ENDBRANCH   4   5
ENDBRANCH   3   4
ENDBRANCH   2   3
ENDBRANCH   1   2
BRANCH   1  10
ATOM     10  C   UNL     1      13.487  17.499  21.273  1.00  0.00     0.000 C 
BRANCH  10  11
ATOM     11  C   UNL     1      13.473  16.504  20.101  1.00  0.00    -0.000 C 
BRANCH  11  12
ATOM     12  C   UNL     1      12.476  16.905  19.000  1.00  0.00    -0.000 C 
BRANCH  12  13
ATOM     13  C   UNL     1      11.086  16.270  19.190  1.00  0.00    -0.000 C 
BRANCH  13  14
ATOM     14  C   UNL     1      11.095  14.804  19.662  1.00  0.00    -0.000 C 
BRANCH  14  15
ATOM     15  C   UNL     1      10.931  14.664  21.182  1.00  0.00    -0.003 C 
ATOM     16  C   UNL     1      11.210  13.233  21.635  1.00  0.00     0.004 C 
ENDBRANCH  14  15
ENDBRANCH  13  14
ENDBRANCH  12  13
ENDBRANCH  11  12
ENDBRANCH  10  11
ENDBRANCH   1  10
TORSDOF 12
ENDMDL
MODEL 4
REMARK VINA RESULT:     1.770      3.605      7.090
REMARK INTER + INTRA:           2.143
REMARK INTER:                   2.984
REMARK INTRA:                  -0.841
REMARK UNBOUND:                -0.869
REMARK SMILES CCCCCCCCCCCCCC(=O)[O-]
REMARK SMILES IDX 8 1 9 2 10 3 11 4 12 5 13 6 14 7 15 8 16 9 7 10 6 11 5 12
REMARK SMILES IDX 4 13 3 14 2 15 1 16
REMARK H PARENT
REMARK Flexibility Score: inf
ROOT
ATOM      1  C   UNL     1      17.133   2.783  25.295  1.00  0.00     0.000 C 
ENDROOT
BRANCH   1   2
ATOM      2  C   UNL     1      18.226   1.725  25.106  1.00  0.00     0.000 C 
BRANCH   2   3
ATOM      3  C   UNL     1      19.348   1.901  26.138  1.00  0.00     0.000 C 
BRANCH   3   4
ATOM      4  C   UNL     1      19.100   1.030  27.375  1.00  0.00     0.000 C 
BRANCH   4   5
ATOM      5  C   UNL     1      19.468   1.784  28.661  1.00  0.00     0.006 C 
BRANCH   5   6
ATOM      6  C   UNL     1      18.644   3.066  28.838  1.00  0.00     0.053 C 
BRANCH   6   7
ATOM      7  C   UNL     1      18.736   3.598  30.236  1.00  0.00     0.041 C 
ATOM      8  O   UNL     1      17.818   4.326  30.698  1.00  0.00    -0.550 OA
ATOM      9  O   UNL     1      19.818   3.262  31.040  1.00  0.00    -0.550 OA
ENDBRANCH   6   7
ENDBRANCH   5   6
ENDBRANCH   4   5
ENDBRANCH   3   4
ENDBRANCH   2   3
ENDBRANCH   1   2
BRANCH   1  10
ATOM     10  C   UNL     1      15.794   2.128  25.673  1.00  0.00     0.000 C 
BRANCH  10  11
ATOM     11  C   UNL     1      14.605   3.095  25.551  1.00  0.00    -0.000 C 
BRANCH  11  12
ATOM     12  C   UNL     1      13.525   2.582  24.584  1.00  0.00    -0.000 C 
BRANCH  12  13
ATOM     13  C   UNL     1      13.650   3.185  23.172  1.00  0.00    -0.000 C 
BRANCH  13  14
ATOM     14  C   UNL     1      12.670   4.331  22.861  1.00  0.00    -0.000 C 
BRANCH  14  15
ATOM     15  C   UNL     1      13.360   5.700  22.769  1.00  0.00    -0.003 C 
ATOM     16  C   UNL     1      13.289   6.442  24.101  1.00  0.00     0.004 C 
ENDBRANCH  14  15
ENDBRANCH  13  14
ENDBRANCH  12  13
ENDBRANCH  11  12
ENDBRANCH  10  11
ENDBRANCH   1  10
TORSDOF 12
ENDMDL
MODEL 5
REMARK VINA RESULT:     2.153     13.124     15.263
REMARK INTER + INTRA:           2.795
REMARK INTER:                   3.544
REMARK INTRA:                  -0.749
REMARK UNBOUND:                -0.869
REMARK SMILES CCCCCCCCCCCCCC(=O)[O-]
REMARK SMILES IDX 8 1 9 2 10 3 11 4 12 5 13 6 14 7 15 8 16 9 7 10 6 11 5 12
REMARK SMILES IDX 4 13 3 14 2 15 1 16
REMARK H PARENT
REMARK Flexibility Score: inf
ROOT
ATOM      1  C   UNL     1      12.120  13.790  23.505  1.00  0.00     0.000 C 
ENDROOT
BRANCH   1   2
ATOM      2  C   UNL     1      10.903  13.423  22.648  1.00  0.00     0.000 C 
BRANCH   2   3
ATOM      3  C   UNL     1      11.011  14.036  21.246  1.00  0.00     0.000 C 
BRANCH   3   4
ATOM      4  C   UNL     1      10.889  15.563  21.301  1.00  0.00     0.000 C 
BRANCH   4   5
ATOM      5  C   UNL     1      10.897  16.168  19.890  1.00  0.00     0.006 C 
BRANCH   5   6
ATOM      6  C   UNL     1      11.579  17.542  19.851  1.00  0.00     0.053 C 
BRANCH   6   7
ATOM      7  C   UNL     1      13.073  17.423  19.869  1.00  0.00     0.041 C 
ATOM      8  O   UNL     1      13.654  16.889  20.850  1.00  0.00    -0.550 OA
ATOM      9  O   UNL     1      13.821  17.872  18.787  1.00  0.00    -0.550 OA
ENDBRANCH   6   7
ENDBRANCH   5   6
ENDBRANCH   4   5
ENDBRANCH   3   4
ENDBRANCH   2   3
ENDBRANCH   1   2
BRANCH   1  10
ATOM     10  C   UNL     1      11.740  13.878  24.991  1.00  0.00     0.000 C 
BRANCH  10  11
ATOM     11  C   UNL     1      10.875  15.107  25.312  1.00  0.00    -0.000 C 
BRANCH  11  12
ATOM     12  C   UNL     1      11.218  15.730  26.676  1.00  0.00    -0.000 C 
BRANCH  12  13
ATOM     13  C   UNL     1      11.715  17.183  26.564  1.00  0.00    -0.000 C 
BRANCH  13  14
ATOM     14  C   UNL     1      10.973  18.050  25.530  1.00  0.00    -0.000 C 
BRANCH  14  15
ATOM     15  C   UNL     1      11.572  17.944  24.120  1.00  0.00    -0.003 C 
ATOM     16  C   UNL     1      13.096  18.003  24.165  1.00  0.00     0.004 C 
ENDBRANCH  14  15
ENDBRANCH  13  14
ENDBRANCH  12  13
ENDBRANCH  11  12
ENDBRANCH  10  11
ENDBRANCH   1  10
TORSDOF 12
ENDMDL
