MODEL 1
REMARK VINA RESULT:    -7.452      0.000      0.000
REMARK INTER + INTRA:          -9.302
REMARK INTER:                  -8.977
REMARK INTRA:                  -0.325
REMARK UNBOUND:                -0.325
REMARK SMILES O=c1c(O)c(-c2ccc(O)c(O)c2)oc2cc(O)cc(O)c12
REMARK SMILES IDX 5 1 3 2 2 3 1 4 22 5 20 6 19 7 17 8 16 9 15 10 14 11 6 12
REMARK SMILES IDX 7 13 8 14 9 15 13 16 11 17 10 18 12 20 4 22 21 24 18 26
REMARK H PARENT 10 19 12 21 4 23 21 25 18 27
REMARK Flexibility Score: inf
ROOT
ATOM      1  C   UNL     1      13.571  35.658  55.098  1.00  0.00     0.180 A 
ATOM      2  C   UNL     1      14.277  35.180  53.980  1.00  0.00     0.208 A 
ATOM      3  C   UNL     1      15.678  35.100  54.042  1.00  0.00     0.238 A 
ATOM      4  O   UNL     1      16.297  34.603  53.066  1.00  0.00    -0.285 OA
ATOM      5  C   UNL     1      16.359  35.550  55.199  1.00  0.00     0.111 A 
ATOM      6  C   UNL     1      17.779  35.558  55.354  1.00  0.00     0.134 A 
ATOM      7  C   UNL     1      18.337  35.926  56.585  1.00  0.00     0.093 A 
ATOM      8  C   UNL     1      17.534  36.348  57.642  1.00  0.00     0.123 A 
ATOM      9  C   UNL     1      16.149  36.398  57.484  1.00  0.00     0.094 A 
ATOM     10  C   UNL     1      15.559  36.000  56.281  1.00  0.00     0.146 A 
ATOM     11  O   UNL     1      14.236  36.042  56.181  1.00  0.00    -0.452 OA
ENDROOT
BRANCH   1  12
ATOM     12  C   UNL     1      12.094  35.757  55.114  1.00  0.00     0.025 A 
ATOM     13  C   UNL     1      11.477  36.932  54.656  1.00  0.00     0.016 A 
ATOM     14  C   UNL     1      10.086  37.057  54.681  1.00  0.00     0.051 A 
ATOM     15  C   UNL     1       9.292  36.019  55.177  1.00  0.00     0.157 A 
ATOM     16  C   UNL     1      11.295  34.723  55.632  1.00  0.00     0.062 A 
ATOM     17  C   UNL     1       9.898  34.846  55.659  1.00  0.00     0.158 A 
BRANCH  15  18
ATOM     18  O   UNL     1       7.906  36.171  55.187  1.00  0.00    -0.504 OA
ATOM     19  H   UNL     1       7.388  36.443  54.361  1.00  0.00     0.293 HD
ENDBRANCH  15  18
BRANCH  17  20
ATOM     20  O   UNL     1       9.113  33.814  56.169  1.00  0.00    -0.504 OA
ATOM     21  H   UNL     1       9.527  32.989  56.588  1.00  0.00     0.293 HD
ENDBRANCH  17  20
ENDBRANCH   1  12
BRANCH   2  22
ATOM     22  O   UNL     1      13.591  34.813  52.819  1.00  0.00    -0.502 OA
ATOM     23  H   UNL     1      13.231  35.494  52.161  1.00  0.00     0.293 HD
ENDBRANCH   2  22
BRANCH   6  24
ATOM     24  O   UNL     1      18.680  35.240  54.333  1.00  0.00    -0.507 OA
ATOM     25  H   UNL     1      19.600  34.851  54.476  1.00  0.00     0.293 HD
ENDBRANCH   6  24
BRANCH   8  26
ATOM     26  O   UNL     1      18.125  36.725  58.847  1.00  0.00    -0.508 OA
ATOM     27  H   UNL     1      19.063  37.108  58.880  1.00  0.00     0.293 HD
ENDBRANCH   8  26
TORSDOF 6
ENDMDL
MODEL 2
REMARK VINA RESULT:    -7.312      1.772      3.641
REMARK INTER + INTRA:          -9.133
REMARK INTER:                  -8.902
REMARK INTRA:                  -0.231
REMARK UNBOUND:                -0.325
REMARK SMILES O=c1c(O)c(-c2ccc(O)c(O)c2)oc2cc(O)cc(O)c12
REMARK SMILES IDX 5 1 3 2 2 3 1 4 22 5 20 6 19 7 17 8 16 9 15 10 14 11 6 12
REMARK SMILES IDX 7 13 8 14 9 15 13 16 11 17 10 18 12 20 4 22 21 24 18 26
REMARK H PARENT 10 19 12 21 4 23 21 25 18 27
REMARK Flexibility Score: inf
ROOT
ATOM      1  C   UNL     1      13.293  35.985  55.045  1.00  0.00     0.180 A 
ATOM      2  C   UNL     1      14.367  36.549  55.755  1.00  0.00     0.208 A 
ATOM      3  C   UNL     1      15.677  36.323  55.303  1.00  0.00     0.238 A 
ATOM      4  O   UNL     1      16.627  36.891  55.900  1.00  0.00    -0.285 OA
ATOM      5  C   UNL     1      15.901  35.490  54.181  1.00  0.00     0.111 A 
ATOM      6  C   UNL     1      17.189  35.154  53.662  1.00  0.00     0.134 A 
ATOM      7  C   UNL     1      17.284  34.407  52.481  1.00  0.00     0.093 A 
ATOM      8  C   UNL     1      16.145  33.929  51.836  1.00  0.00     0.123 A 
ATOM      9  C   UNL     1      14.883  34.204  52.365  1.00  0.00     0.094 A 
ATOM     10  C   UNL     1      14.753  34.979  53.520  1.00  0.00     0.146 A 
ATOM     11  O   UNL     1      13.533  35.235  53.976  1.00  0.00    -0.452 OA
ENDROOT
BRANCH   1  12
ATOM     12  C   UNL     1      11.885  36.191  55.451  1.00  0.00     0.025 A 
ATOM     13  C   UNL     1      11.389  35.526  56.585  1.00  0.00     0.016 A 
ATOM     14  C   UNL     1      10.058  35.689  56.975  1.00  0.00     0.051 A 
ATOM     15  C   UNL     1       9.198  36.503  56.232  1.00  0.00     0.157 A 
ATOM     16  C   UNL     1      11.013  36.993  54.694  1.00  0.00     0.062 A 
ATOM     17  C   UNL     1       9.675  37.157  55.083  1.00  0.00     0.158 A 
BRANCH  15  18
ATOM     18  O   UNL     1       7.875  36.649  56.647  1.00  0.00    -0.504 OA
ATOM     19  H   UNL     1       7.108  36.186  56.175  1.00  0.00     0.293 HD
ENDBRANCH  15  18
BRANCH  17  20
ATOM     20  O   UNL     1       8.819  37.958  54.329  1.00  0.00    -0.504 OA
ATOM     21  H   UNL     1       8.200  37.563  53.630  1.00  0.00     0.293 HD
ENDBRANCH  17  20
ENDBRANCH   1  12
BRANCH   2  22
ATOM     22  O   UNL     1      14.129  37.306  56.907  1.00  0.00    -0.502 OA
ATOM     23  H   UNL     1      13.875  36.884  57.792  1.00  0.00     0.293 HD
ENDBRANCH   2  22
BRANCH   6  24
ATOM     24  O   UNL     1      18.396  35.504  54.275  1.00  0.00    -0.507 OA
ATOM     25  H   UNL     1      18.515  36.271  54.918  1.00  0.00     0.293 HD
ENDBRANCH   6  24
BRANCH   8  26
ATOM     26  O   UNL     1      16.279  33.174  50.673  1.00  0.00    -0.508 OA
ATOM     27  H   UNL     1      16.753  33.539  49.855  1.00  0.00     0.293 HD
ENDBRANCH   8  26
TORSDOF 6
ENDMDL
MODEL 3
REMARK VINA RESULT:    -7.077      2.919      5.930
REMARK INTER + INTRA:          -8.849
REMARK INTER:                  -8.808
REMARK INTRA:                  -0.042
REMARK UNBOUND:                -0.325
REMARK SMILES O=c1c(O)c(-c2ccc(O)c(O)c2)oc2cc(O)cc(O)c12
REMARK SMILES IDX 5 1 3 2 2 3 1 4 22 5 20 6 19 7 17 8 16 9 15 10 14 11 6 12
REMARK SMILES IDX 7 13 8 14 9 15 13 16 11 17 10 18 12 20 4 22 21 24 18 26
REMARK H PARENT 10 19 12 21 4 23 21 25 18 27
REMARK Flexibility Score: inf
ROOT
ATOM      1  C   UNL     1      16.138  35.587  56.580  1.00  0.00     0.180 A 
ATOM      2  C   UNL     1      17.413  35.651  55.991  1.00  0.00     0.208 A 
ATOM      3  C   UNL     1      17.533  35.459  54.605  1.00  0.00     0.238 A 
ATOM      4  O   UNL     1      18.667  35.591  54.075  1.00  0.00    -0.285 OA
ATOM      5  C   UNL     1      16.387  35.150  53.834  1.00  0.00     0.111 A 
ATOM      6  C   UNL     1      16.398  34.891  52.430  1.00  0.00     0.134 A 
ATOM      7  C   UNL     1      15.187  34.702  51.753  1.00  0.00     0.093 A 
ATOM      8  C   UNL     1      13.972  34.697  52.436  1.00  0.00     0.123 A 
ATOM      9  C   UNL     1      13.954  34.894  53.817  1.00  0.00     0.094 A 
ATOM     10  C   UNL     1      15.142  35.124  54.515  1.00  0.00     0.146 A 
ATOM     11  O   UNL     1      15.077  35.329  55.825  1.00  0.00    -0.452 OA
ENDROOT
BRANCH   1  12
ATOM     12  C   UNL     1      15.929  35.794  58.031  1.00  0.00     0.025 A 
ATOM     13  C   UNL     1      15.169  34.864  58.758  1.00  0.00     0.016 A 
ATOM     14  C   UNL     1      14.941  35.049  60.123  1.00  0.00     0.051 A 
ATOM     15  C   UNL     1      15.453  36.172  60.780  1.00  0.00     0.157 A 
ATOM     16  C   UNL     1      16.427  36.933  58.688  1.00  0.00     0.062 A 
ATOM     17  C   UNL     1      16.198  37.122  60.060  1.00  0.00     0.158 A 
BRANCH  15  18
ATOM     18  O   UNL     1      15.212  36.329  62.144  1.00  0.00    -0.504 OA
ATOM     19  H   UNL     1      14.301  36.586  62.504  1.00  0.00     0.293 HD
ENDBRANCH  15  18
BRANCH  17  20
ATOM     20  O   UNL     1      16.699  38.251  60.705  1.00  0.00    -0.504 OA
ATOM     21  H   UNL     1      17.655  38.561  60.569  1.00  0.00     0.293 HD
ENDBRANCH  17  20
ENDBRANCH   1  12
BRANCH   2  22
ATOM     22  O   UNL     1      18.543  35.881  56.782  1.00  0.00    -0.502 OA
ATOM     23  H   UNL     1      19.444  36.119  56.386  1.00  0.00     0.293 HD
ENDBRANCH   2  22
BRANCH   6  24
ATOM     24  O   UNL     1      17.562  34.785  51.662  1.00  0.00    -0.507 OA
ATOM     25  H   UNL     1      18.017  33.918  51.420  1.00  0.00     0.293 HD
ENDBRANCH   6  24
BRANCH   8  26
ATOM     26  O   UNL     1      12.788  34.488  51.733  1.00  0.00    -0.508 OA
ATOM     27  H   UNL     1      12.286  33.609  51.789  1.00  0.00     0.293 HD
ENDBRANCH   8  26
TORSDOF 6
ENDMDL
MODEL 4
REMARK VINA RESULT:    -6.965      3.051      5.124
REMARK INTER + INTRA:          -8.715
REMARK INTER:                  -8.572
REMARK INTRA:                  -0.143
REMARK UNBOUND:                -0.325
REMARK SMILES O=c1c(O)c(-c2ccc(O)c(O)c2)oc2cc(O)cc(O)c12
REMARK SMILES IDX 5 1 3 2 2 3 1 4 22 5 20 6 19 7 17 8 16 9 15 10 14 11 6 12
REMARK SMILES IDX 7 13 8 14 9 15 13 16 11 17 10 18 12 20 4 22 21 24 18 26
REMARK H PARENT 10 19 12 21 4 23 21 25 18 27
REMARK Flexibility Score: inf
ROOT
ATOM      1  C   UNL     1      15.429  35.977  56.327  1.00  0.00     0.180 A 
ATOM      2  C   UNL     1      16.215  37.122  56.542  1.00  0.00     0.208 A 
ATOM      3  C   UNL     1      16.501  37.514  57.860  1.00  0.00     0.238 A 
ATOM      4  O   UNL     1      17.266  38.496  58.044  1.00  0.00    -0.285 OA
ATOM      5  C   UNL     1      15.953  36.790  58.946  1.00  0.00     0.111 A 
ATOM      6  C   UNL     1      16.139  37.124  60.322  1.00  0.00     0.134 A 
ATOM      7  C   UNL     1      15.636  36.272  61.313  1.00  0.00     0.093 A 
ATOM      8  C   UNL     1      14.900  35.136  60.982  1.00  0.00     0.123 A 
ATOM      9  C   UNL     1      14.664  34.830  59.641  1.00  0.00     0.094 A 
ATOM     10  C   UNL     1      15.186  35.639  58.628  1.00  0.00     0.146 A 
ATOM     11  O   UNL     1      14.956  35.299  57.366  1.00  0.00    -0.452 OA
ENDROOT
BRANCH   1  12
ATOM     12  C   UNL     1      15.097  35.492  54.968  1.00  0.00     0.025 A 
ATOM     13  C   UNL     1      13.751  35.363  54.591  1.00  0.00     0.016 A 
ATOM     14  C   UNL     1      13.414  34.888  53.322  1.00  0.00     0.051 A 
ATOM     15  C   UNL     1      14.414  34.520  52.416  1.00  0.00     0.157 A 
ATOM     16  C   UNL     1      16.101  35.103  54.063  1.00  0.00     0.062 A 
ATOM     17  C   UNL     1      15.765  34.625  52.788  1.00  0.00     0.158 A 
BRANCH  15  18
ATOM     18  O   UNL     1      14.047  34.053  51.155  1.00  0.00    -0.504 OA
ATOM     19  H   UNL     1      13.187  34.338  50.703  1.00  0.00     0.293 HD
ENDBRANCH  15  18
BRANCH  17  20
ATOM     20  O   UNL     1      16.765  34.246  51.895  1.00  0.00    -0.504 OA
ATOM     21  H   UNL     1      16.878  34.703  50.997  1.00  0.00     0.293 HD
ENDBRANCH  17  20
ENDBRANCH   1  12
BRANCH   2  22
ATOM     22  O   UNL     1      16.684  37.868  55.456  1.00  0.00    -0.502 OA
ATOM     23  H   UNL     1      17.062  38.801  55.561  1.00  0.00     0.293 HD
ENDBRANCH   2  22
BRANCH   6  24
ATOM     24  O   UNL     1      16.783  38.283  60.767  1.00  0.00    -0.507 OA
ATOM     25  H   UNL     1      16.426  38.906  61.475  1.00  0.00     0.293 HD
ENDBRANCH   6  24
BRANCH   8  26
ATOM     26  O   UNL     1      14.399  34.322  61.995  1.00  0.00    -0.508 OA
ATOM     27  H   UNL     1      13.508  33.848  61.903  1.00  0.00     0.293 HD
ENDBRANCH   8  26
TORSDOF 6
ENDMDL
MODEL 5
REMARK VINA RESULT:    -6.939      3.522      6.083
REMARK INTER + INTRA:          -8.683
REMARK INTER:                  -8.681
REMARK INTRA:                  -0.002
REMARK UNBOUND:                -0.325
REMARK SMILES O=c1c(O)c(-c2ccc(O)c(O)c2)oc2cc(O)cc(O)c12
REMARK SMILES IDX 5 1 3 2 2 3 1 4 22 5 20 6 19 7 17 8 16 9 15 10 14 11 6 12
REMARK SMILES IDX 7 13 8 14 9 15 13 16 11 17 10 18 12 20 4 22 21 24 18 26
REMARK H PARENT 10 19 12 21 4 23 21 25 18 27
REMARK Flexibility Score: inf
ROOT
ATOM      1  C   UNL     1      15.482  35.332  58.991  1.00  0.00     0.180 A 
ATOM      2  C   UNL     1      16.833  35.501  58.642  1.00  0.00     0.208 A 
ATOM      3  C   UNL     1      17.175  35.643  57.287  1.00  0.00     0.238 A 
ATOM      4  O   UNL     1      18.376  35.867  56.989  1.00  0.00    -0.285 OA
ATOM      5  C   UNL     1      16.169  35.558  56.295  1.00  0.00     0.111 A 
ATOM      6  C   UNL     1      16.407  35.642  54.889  1.00  0.00     0.134 A 
ATOM      7  C   UNL     1      15.320  35.652  54.004  1.00  0.00     0.093 A 
ATOM      8  C   UNL     1      14.013  35.517  54.467  1.00  0.00     0.123 A 
ATOM      9  C   UNL     1      13.773  35.377  55.835  1.00  0.00     0.094 A 
ATOM     10  C   UNL     1      14.832  35.403  56.745  1.00  0.00     0.146 A 
ATOM     11  O   UNL     1      14.557  35.289  58.039  1.00  0.00    -0.452 OA
ENDROOT
BRANCH   1  12
ATOM     12  C   UNL     1      15.042  35.191  60.397  1.00  0.00     0.025 A 
ATOM     13  C   UNL     1      15.449  36.143  61.346  1.00  0.00     0.016 A 
ATOM     14  C   UNL     1      15.064  36.019  62.683  1.00  0.00     0.051 A 
ATOM     15  C   UNL     1      14.282  34.936  63.096  1.00  0.00     0.157 A 
ATOM     16  C   UNL     1      14.273  34.092  60.819  1.00  0.00     0.062 A 
ATOM     17  C   UNL     1      13.887  33.965  62.161  1.00  0.00     0.158 A 
BRANCH  15  18
ATOM     18  O   UNL     1      13.912  34.841  64.437  1.00  0.00    -0.504 OA
ATOM     19  H   UNL     1      14.176  34.051  65.014  1.00  0.00     0.293 HD
ENDBRANCH  15  18
BRANCH  17  20
ATOM     20  O   UNL     1      13.120  32.875  62.570  1.00  0.00    -0.504 OA
ATOM     21  H   UNL     1      12.337  32.540  62.019  1.00  0.00     0.293 HD
ENDBRANCH  17  20
ENDBRANCH   1  12
BRANCH   2  22
ATOM     22  O   UNL     1      17.820  35.505  59.633  1.00  0.00    -0.502 OA
ATOM     23  H   UNL     1      18.003  34.701  60.221  1.00  0.00     0.293 HD
ENDBRANCH   2  22
BRANCH   6  24
ATOM     24  O   UNL     1      17.679  35.692  54.310  1.00  0.00    -0.507 OA
ATOM     25  H   UNL     1      17.999  36.412  53.682  1.00  0.00     0.293 HD
ENDBRANCH   6  24
BRANCH   8  26
ATOM     26  O   UNL     1      12.958  35.513  53.557  1.00  0.00    -0.508 OA
ATOM     27  H   UNL     1      13.100  35.743  52.580  1.00  0.00     0.293 HD
ENDBRANCH   8  26
TORSDOF 6
ENDMDL
MODEL 6
REMARK VINA RESULT:    -6.917      3.085      6.567
REMARK INTER + INTRA:          -8.657
REMARK INTER:                  -8.626
REMARK INTRA:                  -0.031
REMARK UNBOUND:                -0.325
REMARK SMILES O=c1c(O)c(-c2ccc(O)c(O)c2)oc2cc(O)cc(O)c12
REMARK SMILES IDX 5 1 3 2 2 3 1 4 22 5 20 6 19 7 17 8 16 9 15 10 14 11 6 12
REMARK SMILES IDX 7 13 8 14 9 15 13 16 11 17 10 18 12 20 4 22 21 24 18 26
REMARK H PARENT 10 19 12 21 4 23 21 25 18 27
REMARK Flexibility Score: inf
ROOT
ATOM      1  C   UNL     1      16.031  37.274  56.760  1.00  0.00     0.180 A 
ATOM      2  C   UNL     1      14.890  36.486  56.989  1.00  0.00     0.208 A 
ATOM      3  C   UNL     1      14.527  35.519  56.038  1.00  0.00     0.238 A 
ATOM      4  O   UNL     1      13.549  34.767  56.285  1.00  0.00    -0.285 OA
ATOM      5  C   UNL     1      15.277  35.390  54.844  1.00  0.00     0.111 A 
ATOM      6  C   UNL     1      14.974  34.474  53.790  1.00  0.00     0.134 A 
ATOM      7  C   UNL     1      15.849  34.360  52.702  1.00  0.00     0.093 A 
ATOM      8  C   UNL     1      16.978  35.170  52.597  1.00  0.00     0.123 A 
ATOM      9  C   UNL     1      17.253  36.107  53.594  1.00  0.00     0.094 A 
ATOM     10  C   UNL     1      16.421  36.218  54.711  1.00  0.00     0.146 A 
ATOM     11  O   UNL     1      16.733  37.107  55.646  1.00  0.00    -0.452 OA
ENDROOT
BRANCH   1  12
ATOM     12  C   UNL     1      16.484  38.303  57.723  1.00  0.00     0.025 A 
ATOM     13  C   UNL     1      15.598  39.318  58.116  1.00  0.00     0.016 A 
ATOM     14  C   UNL     1      16.010  40.312  59.007  1.00  0.00     0.051 A 
ATOM     15  C   UNL     1      17.316  40.317  59.507  1.00  0.00     0.157 A 
ATOM     16  C   UNL     1      17.803  38.321  58.210  1.00  0.00     0.062 A 
ATOM     17  C   UNL     1      18.220  39.318  59.104  1.00  0.00     0.158 A 
BRANCH  15  18
ATOM     18  O   UNL     1      17.698  41.319  60.397  1.00  0.00    -0.504 OA
ATOM     19  H   UNL     1      18.442  41.186  61.071  1.00  0.00     0.293 HD
ENDBRANCH  15  18
BRANCH  17  20
ATOM     20  O   UNL     1      19.527  39.326  59.587  1.00  0.00    -0.504 OA
ATOM     21  H   UNL     1      19.879  40.085  60.159  1.00  0.00     0.293 HD
ENDBRANCH  17  20
ENDBRANCH   1  12
BRANCH   2  22
ATOM     22  O   UNL     1      14.119  36.682  58.140  1.00  0.00    -0.502 OA
ATOM     23  H   UNL     1      13.250  36.188  58.302  1.00  0.00     0.293 HD
ENDBRANCH   2  22
BRANCH   6  24
ATOM     24  O   UNL     1      13.825  33.679  53.749  1.00  0.00    -0.507 OA
ATOM     25  H   UNL     1      13.809  32.698  53.514  1.00  0.00     0.293 HD
ENDBRANCH   6  24
BRANCH   8  26
ATOM     26  O   UNL     1      17.816  35.042  51.492  1.00  0.00    -0.508 OA
ATOM     27  H   UNL     1      18.765  35.397  51.502  1.00  0.00     0.293 HD
ENDBRANCH   8  26
TORSDOF 6
ENDMDL
MODEL 7
REMARK VINA RESULT:    -6.858      3.104      6.147
REMARK INTER + INTRA:          -8.585
REMARK INTER:                  -8.347
REMARK INTRA:                  -0.238
REMARK UNBOUND:                -0.325
REMARK SMILES O=c1c(O)c(-c2ccc(O)c(O)c2)oc2cc(O)cc(O)c12
REMARK SMILES IDX 5 1 3 2 2 3 1 4 22 5 20 6 19 7 17 8 16 9 15 10 14 11 6 12
REMARK SMILES IDX 7 13 8 14 9 15 13 16 11 17 10 18 12 20 4 22 21 24 18 26
REMARK H PARENT 10 19 12 21 4 23 21 25 18 27
REMARK Flexibility Score: inf
ROOT
ATOM      1  C   UNL     1      13.478  35.522  56.277  1.00  0.00     0.180 A 
ATOM      2  C   UNL     1      12.393  36.415  56.243  1.00  0.00     0.208 A 
ATOM      3  C   UNL     1      11.537  36.490  57.353  1.00  0.00     0.238 A 
ATOM      4  O   UNL     1      10.613  37.344  57.346  1.00  0.00    -0.285 OA
ATOM      5  C   UNL     1      11.741  35.631  58.460  1.00  0.00     0.111 A 
ATOM      6  C   UNL     1      10.909  35.588  59.620  1.00  0.00     0.134 A 
ATOM      7  C   UNL     1      11.270  34.772  60.700  1.00  0.00     0.093 A 
ATOM      8  C   UNL     1      12.395  33.952  60.638  1.00  0.00     0.123 A 
ATOM      9  C   UNL     1      13.185  33.944  59.488  1.00  0.00     0.094 A 
ATOM     10  C   UNL     1      12.872  34.775  58.409  1.00  0.00     0.146 A 
ATOM     11  O   UNL     1      13.663  34.752  57.343  1.00  0.00    -0.452 OA
ENDROOT
BRANCH   1  12
ATOM     12  C   UNL     1      14.432  35.398  55.152  1.00  0.00     0.025 A 
ATOM     13  C   UNL     1      15.717  35.951  55.274  1.00  0.00     0.016 A 
ATOM     14  C   UNL     1      16.627  35.865  54.218  1.00  0.00     0.051 A 
ATOM     15  C   UNL     1      16.265  35.240  53.020  1.00  0.00     0.157 A 
ATOM     16  C   UNL     1      14.062  34.788  53.941  1.00  0.00     0.062 A 
ATOM     17  C   UNL     1      14.974  34.701  52.878  1.00  0.00     0.158 A 
BRANCH  15  18
ATOM     18  O   UNL     1      17.195  35.166  51.985  1.00  0.00    -0.504 OA
ATOM     19  H   UNL     1      16.917  35.051  51.018  1.00  0.00     0.293 HD
ENDBRANCH  15  18
BRANCH  17  20
ATOM     20  O   UNL     1      14.602  34.091  51.682  1.00  0.00    -0.504 OA
ATOM     21  H   UNL     1      15.239  34.026  50.897  1.00  0.00     0.293 HD
ENDBRANCH  17  20
ENDBRANCH   1  12
BRANCH   2  22
ATOM     22  O   UNL     1      12.164  37.200  55.109  1.00  0.00    -0.502 OA
ATOM     23  H   UNL     1      11.327  37.759  54.995  1.00  0.00     0.293 HD
ENDBRANCH   2  22
BRANCH   6  24
ATOM     24  O   UNL     1       9.713  36.300  59.753  1.00  0.00    -0.507 OA
ATOM     25  H   UNL     1       8.956  36.048  60.370  1.00  0.00     0.293 HD
ENDBRANCH   6  24
BRANCH   8  26
ATOM     26  O   UNL     1      12.714  33.140  61.724  1.00  0.00    -0.508 OA
ATOM     27  H   UNL     1      12.126  33.101  62.548  1.00  0.00     0.293 HD
ENDBRANCH   8  26
TORSDOF 6
ENDMDL
MODEL 8
REMARK VINA RESULT:    -6.846      2.770      4.787
REMARK INTER + INTRA:          -8.572
REMARK INTER:                  -8.539
REMARK INTRA:                  -0.034
REMARK UNBOUND:                -0.325
REMARK SMILES O=c1c(O)c(-c2ccc(O)c(O)c2)oc2cc(O)cc(O)c12
REMARK SMILES IDX 5 1 3 2 2 3 1 4 22 5 20 6 19 7 17 8 16 9 15 10 14 11 6 12
REMARK SMILES IDX 7 13 8 14 9 15 13 16 11 17 10 18 12 20 4 22 21 24 18 26
REMARK H PARENT 10 19 12 21 4 23 21 25 18 27
REMARK Flexibility Score: inf
ROOT
ATOM      1  C   UNL     1      15.086  35.842  56.237  1.00  0.00     0.180 A 
ATOM      2  C   UNL     1      14.363  35.397  57.357  1.00  0.00     0.208 A 
ATOM      3  C   UNL     1      14.708  35.883  58.629  1.00  0.00     0.238 A 
ATOM      4  O   UNL     1      14.010  35.537  59.616  1.00  0.00    -0.285 OA
ATOM      5  C   UNL     1      15.807  36.763  58.772  1.00  0.00     0.111 A 
ATOM      6  C   UNL     1      16.275  37.283  60.017  1.00  0.00     0.134 A 
ATOM      7  C   UNL     1      17.306  38.232  60.026  1.00  0.00     0.093 A 
ATOM      8  C   UNL     1      17.928  38.631  58.845  1.00  0.00     0.123 A 
ATOM      9  C   UNL     1      17.516  38.088  57.627  1.00  0.00     0.094 A 
ATOM     10  C   UNL     1      16.465  37.169  57.581  1.00  0.00     0.146 A 
ATOM     11  O   UNL     1      16.091  36.695  56.399  1.00  0.00    -0.452 OA
ENDROOT
BRANCH   1  12
ATOM     12  C   UNL     1      14.771  35.388  54.864  1.00  0.00     0.025 A 
ATOM     13  C   UNL     1      13.462  35.525  54.375  1.00  0.00     0.016 A 
ATOM     14  C   UNL     1      13.137  35.083  53.090  1.00  0.00     0.051 A 
ATOM     15  C   UNL     1      14.108  34.485  52.281  1.00  0.00     0.157 A 
ATOM     16  C   UNL     1      15.741  34.767  54.057  1.00  0.00     0.062 A 
ATOM     17  C   UNL     1      15.416  34.322  52.767  1.00  0.00     0.158 A 
BRANCH  15  18
ATOM     18  O   UNL     1      13.754  34.057  51.002  1.00  0.00    -0.504 OA
ATOM     19  H   UNL     1      13.754  34.682  50.206  1.00  0.00     0.293 HD
ENDBRANCH  15  18
BRANCH  17  20
ATOM     20  O   UNL     1      16.385  33.713  51.971  1.00  0.00    -0.504 OA
ATOM     21  H   UNL     1      16.724  32.778  52.168  1.00  0.00     0.293 HD
ENDBRANCH  17  20
ENDBRANCH   1  12
BRANCH   2  22
ATOM     22  O   UNL     1      13.329  34.467  57.203  1.00  0.00    -0.502 OA
ATOM     23  H   UNL     1      12.679  34.501  56.428  1.00  0.00     0.293 HD
ENDBRANCH   2  22
BRANCH   6  24
ATOM     24  O   UNL     1      15.785  36.886  61.265  1.00  0.00    -0.507 OA
ATOM     25  H   UNL     1      16.001  37.339  62.140  1.00  0.00     0.293 HD
ENDBRANCH   6  24
BRANCH   8  26
ATOM     26  O   UNL     1      18.962  39.563  58.894  1.00  0.00    -0.508 OA
ATOM     27  H   UNL     1      18.794  40.550  58.739  1.00  0.00     0.293 HD
ENDBRANCH   8  26
TORSDOF 6
ENDMDL
MODEL 9
REMARK VINA RESULT:    -6.801      2.031      6.818
REMARK INTER + INTRA:          -8.517
REMARK INTER:                  -8.430
REMARK INTRA:                  -0.087
REMARK UNBOUND:                -0.325
REMARK SMILES O=c1c(O)c(-c2ccc(O)c(O)c2)oc2cc(O)cc(O)c12
REMARK SMILES IDX 5 1 3 2 2 3 1 4 22 5 20 6 19 7 17 8 16 9 15 10 14 11 6 12
REMARK SMILES IDX 7 13 8 14 9 15 13 16 11 17 10 18 12 20 4 22 21 24 18 26
REMARK H PARENT 10 19 12 21 4 23 21 25 18 27
REMARK Flexibility Score: inf
ROOT
ATOM      1  C   UNL     1      13.825  35.617  55.219  1.00  0.00     0.180 A 
ATOM      2  C   UNL     1      13.981  35.529  56.614  1.00  0.00     0.208 A 
ATOM      3  C   UNL     1      12.851  35.668  57.436  1.00  0.00     0.238 A 
ATOM      4  O   UNL     1      12.986  35.514  58.677  1.00  0.00    -0.285 OA
ATOM      5  C   UNL     1      11.590  35.950  56.858  1.00  0.00     0.111 A 
ATOM      6  C   UNL     1      10.385  36.156  57.598  1.00  0.00     0.134 A 
ATOM      7  C   UNL     1       9.174  36.322  56.914  1.00  0.00     0.093 A 
ATOM      8  C   UNL     1       9.132  36.355  55.521  1.00  0.00     0.123 A 
ATOM      9  C   UNL     1      10.311  36.211  54.789  1.00  0.00     0.094 A 
ATOM     10  C   UNL     1      11.529  36.004  55.441  1.00  0.00     0.146 A 
ATOM     11  O   UNL     1      12.623  35.850  54.705  1.00  0.00    -0.452 OA
ENDROOT
BRANCH   1  12
ATOM     12  C   UNL     1      14.965  35.466  54.287  1.00  0.00     0.025 A 
ATOM     13  C   UNL     1      16.048  36.355  54.373  1.00  0.00     0.016 A 
ATOM     14  C   UNL     1      17.125  36.245  53.490  1.00  0.00     0.051 A 
ATOM     15  C   UNL     1      17.131  35.258  52.501  1.00  0.00     0.157 A 
ATOM     16  C   UNL     1      14.962  34.487  53.279  1.00  0.00     0.062 A 
ATOM     17  C   UNL     1      16.043  34.375  52.390  1.00  0.00     0.158 A 
BRANCH  15  18
ATOM     18  O   UNL     1      18.221  35.170  51.636  1.00  0.00    -0.504 OA
ATOM     19  H   UNL     1      18.748  34.313  51.519  1.00  0.00     0.293 HD
ENDBRANCH  15  18
BRANCH  17  20
ATOM     20  O   UNL     1      16.035  33.398  51.397  1.00  0.00    -0.504 OA
ATOM     21  H   UNL     1      16.572  33.504  50.543  1.00  0.00     0.293 HD
ENDBRANCH  17  20
ENDBRANCH   1  12
BRANCH   2  22
ATOM     22  O   UNL     1      15.248  35.327  57.168  1.00  0.00    -0.502 OA
ATOM     23  H   UNL     1      16.031  34.986  56.624  1.00  0.00     0.293 HD
ENDBRANCH   2  22
BRANCH   6  24
ATOM     24  O   UNL     1      10.325  36.230  58.993  1.00  0.00    -0.507 OA
ATOM     25  H   UNL     1      10.596  37.032  59.540  1.00  0.00     0.293 HD
ENDBRANCH   6  24
BRANCH   8  26
ATOM     26  O   UNL     1       7.912  36.540  54.875  1.00  0.00    -0.508 OA
ATOM     27  H   UNL     1       7.051  36.667  55.393  1.00  0.00     0.293 HD
ENDBRANCH   8  26
TORSDOF 6
ENDMDL
