MODEL 1
REMARK VINA RESULT:    -3.200      0.000      0.000
REMARK INTER + INTRA:         -13.155
REMARK INTER:                  -8.065
REMARK INTRA:                  -5.091
REMARK UNBOUND:                -5.091
REMARK SMILES CCCCCCCCCCCCCCCCCCCCCCCCCCCC(=O)[O-]
REMARK SMILES IDX 15 1 16 2 17 3 18 4 19 5 20 6 21 7 22 8 23 9 24 10 25 11
REMARK SMILES IDX 26 12 27 13 28 14 29 15 30 16 14 17 13 18 12 19 11 20 10 21
REMARK SMILES IDX 9 22 8 23 7 24 6 25 5 26 4 27 3 28 2 29 1 30
REMARK H PARENT
REMARK Flexibility Score: inf
ROOT
ATOM      1  C   UNL     1       4.320  65.578  20.972  1.00  0.00     0.000 C 
ENDROOT
BRANCH   1   2
ATOM      2  C   UNL     1       3.222  65.042  20.039  1.00  0.00     0.000 C 
BRANCH   2   3
ATOM      3  C   UNL     1       3.749  64.689  18.639  1.00  0.00     0.000 C 
BRANCH   3   4
ATOM      4  C   UNL     1       3.075  63.446  18.018  1.00  0.00     0.000 C 
BRANCH   4   5
ATOM      5  C   UNL     1       4.080  62.561  17.265  1.00  0.00     0.000 C 
BRANCH   5   6
ATOM      6  C   UNL     1       3.517  62.116  15.908  1.00  0.00     0.000 C 
BRANCH   6   7
ATOM      7  C   UNL     1       2.509  63.120  15.322  1.00  0.00     0.000 C 
BRANCH   7   8
ATOM      8  C   UNL     1       3.122  64.063  14.265  1.00  0.00     0.000 C 
BRANCH   8   9
ATOM      9  C   UNL     1       3.708  65.339  14.895  1.00  0.00     0.000 C 
BRANCH   9  10
ATOM     10  C   UNL     1       5.225  65.466  14.672  1.00  0.00     0.000 C 
BRANCH  10  11
ATOM     11  C   UNL     1       5.984  65.991  15.912  1.00  0.00     0.000 C 
BRANCH  11  12
ATOM     12  C   UNL     1       6.833  64.914  16.620  1.00  0.00     0.006 C 
BRANCH  12  13
ATOM     13  C   UNL     1       8.078  65.480  17.322  1.00  0.00     0.053 C 
BRANCH  13  14
ATOM     14  C   UNL     1       9.038  64.404  17.727  1.00  0.00     0.041 C 
ATOM     15  O   UNL     1       9.528  63.631  16.861  1.00  0.00    -0.550 OA
ATOM     16  O   UNL     1       9.402  64.260  19.060  1.00  0.00    -0.550 OA
ENDBRANCH  13  14
ENDBRANCH  12  13
ENDBRANCH  11  12
ENDBRANCH  10  11
ENDBRANCH   9  10
ENDBRANCH   8   9
ENDBRANCH   7   8
ENDBRANCH   6   7
ENDBRANCH   5   6
ENDBRANCH   4   5
ENDBRANCH   3   4
ENDBRANCH   2   3
ENDBRANCH   1   2
BRANCH   1  17
ATOM     17  C   UNL     1       5.524  66.147  20.203  1.00  0.00     0.000 C 
BRANCH  17  18
ATOM     18  C   UNL     1       6.723  66.441  21.117  1.00  0.00     0.000 C 
BRANCH  18  19
ATOM     19  C   UNL     1       6.455  65.965  22.550  1.00  0.00     0.000 C 
BRANCH  19  20
ATOM     20  C   UNL     1       6.771  67.073  23.565  1.00  0.00     0.000 C 
BRANCH  20  21
ATOM     21  C   UNL     1       7.200  68.394  22.899  1.00  0.00     0.000 C 
BRANCH  21  22
ATOM     22  C   UNL     1       6.235  69.577  23.118  1.00  0.00    -0.000 C 
BRANCH  22  23
ATOM     23  C   UNL     1       4.751  69.275  22.828  1.00  0.00    -0.000 C 
BRANCH  23  24
ATOM     24  C   UNL     1       4.344  69.360  21.344  1.00  0.00    -0.000 C 
BRANCH  24  25
ATOM     25  C   UNL     1       2.847  69.138  21.070  1.00  0.00    -0.000 C 
BRANCH  25  26
ATOM     26  C   UNL     1       2.437  69.538  19.645  1.00  0.00    -0.000 C 
BRANCH  26  27
ATOM     27  C   UNL     1       1.409  68.553  19.067  1.00  0.00    -0.000 C 
BRANCH  27  28
ATOM     28  C   UNL     1       1.957  67.792  17.841  1.00  0.00    -0.000 C 
BRANCH  28  29
ATOM     29  C   UNL     1       3.346  68.276  17.391  1.00  0.00    -0.003 C 
ATOM     30  C   UNL     1       3.335  68.925  16.008  1.00  0.00     0.004 C 
ENDBRANCH  28  29
ENDBRANCH  27  28
ENDBRANCH  26  27
ENDBRANCH  25  26
ENDBRANCH  24  25
ENDBRANCH  23  24
ENDBRANCH  22  23
ENDBRANCH  21  22
ENDBRANCH  20  21
ENDBRANCH  19  20
ENDBRANCH  18  19
ENDBRANCH  17  18
ENDBRANCH   1  17
TORSDOF 26
ENDMDL
MODEL 2
REMARK VINA RESULT:    -3.177      3.326      6.565
REMARK INTER + INTRA:         -13.097
REMARK INTER:                  -8.263
REMARK INTRA:                  -4.834
REMARK UNBOUND:                -5.091
REMARK SMILES CCCCCCCCCCCCCCCCCCCCCCCCCCCC(=O)[O-]
REMARK SMILES IDX 15 1 16 2 17 3 18 4 19 5 20 6 21 7 22 8 23 9 24 10 25 11
REMARK SMILES IDX 26 12 27 13 28 14 29 15 30 16 14 17 13 18 12 19 11 20 10 21
REMARK SMILES IDX 9 22 8 23 7 24 6 25 5 26 4 27 3 28 2 29 1 30
REMARK H PARENT
REMARK Flexibility Score: inf
ROOT
ATOM      1  C   UNL     1       3.754  62.123  15.524  1.00  0.00     0.000 C 
ENDROOT
BRANCH   1   2
ATOM      2  C   UNL     1       4.232  62.481  16.941  1.00  0.00     0.000 C 
BRANCH   2   3
ATOM      3  C   UNL     1       5.641  63.097  16.957  1.00  0.00     0.000 C 
BRANCH   3   4
ATOM      4  C   UNL     1       5.648  64.620  17.208  1.00  0.00     0.000 C 
BRANCH   4   5
ATOM      5  C   UNL     1       6.864  65.305  16.567  1.00  0.00     0.000 C 
BRANCH   5   6
ATOM      6  C   UNL     1       6.429  66.403  15.587  1.00  0.00     0.000 C 
BRANCH   6   7
ATOM      7  C   UNL     1       5.063  67.015  15.944  1.00  0.00     0.000 C 
BRANCH   7   8
ATOM      8  C   UNL     1       4.162  67.269  14.717  1.00  0.00     0.000 C 
BRANCH   8   9
ATOM      9  C   UNL     1       3.412  68.609  14.815  1.00  0.00     0.000 C 
BRANCH   9  10
ATOM     10  C   UNL     1       3.187  69.057  16.269  1.00  0.00     0.000 C 
BRANCH  10  11
ATOM     11  C   UNL     1       1.737  69.513  16.552  1.00  0.00     0.000 C 
BRANCH  11  12
ATOM     12  C   UNL     1       1.564  70.217  17.915  1.00  0.00     0.006 C 
BRANCH  12  13
ATOM     13  C   UNL     1       2.804  71.010  18.356  1.00  0.00     0.053 C 
BRANCH  13  14
ATOM     14  C   UNL     1       2.510  72.467  18.539  1.00  0.00     0.041 C 
ATOM     15  O   UNL     1       3.193  73.334  17.934  1.00  0.00    -0.550 OA
ATOM     16  O   UNL     1       1.472  72.869  19.371  1.00  0.00    -0.550 OA
ENDBRANCH  13  14
ENDBRANCH  12  13
ENDBRANCH  11  12
ENDBRANCH  10  11
ENDBRANCH   9  10
ENDBRANCH   8   9
ENDBRANCH   7   8
ENDBRANCH   6   7
ENDBRANCH   5   6
ENDBRANCH   4   5
ENDBRANCH   3   4
ENDBRANCH   2   3
ENDBRANCH   1   2
BRANCH   1  17
ATOM     17  C   UNL     1       3.016  63.284  14.837  1.00  0.00     0.000 C 
BRANCH  17  18
ATOM     18  C   UNL     1       1.659  63.590  15.491  1.00  0.00     0.000 C 
BRANCH  18  19
ATOM     19  C   UNL     1       1.284  65.066  15.318  1.00  0.00     0.000 C 
BRANCH  19  20
ATOM     20  C   UNL     1       1.046  65.735  16.680  1.00  0.00     0.000 C 
BRANCH  20  21
ATOM     21  C   UNL     1       2.310  65.774  17.559  1.00  0.00     0.000 C 
BRANCH  21  22
ATOM     22  C   UNL     1       2.242  64.909  18.834  1.00  0.00    -0.000 C 
BRANCH  22  23
ATOM     23  C   UNL     1       2.354  65.685  20.161  1.00  0.00    -0.000 C 
BRANCH  23  24
ATOM     24  C   UNL     1       2.153  67.209  20.046  1.00  0.00    -0.000 C 
BRANCH  24  25
ATOM     25  C   UNL     1       3.415  68.049  20.309  1.00  0.00    -0.000 C 
BRANCH  25  26
ATOM     26  C   UNL     1       4.703  67.213  20.274  1.00  0.00    -0.000 C 
BRANCH  26  27
ATOM     27  C   UNL     1       5.493  67.357  21.584  1.00  0.00    -0.000 C 
BRANCH  27  28
ATOM     28  C   UNL     1       6.952  66.874  21.440  1.00  0.00    -0.000 C 
BRANCH  28  29
ATOM     29  C   UNL     1       7.122  65.736  20.420  1.00  0.00    -0.003 C 
ATOM     30  C   UNL     1       8.519  65.690  19.802  1.00  0.00     0.004 C 
ENDBRANCH  28  29
ENDBRANCH  27  28
ENDBRANCH  26  27
ENDBRANCH  25  26
ENDBRANCH  24  25
ENDBRANCH  23  24
ENDBRANCH  22  23
ENDBRANCH  21  22
ENDBRANCH  20  21
ENDBRANCH  19  20
ENDBRANCH  18  19
ENDBRANCH  17  18
ENDBRANCH   1  17
TORSDOF 26
ENDMDL
MODEL 3
REMARK VINA RESULT:    -3.156      3.301      6.223
REMARK INTER + INTRA:         -13.044
REMARK INTER:                  -6.793
REMARK INTRA:                  -6.250
REMARK UNBOUND:                -5.091
REMARK SMILES CCCCCCCCCCCCCCCCCCCCCCCCCCCC(=O)[O-]
REMARK SMILES IDX 15 1 16 2 17 3 18 4 19 5 20 6 21 7 22 8 23 9 24 10 25 11
REMARK SMILES IDX 26 12 27 13 28 14 29 15 30 16 14 17 13 18 12 19 11 20 10 21
REMARK SMILES IDX 9 22 8 23 7 24 6 25 5 26 4 27 3 28 2 29 1 30
REMARK H PARENT
REMARK Flexibility Score: inf
ROOT
ATOM      1  C   UNL     1       2.137  70.796  17.752  1.00  0.00     0.000 C 
ENDROOT
BRANCH   1   2
ATOM      2  C   UNL     1       2.066  70.011  16.432  1.00  0.00     0.000 C 
BRANCH   2   3
ATOM      3  C   UNL     1       3.357  69.232  16.131  1.00  0.00     0.000 C 
BRANCH   3   4
ATOM      4  C   UNL     1       3.719  69.189  14.631  1.00  0.00     0.000 C 
BRANCH   4   5
ATOM      5  C   UNL     1       4.740  68.086  14.315  1.00  0.00     0.000 C 
BRANCH   5   6
ATOM      6  C   UNL     1       4.906  67.128  15.502  1.00  0.00     0.000 C 
BRANCH   6   7
ATOM      7  C   UNL     1       5.148  65.673  15.065  1.00  0.00     0.000 C 
BRANCH   7   8
ATOM      8  C   UNL     1       5.440  64.717  16.241  1.00  0.00     0.000 C 
BRANCH   8   9
ATOM      9  C   UNL     1       4.284  63.732  16.491  1.00  0.00     0.000 C 
BRANCH   9  10
ATOM     10  C   UNL     1       3.652  63.219  15.187  1.00  0.00     0.000 C 
BRANCH  10  11
ATOM     11  C   UNL     1       2.133  62.958  15.304  1.00  0.00     0.000 C 
BRANCH  11  12
ATOM     12  C   UNL     1       1.677  62.582  16.731  1.00  0.00     0.006 C 
BRANCH  12  13
ATOM     13  C   UNL     1       0.193  62.881  16.997  1.00  0.00     0.053 C 
BRANCH  13  14
ATOM     14  C   UNL     1      -0.130  62.884  18.459  1.00  0.00     0.041 C 
ATOM     15  O   UNL     1       0.701  62.439  19.294  1.00  0.00    -0.550 OA
ATOM     16  O   UNL     1      -1.346  63.389  18.904  1.00  0.00    -0.550 OA
ENDBRANCH  13  14
ENDBRANCH  12  13
ENDBRANCH  11  12
ENDBRANCH  10  11
ENDBRANCH   9  10
ENDBRANCH   8   9
ENDBRANCH   7   8
ENDBRANCH   6   7
ENDBRANCH   5   6
ENDBRANCH   4   5
ENDBRANCH   3   4
ENDBRANCH   2   3
ENDBRANCH   1   2
BRANCH   1  17
ATOM     17  C   UNL     1       1.956  69.898  18.986  1.00  0.00     0.000 C 
BRANCH  17  18
ATOM     18  C   UNL     1       3.198  69.878  19.890  1.00  0.00     0.000 C 
BRANCH  18  19
ATOM     19  C   UNL     1       3.490  68.461  20.397  1.00  0.00     0.000 C 
BRANCH  19  20
ATOM     20  C   UNL     1       3.934  67.547  19.246  1.00  0.00     0.000 C 
BRANCH  20  21
ATOM     21  C   UNL     1       3.509  66.080  19.445  1.00  0.00     0.000 C 
BRANCH  21  22
ATOM     22  C   UNL     1       2.157  65.702  18.804  1.00  0.00    -0.000 C 
BRANCH  22  23
ATOM     23  C   UNL     1       1.907  66.292  17.402  1.00  0.00    -0.000 C 
BRANCH  23  24
ATOM     24  C   UNL     1       0.424  66.497  17.035  1.00  0.00    -0.000 C 
BRANCH  24  25
ATOM     25  C   UNL     1       0.101  66.342  15.539  1.00  0.00    -0.000 C 
BRANCH  25  26
ATOM     26  C   UNL     1       1.330  66.553  14.641  1.00  0.00    -0.000 C 
BRANCH  26  27
ATOM     27  C   UNL     1       1.091  65.984  13.233  1.00  0.00    -0.000 C 
BRANCH  27  28
ATOM     28  C   UNL     1       2.399  65.505  12.570  1.00  0.00    -0.000 C 
BRANCH  28  29
ATOM     29  C   UNL     1       2.740  66.258  11.273  1.00  0.00    -0.003 C 
ATOM     30  C   UNL     1       2.435  67.753  11.351  1.00  0.00     0.004 C 
ENDBRANCH  28  29
ENDBRANCH  27  28
ENDBRANCH  26  27
ENDBRANCH  25  26
ENDBRANCH  24  25
ENDBRANCH  23  24
ENDBRANCH  22  23
ENDBRANCH  21  22
ENDBRANCH  20  21
ENDBRANCH  19  20
ENDBRANCH  18  19
ENDBRANCH  17  18
ENDBRANCH   1  17
TORSDOF 26
ENDMDL
MODEL 4
REMARK VINA RESULT:    -3.154      3.563      7.793
REMARK INTER + INTRA:         -13.039
REMARK INTER:                  -7.224
REMARK INTRA:                  -5.814
REMARK UNBOUND:                -5.091
REMARK SMILES CCCCCCCCCCCCCCCCCCCCCCCCCCCC(=O)[O-]
REMARK SMILES IDX 15 1 16 2 17 3 18 4 19 5 20 6 21 7 22 8 23 9 24 10 25 11
REMARK SMILES IDX 26 12 27 13 28 14 29 15 30 16 14 17 13 18 12 19 11 20 10 21
REMARK SMILES IDX 9 22 8 23 7 24 6 25 5 26 4 27 3 28 2 29 1 30
REMARK H PARENT
REMARK Flexibility Score: inf
ROOT
ATOM      1  C   UNL     1       3.611  68.510  15.765  1.00  0.00     0.000 C 
ENDROOT
BRANCH   1   2
ATOM      2  C   UNL     1       2.878  69.818  16.103  1.00  0.00     0.000 C 
BRANCH   2   3
ATOM      3  C   UNL     1       1.646  69.597  16.995  1.00  0.00     0.000 C 
BRANCH   3   4
ATOM      4  C   UNL     1       1.546  70.591  18.173  1.00  0.00     0.000 C 
BRANCH   4   5
ATOM      5  C   UNL     1       1.667  69.887  19.533  1.00  0.00     0.000 C 
BRANCH   5   6
ATOM      6  C   UNL     1       3.067  69.289  19.726  1.00  0.00     0.000 C 
BRANCH   6   7
ATOM      7  C   UNL     1       3.038  67.770  19.970  1.00  0.00     0.000 C 
BRANCH   7   8
ATOM      8  C   UNL     1       4.049  66.988  19.105  1.00  0.00     0.000 C 
BRANCH   8   9
ATOM      9  C   UNL     1       3.382  65.842  18.324  1.00  0.00     0.000 C 
BRANCH   9  10
ATOM     10  C   UNL     1       1.862  66.029  18.181  1.00  0.00     0.000 C 
BRANCH  10  11
ATOM     11  C   UNL     1       1.334  65.695  16.768  1.00  0.00     0.000 C 
BRANCH  11  12
ATOM     12  C   UNL     1       2.412  65.118  15.824  1.00  0.00     0.006 C 
BRANCH  12  13
ATOM     13  C   UNL     1       2.023  63.765  15.207  1.00  0.00     0.053 C 
BRANCH  13  14
ATOM     14  C   UNL     1       2.652  62.612  15.927  1.00  0.00     0.041 C 
ATOM     15  O   UNL     1       3.587  61.961  15.389  1.00  0.00    -0.550 OA
ATOM     16  O   UNL     1       2.216  62.262  17.199  1.00  0.00    -0.550 OA
ENDBRANCH  13  14
ENDBRANCH  12  13
ENDBRANCH  11  12
ENDBRANCH  10  11
ENDBRANCH   9  10
ENDBRANCH   8   9
ENDBRANCH   7   8
ENDBRANCH   6   7
ENDBRANCH   5   6
ENDBRANCH   4   5
ENDBRANCH   3   4
ENDBRANCH   2   3
ENDBRANCH   1   2
BRANCH   1  17
ATOM     17  C   UNL     1       4.470  68.623  14.494  1.00  0.00     0.000 C 
BRANCH  17  18
ATOM     18  C   UNL     1       4.358  67.383  13.594  1.00  0.00     0.000 C 
BRANCH  18  19
ATOM     19  C   UNL     1       4.326  67.777  12.113  1.00  0.00     0.000 C 
BRANCH  19  20
ATOM     20  C   UNL     1       3.263  66.971  11.353  1.00  0.00     0.000 C 
BRANCH  20  21
ATOM     21  C   UNL     1       2.295  66.221  12.288  1.00  0.00     0.000 C 
BRANCH  21  22
ATOM     22  C   UNL     1       0.884  66.835  12.392  1.00  0.00    -0.000 C 
BRANCH  22  23
ATOM     23  C   UNL     1       0.595  67.600  13.700  1.00  0.00    -0.000 C 
BRANCH  23  24
ATOM     24  C   UNL     1       0.329  69.109  13.529  1.00  0.00    -0.000 C 
BRANCH  24  25
ATOM     25  C   UNL     1       1.290  69.830  12.567  1.00  0.00    -0.000 C 
BRANCH  25  26
ATOM     26  C   UNL     1       1.497  71.308  12.931  1.00  0.00    -0.000 C 
BRANCH  26  27
ATOM     27  C   UNL     1       2.991  71.652  13.020  1.00  0.00    -0.000 C 
BRANCH  27  28
ATOM     28  C   UNL     1       3.458  72.529  11.839  1.00  0.00    -0.000 C 
BRANCH  28  29
ATOM     29  C   UNL     1       4.464  71.823  10.914  1.00  0.00    -0.003 C 
ATOM     30  C   UNL     1       3.794  70.946   9.858  1.00  0.00     0.004 C 
ENDBRANCH  28  29
ENDBRANCH  27  28
ENDBRANCH  26  27
ENDBRANCH  25  26
ENDBRANCH  24  25
ENDBRANCH  23  24
ENDBRANCH  22  23
ENDBRANCH  21  22
ENDBRANCH  20  21
ENDBRANCH  19  20
ENDBRANCH  18  19
ENDBRANCH  17  18
ENDBRANCH   1  17
TORSDOF 26
ENDMDL
MODEL 5
REMARK VINA RESULT:    -3.141      2.143      4.686
REMARK INTER + INTRA:         -13.005
REMARK INTER:                  -7.518
REMARK INTRA:                  -5.487
REMARK UNBOUND:                -5.091
REMARK SMILES CCCCCCCCCCCCCCCCCCCCCCCCCCCC(=O)[O-]
REMARK SMILES IDX 15 1 16 2 17 3 18 4 19 5 20 6 21 7 22 8 23 9 24 10 25 11
REMARK SMILES IDX 26 12 27 13 28 14 29 15 30 16 14 17 13 18 12 19 11 20 10 21
REMARK SMILES IDX 9 22 8 23 7 24 6 25 5 26 4 27 3 28 2 29 1 30
REMARK H PARENT
REMARK Flexibility Score: inf
ROOT
ATOM      1  C   UNL     1       1.267  70.632  18.232  1.00  0.00     0.000 C 
ENDROOT
BRANCH   1   2
ATOM      2  C   UNL     1       1.519  69.658  17.070  1.00  0.00     0.000 C 
BRANCH   2   3
ATOM      3  C   UNL     1       2.965  69.712  16.550  1.00  0.00     0.000 C 
BRANCH   3   4
ATOM      4  C   UNL     1       3.077  69.591  15.015  1.00  0.00     0.000 C 
BRANCH   4   5
ATOM      5  C   UNL     1       4.171  68.599  14.592  1.00  0.00     0.000 C 
BRANCH   5   6
ATOM      6  C   UNL     1       4.369  67.507  15.652  1.00  0.00     0.000 C 
BRANCH   6   7
ATOM      7  C   UNL     1       4.127  66.091  15.103  1.00  0.00     0.000 C 
BRANCH   7   8
ATOM      8  C   UNL     1       2.677  65.853  14.629  1.00  0.00     0.000 C 
BRANCH   8   9
ATOM      9  C   UNL     1       1.649  66.145  15.735  1.00  0.00     0.000 C 
BRANCH   9  10
ATOM     10  C   UNL     1       0.744  64.939  16.036  1.00  0.00     0.000 C 
BRANCH  10  11
ATOM     11  C   UNL     1       1.529  63.629  16.273  1.00  0.00     0.000 C 
BRANCH  11  12
ATOM     12  C   UNL     1       2.374  63.638  17.565  1.00  0.00     0.006 C 
BRANCH  12  13
ATOM     13  C   UNL     1       3.296  62.415  17.701  1.00  0.00     0.053 C 
BRANCH  13  14
ATOM     14  C   UNL     1       4.373  62.400  16.660  1.00  0.00     0.041 C 
ATOM     15  O   UNL     1       5.387  63.137  16.784  1.00  0.00    -0.550 OA
ATOM     16  O   UNL     1       4.265  61.562  15.556  1.00  0.00    -0.550 OA
ENDBRANCH  13  14
ENDBRANCH  12  13
ENDBRANCH  11  12
ENDBRANCH  10  11
ENDBRANCH   9  10
ENDBRANCH   8   9
ENDBRANCH   7   8
ENDBRANCH   6   7
ENDBRANCH   5   6
ENDBRANCH   4   5
ENDBRANCH   3   4
ENDBRANCH   2   3
ENDBRANCH   1   2
BRANCH   1  17
ATOM     17  C   UNL     1       2.550  70.969  19.011  1.00  0.00     0.000 C 
BRANCH  17  18
ATOM     18  C   UNL     1       2.695  70.140  20.297  1.00  0.00     0.000 C 
BRANCH  18  19
ATOM     19  C   UNL     1       4.161  69.771  20.553  1.00  0.00     0.000 C 
BRANCH  19  20
ATOM     20  C   UNL     1       4.348  69.219  21.974  1.00  0.00     0.000 C 
BRANCH  20  21
ATOM     21  C   UNL     1       5.818  69.230  22.435  1.00  0.00     0.000 C 
BRANCH  21  22
ATOM     22  C   UNL     1       6.440  67.836  22.658  1.00  0.00    -0.000 C 
BRANCH  22  23
ATOM     23  C   UNL     1       6.255  66.841  21.495  1.00  0.00    -0.000 C 
BRANCH  23  24
ATOM     24  C   UNL     1       5.318  65.654  21.793  1.00  0.00    -0.000 C 
BRANCH  24  25
ATOM     25  C   UNL     1       4.262  65.376  20.710  1.00  0.00    -0.000 C 
BRANCH  25  26
ATOM     26  C   UNL     1       4.504  66.180  19.423  1.00  0.00    -0.000 C 
BRANCH  26  27
ATOM     27  C   UNL     1       3.196  66.791  18.898  1.00  0.00    -0.000 C 
BRANCH  27  28
ATOM     28  C   UNL     1       2.037  66.641  19.905  1.00  0.00    -0.000 C 
BRANCH  28  29
ATOM     29  C   UNL     1       0.646  66.787  19.265  1.00  0.00    -0.003 C 
ATOM     30  C   UNL     1      -0.275  67.727  20.041  1.00  0.00     0.004 C 
ENDBRANCH  28  29
ENDBRANCH  27  28
ENDBRANCH  26  27
ENDBRANCH  25  26
ENDBRANCH  24  25
ENDBRANCH  23  24
ENDBRANCH  22  23
ENDBRANCH  21  22
ENDBRANCH  20  21
ENDBRANCH  19  20
ENDBRANCH  18  19
ENDBRANCH  17  18
ENDBRANCH   1  17
TORSDOF 26
ENDMDL
MODEL 6
REMARK VINA RESULT:    -3.133      6.337     10.670
REMARK INTER + INTRA:         -12.985
REMARK INTER:                  -7.014
REMARK INTRA:                  -5.971
REMARK UNBOUND:                -5.091
REMARK SMILES CCCCCCCCCCCCCCCCCCCCCCCCCCCC(=O)[O-]
REMARK SMILES IDX 15 1 16 2 17 3 18 4 19 5 20 6 21 7 22 8 23 9 24 10 25 11
REMARK SMILES IDX 26 12 27 13 28 14 29 15 30 16 14 17 13 18 12 19 11 20 10 21
REMARK SMILES IDX 9 22 8 23 7 24 6 25 5 26 4 27 3 28 2 29 1 30
REMARK H PARENT
REMARK Flexibility Score: inf
ROOT
ATOM      1  C   UNL     1       2.807  67.715  11.323  1.00  0.00     0.000 C 
ENDROOT
BRANCH   1   2
ATOM      2  C   UNL     1       3.556  66.661  12.156  1.00  0.00     0.000 C 
BRANCH   2   3
ATOM      3  C   UNL     1       2.623  65.584  12.732  1.00  0.00     0.000 C 
BRANCH   3   4
ATOM      4  C   UNL     1       1.184  66.083  12.989  1.00  0.00     0.000 C 
BRANCH   4   5
ATOM      5  C   UNL     1       0.526  65.360  14.174  1.00  0.00     0.000 C 
BRANCH   5   6
ATOM      6  C   UNL     1       0.539  66.237  15.434  1.00  0.00     0.000 C 
BRANCH   6   7
ATOM      7  C   UNL     1       1.089  67.650  15.172  1.00  0.00     0.000 C 
BRANCH   7   8
ATOM      8  C   UNL     1       2.485  67.890  15.784  1.00  0.00     0.000 C 
BRANCH   8   9
ATOM      9  C   UNL     1       3.198  69.097  15.149  1.00  0.00     0.000 C 
BRANCH   9  10
ATOM     10  C   UNL     1       2.323  69.824  14.114  1.00  0.00     0.000 C 
BRANCH  10  11
ATOM     11  C   UNL     1       2.867  71.217  13.723  1.00  0.00     0.000 C 
BRANCH  11  12
ATOM     12  C   UNL     1       4.021  71.167  12.700  1.00  0.00     0.006 C 
BRANCH  12  13
ATOM     13  C   UNL     1       3.631  71.696  11.310  1.00  0.00     0.053 C 
BRANCH  13  14
ATOM     14  C   UNL     1       3.201  73.130  11.351  1.00  0.00     0.041 C 
ATOM     15  O   UNL     1       2.020  73.447  11.047  1.00  0.00    -0.550 OA
ATOM     16  O   UNL     1       4.100  74.117  11.735  1.00  0.00    -0.550 OA
ENDBRANCH  13  14
ENDBRANCH  12  13
ENDBRANCH  11  12
ENDBRANCH  10  11
ENDBRANCH   9  10
ENDBRANCH   8   9
ENDBRANCH   7   8
ENDBRANCH   6   7
ENDBRANCH   5   6
ENDBRANCH   4   5
ENDBRANCH   3   4
ENDBRANCH   2   3
ENDBRANCH   1   2
BRANCH   1  17
ATOM     17  C   UNL     1       3.632  68.221  10.128  1.00  0.00     0.000 C 
BRANCH  17  18
ATOM     18  C   UNL     1       2.755  68.802   9.008  1.00  0.00     0.000 C 
BRANCH  18  19
ATOM     19  C   UNL     1       3.464  68.719   7.652  1.00  0.00     0.000 C 
BRANCH  19  20
ATOM     20  C   UNL     1       2.857  67.609   6.782  1.00  0.00     0.000 C 
BRANCH  20  21
ATOM     21  C   UNL     1       3.635  66.283   6.870  1.00  0.00     0.000 C 
BRANCH  21  22
ATOM     22  C   UNL     1       2.796  65.064   7.305  1.00  0.00    -0.000 C 
BRANCH  22  23
ATOM     23  C   UNL     1       2.618  64.899   8.827  1.00  0.00    -0.000 C 
BRANCH  23  24
ATOM     24  C   UNL     1       1.190  65.153   9.350  1.00  0.00    -0.000 C 
BRANCH  24  25
ATOM     25  C   UNL     1       0.161  65.520   8.267  1.00  0.00    -0.000 C 
BRANCH  25  26
ATOM     26  C   UNL     1      -0.450  66.914   8.474  1.00  0.00    -0.000 C 
BRANCH  26  27
ATOM     27  C   UNL     1      -0.560  67.254   9.968  1.00  0.00    -0.000 C 
BRANCH  27  28
ATOM     28  C   UNL     1      -0.842  68.752  10.205  1.00  0.00    -0.000 C 
BRANCH  28  29
ATOM     29  C   UNL     1      -0.284  69.277  11.539  1.00  0.00    -0.003 C 
ATOM     30  C   UNL     1      -0.265  70.802  11.622  1.00  0.00     0.004 C 
ENDBRANCH  28  29
ENDBRANCH  27  28
ENDBRANCH  26  27
ENDBRANCH  25  26
ENDBRANCH  24  25
ENDBRANCH  23  24
ENDBRANCH  22  23
ENDBRANCH  21  22
ENDBRANCH  20  21
ENDBRANCH  19  20
ENDBRANCH  18  19
ENDBRANCH  17  18
ENDBRANCH   1  17
TORSDOF 26
ENDMDL
MODEL 7
REMARK VINA RESULT:    -3.118      5.410     10.050
REMARK INTER + INTRA:         -12.949
REMARK INTER:                  -7.176
REMARK INTRA:                  -5.773
REMARK UNBOUND:                -5.091
REMARK SMILES CCCCCCCCCCCCCCCCCCCCCCCCCCCC(=O)[O-]
REMARK SMILES IDX 15 1 16 2 17 3 18 4 19 5 20 6 21 7 22 8 23 9 24 10 25 11
REMARK SMILES IDX 26 12 27 13 28 14 29 15 30 16 14 17 13 18 12 19 11 20 10 21
REMARK SMILES IDX 9 22 8 23 7 24 6 25 5 26 4 27 3 28 2 29 1 30
REMARK H PARENT
REMARK Flexibility Score: inf
ROOT
ATOM      1  C   UNL     1       1.902  65.126  10.091  1.00  0.00     0.000 C 
ENDROOT
BRANCH   1   2
ATOM      2  C   UNL     1       1.082  66.420  10.233  1.00  0.00     0.000 C 
BRANCH   2   3
ATOM      3  C   UNL     1       1.944  67.631  10.624  1.00  0.00     0.000 C 
BRANCH   3   4
ATOM      4  C   UNL     1       3.409  67.270  10.953  1.00  0.00     0.000 C 
BRANCH   4   5
ATOM      5  C   UNL     1       4.076  68.325  11.849  1.00  0.00     0.000 C 
BRANCH   5   6
ATOM      6  C   UNL     1       4.849  67.665  12.999  1.00  0.00     0.000 C 
BRANCH   6   7
ATOM      7  C   UNL     1       4.665  68.398  14.339  1.00  0.00     0.000 C 
BRANCH   7   8
ATOM      8  C   UNL     1       3.240  68.953  14.547  1.00  0.00     0.000 C 
BRANCH   8   9
ATOM      9  C   UNL     1       2.304  67.922  15.202  1.00  0.00     0.000 C 
BRANCH   9  10
ATOM     10  C   UNL     1       1.372  67.239  14.186  1.00  0.00     0.000 C 
BRANCH  10  11
ATOM     11  C   UNL     1       1.582  65.710  14.094  1.00  0.00     0.000 C 
BRANCH  11  12
ATOM     12  C   UNL     1       2.392  65.124  15.270  1.00  0.00     0.006 C 
BRANCH  12  13
ATOM     13  C   UNL     1       3.624  64.321  14.823  1.00  0.00     0.053 C 
BRANCH  13  14
ATOM     14  C   UNL     1       3.882  63.140  15.708  1.00  0.00     0.041 C 
ATOM     15  O   UNL     1       4.159  63.307  16.925  1.00  0.00    -0.550 OA
ATOM     16  O   UNL     1       3.804  61.852  15.192  1.00  0.00    -0.550 OA
ENDBRANCH  13  14
ENDBRANCH  12  13
ENDBRANCH  11  12
ENDBRANCH  10  11
ENDBRANCH   9  10
ENDBRANCH   8   9
ENDBRANCH   7   8
ENDBRANCH   6   7
ENDBRANCH   5   6
ENDBRANCH   4   5
ENDBRANCH   3   4
ENDBRANCH   2   3
ENDBRANCH   1   2
BRANCH   1  17
ATOM     17  C   UNL     1       1.679  64.429   8.739  1.00  0.00     0.000 C 
BRANCH  17  18
ATOM     18  C   UNL     1       2.997  64.112   8.014  1.00  0.00     0.000 C 
BRANCH  18  19
ATOM     19  C   UNL     1       3.447  65.293   7.146  1.00  0.00     0.000 C 
BRANCH  19  20
ATOM     20  C   UNL     1       2.238  66.052   6.581  1.00  0.00     0.000 C 
BRANCH  20  21
ATOM     21  C   UNL     1       2.341  67.577   6.773  1.00  0.00     0.000 C 
BRANCH  21  22
ATOM     22  C   UNL     1       3.691  68.072   7.331  1.00  0.00    -0.000 C 
BRANCH  22  23
ATOM     23  C   UNL     1       3.692  69.520   7.859  1.00  0.00    -0.000 C 
BRANCH  23  24
ATOM     24  C   UNL     1       2.329  70.239   7.797  1.00  0.00    -0.000 C 
BRANCH  24  25
ATOM     25  C   UNL     1       1.903  70.931   9.103  1.00  0.00    -0.000 C 
BRANCH  25  26
ATOM     26  C   UNL     1       3.099  71.356   9.968  1.00  0.00    -0.000 C 
BRANCH  26  27
ATOM     27  C   UNL     1       2.642  71.800  11.366  1.00  0.00    -0.000 C 
BRANCH  27  28
ATOM     28  C   UNL     1       1.117  71.652  11.554  1.00  0.00    -0.000 C 
BRANCH  28  29
ATOM     29  C   UNL     1       0.730  70.616  12.623  1.00  0.00    -0.003 C 
ATOM     30  C   UNL     1      -0.547  69.851  12.280  1.00  0.00     0.004 C 
ENDBRANCH  28  29
ENDBRANCH  27  28
ENDBRANCH  26  27
ENDBRANCH  25  26
ENDBRANCH  24  25
ENDBRANCH  23  24
ENDBRANCH  22  23
ENDBRANCH  21  22
ENDBRANCH  20  21
ENDBRANCH  19  20
ENDBRANCH  18  19
ENDBRANCH  17  18
ENDBRANCH   1  17
TORSDOF 26
ENDMDL
MODEL 8
REMARK VINA RESULT:    -3.108      6.162      9.894
REMARK INTER + INTRA:         -12.924
REMARK INTER:                  -7.983
REMARK INTRA:                  -4.941
REMARK UNBOUND:                -5.091
REMARK SMILES CCCCCCCCCCCCCCCCCCCCCCCCCCCC(=O)[O-]
REMARK SMILES IDX 15 1 16 2 17 3 18 4 19 5 20 6 21 7 22 8 23 9 24 10 25 11
REMARK SMILES IDX 26 12 27 13 28 14 29 15 30 16 14 17 13 18 12 19 11 20 10 21
REMARK SMILES IDX 9 22 8 23 7 24 6 25 5 26 4 27 3 28 2 29 1 30
REMARK H PARENT
REMARK Flexibility Score: inf
ROOT
ATOM      1  C   UNL     1       2.623  72.879  12.012  1.00  0.00     0.000 C 
ENDROOT
BRANCH   1   2
ATOM      2  C   UNL     1       3.443  71.741  12.641  1.00  0.00     0.000 C 
BRANCH   2   3
ATOM      3  C   UNL     1       2.878  70.349  12.313  1.00  0.00     0.000 C 
BRANCH   3   4
ATOM      4  C   UNL     1       3.706  69.575  11.265  1.00  0.00     0.000 C 
BRANCH   4   5
ATOM      5  C   UNL     1       4.136  68.191  11.776  1.00  0.00     0.000 C 
BRANCH   5   6
ATOM      6  C   UNL     1       3.085  67.600  12.725  1.00  0.00     0.000 C 
BRANCH   6   7
ATOM      7  C   UNL     1       3.041  66.062  12.683  1.00  0.00     0.000 C 
BRANCH   7   8
ATOM      8  C   UNL     1       2.486  65.498  11.358  1.00  0.00     0.000 C 
BRANCH   8   9
ATOM      9  C   UNL     1       1.214  66.233  10.901  1.00  0.00     0.000 C 
BRANCH   9  10
ATOM     10  C   UNL     1       1.140  66.396   9.373  1.00  0.00     0.000 C 
BRANCH  10  11
ATOM     11  C   UNL     1       2.527  66.405   8.691  1.00  0.00     0.000 C 
BRANCH  11  12
ATOM     12  C   UNL     1       2.681  65.340   7.584  1.00  0.00     0.006 C 
BRANCH  12  13
ATOM     13  C   UNL     1       3.342  64.041   8.072  1.00  0.00     0.053 C 
BRANCH  13  14
ATOM     14  C   UNL     1       2.344  62.945   8.290  1.00  0.00     0.041 C 
ATOM     15  O   UNL     1       2.618  61.980   9.051  1.00  0.00    -0.550 OA
ATOM     16  O   UNL     1       1.106  62.994   7.662  1.00  0.00    -0.550 OA
ENDBRANCH  13  14
ENDBRANCH  12  13
ENDBRANCH  11  12
ENDBRANCH  10  11
ENDBRANCH   9  10
ENDBRANCH   8   9
ENDBRANCH   7   8
ENDBRANCH   6   7
ENDBRANCH   5   6
ENDBRANCH   4   5
ENDBRANCH   3   4
ENDBRANCH   2   3
ENDBRANCH   1   2
BRANCH   1  17
ATOM     17  C   UNL     1       3.159  73.303  10.634  1.00  0.00     0.000 C 
BRANCH  17  18
ATOM     18  C   UNL     1       2.052  73.385   9.571  1.00  0.00     0.000 C 
BRANCH  18  19
ATOM     19  C   UNL     1       0.859  72.500   9.947  1.00  0.00     0.000 C 
BRANCH  19  20
ATOM     20  C   UNL     1       0.878  71.185   9.154  1.00  0.00     0.000 C 
BRANCH  20  21
ATOM     21  C   UNL     1       0.230  70.014   9.916  1.00  0.00     0.000 C 
BRANCH  21  22
ATOM     22  C   UNL     1      -0.708  70.427  11.069  1.00  0.00    -0.000 C 
BRANCH  22  23
ATOM     23  C   UNL     1      -1.204  69.270  11.958  1.00  0.00    -0.000 C 
BRANCH  23  24
ATOM     24  C   UNL     1      -0.252  68.871  13.103  1.00  0.00    -0.000 C 
BRANCH  24  25
ATOM     25  C   UNL     1      -0.596  67.541  13.796  1.00  0.00    -0.000 C 
BRANCH  25  26
ATOM     26  C   UNL     1      -0.992  67.723  15.269  1.00  0.00    -0.000 C 
BRANCH  26  27
ATOM     27  C   UNL     1       0.014  67.033  16.203  1.00  0.00    -0.000 C 
BRANCH  27  28
ATOM     28  C   UNL     1       1.392  67.727  16.188  1.00  0.00    -0.000 C 
BRANCH  28  29
ATOM     29  C   UNL     1       1.346  69.190  16.659  1.00  0.00    -0.003 C 
ATOM     30  C   UNL     1       2.362  70.081  15.947  1.00  0.00     0.004 C 
ENDBRANCH  28  29
ENDBRANCH  27  28
ENDBRANCH  26  27
ENDBRANCH  25  26
ENDBRANCH  24  25
ENDBRANCH  23  24
ENDBRANCH  22  23
ENDBRANCH  21  22
ENDBRANCH  20  21
ENDBRANCH  19  20
ENDBRANCH  18  19
ENDBRANCH  17  18
ENDBRANCH   1  17
TORSDOF 26
ENDMDL
MODEL 9
REMARK VINA RESULT:    -3.095      3.449      5.726
REMARK INTER + INTRA:         -12.890
REMARK INTER:                  -7.197
REMARK INTRA:                  -5.693
REMARK UNBOUND:                -5.091
REMARK SMILES CCCCCCCCCCCCCCCCCCCCCCCCCCCC(=O)[O-]
REMARK SMILES IDX 15 1 16 2 17 3 18 4 19 5 20 6 21 7 22 8 23 9 24 10 25 11
REMARK SMILES IDX 26 12 27 13 28 14 29 15 30 16 14 17 13 18 12 19 11 20 10 21
REMARK SMILES IDX 9 22 8 23 7 24 6 25 5 26 4 27 3 28 2 29 1 30
REMARK H PARENT
REMARK Flexibility Score: inf
ROOT
ATOM      1  C   UNL     1       1.333  68.717  15.724  1.00  0.00     0.000 C 
ENDROOT
BRANCH   1   2
ATOM      2  C   UNL     1       0.928  67.517  16.595  1.00  0.00     0.000 C 
BRANCH   2   3
ATOM      3  C   UNL     1      -0.208  66.687  15.974  1.00  0.00     0.000 C 
BRANCH   3   4
ATOM      4  C   UNL     1       0.267  65.359  15.345  1.00  0.00     0.000 C 
BRANCH   4   5
ATOM      5  C   UNL     1       1.015  65.582  14.022  1.00  0.00     0.000 C 
BRANCH   5   6
ATOM      6  C   UNL     1       2.299  64.743  13.963  1.00  0.00     0.000 C 
BRANCH   6   7
ATOM      7  C   UNL     1       2.178  63.412  14.726  1.00  0.00     0.000 C 
BRANCH   7   8
ATOM      8  C   UNL     1       3.532  62.858  15.218  1.00  0.00     0.000 C 
BRANCH   8   9
ATOM      9  C   UNL     1       3.417  62.184  16.596  1.00  0.00     0.000 C 
BRANCH   9  10
ATOM     10  C   UNL     1       2.047  62.414  17.256  1.00  0.00     0.000 C 
BRANCH  10  11
ATOM     11  C   UNL     1       2.138  63.129  18.623  1.00  0.00     0.000 C 
BRANCH  11  12
ATOM     12  C   UNL     1       1.161  64.315  18.769  1.00  0.00     0.006 C 
BRANCH  12  13
ATOM     13  C   UNL     1      -0.318  63.898  18.733  1.00  0.00     0.053 C 
BRANCH  13  14
ATOM     14  C   UNL     1      -0.761  63.272  20.020  1.00  0.00     0.041 C 
ATOM     15  O   UNL     1      -0.729  62.020  20.161  1.00  0.00    -0.550 OA
ATOM     16  O   UNL     1      -1.199  64.069  21.069  1.00  0.00    -0.550 OA
ENDBRANCH  13  14
ENDBRANCH  12  13
ENDBRANCH  11  12
ENDBRANCH  10  11
ENDBRANCH   9  10
ENDBRANCH   8   9
ENDBRANCH   7   8
ENDBRANCH   6   7
ENDBRANCH   5   6
ENDBRANCH   4   5
ENDBRANCH   3   4
ENDBRANCH   2   3
ENDBRANCH   1   2
BRANCH   1  17
ATOM     17  C   UNL     1       2.852  68.802  15.502  1.00  0.00     0.000 C 
BRANCH  17  18
ATOM     18  C   UNL     1       3.655  68.284  16.706  1.00  0.00     0.000 C 
BRANCH  18  19
ATOM     19  C   UNL     1       4.534  67.092  16.310  1.00  0.00     0.000 C 
BRANCH  19  20
ATOM     20  C   UNL     1       4.080  65.813  17.028  1.00  0.00     0.000 C 
BRANCH  20  21
ATOM     21  C   UNL     1       5.139  65.261  18.001  1.00  0.00     0.000 C 
BRANCH  21  22
ATOM     22  C   UNL     1       5.282  66.047  19.321  1.00  0.00    -0.000 C 
BRANCH  22  23
ATOM     23  C   UNL     1       4.044  66.022  20.238  1.00  0.00    -0.000 C 
BRANCH  23  24
ATOM     24  C   UNL     1       3.253  67.343  20.305  1.00  0.00    -0.000 C 
BRANCH  24  25
ATOM     25  C   UNL     1       4.095  68.584  20.649  1.00  0.00    -0.000 C 
BRANCH  25  26
ATOM     26  C   UNL     1       3.577  69.861  19.971  1.00  0.00    -0.000 C 
BRANCH  26  27
ATOM     27  C   UNL     1       2.061  69.785  19.731  1.00  0.00    -0.000 C 
BRANCH  27  28
ATOM     28  C   UNL     1       1.562  70.907  18.797  1.00  0.00    -0.000 C 
BRANCH  28  29
ATOM     29  C   UNL     1       2.687  71.579  17.992  1.00  0.00    -0.003 C 
ATOM     30  C   UNL     1       2.913  73.039  18.382  1.00  0.00     0.004 C 
ENDBRANCH  28  29
ENDBRANCH  27  28
ENDBRANCH  26  27
ENDBRANCH  25  26
ENDBRANCH  24  25
ENDBRANCH  23  24
ENDBRANCH  22  23
ENDBRANCH  21  22
ENDBRANCH  20  21
ENDBRANCH  19  20
ENDBRANCH  18  19
ENDBRANCH  17  18
ENDBRANCH   1  17
TORSDOF 26
ENDMDL
