MODEL 1
REMARK VINA RESULT:    -4.754      0.000      0.000
REMARK INTER + INTRA:         -11.707
REMARK INTER:                  -9.200
REMARK INTRA:                  -2.507
REMARK UNBOUND:                -2.507
REMARK SMILES CCCCCCCCCCCCCCCCCC(=O)[O-]
REMARK SMILES IDX 10 1 11 2 12 3 13 4 14 5 15 6 16 7 17 8 18 9 19 10 20 11
REMARK SMILES IDX 9 12 8 13 7 14 6 15 5 16 4 17 3 18 2 19 1 20
REMARK H PARENT
REMARK Flexibility Score: inf
ROOT
ATOM      1  C   UNL     1      61.152  28.834  13.590  1.00  0.00     0.000 C 
ENDROOT
BRANCH   1   2
ATOM      2  C   UNL     1      62.571  28.913  13.005  1.00  0.00     0.000 C 
BRANCH   2   3
ATOM      3  C   UNL     1      63.508  29.799  13.845  1.00  0.00     0.000 C 
BRANCH   3   4
ATOM      4  C   UNL     1      64.446  30.653  12.976  1.00  0.00     0.000 C 
BRANCH   4   5
ATOM      5  C   UNL     1      63.705  31.795  12.259  1.00  0.00     0.000 C 
BRANCH   5   6
ATOM      6  C   UNL     1      62.928  32.697  13.232  1.00  0.00     0.000 C 
BRANCH   6   7
ATOM      7  C   UNL     1      61.425  32.744  12.921  1.00  0.00     0.006 C 
BRANCH   7   8
ATOM      8  C   UNL     1      60.634  33.273  14.121  1.00  0.00     0.053 C 
BRANCH   8   9
ATOM      9  C   UNL     1      59.915  32.157  14.809  1.00  0.00     0.041 C 
ATOM     10  O   UNL     1      60.382  31.657  15.867  1.00  0.00    -0.550 OA
ATOM     11  O   UNL     1      58.703  31.699  14.310  1.00  0.00    -0.550 OA
ENDBRANCH   8   9
ENDBRANCH   7   8
ENDBRANCH   6   7
ENDBRANCH   5   6
ENDBRANCH   4   5
ENDBRANCH   3   4
ENDBRANCH   2   3
ENDBRANCH   1   2
BRANCH   1  12
ATOM     12  C   UNL     1      60.090  28.524  12.525  1.00  0.00     0.000 C 
BRANCH  12  13
ATOM     13  C   UNL     1      59.802  29.758  11.661  1.00  0.00    -0.000 C 
BRANCH  13  14
ATOM     14  C   UNL     1      59.965  29.437  10.171  1.00  0.00    -0.000 C 
BRANCH  14  15
ATOM     15  C   UNL     1      60.910  28.247   9.962  1.00  0.00    -0.000 C 
BRANCH  15  16
ATOM     16  C   UNL     1      61.951  28.556   8.875  1.00  0.00    -0.000 C 
BRANCH  16  17
ATOM     17  C   UNL     1      63.320  28.942   9.459  1.00  0.00    -0.000 C 
BRANCH  17  18
ATOM     18  C   UNL     1      63.822  30.298   8.943  1.00  0.00    -0.000 C 
BRANCH  18  19
ATOM     19  C   UNL     1      65.353  30.329   8.885  1.00  0.00    -0.003 C 
ATOM     20  C   UNL     1      65.889  31.728   9.174  1.00  0.00     0.004 C 
ENDBRANCH  18  19
ENDBRANCH  17  18
ENDBRANCH  16  17
ENDBRANCH  15  16
ENDBRANCH  14  15
ENDBRANCH  13  14
ENDBRANCH  12  13
ENDBRANCH   1  12
TORSDOF 16
ENDMDL
MODEL 2
REMARK VINA RESULT:    -4.706     12.481     15.289
REMARK INTER + INTRA:         -11.614
REMARK INTER:                  -9.317
REMARK INTRA:                  -2.296
REMARK UNBOUND:                -2.507
REMARK SMILES CCCCCCCCCCCCCCCCCC(=O)[O-]
REMARK SMILES IDX 10 1 11 2 12 3 13 4 14 5 15 6 16 7 17 8 18 9 19 10 20 11
REMARK SMILES IDX 9 12 8 13 7 14 6 15 5 16 4 17 3 18 2 19 1 20
REMARK H PARENT
REMARK Flexibility Score: inf
ROOT
ATOM      1  C   UNL     1      61.648  27.269  27.274  1.00  0.00     0.000 C 
ENDROOT
BRANCH   1   2
ATOM      2  C   UNL     1      60.644  27.125  26.120  1.00  0.00     0.000 C 
BRANCH   2   3
ATOM      3  C   UNL     1      60.757  28.265  25.093  1.00  0.00     0.000 C 
BRANCH   3   4
ATOM      4  C   UNL     1      62.125  28.964  25.136  1.00  0.00     0.000 C 
BRANCH   4   5
ATOM      5  C   UNL     1      62.933  28.757  23.843  1.00  0.00     0.000 C 
BRANCH   5   6
ATOM      6  C   UNL     1      63.339  27.290  23.629  1.00  0.00     0.000 C 
BRANCH   6   7
ATOM      7  C   UNL     1      64.443  26.837  24.594  1.00  0.00     0.006 C 
BRANCH   7   8
ATOM      8  C   UNL     1      65.412  25.871  23.904  1.00  0.00     0.053 C 
BRANCH   8   9
ATOM      9  C   UNL     1      66.038  26.520  22.711  1.00  0.00     0.041 C 
ATOM     10  O   UNL     1      66.616  27.634  22.825  1.00  0.00    -0.550 OA
ATOM     11  O   UNL     1      66.027  25.874  21.482  1.00  0.00    -0.550 OA
ENDBRANCH   8   9
ENDBRANCH   7   8
ENDBRANCH   6   7
ENDBRANCH   5   6
ENDBRANCH   4   5
ENDBRANCH   3   4
ENDBRANCH   2   3
ENDBRANCH   1   2
BRANCH   1  12
ATOM     12  C   UNL     1      60.966  27.577  28.615  1.00  0.00     0.000 C 
BRANCH  12  13
ATOM     13  C   UNL     1      61.360  28.969  29.125  1.00  0.00    -0.000 C 
BRANCH  13  14
ATOM     14  C   UNL     1      62.812  29.298  28.762  1.00  0.00    -0.000 C 
BRANCH  14  15
ATOM     15  C   UNL     1      62.974  30.787  28.431  1.00  0.00    -0.000 C 
BRANCH  15  16
ATOM     16  C   UNL     1      64.262  31.352  29.050  1.00  0.00    -0.000 C 
BRANCH  16  17
ATOM     17  C   UNL     1      65.454  30.391  28.915  1.00  0.00    -0.000 C 
BRANCH  17  18
ATOM     18  C   UNL     1      66.251  30.615  27.622  1.00  0.00    -0.000 C 
BRANCH  18  19
ATOM     19  C   UNL     1      65.804  29.640  26.527  1.00  0.00    -0.003 C 
ATOM     20  C   UNL     1      66.237  30.123  25.146  1.00  0.00     0.004 C 
ENDBRANCH  18  19
ENDBRANCH  17  18
ENDBRANCH  16  17
ENDBRANCH  15  16
ENDBRANCH  14  15
ENDBRANCH  13  14
ENDBRANCH  12  13
ENDBRANCH   1  12
TORSDOF 16
ENDMDL
MODEL 3
REMARK VINA RESULT:    -4.614      2.510      5.266
REMARK INTER + INTRA:         -11.436
REMARK INTER:                  -8.667
REMARK INTRA:                  -2.769
REMARK UNBOUND:                -2.507
REMARK SMILES CCCCCCCCCCCCCCCCCC(=O)[O-]
REMARK SMILES IDX 10 1 11 2 12 3 13 4 14 5 15 6 16 7 17 8 18 9 19 10 20 11
REMARK SMILES IDX 9 12 8 13 7 14 6 15 5 16 4 17 3 18 2 19 1 20
REMARK H PARENT
REMARK Flexibility Score: inf
ROOT
ATOM      1  C   UNL     1      60.139  28.600  11.104  1.00  0.00     0.000 C 
ENDROOT
BRANCH   1   2
ATOM      2  C   UNL     1      60.046  29.820  10.175  1.00  0.00     0.000 C 
BRANCH   2   3
ATOM      3  C   UNL     1      61.056  29.759   9.015  1.00  0.00     0.000 C 
BRANCH   3   4
ATOM      4  C   UNL     1      62.016  28.563   9.133  1.00  0.00     0.000 C 
BRANCH   4   5
ATOM      5  C   UNL     1      63.423  28.982   9.593  1.00  0.00     0.000 C 
BRANCH   5   6
ATOM      6  C   UNL     1      63.675  30.489   9.425  1.00  0.00     0.000 C 
BRANCH   6   7
ATOM      7  C   UNL     1      64.493  31.084  10.580  1.00  0.00     0.006 C 
BRANCH   7   8
ATOM      8  C   UNL     1      65.262  32.328  10.124  1.00  0.00     0.053 C 
BRANCH   8   9
ATOM      9  C   UNL     1      65.625  33.180  11.298  1.00  0.00     0.041 C 
ATOM     10  O   UNL     1      65.287  32.835  12.461  1.00  0.00    -0.550 OA
ATOM     11  O   UNL     1      66.378  34.332  11.114  1.00  0.00    -0.550 OA
ENDBRANCH   8   9
ENDBRANCH   7   8
ENDBRANCH   6   7
ENDBRANCH   5   6
ENDBRANCH   4   5
ENDBRANCH   3   4
ENDBRANCH   2   3
ENDBRANCH   1   2
BRANCH   1  12
ATOM     12  C   UNL     1      59.633  28.897  12.523  1.00  0.00     0.000 C 
BRANCH  12  13
ATOM     13  C   UNL     1      60.695  28.540  13.571  1.00  0.00    -0.000 C 
BRANCH  13  14
ATOM     14  C   UNL     1      62.055  28.285  12.912  1.00  0.00    -0.000 C 
BRANCH  14  15
ATOM     15  C   UNL     1      63.098  29.305  13.387  1.00  0.00    -0.000 C 
BRANCH  15  16
ATOM     16  C   UNL     1      62.509  30.237  14.456  1.00  0.00    -0.000 C 
BRANCH  16  17
ATOM     17  C   UNL     1      62.574  31.718  14.051  1.00  0.00    -0.000 C 
BRANCH  17  18
ATOM     18  C   UNL     1      61.818  32.009  12.746  1.00  0.00    -0.000 C 
BRANCH  18  19
ATOM     19  C   UNL     1      60.515  32.766  13.025  1.00  0.00    -0.003 C 
ATOM     20  C   UNL     1      60.521  33.379  14.423  1.00  0.00     0.004 C 
ENDBRANCH  18  19
ENDBRANCH  17  18
ENDBRANCH  16  17
ENDBRANCH  15  16
ENDBRANCH  14  15
ENDBRANCH  13  14
ENDBRANCH  12  13
ENDBRANCH   1  12
TORSDOF 16
ENDMDL
MODEL 4
REMARK VINA RESULT:    -4.597     11.976     14.855
REMARK INTER + INTRA:         -11.404
REMARK INTER:                  -8.834
REMARK INTRA:                  -2.570
REMARK UNBOUND:                -2.507
REMARK SMILES CCCCCCCCCCCCCCCCCC(=O)[O-]
REMARK SMILES IDX 10 1 11 2 12 3 13 4 14 5 15 6 16 7 17 8 18 9 19 10 20 11
REMARK SMILES IDX 9 12 8 13 7 14 6 15 5 16 4 17 3 18 2 19 1 20
REMARK H PARENT
REMARK Flexibility Score: inf
ROOT
ATOM      1  C   UNL     1      62.549  30.115  26.289  1.00  0.00     0.000 C 
ENDROOT
BRANCH   1   2
ATOM      2  C   UNL     1      61.894  29.500  25.042  1.00  0.00     0.000 C 
BRANCH   2   3
ATOM      3  C   UNL     1      61.581  28.003  25.217  1.00  0.00     0.000 C 
BRANCH   3   4
ATOM      4  C   UNL     1      62.593  27.101  24.492  1.00  0.00     0.000 C 
BRANCH   4   5
ATOM      5  C   UNL     1      63.651  26.520  25.446  1.00  0.00     0.000 C 
BRANCH   5   6
ATOM      6  C   UNL     1      64.946  26.123  24.719  1.00  0.00     0.000 C 
BRANCH   6   7
ATOM      7  C   UNL     1      64.782  26.099  23.192  1.00  0.00     0.006 C 
BRANCH   7   8
ATOM      8  C   UNL     1      66.044  26.620  22.498  1.00  0.00     0.053 C 
BRANCH   8   9
ATOM      9  C   UNL     1      66.425  25.725  21.362  1.00  0.00     0.041 C 
ATOM     10  O   UNL     1      66.611  24.494  21.559  1.00  0.00    -0.550 OA
ATOM     11  O   UNL     1      66.528  26.238  20.076  1.00  0.00    -0.550 OA
ENDBRANCH   8   9
ENDBRANCH   7   8
ENDBRANCH   6   7
ENDBRANCH   5   6
ENDBRANCH   4   5
ENDBRANCH   3   4
ENDBRANCH   2   3
ENDBRANCH   1   2
BRANCH   1  12
ATOM     12  C   UNL     1      62.299  29.288  27.558  1.00  0.00     0.000 C 
BRANCH  12  13
ATOM     13  C   UNL     1      63.303  29.652  28.658  1.00  0.00    -0.000 C 
BRANCH  13  14
ATOM     14  C   UNL     1      63.437  31.172  28.801  1.00  0.00    -0.000 C 
BRANCH  14  15
ATOM     15  C   UNL     1      64.866  31.632  28.483  1.00  0.00    -0.000 C 
BRANCH  15  16
ATOM     16  C   UNL     1      65.824  30.433  28.400  1.00  0.00    -0.000 C 
BRANCH  16  17
ATOM     17  C   UNL     1      66.594  30.382  27.071  1.00  0.00    -0.000 C 
BRANCH  17  18
ATOM     18  C   UNL     1      66.055  29.309  26.114  1.00  0.00    -0.000 C 
BRANCH  18  19
ATOM     19  C   UNL     1      66.479  29.600  24.671  1.00  0.00    -0.003 C 
ATOM     20  C   UNL     1      65.371  30.314  23.903  1.00  0.00     0.004 C 
ENDBRANCH  18  19
ENDBRANCH  17  18
ENDBRANCH  16  17
ENDBRANCH  15  16
ENDBRANCH  14  15
ENDBRANCH  13  14
ENDBRANCH  12  13
ENDBRANCH   1  12
TORSDOF 16
ENDMDL
MODEL 5
REMARK VINA RESULT:    -4.578     12.531     14.781
REMARK INTER + INTRA:         -11.367
REMARK INTER:                  -8.896
REMARK INTRA:                  -2.470
REMARK UNBOUND:                -2.507
REMARK SMILES CCCCCCCCCCCCCCCCCC(=O)[O-]
REMARK SMILES IDX 10 1 11 2 12 3 13 4 14 5 15 6 16 7 17 8 18 9 19 10 20 11
REMARK SMILES IDX 9 12 8 13 7 14 6 15 5 16 4 17 3 18 2 19 1 20
REMARK H PARENT
REMARK Flexibility Score: inf
ROOT
ATOM      1  C   UNL     1      61.950  29.309  28.393  1.00  0.00     0.000 C 
ENDROOT
BRANCH   1   2
ATOM      2  C   UNL     1      62.804  30.460  27.838  1.00  0.00     0.000 C 
BRANCH   2   3
ATOM      3  C   UNL     1      63.419  31.329  28.949  1.00  0.00     0.000 C 
BRANCH   3   4
ATOM      4  C   UNL     1      64.899  31.652  28.692  1.00  0.00     0.000 C 
BRANCH   4   5
ATOM      5  C   UNL     1      65.745  30.390  28.452  1.00  0.00     0.000 C 
BRANCH   5   6
ATOM      6  C   UNL     1      66.447  30.401  27.085  1.00  0.00     0.000 C 
BRANCH   6   7
ATOM      7  C   UNL     1      65.824  29.410  26.092  1.00  0.00     0.006 C 
BRANCH   7   8
ATOM      8  C   UNL     1      66.683  29.284  24.830  1.00  0.00     0.053 C 
BRANCH   8   9
ATOM      9  C   UNL     1      66.037  29.993  23.683  1.00  0.00     0.041 C 
ATOM     10  O   UNL     1      65.014  30.703  23.871  1.00  0.00    -0.550 OA
ATOM     11  O   UNL     1      66.593  29.910  22.413  1.00  0.00    -0.550 OA
ENDBRANCH   8   9
ENDBRANCH   7   8
ENDBRANCH   6   7
ENDBRANCH   5   6
ENDBRANCH   4   5
ENDBRANCH   3   4
ENDBRANCH   2   3
ENDBRANCH   1   2
BRANCH   1  12
ATOM     12  C   UNL     1      62.627  27.941  28.235  1.00  0.00     0.000 C 
BRANCH  12  13
ATOM     13  C   UNL     1      61.635  26.894  27.712  1.00  0.00    -0.000 C 
BRANCH  13  14
ATOM     14  C   UNL     1      60.591  27.536  26.791  1.00  0.00    -0.000 C 
BRANCH  14  15
ATOM     15  C   UNL     1      60.847  27.167  25.325  1.00  0.00    -0.000 C 
BRANCH  15  16
ATOM     16  C   UNL     1      61.640  28.272  24.610  1.00  0.00    -0.000 C 
BRANCH  16  17
ATOM     17  C   UNL     1      62.999  27.781  24.086  1.00  0.00    -0.000 C 
BRANCH  17  18
ATOM     18  C   UNL     1      63.291  26.324  24.474  1.00  0.00    -0.000 C 
BRANCH  18  19
ATOM     19  C   UNL     1      64.795  26.101  24.670  1.00  0.00    -0.003 C 
ATOM     20  C   UNL     1      65.523  26.034  23.331  1.00  0.00     0.004 C 
ENDBRANCH  18  19
ENDBRANCH  17  18
ENDBRANCH  16  17
ENDBRANCH  15  16
ENDBRANCH  14  15
ENDBRANCH  13  14
ENDBRANCH  12  13
ENDBRANCH   1  12
TORSDOF 16
ENDMDL
MODEL 6
REMARK VINA RESULT:    -4.534      1.536      4.100
REMARK INTER + INTRA:         -11.282
REMARK INTER:                  -8.804
REMARK INTRA:                  -2.477
REMARK UNBOUND:                -2.507
REMARK SMILES CCCCCCCCCCCCCCCCCC(=O)[O-]
REMARK SMILES IDX 10 1 11 2 12 3 13 4 14 5 15 6 16 7 17 8 18 9 19 10 20 11
REMARK SMILES IDX 9 12 8 13 7 14 6 15 5 16 4 17 3 18 2 19 1 20
REMARK H PARENT
REMARK Flexibility Score: inf
ROOT
ATOM      1  C   UNL     1      61.407  28.287  10.101  1.00  0.00     0.000 C 
ENDROOT
BRANCH   1   2
ATOM      2  C   UNL     1      59.971  28.720  10.434  1.00  0.00     0.000 C 
BRANCH   2   3
ATOM      3  C   UNL     1      59.705  28.767  11.949  1.00  0.00     0.000 C 
BRANCH   3   4
ATOM      4  C   UNL     1      60.995  28.928  12.770  1.00  0.00     0.000 C 
BRANCH   4   5
ATOM      5  C   UNL     1      61.099  30.311  13.437  1.00  0.00     0.000 C 
BRANCH   5   6
ATOM      6  C   UNL     1      60.612  31.446  12.521  1.00  0.00     0.000 C 
BRANCH   6   7
ATOM      7  C   UNL     1      60.618  32.813  13.220  1.00  0.00     0.006 C 
BRANCH   7   8
ATOM      8  C   UNL     1      60.516  32.651  14.740  1.00  0.00     0.053 C 
BRANCH   8   9
ATOM      9  C   UNL     1      61.088  33.846  15.434  1.00  0.00     0.041 C 
ATOM     10  O   UNL     1      60.334  34.636  16.063  1.00  0.00    -0.550 OA
ATOM     11  O   UNL     1      62.459  34.063  15.429  1.00  0.00    -0.550 OA
ENDBRANCH   8   9
ENDBRANCH   7   8
ENDBRANCH   6   7
ENDBRANCH   5   6
ENDBRANCH   4   5
ENDBRANCH   3   4
ENDBRANCH   2   3
ENDBRANCH   1   2
BRANCH   1  12
ATOM     12  C   UNL     1      62.178  29.353   9.308  1.00  0.00     0.000 C 
BRANCH  12  13
ATOM     13  C   UNL     1      63.671  29.010   9.233  1.00  0.00    -0.000 C 
BRANCH  13  14
ATOM     14  C   UNL     1      64.533  30.200   9.667  1.00  0.00    -0.000 C 
BRANCH  14  15
ATOM     15  C   UNL     1      64.099  30.722  11.043  1.00  0.00    -0.000 C 
BRANCH  15  16
ATOM     16  C   UNL     1      64.458  32.207  11.207  1.00  0.00    -0.000 C 
BRANCH  16  17
ATOM     17  C   UNL     1      64.119  32.747  12.605  1.00  0.00    -0.000 C 
BRANCH  17  18
ATOM     18  C   UNL     1      65.096  32.255  13.683  1.00  0.00    -0.000 C 
BRANCH  18  19
ATOM     19  C   UNL     1      64.390  31.330  14.681  1.00  0.00    -0.003 C 
ATOM     20  C   UNL     1      64.834  29.882  14.502  1.00  0.00     0.004 C 
ENDBRANCH  18  19
ENDBRANCH  17  18
ENDBRANCH  16  17
ENDBRANCH  15  16
ENDBRANCH  14  15
ENDBRANCH  13  14
ENDBRANCH  12  13
ENDBRANCH   1  12
TORSDOF 16
ENDMDL
MODEL 7
REMARK VINA RESULT:    -4.514      2.084      5.533
REMARK INTER + INTRA:         -11.242
REMARK INTER:                  -8.494
REMARK INTRA:                  -2.748
REMARK UNBOUND:                -2.507
REMARK SMILES CCCCCCCCCCCCCCCCCC(=O)[O-]
REMARK SMILES IDX 10 1 11 2 12 3 13 4 14 5 15 6 16 7 17 8 18 9 19 10 20 11
REMARK SMILES IDX 9 12 8 13 7 14 6 15 5 16 4 17 3 18 2 19 1 20
REMARK H PARENT
REMARK Flexibility Score: inf
ROOT
ATOM      1  C   UNL     1      64.602  33.022  12.832  1.00  0.00     0.000 C 
ENDROOT
BRANCH   1   2
ATOM      2  C   UNL     1      64.156  32.278  11.563  1.00  0.00     0.000 C 
BRANCH   2   3
ATOM      3  C   UNL     1      65.182  32.391  10.421  1.00  0.00     0.000 C 
BRANCH   3   4
ATOM      4  C   UNL     1      65.254  31.115   9.566  1.00  0.00     0.000 C 
BRANCH   4   5
ATOM      5  C   UNL     1      64.319  30.007  10.082  1.00  0.00     0.000 C 
BRANCH   5   6
ATOM      6  C   UNL     1      63.949  28.992   8.989  1.00  0.00     0.000 C 
BRANCH   6   7
ATOM      7  C   UNL     1      62.457  28.631   8.999  1.00  0.00     0.006 C 
BRANCH   7   8
ATOM      8  C   UNL     1      61.640  29.694   9.740  1.00  0.00     0.053 C 
BRANCH   8   9
ATOM      9  C   UNL     1      60.196  29.309   9.787  1.00  0.00     0.041 C 
ATOM     10  O   UNL     1      59.778  28.525  10.680  1.00  0.00    -0.550 OA
ATOM     11  O   UNL     1      59.302  29.852   8.875  1.00  0.00    -0.550 OA
ENDBRANCH   8   9
ENDBRANCH   7   8
ENDBRANCH   6   7
ENDBRANCH   5   6
ENDBRANCH   4   5
ENDBRANCH   3   4
ENDBRANCH   2   3
ENDBRANCH   1   2
BRANCH   1  12
ATOM     12  C   UNL     1      64.615  32.118  14.073  1.00  0.00     0.000 C 
BRANCH  12  13
ATOM     13  C   UNL     1      64.473  30.642  13.680  1.00  0.00    -0.000 C 
BRANCH  13  14
ATOM     14  C   UNL     1      63.214  30.025  14.299  1.00  0.00    -0.000 C 
BRANCH  14  15
ATOM     15  C   UNL     1      62.140  29.777  13.232  1.00  0.00    -0.000 C 
BRANCH  15  16
ATOM     16  C   UNL     1      60.776  30.316  13.690  1.00  0.00    -0.000 C 
BRANCH  16  17
ATOM     17  C   UNL     1      60.220  31.396  12.748  1.00  0.00    -0.000 C 
BRANCH  17  18
ATOM     18  C   UNL     1      60.556  32.820  13.217  1.00  0.00    -0.000 C 
BRANCH  18  19
ATOM     19  C   UNL     1      60.424  32.941  14.739  1.00  0.00    -0.003 C 
ATOM     20  C   UNL     1      61.496  33.861  15.315  1.00  0.00     0.004 C 
ENDBRANCH  18  19
ENDBRANCH  17  18
ENDBRANCH  16  17
ENDBRANCH  15  16
ENDBRANCH  14  15
ENDBRANCH  13  14
ENDBRANCH  12  13
ENDBRANCH   1  12
TORSDOF 16
ENDMDL
MODEL 8
REMARK VINA RESULT:    -4.505      2.209      4.625
REMARK INTER + INTRA:         -11.225
REMARK INTER:                  -8.638
REMARK INTRA:                  -2.587
REMARK UNBOUND:                -2.507
REMARK SMILES CCCCCCCCCCCCCCCCCC(=O)[O-]
REMARK SMILES IDX 10 1 11 2 12 3 13 4 14 5 15 6 16 7 17 8 18 9 19 10 20 11
REMARK SMILES IDX 9 12 8 13 7 14 6 15 5 16 4 17 3 18 2 19 1 20
REMARK H PARENT
REMARK Flexibility Score: inf
ROOT
ATOM      1  C   UNL     1      61.614  28.966   9.184  1.00  0.00     0.000 C 
ENDROOT
BRANCH   1   2
ATOM      2  C   UNL     1      63.126  28.747   9.351  1.00  0.00     0.000 C 
BRANCH   2   3
ATOM      3  C   UNL     1      63.753  29.710  10.374  1.00  0.00     0.000 C 
BRANCH   3   4
ATOM      4  C   UNL     1      64.821  30.621   9.747  1.00  0.00     0.000 C 
BRANCH   4   5
ATOM      5  C   UNL     1      64.829  32.030  10.364  1.00  0.00     0.000 C 
BRANCH   5   6
ATOM      6  C   UNL     1      64.097  32.087  11.715  1.00  0.00     0.000 C 
BRANCH   6   7
ATOM      7  C   UNL     1      64.631  33.198  12.630  1.00  0.00     0.006 C 
BRANCH   7   8
ATOM      8  C   UNL     1      64.389  32.858  14.104  1.00  0.00     0.053 C 
BRANCH   8   9
ATOM      9  C   UNL     1      65.500  32.009  14.636  1.00  0.00     0.041 C 
ATOM     10  O   UNL     1      66.627  32.518  14.877  1.00  0.00    -0.550 OA
ATOM     11  O   UNL     1      65.278  30.666  14.911  1.00  0.00    -0.550 OA
ENDBRANCH   8   9
ENDBRANCH   7   8
ENDBRANCH   6   7
ENDBRANCH   5   6
ENDBRANCH   4   5
ENDBRANCH   3   4
ENDBRANCH   2   3
ENDBRANCH   1   2
BRANCH   1  12
ATOM     12  C   UNL     1      60.985  29.689  10.384  1.00  0.00     0.000 C 
BRANCH  12  13
ATOM     13  C   UNL     1      59.606  29.106  10.716  1.00  0.00    -0.000 C 
BRANCH  13  14
ATOM     14  C   UNL     1      59.576  28.536  12.139  1.00  0.00    -0.000 C 
BRANCH  14  15
ATOM     15  C   UNL     1      60.993  28.405  12.710  1.00  0.00    -0.000 C 
BRANCH  15  16
ATOM     16  C   UNL     1      61.070  28.987  14.130  1.00  0.00    -0.000 C 
BRANCH  16  17
ATOM     17  C   UNL     1      61.809  30.334  14.178  1.00  0.00    -0.000 C 
BRANCH  17  18
ATOM     18  C   UNL     1      61.024  31.413  14.938  1.00  0.00    -0.000 C 
BRANCH  18  19
ATOM     19  C   UNL     1      59.942  32.033  14.048  1.00  0.00    -0.003 C 
ATOM     20  C   UNL     1      60.529  32.532  12.731  1.00  0.00     0.004 C 
ENDBRANCH  18  19
ENDBRANCH  17  18
ENDBRANCH  16  17
ENDBRANCH  15  16
ENDBRANCH  14  15
ENDBRANCH  13  14
ENDBRANCH  12  13
ENDBRANCH   1  12
TORSDOF 16
ENDMDL
MODEL 9
REMARK VINA RESULT:    -4.486     12.084     15.176
REMARK INTER + INTRA:         -11.189
REMARK INTER:                  -8.766
REMARK INTRA:                  -2.423
REMARK UNBOUND:                -2.507
REMARK SMILES CCCCCCCCCCCCCCCCCC(=O)[O-]
REMARK SMILES IDX 10 1 11 2 12 3 13 4 14 5 15 6 16 7 17 8 18 9 19 10 20 11
REMARK SMILES IDX 9 12 8 13 7 14 6 15 5 16 4 17 3 18 2 19 1 20
REMARK H PARENT
REMARK Flexibility Score: inf
ROOT
ATOM      1  C   UNL     1      65.203  29.564  26.299  1.00  0.00     0.000 C 
ENDROOT
BRANCH   1   2
ATOM      2  C   UNL     1      65.640  30.067  24.914  1.00  0.00     0.000 C 
BRANCH   2   3
ATOM      3  C   UNL     1      64.510  29.987  23.873  1.00  0.00     0.000 C 
BRANCH   3   4
ATOM      4  C   UNL     1      63.324  29.136  24.354  1.00  0.00     0.000 C 
BRANCH   4   5
ATOM      5  C   UNL     1      63.164  27.837  23.545  1.00  0.00     0.000 C 
BRANCH   5   6
ATOM      6  C   UNL     1      63.649  26.599  24.315  1.00  0.00     0.000 C 
BRANCH   6   7
ATOM      7  C   UNL     1      65.170  26.409  24.231  1.00  0.00     0.006 C 
BRANCH   7   8
ATOM      8  C   UNL     1      65.558  25.646  22.960  1.00  0.00     0.053 C 
BRANCH   8   9
ATOM      9  C   UNL     1      66.270  26.548  22.003  1.00  0.00     0.041 C 
ATOM     10  O   UNL     1      66.675  27.680  22.380  1.00  0.00    -0.550 OA
ATOM     11  O   UNL     1      66.531  26.121  20.708  1.00  0.00    -0.550 OA
ENDBRANCH   8   9
ENDBRANCH   7   8
ENDBRANCH   6   7
ENDBRANCH   5   6
ENDBRANCH   4   5
ENDBRANCH   3   4
ENDBRANCH   2   3
ENDBRANCH   1   2
BRANCH   1  12
ATOM     12  C   UNL     1      66.001  30.209  27.441  1.00  0.00     0.000 C 
BRANCH  12  13
ATOM     13  C   UNL     1      65.087  31.048  28.344  1.00  0.00    -0.000 C 
BRANCH  13  14
ATOM     14  C   UNL     1      64.037  30.170  29.033  1.00  0.00    -0.000 C 
BRANCH  14  15
ATOM     15  C   UNL     1      62.629  30.476  28.504  1.00  0.00    -0.000 C 
BRANCH  15  16
ATOM     16  C   UNL     1      61.725  29.238  28.599  1.00  0.00    -0.000 C 
BRANCH  16  17
ATOM     17  C   UNL     1      62.450  27.943  28.201  1.00  0.00    -0.000 C 
BRANCH  17  18
ATOM     18  C   UNL     1      61.604  27.047  27.286  1.00  0.00    -0.000 C 
BRANCH  18  19
ATOM     19  C   UNL     1      60.734  27.890  26.347  1.00  0.00    -0.003 C 
ATOM     20  C   UNL     1      59.959  27.009  25.372  1.00  0.00     0.004 C 
ENDBRANCH  18  19
ENDBRANCH  17  18
ENDBRANCH  16  17
ENDBRANCH  15  16
ENDBRANCH  14  15
ENDBRANCH  13  14
ENDBRANCH  12  13
ENDBRANCH   1  12
TORSDOF 16
ENDMDL
