MODEL 1
REMARK VINA RESULT:    -5.010      0.000      0.000
REMARK INTER + INTRA:          -8.662
REMARK INTER:                  -7.939
REMARK INTRA:                  -0.723
REMARK UNBOUND:                -0.723
REMARK SMILES CCCCCCCCCCCC(=O)[O-]
REMARK SMILES IDX 7 1 8 2 9 3 10 4 11 5 12 6 13 7 14 8 6 9 5 10 4 11 3 12 2 13
REMARK SMILES IDX 1 14
REMARK H PARENT
REMARK Flexibility Score: inf
ROOT
ATOM      1  C   UNL     1     -13.733  -6.592  36.948  1.00  0.00     0.000 C 
ENDROOT
BRANCH   1   2
ATOM      2  C   UNL     1     -14.612  -5.795  37.927  1.00  0.00     0.000 C 
BRANCH   2   3
ATOM      3  C   UNL     1     -16.034  -6.372  38.046  1.00  0.00     0.000 C 
BRANCH   3   4
ATOM      4  C   UNL     1     -16.736  -5.946  39.346  1.00  0.00     0.006 C 
BRANCH   4   5
ATOM      5  C   UNL     1     -15.823  -6.049  40.574  1.00  0.00     0.053 C 
BRANCH   5   6
ATOM      6  C   UNL     1     -16.621  -6.410  41.787  1.00  0.00     0.041 C 
ATOM      7  O   UNL     1     -16.075  -6.431  42.922  1.00  0.00    -0.550 OA
ATOM      8  O   UNL     1     -17.980  -6.675  41.672  1.00  0.00    -0.550 OA
ENDBRANCH   5   6
ENDBRANCH   4   5
ENDBRANCH   3   4
ENDBRANCH   2   3
ENDBRANCH   1   2
BRANCH   1   9
ATOM      9  C   UNL     1     -12.812  -7.596  37.663  1.00  0.00     0.000 C 
BRANCH   9  10
ATOM     10  C   UNL     1     -12.504  -7.183  39.112  1.00  0.00    -0.000 C 
BRANCH  10  11
ATOM     11  C   UNL     1     -11.369  -8.016  39.737  1.00  0.00    -0.000 C 
BRANCH  11  12
ATOM     12  C   UNL     1     -10.863  -9.122  38.799  1.00  0.00    -0.000 C 
BRANCH  12  13
ATOM     13  C   UNL     1      -9.978 -10.148  39.520  1.00  0.00    -0.003 C 
ATOM     14  C   UNL     1      -9.974  -9.908  41.027  1.00  0.00     0.004 C 
ENDBRANCH  12  13
ENDBRANCH  11  12
ENDBRANCH  10  11
ENDBRANCH   9  10
ENDBRANCH   1   9
TORSDOF 10
ENDMDL
MODEL 2
REMARK VINA RESULT:    -4.882      1.046      1.903
REMARK INTER + INTRA:          -8.460
REMARK INTER:                  -7.953
REMARK INTRA:                  -0.507
REMARK UNBOUND:                -0.723
REMARK SMILES CCCCCCCCCCCC(=O)[O-]
REMARK SMILES IDX 7 1 8 2 9 3 10 4 11 5 12 6 13 7 14 8 6 9 5 10 4 11 3 12 2 13
REMARK SMILES IDX 1 14
REMARK H PARENT
REMARK Flexibility Score: inf
ROOT
ATOM      1  C   UNL     1     -12.861  -7.278  37.945  1.00  0.00     0.000 C 
ENDROOT
BRANCH   1   2
ATOM      2  C   UNL     1     -13.739  -6.867  36.751  1.00  0.00     0.000 C 
BRANCH   2   3
ATOM      3  C   UNL     1     -14.812  -5.833  37.135  1.00  0.00     0.000 C 
BRANCH   3   4
ATOM      4  C   UNL     1     -15.175  -5.887  38.628  1.00  0.00     0.006 C 
BRANCH   4   5
ATOM      5  C   UNL     1     -16.690  -5.925  38.868  1.00  0.00     0.053 C 
BRANCH   5   6
ATOM      6  C   UNL     1     -16.983  -6.289  40.289  1.00  0.00     0.041 C 
ATOM      7  O   UNL     1     -18.119  -6.728  40.611  1.00  0.00    -0.550 OA
ATOM      8  O   UNL     1     -15.986  -6.192  41.252  1.00  0.00    -0.550 OA
ENDBRANCH   5   6
ENDBRANCH   4   5
ENDBRANCH   3   4
ENDBRANCH   2   3
ENDBRANCH   1   2
BRANCH   1   9
ATOM      9  C   UNL     1     -11.730  -8.240  37.543  1.00  0.00     0.000 C 
BRANCH   9  10
ATOM     10  C   UNL     1     -11.070  -8.914  38.758  1.00  0.00    -0.000 C 
BRANCH  10  11
ATOM     11  C   UNL     1     -11.423  -8.220  40.086  1.00  0.00    -0.000 C 
BRANCH  11  12
ATOM     12  C   UNL     1     -10.373  -8.471  41.179  1.00  0.00    -0.000 C 
BRANCH  12  13
ATOM     13  C   UNL     1      -9.964  -9.947  41.276  1.00  0.00    -0.003 C 
ATOM     14  C   UNL     1     -10.057 -10.449  42.715  1.00  0.00     0.004 C 
ENDBRANCH  12  13
ENDBRANCH  11  12
ENDBRANCH  10  11
ENDBRANCH   9  10
ENDBRANCH   1   9
TORSDOF 10
ENDMDL
MODEL 3
REMARK VINA RESULT:    -4.829      1.726      2.871
REMARK INTER + INTRA:          -8.375
REMARK INTER:                  -7.710
REMARK INTRA:                  -0.665
REMARK UNBOUND:                -0.723
REMARK SMILES CCCCCCCCCCCC(=O)[O-]
REMARK SMILES IDX 7 1 8 2 9 3 10 4 11 5 12 6 13 7 14 8 6 9 5 10 4 11 3 12 2 13
REMARK SMILES IDX 1 14
REMARK H PARENT
REMARK Flexibility Score: inf
ROOT
ATOM      1  C   UNL     1     -16.538  -6.627  38.463  1.00  0.00     0.000 C 
ENDROOT
BRANCH   1   2
ATOM      2  C   UNL     1     -17.202  -5.904  39.647  1.00  0.00     0.000 C 
BRANCH   2   3
ATOM      3  C   UNL     1     -18.084  -6.841  40.491  1.00  0.00     0.000 C 
BRANCH   3   4
ATOM      4  C   UNL     1     -18.043  -6.500  41.989  1.00  0.00     0.006 C 
BRANCH   4   5
ATOM      5  C   UNL     1     -16.616  -6.481  42.553  1.00  0.00     0.053 C 
BRANCH   5   6
ATOM      6  C   UNL     1     -16.615  -6.928  43.981  1.00  0.00     0.041 C 
ATOM      7  O   UNL     1     -16.477  -6.088  44.909  1.00  0.00    -0.550 OA
ATOM      8  O   UNL     1     -16.816  -8.268  44.290  1.00  0.00    -0.550 OA
ENDBRANCH   5   6
ENDBRANCH   4   5
ENDBRANCH   3   4
ENDBRANCH   2   3
ENDBRANCH   1   2
BRANCH   1   9
ATOM      9  C   UNL     1     -15.340  -5.847  37.891  1.00  0.00     0.000 C 
BRANCH   9  10
ATOM     10  C   UNL     1     -14.439  -5.263  38.991  1.00  0.00    -0.000 C 
BRANCH  10  11
ATOM     11  C   UNL     1     -13.458  -6.301  39.567  1.00  0.00    -0.000 C 
BRANCH  11  12
ATOM     12  C   UNL     1     -12.869  -7.219  38.486  1.00  0.00    -0.000 C 
BRANCH  12  13
ATOM     13  C   UNL     1     -11.732  -8.103  39.019  1.00  0.00    -0.003 C 
ATOM     14  C   UNL     1     -11.220  -9.051  37.937  1.00  0.00     0.004 C 
ENDBRANCH  12  13
ENDBRANCH  11  12
ENDBRANCH  10  11
ENDBRANCH   9  10
ENDBRANCH   1   9
TORSDOF 10
ENDMDL
MODEL 4
REMARK VINA RESULT:    -4.828      4.182      7.257
REMARK INTER + INTRA:          -8.374
REMARK INTER:                  -7.667
REMARK INTRA:                  -0.706
REMARK UNBOUND:                -0.723
REMARK SMILES CCCCCCCCCCCC(=O)[O-]
REMARK SMILES IDX 7 1 8 2 9 3 10 4 11 5 12 6 13 7 14 8 6 9 5 10 4 11 3 12 2 13
REMARK SMILES IDX 1 14
REMARK H PARENT
REMARK Flexibility Score: inf
ROOT
ATOM      1  C   UNL     1     -11.864  -7.784  38.959  1.00  0.00     0.000 C 
ENDROOT
BRANCH   1   2
ATOM      2  C   UNL     1     -11.630  -8.510  37.623  1.00  0.00     0.000 C 
BRANCH   2   3
ATOM      3  C   UNL     1     -10.939  -9.873  37.805  1.00  0.00     0.000 C 
BRANCH   3   4
ATOM      4  C   UNL     1     -10.057  -9.923  39.063  1.00  0.00     0.006 C 
BRANCH   4   5
ATOM      5  C   UNL     1      -8.649 -10.463  38.778  1.00  0.00     0.053 C 
BRANCH   5   6
ATOM      6  C   UNL     1      -7.963  -9.614  37.755  1.00  0.00     0.041 C 
ATOM      7  O   UNL     1      -7.730  -8.399  37.992  1.00  0.00    -0.550 OA
ATOM      8  O   UNL     1      -7.536 -10.176  36.559  1.00  0.00    -0.550 OA
ENDBRANCH   5   6
ENDBRANCH   4   5
ENDBRANCH   3   4
ENDBRANCH   2   3
ENDBRANCH   1   2
BRANCH   1   9
ATOM      9  C   UNL     1     -13.086  -6.850  38.918  1.00  0.00     0.000 C 
BRANCH   9  10
ATOM     10  C   UNL     1     -13.693  -6.735  37.511  1.00  0.00    -0.000 C 
BRANCH  10  11
ATOM     11  C   UNL     1     -15.103  -6.116  37.521  1.00  0.00    -0.000 C 
BRANCH  11  12
ATOM     12  C   UNL     1     -15.405  -5.359  38.823  1.00  0.00    -0.000 C 
BRANCH  12  13
ATOM     13  C   UNL     1     -16.546  -5.999  39.626  1.00  0.00    -0.003 C 
ATOM     14  C   UNL     1     -17.352  -6.966  38.762  1.00  0.00     0.004 C 
ENDBRANCH  12  13
ENDBRANCH  11  12
ENDBRANCH  10  11
ENDBRANCH   9  10
ENDBRANCH   1   9
TORSDOF 10
ENDMDL
MODEL 5
REMARK VINA RESULT:    -4.782      3.346      6.078
REMARK INTER + INTRA:          -8.300
REMARK INTER:                  -7.578
REMARK INTRA:                  -0.723
REMARK UNBOUND:                -0.723
REMARK SMILES CCCCCCCCCCCC(=O)[O-]
REMARK SMILES IDX 7 1 8 2 9 3 10 4 11 5 12 6 13 7 14 8 6 9 5 10 4 11 3 12 2 13
REMARK SMILES IDX 1 14
REMARK H PARENT
REMARK Flexibility Score: inf
ROOT
ATOM      1  C   UNL     1     -13.629  -6.871  36.779  1.00  0.00     0.000 C 
ENDROOT
BRANCH   1   2
ATOM      2  C   UNL     1     -12.893  -7.284  38.065  1.00  0.00     0.000 C 
BRANCH   2   3
ATOM      3  C   UNL     1     -11.812  -8.350  37.809  1.00  0.00     0.000 C 
BRANCH   3   4
ATOM      4  C   UNL     1     -11.056  -8.742  39.090  1.00  0.00     0.006 C 
BRANCH   4   5
ATOM      5  C   UNL     1     -10.295 -10.066  38.947  1.00  0.00     0.053 C 
BRANCH   5   6
ATOM      6  C   UNL     1      -9.606 -10.411  40.229  1.00  0.00     0.041 C 
ATOM      7  O   UNL     1     -10.123 -10.094  41.333  1.00  0.00    -0.550 OA
ATOM      8  O   UNL     1      -8.417 -11.128  40.208  1.00  0.00    -0.550 OA
ENDBRANCH   5   6
ENDBRANCH   4   5
ENDBRANCH   3   4
ENDBRANCH   2   3
ENDBRANCH   1   2
BRANCH   1   9
ATOM      9  C   UNL     1     -14.795  -5.905  37.050  1.00  0.00     0.000 C 
BRANCH   9  10
ATOM     10  C   UNL     1     -15.729  -6.407  38.163  1.00  0.00    -0.000 C 
BRANCH  10  11
ATOM     11  C   UNL     1     -15.990  -5.342  39.244  1.00  0.00    -0.000 C 
BRANCH  11  12
ATOM     12  C   UNL     1     -14.772  -4.438  39.488  1.00  0.00    -0.000 C 
BRANCH  12  13
ATOM     13  C   UNL     1     -13.846  -4.980  40.586  1.00  0.00    -0.003 C 
ATOM     14  C   UNL     1     -14.641  -5.717  41.661  1.00  0.00     0.004 C 
ENDBRANCH  12  13
ENDBRANCH  11  12
ENDBRANCH  10  11
ENDBRANCH   9  10
ENDBRANCH   1   9
TORSDOF 10
ENDMDL
MODEL 6
REMARK VINA RESULT:    -4.767      1.705      2.836
REMARK INTER + INTRA:          -8.277
REMARK INTER:                  -7.661
REMARK INTRA:                  -0.616
REMARK UNBOUND:                -0.723
REMARK SMILES CCCCCCCCCCCC(=O)[O-]
REMARK SMILES IDX 7 1 8 2 9 3 10 4 11 5 12 6 13 7 14 8 6 9 5 10 4 11 3 12 2 13
REMARK SMILES IDX 1 14
REMARK H PARENT
REMARK Flexibility Score: inf
ROOT
ATOM      1  C   UNL     1     -11.819  -7.828  38.904  1.00  0.00     0.000 C 
ENDROOT
BRANCH   1   2
ATOM      2  C   UNL     1     -13.033  -6.889  38.801  1.00  0.00     0.000 C 
BRANCH   2   3
ATOM      3  C   UNL     1     -13.612  -6.827  37.377  1.00  0.00     0.000 C 
BRANCH   3   4
ATOM      4  C   UNL     1     -14.985  -6.138  37.328  1.00  0.00     0.006 C 
BRANCH   4   5
ATOM      5  C   UNL     1     -15.405  -5.556  38.684  1.00  0.00     0.053 C 
BRANCH   5   6
ATOM      6  C   UNL     1     -16.649  -6.227  39.176  1.00  0.00     0.041 C 
ATOM      7  O   UNL     1     -17.379  -6.873  38.378  1.00  0.00    -0.550 OA
ATOM      8  O   UNL     1     -16.977  -6.181  40.525  1.00  0.00    -0.550 OA
ENDBRANCH   5   6
ENDBRANCH   4   5
ENDBRANCH   3   4
ENDBRANCH   2   3
ENDBRANCH   1   2
BRANCH   1   9
ATOM      9  C   UNL     1     -11.539  -8.578  37.590  1.00  0.00     0.000 C 
BRANCH   9  10
ATOM     10  C   UNL     1     -10.777  -9.894  37.814  1.00  0.00    -0.000 C 
BRANCH  10  11
ATOM     11  C   UNL     1     -10.212 -10.018  39.242  1.00  0.00    -0.000 C 
BRANCH  11  12
ATOM     12  C   UNL     1      -8.679  -9.921  39.279  1.00  0.00    -0.000 C 
BRANCH  12  13
ATOM     13  C   UNL     1      -8.015 -10.611  38.079  1.00  0.00    -0.003 C 
ATOM     14  C   UNL     1      -7.247 -11.856  38.518  1.00  0.00     0.004 C 
ENDBRANCH  12  13
ENDBRANCH  11  12
ENDBRANCH  10  11
ENDBRANCH   9  10
ENDBRANCH   1   9
TORSDOF 10
ENDMDL
MODEL 7
REMARK VINA RESULT:    -4.758      3.810      6.553
REMARK INTER + INTRA:          -8.262
REMARK INTER:                  -7.794
REMARK INTRA:                  -0.468
REMARK UNBOUND:                -0.723
REMARK SMILES CCCCCCCCCCCC(=O)[O-]
REMARK SMILES IDX 7 1 8 2 9 3 10 4 11 5 12 6 13 7 14 8 6 9 5 10 4 11 3 12 2 13
REMARK SMILES IDX 1 14
REMARK H PARENT
REMARK Flexibility Score: inf
ROOT
ATOM      1  C   UNL     1     -14.857  -5.842  37.528  1.00  0.00     0.000 C 
ENDROOT
BRANCH   1   2
ATOM      2  C   UNL     1     -13.697  -6.849  37.450  1.00  0.00     0.000 C 
BRANCH   2   3
ATOM      3  C   UNL     1     -12.948  -6.992  38.787  1.00  0.00     0.000 C 
BRANCH   3   4
ATOM      4  C   UNL     1     -11.858  -8.074  38.740  1.00  0.00     0.006 C 
BRANCH   4   5
ATOM      5  C   UNL     1     -11.780  -8.779  37.379  1.00  0.00     0.053 C 
BRANCH   5   6
ATOM      6  C   UNL     1     -10.354  -9.028  37.002  1.00  0.00     0.041 C 
ATOM      7  O   UNL     1      -9.653  -9.833  37.669  1.00  0.00    -0.550 OA
ATOM      8  O   UNL     1      -9.813  -8.407  35.883  1.00  0.00    -0.550 OA
ENDBRANCH   5   6
ENDBRANCH   4   5
ENDBRANCH   3   4
ENDBRANCH   2   3
ENDBRANCH   1   2
BRANCH   1   9
ATOM      9  C   UNL     1     -16.144  -6.466  38.095  1.00  0.00     0.000 C 
BRANCH   9  10
ATOM     10  C   UNL     1     -16.805  -5.582  39.165  1.00  0.00    -0.000 C 
BRANCH  10  11
ATOM     11  C   UNL     1     -17.450  -6.402  40.297  1.00  0.00    -0.000 C 
BRANCH  11  12
ATOM     12  C   UNL     1     -16.568  -6.469  41.553  1.00  0.00    -0.000 C 
BRANCH  12  13
ATOM     13  C   UNL     1     -17.380  -6.721  42.831  1.00  0.00    -0.003 C 
ATOM     14  C   UNL     1     -18.122  -8.053  42.757  1.00  0.00     0.004 C 
ENDBRANCH  12  13
ENDBRANCH  11  12
ENDBRANCH  10  11
ENDBRANCH   9  10
ENDBRANCH   1   9
TORSDOF 10
ENDMDL
MODEL 8
REMARK VINA RESULT:    -4.723      2.795      4.881
REMARK INTER + INTRA:          -8.207
REMARK INTER:                  -7.638
REMARK INTRA:                  -0.569
REMARK UNBOUND:                -0.723
REMARK SMILES CCCCCCCCCCCC(=O)[O-]
REMARK SMILES IDX 7 1 8 2 9 3 10 4 11 5 12 6 13 7 14 8 6 9 5 10 4 11 3 12 2 13
REMARK SMILES IDX 1 14
REMARK H PARENT
REMARK Flexibility Score: inf
ROOT
ATOM      1  C   UNL     1     -17.702  -6.799  40.136  1.00  0.00     0.000 C 
ENDROOT
BRANCH   1   2
ATOM      2  C   UNL     1     -17.444  -6.604  41.640  1.00  0.00     0.000 C 
BRANCH   2   3
ATOM      3  C   UNL     1     -17.976  -7.775  42.486  1.00  0.00     0.000 C 
BRANCH   3   4
ATOM      4  C   UNL     1     -17.090  -8.068  43.708  1.00  0.00     0.006 C 
BRANCH   4   5
ATOM      5  C   UNL     1     -17.829  -8.853  44.800  1.00  0.00     0.053 C 
BRANCH   5   6
ATOM      6  C   UNL     1     -16.977  -9.978  45.299  1.00  0.00     0.041 C 
ATOM      7  O   UNL     1     -16.811 -10.147  46.536  1.00  0.00    -0.550 OA
ATOM      8  O   UNL     1     -16.406 -10.869  44.400  1.00  0.00    -0.550 OA
ENDBRANCH   5   6
ENDBRANCH   4   5
ENDBRANCH   3   4
ENDBRANCH   2   3
ENDBRANCH   1   2
BRANCH   1   9
ATOM      9  C   UNL     1     -16.984  -5.747  39.272  1.00  0.00     0.000 C 
BRANCH   9  10
ATOM     10  C   UNL     1     -16.196  -6.376  38.111  1.00  0.00    -0.000 C 
BRANCH  10  11
ATOM     11  C   UNL     1     -14.756  -5.840  38.011  1.00  0.00    -0.000 C 
BRANCH  11  12
ATOM     12  C   UNL     1     -14.195  -5.401  39.372  1.00  0.00    -0.000 C 
BRANCH  12  13
ATOM     13  C   UNL     1     -13.179  -6.402  39.941  1.00  0.00    -0.003 C 
ATOM     14  C   UNL     1     -12.536  -7.225  38.828  1.00  0.00     0.004 C 
ENDBRANCH  12  13
ENDBRANCH  11  12
ENDBRANCH  10  11
ENDBRANCH   9  10
ENDBRANCH   1   9
TORSDOF 10
ENDMDL
MODEL 9
REMARK VINA RESULT:    -4.688      3.535      6.339
REMARK INTER + INTRA:          -8.152
REMARK INTER:                  -7.725
REMARK INTRA:                  -0.427
REMARK UNBOUND:                -0.723
REMARK SMILES CCCCCCCCCCCC(=O)[O-]
REMARK SMILES IDX 7 1 8 2 9 3 10 4 11 5 12 6 13 7 14 8 6 9 5 10 4 11 3 12 2 13
REMARK SMILES IDX 1 14
REMARK H PARENT
REMARK Flexibility Score: inf
ROOT
ATOM      1  C   UNL     1     -17.085  -7.267  42.610  1.00  0.00     0.000 C 
ENDROOT
BRANCH   1   2
ATOM      2  C   UNL     1     -17.752  -8.470  43.300  1.00  0.00     0.000 C 
BRANCH   2   3
ATOM      3  C   UNL     1     -17.770  -8.335  44.833  1.00  0.00     0.000 C 
BRANCH   3   4
ATOM      4  C   UNL     1     -17.394  -9.645  45.544  1.00  0.00     0.006 C 
BRANCH   4   5
ATOM      5  C   UNL     1     -16.256 -10.396  44.840  1.00  0.00     0.053 C 
BRANCH   5   6
ATOM      6  C   UNL     1     -14.935 -10.010  45.429  1.00  0.00     0.041 C 
ATOM      7  O   UNL     1     -14.435 -10.688  46.365  1.00  0.00    -0.550 OA
ATOM      8  O   UNL     1     -14.232  -8.929  44.911  1.00  0.00    -0.550 OA
ENDBRANCH   5   6
ENDBRANCH   4   5
ENDBRANCH   3   4
ENDBRANCH   2   3
ENDBRANCH   1   2
BRANCH   1   9
ATOM      9  C   UNL     1     -18.038  -6.534  41.649  1.00  0.00     0.000 C 
BRANCH   9  10
ATOM     10  C   UNL     1     -17.773  -6.886  40.176  1.00  0.00    -0.000 C 
BRANCH  10  11
ATOM     11  C   UNL     1     -17.053  -5.756  39.416  1.00  0.00    -0.000 C 
BRANCH  11  12
ATOM     12  C   UNL     1     -16.324  -6.262  38.162  1.00  0.00    -0.000 C 
BRANCH  12  13
ATOM     13  C   UNL     1     -14.885  -5.734  38.064  1.00  0.00    -0.003 C 
ATOM     14  C   UNL     1     -14.073  -6.539  37.053  1.00  0.00     0.004 C 
ENDBRANCH  12  13
ENDBRANCH  11  12
ENDBRANCH  10  11
ENDBRANCH   9  10
ENDBRANCH   1   9
TORSDOF 10
ENDMDL
