MODEL 1
REMARK VINA RESULT:    -4.061      0.000      0.000
REMARK INTER + INTRA:          -9.320
REMARK INTER:                  -7.385
REMARK INTRA:                  -1.935
REMARK UNBOUND:                -1.935
REMARK SMILES CCCCCCCCCCCCCCCC(=O)[O-]
REMARK SMILES IDX 9 1 10 2 11 3 12 4 13 5 14 6 15 7 16 8 17 9 18 10 8 11 7 12
REMARK SMILES IDX 6 13 5 14 4 15 3 16 2 17 1 18
REMARK H PARENT
REMARK Flexibility Score: inf
ROOT
ATOM      1  C   UNL     1       0.383   5.548  -8.461  1.00  0.00     0.000 C 
ENDROOT
BRANCH   1   2
ATOM      2  C   UNL     1       0.016   7.018  -8.721  1.00  0.00     0.000 C 
BRANCH   2   3
ATOM      3  C   UNL     1       0.398   7.940  -7.549  1.00  0.00     0.000 C 
BRANCH   3   4
ATOM      4  C   UNL     1       1.111   9.220  -8.016  1.00  0.00     0.000 C 
BRANCH   4   5
ATOM      5  C   UNL     1       1.944   9.871  -6.897  1.00  0.00     0.000 C 
BRANCH   5   6
ATOM      6  C   UNL     1       1.591   9.325  -5.505  1.00  0.00     0.006 C 
BRANCH   6   7
ATOM      7  C   UNL     1       2.799   8.710  -4.786  1.00  0.00     0.053 C 
BRANCH   7   8
ATOM      8  C   UNL     1       2.478   7.325  -4.319  1.00  0.00     0.041 C 
ATOM      9  O   UNL     1       2.463   6.368  -5.137  1.00  0.00    -0.550 OA
ATOM     10  O   UNL     1       2.248   7.082  -2.971  1.00  0.00    -0.550 OA
ENDBRANCH   7   8
ENDBRANCH   6   7
ENDBRANCH   5   6
ENDBRANCH   4   5
ENDBRANCH   3   4
ENDBRANCH   2   3
ENDBRANCH   1   2
BRANCH   1  11
ATOM     11  C   UNL     1       1.810   5.203  -8.915  1.00  0.00     0.000 C 
BRANCH  11  12
ATOM     12  C   UNL     1       2.222   6.053 -10.125  1.00  0.00    -0.000 C 
BRANCH  12  13
ATOM     13  C   UNL     1       3.716   6.426 -10.116  1.00  0.00    -0.000 C 
BRANCH  13  14
ATOM     14  C   UNL     1       4.069   7.672  -9.286  1.00  0.00    -0.000 C 
BRANCH  14  15
ATOM     15  C   UNL     1       4.357   7.345  -7.810  1.00  0.00    -0.000 C 
BRANCH  15  16
ATOM     16  C   UNL     1       5.738   7.843  -7.354  1.00  0.00    -0.000 C 
BRANCH  16  17
ATOM     17  C   UNL     1       6.370   8.821  -8.355  1.00  0.00    -0.003 C 
ATOM     18  C   UNL     1       7.613   8.217  -9.002  1.00  0.00     0.004 C 
ENDBRANCH  16  17
ENDBRANCH  15  16
ENDBRANCH  14  15
ENDBRANCH  13  14
ENDBRANCH  12  13
ENDBRANCH  11  12
ENDBRANCH   1  11
TORSDOF 14
ENDMDL
MODEL 2
REMARK VINA RESULT:    -4.042      1.665      3.759
REMARK INTER + INTRA:          -9.285
REMARK INTER:                  -7.386
REMARK INTRA:                  -1.899
REMARK UNBOUND:                -1.935
REMARK SMILES CCCCCCCCCCCCCCCC(=O)[O-]
REMARK SMILES IDX 9 1 10 2 11 3 12 4 13 5 14 6 15 7 16 8 17 9 18 10 8 11 7 12
REMARK SMILES IDX 6 13 5 14 4 15 3 16 2 17 1 18
REMARK H PARENT
REMARK Flexibility Score: inf
ROOT
ATOM      1  C   UNL     1       2.974   9.585  -5.205  1.00  0.00     0.000 C 
ENDROOT
BRANCH   1   2
ATOM      2  C   UNL     1       1.485   9.482  -5.574  1.00  0.00     0.000 C 
BRANCH   2   3
ATOM      3  C   UNL     1       1.196   9.964  -7.007  1.00  0.00     0.000 C 
BRANCH   3   4
ATOM      4  C   UNL     1       0.966   8.799  -7.984  1.00  0.00     0.000 C 
BRANCH   4   5
ATOM      5  C   UNL     1       0.621   7.484  -7.262  1.00  0.00     0.000 C 
BRANCH   5   6
ATOM      6  C   UNL     1       0.508   6.293  -8.227  1.00  0.00     0.006 C 
BRANCH   6   7
ATOM      7  C   UNL     1       1.272   5.057  -7.735  1.00  0.00     0.053 C 
BRANCH   7   8
ATOM      8  C   UNL     1       0.388   4.200  -6.887  1.00  0.00     0.041 C 
ATOM      9  O   UNL     1       0.284   4.423  -5.652  1.00  0.00    -0.550 OA
ATOM     10  O   UNL     1      -0.363   3.186  -7.468  1.00  0.00    -0.550 OA
ENDBRANCH   7   8
ENDBRANCH   6   7
ENDBRANCH   5   6
ENDBRANCH   4   5
ENDBRANCH   3   4
ENDBRANCH   2   3
ENDBRANCH   1   2
BRANCH   1  11
ATOM     11  C   UNL     1       3.689   8.225  -5.230  1.00  0.00     0.000 C 
BRANCH  11  12
ATOM     12  C   UNL     1       4.654   8.136  -6.420  1.00  0.00    -0.000 C 
BRANCH  12  13
ATOM     13  C   UNL     1       4.243   7.065  -7.448  1.00  0.00    -0.000 C 
BRANCH  13  14
ATOM     14  C   UNL     1       4.431   7.473  -8.920  1.00  0.00    -0.000 C 
BRANCH  14  15
ATOM     15  C   UNL     1       5.603   8.449  -9.124  1.00  0.00    -0.000 C 
BRANCH  15  16
ATOM     16  C   UNL     1       6.832   7.771  -9.750  1.00  0.00    -0.000 C 
BRANCH  16  17
ATOM     17  C   UNL     1       8.152   8.275  -9.148  1.00  0.00    -0.003 C 
ATOM     18  C   UNL     1       7.990   8.602  -7.666  1.00  0.00     0.004 C 
ENDBRANCH  16  17
ENDBRANCH  15  16
ENDBRANCH  14  15
ENDBRANCH  13  14
ENDBRANCH  12  13
ENDBRANCH  11  12
ENDBRANCH   1  11
TORSDOF 14
ENDMDL
MODEL 3
REMARK VINA RESULT:    -3.984     19.296     21.899
REMARK INTER + INTRA:          -9.179
REMARK INTER:                  -7.018
REMARK INTRA:                  -2.160
REMARK UNBOUND:                -1.935
REMARK SMILES CCCCCCCCCCCCCCCC(=O)[O-]
REMARK SMILES IDX 9 1 10 2 11 3 12 4 13 5 14 6 15 7 16 8 17 9 18 10 8 11 7 12
REMARK SMILES IDX 6 13 5 14 4 15 3 16 2 17 1 18
REMARK H PARENT
REMARK Flexibility Score: inf
ROOT
ATOM      1  C   UNL     1      -6.097  -2.506   9.100  1.00  0.00     0.000 C 
ENDROOT
BRANCH   1   2
ATOM      2  C   UNL     1      -7.379  -3.354   9.077  1.00  0.00     0.000 C 
BRANCH   2   3
ATOM      3  C   UNL     1      -7.781  -3.781   7.654  1.00  0.00     0.000 C 
BRANCH   3   4
ATOM      4  C   UNL     1      -7.870  -5.309   7.502  1.00  0.00     0.000 C 
BRANCH   4   5
ATOM      5  C   UNL     1      -8.276  -5.737   6.080  1.00  0.00     0.000 C 
BRANCH   5   6
ATOM      6  C   UNL     1      -7.638  -7.071   5.660  1.00  0.00     0.006 C 
BRANCH   6   7
ATOM      7  C   UNL     1      -7.673  -8.123   6.776  1.00  0.00     0.053 C 
BRANCH   7   8
ATOM      8  C   UNL     1      -6.306  -8.685   7.007  1.00  0.00     0.041 C 
ATOM      9  O   UNL     1      -5.836  -8.747   8.174  1.00  0.00    -0.550 OA
ATOM     10  O   UNL     1      -5.571  -9.187   5.941  1.00  0.00    -0.550 OA
ENDBRANCH   7   8
ENDBRANCH   6   7
ENDBRANCH   5   6
ENDBRANCH   4   5
ENDBRANCH   3   4
ENDBRANCH   2   3
ENDBRANCH   1   2
BRANCH   1  11
ATOM     11  C   UNL     1      -4.918  -3.230   9.769  1.00  0.00     0.000 C 
BRANCH  11  12
ATOM     12  C   UNL     1      -5.234  -4.718   9.975  1.00  0.00    -0.000 C 
BRANCH  12  13
ATOM     13  C   UNL     1      -4.501  -5.631   8.974  1.00  0.00    -0.000 C 
BRANCH  13  14
ATOM     14  C   UNL     1      -3.980  -4.922   7.711  1.00  0.00    -0.000 C 
BRANCH  14  15
ATOM     15  C   UNL     1      -4.205  -5.743   6.429  1.00  0.00    -0.000 C 
BRANCH  15  16
ATOM     16  C   UNL     1      -4.719  -4.884   5.263  1.00  0.00    -0.000 C 
BRANCH  16  17
ATOM     17  C   UNL     1      -3.783  -3.711   4.939  1.00  0.00    -0.003 C 
ATOM     18  C   UNL     1      -4.445  -2.374   5.258  1.00  0.00     0.004 C 
ENDBRANCH  16  17
ENDBRANCH  15  16
ENDBRANCH  14  15
ENDBRANCH  13  14
ENDBRANCH  12  13
ENDBRANCH  11  12
ENDBRANCH   1  11
TORSDOF 14
ENDMDL
MODEL 4
REMARK VINA RESULT:    -3.927      1.897      4.879
REMARK INTER + INTRA:          -9.075
REMARK INTER:                  -7.152
REMARK INTRA:                  -1.923
REMARK UNBOUND:                -1.935
REMARK SMILES CCCCCCCCCCCCCCCC(=O)[O-]
REMARK SMILES IDX 9 1 10 2 11 3 12 4 13 5 14 6 15 7 16 8 17 9 18 10 8 11 7 12
REMARK SMILES IDX 6 13 5 14 4 15 3 16 2 17 1 18
REMARK H PARENT
REMARK Flexibility Score: inf
ROOT
ATOM      1  C   UNL     1       2.271   7.828  -3.840  1.00  0.00     0.000 C 
ENDROOT
BRANCH   1   2
ATOM      2  C   UNL     1       2.842   8.879  -4.807  1.00  0.00     0.000 C 
BRANCH   2   3
ATOM      3  C   UNL     1       1.760   9.825  -5.359  1.00  0.00     0.000 C 
BRANCH   3   4
ATOM      4  C   UNL     1       1.760   9.885  -6.896  1.00  0.00     0.000 C 
BRANCH   4   5
ATOM      5  C   UNL     1       3.139   9.559  -7.497  1.00  0.00     0.000 C 
BRANCH   5   6
ATOM      6  C   UNL     1       3.056   8.538  -8.643  1.00  0.00     0.006 C 
BRANCH   6   7
ATOM      7  C   UNL     1       4.079   7.403  -8.501  1.00  0.00     0.053 C 
BRANCH   7   8
ATOM      8  C   UNL     1       5.210   7.827  -7.619  1.00  0.00     0.041 C 
ATOM      9  O   UNL     1       5.284   7.402  -6.436  1.00  0.00    -0.550 OA
ATOM     10  O   UNL     1       6.212   8.647  -8.120  1.00  0.00    -0.550 OA
ENDBRANCH   7   8
ENDBRANCH   6   7
ENDBRANCH   5   6
ENDBRANCH   4   5
ENDBRANCH   3   4
ENDBRANCH   2   3
ENDBRANCH   1   2
BRANCH   1  11
ATOM     11  C   UNL     1       2.305   6.406  -4.421  1.00  0.00     0.000 C 
BRANCH  11  12
ATOM     12  C   UNL     1       1.775   6.389  -5.862  1.00  0.00    -0.000 C 
BRANCH  12  13
ATOM     13  C   UNL     1       1.987   5.036  -6.565  1.00  0.00    -0.000 C 
BRANCH  13  14
ATOM     14  C   UNL     1       0.709   4.202  -6.765  1.00  0.00    -0.000 C 
BRANCH  14  15
ATOM     15  C   UNL     1       0.100   4.369  -8.168  1.00  0.00    -0.000 C 
BRANCH  15  16
ATOM     16  C   UNL     1       1.124   4.869  -9.200  1.00  0.00    -0.000 C 
BRANCH  16  17
ATOM     17  C   UNL     1       0.613   6.077  -9.998  1.00  0.00    -0.003 C 
ATOM     18  C   UNL     1      -0.169   7.035  -9.105  1.00  0.00     0.004 C 
ENDBRANCH  16  17
ENDBRANCH  15  16
ENDBRANCH  14  15
ENDBRANCH  13  14
ENDBRANCH  12  13
ENDBRANCH  11  12
ENDBRANCH   1  11
TORSDOF 14
ENDMDL
MODEL 5
REMARK VINA RESULT:    -3.918      2.653      5.107
REMARK INTER + INTRA:          -9.060
REMARK INTER:                  -6.445
REMARK INTRA:                  -2.615
REMARK UNBOUND:                -1.935
REMARK SMILES CCCCCCCCCCCCCCCC(=O)[O-]
REMARK SMILES IDX 9 1 10 2 11 3 12 4 13 5 14 6 15 7 16 8 17 9 18 10 8 11 7 12
REMARK SMILES IDX 6 13 5 14 4 15 3 16 2 17 1 18
REMARK H PARENT
REMARK Flexibility Score: inf
ROOT
ATOM      1  C   UNL     1       1.008   8.819  -7.367  1.00  0.00     0.000 C 
ENDROOT
BRANCH   1   2
ATOM      2  C   UNL     1       1.466   9.255  -5.966  1.00  0.00     0.000 C 
BRANCH   2   3
ATOM      3  C   UNL     1       2.993   9.428  -5.869  1.00  0.00     0.000 C 
BRANCH   3   4
ATOM      4  C   UNL     1       3.713   8.112  -5.532  1.00  0.00     0.000 C 
BRANCH   4   5
ATOM      5  C   UNL     1       4.378   7.472  -6.763  1.00  0.00     0.000 C 
BRANCH   5   6
ATOM      6  C   UNL     1       5.122   8.497  -7.633  1.00  0.00     0.006 C 
BRANCH   6   7
ATOM      7  C   UNL     1       5.823   7.856  -8.837  1.00  0.00     0.053 C 
BRANCH   7   8
ATOM      8  C   UNL     1       7.287   8.164  -8.815  1.00  0.00     0.041 C 
ATOM      9  O   UNL     1       7.718   9.139  -8.146  1.00  0.00    -0.550 OA
ATOM     10  O   UNL     1       8.180   7.344  -9.491  1.00  0.00    -0.550 OA
ENDBRANCH   7   8
ENDBRANCH   6   7
ENDBRANCH   5   6
ENDBRANCH   4   5
ENDBRANCH   3   4
ENDBRANCH   2   3
ENDBRANCH   1   2
BRANCH   1  11
ATOM     11  C   UNL     1       1.623   9.673  -8.487  1.00  0.00     0.000 C 
BRANCH  11  12
ATOM     12  C   UNL     1       2.108   8.790  -9.645  1.00  0.00    -0.000 C 
BRANCH  12  13
ATOM     13  C   UNL     1       1.461   7.393  -9.647  1.00  0.00    -0.000 C 
BRANCH  13  14
ATOM     14  C   UNL     1       2.455   6.218  -9.642  1.00  0.00    -0.000 C 
BRANCH  14  15
ATOM     15  C   UNL     1       2.067   5.111  -8.645  1.00  0.00    -0.000 C 
BRANCH  15  16
ATOM     16  C   UNL     1       0.578   5.152  -8.269  1.00  0.00    -0.000 C 
BRANCH  16  17
ATOM     17  C   UNL     1       0.336   4.831  -6.788  1.00  0.00    -0.003 C 
ATOM     18  C   UNL     1       1.530   5.245  -5.933  1.00  0.00     0.004 C 
ENDBRANCH  16  17
ENDBRANCH  15  16
ENDBRANCH  14  15
ENDBRANCH  13  14
ENDBRANCH  12  13
ENDBRANCH  11  12
ENDBRANCH   1  11
TORSDOF 14
ENDMDL
MODEL 6
REMARK VINA RESULT:    -3.889     19.264     21.529
REMARK INTER + INTRA:          -9.007
REMARK INTER:                  -6.586
REMARK INTRA:                  -2.421
REMARK UNBOUND:                -1.935
REMARK SMILES CCCCCCCCCCCCCCCC(=O)[O-]
REMARK SMILES IDX 9 1 10 2 11 3 12 4 13 5 14 6 15 7 16 8 17 9 18 10 8 11 7 12
REMARK SMILES IDX 6 13 5 14 4 15 3 16 2 17 1 18
REMARK H PARENT
REMARK Flexibility Score: inf
ROOT
ATOM      1  C   UNL     1      -4.496  -4.093   5.577  1.00  0.00     0.000 C 
ENDROOT
BRANCH   1   2
ATOM      2  C   UNL     1      -5.259  -3.031   6.386  1.00  0.00     0.000 C 
BRANCH   2   3
ATOM      3  C   UNL     1      -5.407  -3.412   7.870  1.00  0.00     0.000 C 
BRANCH   3   4
ATOM      4  C   UNL     1      -6.066  -2.297   8.699  1.00  0.00     0.000 C 
BRANCH   4   5
ATOM      5  C   UNL     1      -7.366  -2.760   9.381  1.00  0.00     0.000 C 
BRANCH   5   6
ATOM      6  C   UNL     1      -8.572  -1.882   9.011  1.00  0.00     0.006 C 
BRANCH   6   7
ATOM      7  C   UNL     1      -8.738  -1.710   7.496  1.00  0.00     0.053 C 
BRANCH   7   8
ATOM      8  C   UNL     1      -9.272  -0.349   7.180  1.00  0.00     0.041 C 
ATOM      9  O   UNL     1      -9.379   0.027   5.983  1.00  0.00    -0.550 OA
ATOM     10  O   UNL     1      -9.702   0.484   8.204  1.00  0.00    -0.550 OA
ENDBRANCH   7   8
ENDBRANCH   6   7
ENDBRANCH   5   6
ENDBRANCH   4   5
ENDBRANCH   3   4
ENDBRANCH   2   3
ENDBRANCH   1   2
BRANCH   1  11
ATOM     11  C   UNL     1      -4.008  -5.264   6.444  1.00  0.00     0.000 C 
BRANCH  11  12
ATOM     12  C   UNL     1      -4.816  -6.536   6.153  1.00  0.00    -0.000 C 
BRANCH  12  13
ATOM     13  C   UNL     1      -5.960  -6.304   5.148  1.00  0.00    -0.000 C 
BRANCH  13  14
ATOM     14  C   UNL     1      -7.362  -6.675   5.663  1.00  0.00    -0.000 C 
BRANCH  14  15
ATOM     15  C   UNL     1      -8.113  -5.475   6.267  1.00  0.00    -0.000 C 
BRANCH  15  16
ATOM     16  C   UNL     1      -8.464  -5.685   7.748  1.00  0.00    -0.000 C 
BRANCH  16  17
ATOM     17  C   UNL     1      -7.752  -6.902   8.355  1.00  0.00    -0.003 C 
ATOM     18  C   UNL     1      -6.765  -6.478   9.438  1.00  0.00     0.004 C 
ENDBRANCH  16  17
ENDBRANCH  15  16
ENDBRANCH  14  15
ENDBRANCH  13  14
ENDBRANCH  12  13
ENDBRANCH  11  12
ENDBRANCH   1  11
TORSDOF 14
ENDMDL
MODEL 7
REMARK VINA RESULT:    -3.885      2.404      5.377
REMARK INTER + INTRA:          -8.999
REMARK INTER:                  -6.813
REMARK INTRA:                  -2.185
REMARK UNBOUND:                -1.935
REMARK SMILES CCCCCCCCCCCCCCCC(=O)[O-]
REMARK SMILES IDX 9 1 10 2 11 3 12 4 13 5 14 6 15 7 16 8 17 9 18 10 8 11 7 12
REMARK SMILES IDX 6 13 5 14 4 15 3 16 2 17 1 18
REMARK H PARENT
REMARK Flexibility Score: inf
ROOT
ATOM      1  C   UNL     1       1.525   8.416  -5.590  1.00  0.00     0.000 C 
ENDROOT
BRANCH   1   2
ATOM      2  C   UNL     1       2.909   8.207  -4.954  1.00  0.00     0.000 C 
BRANCH   2   3
ATOM      3  C   UNL     1       4.044   8.206  -5.993  1.00  0.00     0.000 C 
BRANCH   3   4
ATOM      4  C   UNL     1       3.955   7.013  -6.960  1.00  0.00     0.000 C 
BRANCH   4   5
ATOM      5  C   UNL     1       4.228   7.416  -8.420  1.00  0.00     0.000 C 
BRANCH   5   6
ATOM      6  C   UNL     1       5.211   8.591  -8.534  1.00  0.00     0.006 C 
BRANCH   6   7
ATOM      7  C   UNL     1       6.654   8.135  -8.786  1.00  0.00     0.053 C 
BRANCH   7   8
ATOM      8  C   UNL     1       7.542   8.570  -7.663  1.00  0.00     0.041 C 
ATOM      9  O   UNL     1       8.181   9.652  -7.744  1.00  0.00    -0.550 OA
ATOM     10  O   UNL     1       7.625   7.806  -6.506  1.00  0.00    -0.550 OA
ENDBRANCH   7   8
ENDBRANCH   6   7
ENDBRANCH   5   6
ENDBRANCH   4   5
ENDBRANCH   3   4
ENDBRANCH   2   3
ENDBRANCH   1   2
BRANCH   1  11
ATOM     11  C   UNL     1       1.484   9.622  -6.542  1.00  0.00     0.000 C 
BRANCH  11  12
ATOM     12  C   UNL     1       1.058   9.192  -7.953  1.00  0.00    -0.000 C 
BRANCH  12  13
ATOM     13  C   UNL     1       0.422   7.790  -7.987  1.00  0.00    -0.000 C 
BRANCH  13  14
ATOM     14  C   UNL     1       0.174   7.225  -9.397  1.00  0.00    -0.000 C 
BRANCH  14  15
ATOM     15  C   UNL     1       0.363   5.699  -9.470  1.00  0.00    -0.000 C 
BRANCH  15  16
ATOM     16  C   UNL     1       1.209   5.153  -8.310  1.00  0.00    -0.000 C 
BRANCH  16  17
ATOM     17  C   UNL     1       0.382   4.319  -7.320  1.00  0.00    -0.003 C 
ATOM     18  C   UNL     1       0.752   4.652  -5.878  1.00  0.00     0.004 C 
ENDBRANCH  16  17
ENDBRANCH  15  16
ENDBRANCH  14  15
ENDBRANCH  13  14
ENDBRANCH  12  13
ENDBRANCH  11  12
ENDBRANCH   1  11
TORSDOF 14
ENDMDL
MODEL 8
REMARK VINA RESULT:    -3.813     19.356     21.905
REMARK INTER + INTRA:          -8.869
REMARK INTER:                  -5.988
REMARK INTRA:                  -2.881
REMARK UNBOUND:                -1.935
REMARK SMILES CCCCCCCCCCCCCCCC(=O)[O-]
REMARK SMILES IDX 9 1 10 2 11 3 12 4 13 5 14 6 15 7 16 8 17 9 18 10 8 11 7 12
REMARK SMILES IDX 6 13 5 14 4 15 3 16 2 17 1 18
REMARK H PARENT
REMARK Flexibility Score: inf
ROOT
ATOM      1  C   UNL     1      -5.496  -5.606   5.204  1.00  0.00     0.000 C 
ENDROOT
BRANCH   1   2
ATOM      2  C   UNL     1      -5.231  -6.948   5.905  1.00  0.00     0.000 C 
BRANCH   2   3
ATOM      3  C   UNL     1      -6.528  -7.658   6.334  1.00  0.00     0.000 C 
BRANCH   3   4
ATOM      4  C   UNL     1      -7.789  -6.920   5.854  1.00  0.00     0.000 C 
BRANCH   4   5
ATOM      5  C   UNL     1      -8.754  -6.592   7.007  1.00  0.00     0.000 C 
BRANCH   5   6
ATOM      6  C   UNL     1      -9.232  -5.132   6.980  1.00  0.00     0.006 C 
BRANCH   6   7
ATOM      7  C   UNL     1      -9.591  -4.599   8.373  1.00  0.00     0.053 C 
BRANCH   7   8
ATOM      8  C   UNL     1      -9.490  -3.107   8.404  1.00  0.00     0.041 C 
ATOM      9  O   UNL     1      -9.328  -2.506   9.498  1.00  0.00    -0.550 OA
ATOM     10  O   UNL     1      -9.523  -2.384   7.219  1.00  0.00    -0.550 OA
ENDBRANCH   7   8
ENDBRANCH   6   7
ENDBRANCH   5   6
ENDBRANCH   4   5
ENDBRANCH   3   4
ENDBRANCH   2   3
ENDBRANCH   1   2
BRANCH   1  11
ATOM     11  C   UNL     1      -4.303  -4.642   5.295  1.00  0.00     0.000 C 
BRANCH  11  12
ATOM     12  C   UNL     1      -4.721  -3.313   5.940  1.00  0.00    -0.000 C 
BRANCH  12  13
ATOM     13  C   UNL     1      -5.977  -3.443   6.822  1.00  0.00    -0.000 C 
BRANCH  13  14
ATOM     14  C   UNL     1      -5.922  -2.662   8.147  1.00  0.00    -0.000 C 
BRANCH  14  15
ATOM     15  C   UNL     1      -5.664  -3.568   9.364  1.00  0.00    -0.000 C 
BRANCH  15  16
ATOM     16  C   UNL     1      -5.996  -5.042   9.082  1.00  0.00    -0.000 C 
BRANCH  16  17
ATOM     17  C   UNL     1      -4.818  -5.979   9.389  1.00  0.00    -0.003 C 
ATOM     18  C   UNL     1      -3.498  -5.374   8.921  1.00  0.00     0.004 C 
ENDBRANCH  16  17
ENDBRANCH  15  16
ENDBRANCH  14  15
ENDBRANCH  13  14
ENDBRANCH  12  13
ENDBRANCH  11  12
ENDBRANCH   1  11
TORSDOF 14
ENDMDL
MODEL 9
REMARK VINA RESULT:    -3.791      1.387      2.551
REMARK INTER + INTRA:          -8.829
REMARK INTER:                  -6.907
REMARK INTRA:                  -1.922
REMARK UNBOUND:                -1.935
REMARK SMILES CCCCCCCCCCCCCCCC(=O)[O-]
REMARK SMILES IDX 9 1 10 2 11 3 12 4 13 5 14 6 15 7 16 8 17 9 18 10 8 11 7 12
REMARK SMILES IDX 6 13 5 14 4 15 3 16 2 17 1 18
REMARK H PARENT
REMARK Flexibility Score: inf
ROOT
ATOM      1  C   UNL     1      -0.009   7.158  -8.592  1.00  0.00     0.000 C 
ENDROOT
BRANCH   1   2
ATOM      2  C   UNL     1       0.341   6.089  -9.640  1.00  0.00     0.000 C 
BRANCH   2   3
ATOM      3  C   UNL     1       0.977   4.834  -9.016  1.00  0.00     0.000 C 
BRANCH   3   4
ATOM      4  C   UNL     1       1.866   5.166  -7.806  1.00  0.00     0.000 C 
BRANCH   4   5
ATOM      5  C   UNL     1       1.234   4.730  -6.473  1.00  0.00     0.000 C 
BRANCH   5   6
ATOM      6  C   UNL     1       1.737   5.559  -5.281  1.00  0.00     0.006 C 
BRANCH   6   7
ATOM      7  C   UNL     1       2.190   6.968  -5.687  1.00  0.00     0.053 C 
BRANCH   7   8
ATOM      8  C   UNL     1       2.631   7.741  -4.485  1.00  0.00     0.041 C 
ATOM      9  O   UNL     1       2.512   7.245  -3.334  1.00  0.00    -0.550 OA
ATOM     10  O   UNL     1       3.222   8.988  -4.640  1.00  0.00    -0.550 OA
ENDBRANCH   7   8
ENDBRANCH   6   7
ENDBRANCH   5   6
ENDBRANCH   4   5
ENDBRANCH   3   4
ENDBRANCH   2   3
ENDBRANCH   1   2
BRANCH   1  11
ATOM     11  C   UNL     1       0.703   8.496  -8.848  1.00  0.00     0.000 C 
BRANCH  11  12
ATOM     12  C   UNL     1       1.701   8.373 -10.008  1.00  0.00    -0.000 C 
BRANCH  12  13
ATOM     13  C   UNL     1       3.139   8.749  -9.605  1.00  0.00    -0.000 C 
BRANCH  13  14
ATOM     14  C   UNL     1       4.106   7.559  -9.466  1.00  0.00    -0.000 C 
BRANCH  14  15
ATOM     15  C   UNL     1       4.790   7.503  -8.089  1.00  0.00    -0.000 C 
BRANCH  15  16
ATOM     16  C   UNL     1       5.207   8.892  -7.581  1.00  0.00    -0.000 C 
BRANCH  16  17
ATOM     17  C   UNL     1       6.477   9.412  -8.268  1.00  0.00    -0.003 C 
ATOM     18  C   UNL     1       7.487   8.288  -8.481  1.00  0.00     0.004 C 
ENDBRANCH  16  17
ENDBRANCH  15  16
ENDBRANCH  14  15
ENDBRANCH  13  14
ENDBRANCH  12  13
ENDBRANCH  11  12
ENDBRANCH   1  11
TORSDOF 14
ENDMDL
