MODEL 1
REMARK VINA RESULT:    -5.225      0.000      0.000
REMARK INTER + INTRA:         -11.225
REMARK INTER:                 -10.113
REMARK INTRA:                  -1.112
REMARK UNBOUND:                -1.112
REMARK SMILES CCCCCCCCCCCCCCCCCC(=O)[O-]
REMARK SMILES IDX 10 1 11 2 12 3 13 4 14 5 15 6 16 7 17 8 18 9 19 10 20 11
REMARK SMILES IDX 9 12 8 13 7 14 6 15 5 16 4 17 3 18 2 19 1 20
REMARK H PARENT
REMARK Flexibility Score: inf
ROOT
ATOM      1  C   UNL     1     170.083 144.566 148.677  1.00  0.00     0.000 C 
ENDROOT
BRANCH   1   2
ATOM      2  C   UNL     1     170.715 143.173 148.844  1.00  0.00     0.000 C 
BRANCH   2   3
ATOM      3  C   UNL     1     171.879 143.171 149.848  1.00  0.00     0.000 C 
BRANCH   3   4
ATOM      4  C   UNL     1     171.620 142.241 151.046  1.00  0.00     0.000 C 
BRANCH   4   5
ATOM      5  C   UNL     1     170.133 142.165 151.425  1.00  0.00     0.000 C 
BRANCH   5   6
ATOM      6  C   UNL     1     169.787 143.034 152.642  1.00  0.00     0.000 C 
BRANCH   6   7
ATOM      7  C   UNL     1     169.083 144.325 152.213  1.00  0.00     0.006 C 
BRANCH   7   8
ATOM      8  C   UNL     1     168.305 144.941 153.379  1.00  0.00     0.053 C 
BRANCH   8   9
ATOM      9  C   UNL     1     169.241 145.373 154.464  1.00  0.00     0.041 C 
ATOM     10  O   UNL     1     170.158 146.200 154.218  1.00  0.00    -0.550 OA
ATOM     11  O   UNL     1     169.068 144.901 155.759  1.00  0.00    -0.550 OA
ENDBRANCH   8   9
ENDBRANCH   7   8
ENDBRANCH   6   7
ENDBRANCH   5   6
ENDBRANCH   4   5
ENDBRANCH   3   4
ENDBRANCH   2   3
ENDBRANCH   1   2
BRANCH   1  12
ATOM     12  C   UNL     1     168.863 144.562 147.738  1.00  0.00     0.000 C 
BRANCH  12  13
ATOM     13  C   UNL     1     169.079 145.256 146.380  1.00  0.00    -0.000 C 
BRANCH  13  14
ATOM     14  C   UNL     1     167.910 146.168 145.979  1.00  0.00    -0.000 C 
BRANCH  14  15
ATOM     15  C   UNL     1     166.582 145.757 146.639  1.00  0.00    -0.000 C 
BRANCH  15  16
ATOM     16  C   UNL     1     165.549 146.902 146.719  1.00  0.00    -0.000 C 
BRANCH  16  17
ATOM     17  C   UNL     1     166.062 148.192 146.053  1.00  0.00    -0.000 C 
BRANCH  17  18
ATOM     18  C   UNL     1     165.665 149.457 146.844  1.00  0.00    -0.000 C 
BRANCH  18  19
ATOM     19  C   UNL     1     166.287 150.750 146.292  1.00  0.00    -0.003 C 
ATOM     20  C   UNL     1     165.347 151.951 146.378  1.00  0.00     0.004 C 
ENDBRANCH  18  19
ENDBRANCH  17  18
ENDBRANCH  16  17
ENDBRANCH  15  16
ENDBRANCH  14  15
ENDBRANCH  13  14
ENDBRANCH  12  13
ENDBRANCH   1  12
TORSDOF 16
ENDMDL
MODEL 2
REMARK VINA RESULT:    -5.211      4.233      6.601
REMARK INTER + INTRA:         -11.197
REMARK INTER:                  -8.543
REMARK INTRA:                  -2.654
REMARK UNBOUND:                -1.112
REMARK SMILES CCCCCCCCCCCCCCCCCC(=O)[O-]
REMARK SMILES IDX 10 1 11 2 12 3 13 4 14 5 15 6 16 7 17 8 18 9 19 10 20 11
REMARK SMILES IDX 9 12 8 13 7 14 6 15 5 16 4 17 3 18 2 19 1 20
REMARK H PARENT
REMARK Flexibility Score: inf
ROOT
ATOM      1  C   UNL     1     170.548 145.330 150.142  1.00  0.00     0.000 C 
ENDROOT
BRANCH   1   2
ATOM      2  C   UNL     1     169.573 145.013 151.289  1.00  0.00     0.000 C 
BRANCH   2   3
ATOM      3  C   UNL     1     169.537 146.121 152.354  1.00  0.00     0.000 C 
BRANCH   3   4
ATOM      4  C   UNL     1     168.605 145.776 153.530  1.00  0.00     0.000 C 
BRANCH   4   5
ATOM      5  C   UNL     1     167.990 144.374 153.404  1.00  0.00     0.000 C 
BRANCH   5   6
ATOM      6  C   UNL     1     168.348 143.463 154.588  1.00  0.00     0.000 C 
BRANCH   6   7
ATOM      7  C   UNL     1     168.224 144.216 155.917  1.00  0.00     0.006 C 
BRANCH   7   8
ATOM      8  C   UNL     1     169.520 144.120 156.726  1.00  0.00     0.053 C 
BRANCH   8   9
ATOM      9  C   UNL     1     169.224 143.798 158.157  1.00  0.00     0.041 C 
ATOM     10  O   UNL     1     168.271 143.030 158.449  1.00  0.00    -0.550 OA
ATOM     11  O   UNL     1     170.034 144.307 159.165  1.00  0.00    -0.550 OA
ENDBRANCH   8   9
ENDBRANCH   7   8
ENDBRANCH   6   7
ENDBRANCH   5   6
ENDBRANCH   4   5
ENDBRANCH   3   4
ENDBRANCH   2   3
ENDBRANCH   1   2
BRANCH   1  12
ATOM     12  C   UNL     1     170.200 144.589 148.838  1.00  0.00     0.000 C 
BRANCH  12  13
ATOM     13  C   UNL     1     171.111 143.394 148.501  1.00  0.00    -0.000 C 
BRANCH  13  14
ATOM     14  C   UNL     1     170.495 142.041 148.891  1.00  0.00    -0.000 C 
BRANCH  14  15
ATOM     15  C   UNL     1     171.131 141.442 150.157  1.00  0.00    -0.000 C 
BRANCH  15  16
ATOM     16  C   UNL     1     170.211 141.497 151.397  1.00  0.00    -0.000 C 
BRANCH  16  17
ATOM     17  C   UNL     1     171.011 141.634 152.706  1.00  0.00    -0.000 C 
BRANCH  17  18
ATOM     18  C   UNL     1     172.107 142.718 152.613  1.00  0.00    -0.000 C 
BRANCH  18  19
ATOM     19  C   UNL     1     172.047 143.753 153.747  1.00  0.00    -0.003 C 
ATOM     20  C   UNL     1     173.032 144.905 153.558  1.00  0.00     0.004 C 
ENDBRANCH  18  19
ENDBRANCH  17  18
ENDBRANCH  16  17
ENDBRANCH  15  16
ENDBRANCH  14  15
ENDBRANCH  13  14
ENDBRANCH  12  13
ENDBRANCH   1  12
TORSDOF 16
ENDMDL
MODEL 3
REMARK VINA RESULT:    -5.199      4.176      7.377
REMARK INTER + INTRA:         -11.173
REMARK INTER:                  -8.452
REMARK INTRA:                  -2.721
REMARK UNBOUND:                -1.112
REMARK SMILES CCCCCCCCCCCCCCCCCC(=O)[O-]
REMARK SMILES IDX 10 1 11 2 12 3 13 4 14 5 15 6 16 7 17 8 18 9 19 10 20 11
REMARK SMILES IDX 9 12 8 13 7 14 6 15 5 16 4 17 3 18 2 19 1 20
REMARK H PARENT
REMARK Flexibility Score: inf
ROOT
ATOM      1  C   UNL     1     171.231 144.885 152.160  1.00  0.00     0.000 C 
ENDROOT
BRANCH   1   2
ATOM      2  C   UNL     1     171.265 143.348 152.106  1.00  0.00     0.000 C 
BRANCH   2   3
ATOM      3  C   UNL     1     172.499 142.812 151.362  1.00  0.00     0.000 C 
BRANCH   3   4
ATOM      4  C   UNL     1     172.141 142.181 150.005  1.00  0.00     0.000 C 
BRANCH   4   5
ATOM      5  C   UNL     1     170.624 142.044 149.800  1.00  0.00     0.000 C 
BRANCH   5   6
ATOM      6  C   UNL     1     170.149 142.656 148.473  1.00  0.00     0.000 C 
BRANCH   6   7
ATOM      7  C   UNL     1     169.769 144.129 148.653  1.00  0.00     0.006 C 
BRANCH   7   8
ATOM      8  C   UNL     1     170.325 144.984 147.511  1.00  0.00     0.053 C 
BRANCH   8   9
ATOM      9  C   UNL     1     171.565 145.700 147.945  1.00  0.00     0.041 C 
ATOM     10  O   UNL     1     172.605 145.650 147.239  1.00  0.00    -0.550 OA
ATOM     11  O   UNL     1     171.556 146.464 149.106  1.00  0.00    -0.550 OA
ENDBRANCH   8   9
ENDBRANCH   7   8
ENDBRANCH   6   7
ENDBRANCH   5   6
ENDBRANCH   4   5
ENDBRANCH   3   4
ENDBRANCH   2   3
ENDBRANCH   1   2
BRANCH   1  12
ATOM     12  C   UNL     1     169.805 145.457 152.056  1.00  0.00     0.000 C 
BRANCH  12  13
ATOM     13  C   UNL     1     168.678 144.478 152.435  1.00  0.00    -0.000 C 
BRANCH  13  14
ATOM     14  C   UNL     1     167.768 145.014 153.551  1.00  0.00    -0.000 C 
BRANCH  14  15
ATOM     15  C   UNL     1     167.636 144.036 154.732  1.00  0.00    -0.000 C 
BRANCH  15  16
ATOM     16  C   UNL     1     168.635 142.861 154.677  1.00  0.00    -0.000 C 
BRANCH  16  17
ATOM     17  C   UNL     1     169.827 143.068 155.629  1.00  0.00    -0.000 C 
BRANCH  17  18
ATOM     18  C   UNL     1     169.672 144.339 156.492  1.00  0.00    -0.000 C 
BRANCH  18  19
ATOM     19  C   UNL     1     170.809 145.356 156.302  1.00  0.00    -0.003 C 
ATOM     20  C   UNL     1     170.343 146.662 155.662  1.00  0.00     0.004 C 
ENDBRANCH  18  19
ENDBRANCH  17  18
ENDBRANCH  16  17
ENDBRANCH  15  16
ENDBRANCH  14  15
ENDBRANCH  13  14
ENDBRANCH  12  13
ENDBRANCH   1  12
TORSDOF 16
ENDMDL
MODEL 4
REMARK VINA RESULT:    -5.121      4.382      6.922
REMARK INTER + INTRA:         -11.022
REMARK INTER:                  -8.018
REMARK INTRA:                  -3.004
REMARK UNBOUND:                -1.112
REMARK SMILES CCCCCCCCCCCCCCCCCC(=O)[O-]
REMARK SMILES IDX 10 1 11 2 12 3 13 4 14 5 15 6 16 7 17 8 18 9 19 10 20 11
REMARK SMILES IDX 9 12 8 13 7 14 6 15 5 16 4 17 3 18 2 19 1 20
REMARK H PARENT
REMARK Flexibility Score: inf
ROOT
ATOM      1  C   UNL     1     168.649 143.234 154.135  1.00  0.00     0.000 C 
ENDROOT
BRANCH   1   2
ATOM      2  C   UNL     1     168.087 144.361 153.253  1.00  0.00     0.000 C 
BRANCH   2   3
ATOM      3  C   UNL     1     168.470 145.758 153.768  1.00  0.00     0.000 C 
BRANCH   3   4
ATOM      4  C   UNL     1     168.861 145.749 155.257  1.00  0.00     0.000 C 
BRANCH   4   5
ATOM      5  C   UNL     1     170.178 146.494 155.526  1.00  0.00     0.000 C 
BRANCH   5   6
ATOM      6  C   UNL     1     171.261 145.584 156.123  1.00  0.00     0.000 C 
BRANCH   6   7
ATOM      7  C   UNL     1     170.856 145.089 157.515  1.00  0.00     0.006 C 
BRANCH   7   8
ATOM      8  C   UNL     1     170.927 143.562 157.598  1.00  0.00     0.053 C 
BRANCH   8   9
ATOM      9  C   UNL     1     169.557 142.980 157.758  1.00  0.00     0.041 C 
ATOM     10  O   UNL     1     168.640 143.657 158.293  1.00  0.00    -0.550 OA
ATOM     11  O   UNL     1     169.281 141.709 157.270  1.00  0.00    -0.550 OA
ENDBRANCH   8   9
ENDBRANCH   7   8
ENDBRANCH   6   7
ENDBRANCH   5   6
ENDBRANCH   4   5
ENDBRANCH   3   4
ENDBRANCH   2   3
ENDBRANCH   1   2
BRANCH   1  12
ATOM     12  C   UNL     1     169.735 142.403 153.427  1.00  0.00     0.000 C 
BRANCH  12  13
ATOM     13  C   UNL     1     171.157 142.563 153.997  1.00  0.00    -0.000 C 
BRANCH  13  14
ATOM     14  C   UNL     1     172.053 143.461 153.130  1.00  0.00    -0.000 C 
BRANCH  14  15
ATOM     15  C   UNL     1     173.083 142.661 152.313  1.00  0.00    -0.000 C 
BRANCH  15  16
ATOM     16  C   UNL     1     172.520 142.097 150.990  1.00  0.00    -0.000 C 
BRANCH  16  17
ATOM     17  C   UNL     1     171.955 143.205 150.082  1.00  0.00    -0.000 C 
BRANCH  17  18
ATOM     18  C   UNL     1     170.434 143.061 149.860  1.00  0.00    -0.000 C 
BRANCH  18  19
ATOM     19  C   UNL     1     169.674 144.396 149.914  1.00  0.00    -0.003 C 
ATOM     20  C   UNL     1     170.463 145.507 150.606  1.00  0.00     0.004 C 
ENDBRANCH  18  19
ENDBRANCH  17  18
ENDBRANCH  16  17
ENDBRANCH  15  16
ENDBRANCH  14  15
ENDBRANCH  13  14
ENDBRANCH  12  13
ENDBRANCH   1  12
TORSDOF 16
ENDMDL
MODEL 5
REMARK VINA RESULT:    -5.103      4.594      7.099
REMARK INTER + INTRA:         -10.988
REMARK INTER:                  -8.067
REMARK INTRA:                  -2.921
REMARK UNBOUND:                -1.112
REMARK SMILES CCCCCCCCCCCCCCCCCC(=O)[O-]
REMARK SMILES IDX 10 1 11 2 12 3 13 4 14 5 15 6 16 7 17 8 18 9 19 10 20 11
REMARK SMILES IDX 9 12 8 13 7 14 6 15 5 16 4 17 3 18 2 19 1 20
REMARK H PARENT
REMARK Flexibility Score: inf
ROOT
ATOM      1  C   UNL     1     168.937 145.846 153.376  1.00  0.00     0.000 C 
ENDROOT
BRANCH   1   2
ATOM      2  C   UNL     1     168.146 144.526 153.373  1.00  0.00     0.000 C 
BRANCH   2   3
ATOM      3  C   UNL     1     167.710 144.098 154.783  1.00  0.00     0.000 C 
BRANCH   3   4
ATOM      4  C   UNL     1     168.302 142.738 155.194  1.00  0.00     0.000 C 
BRANCH   4   5
ATOM      5  C   UNL     1     168.423 142.584 156.719  1.00  0.00     0.000 C 
BRANCH   5   6
ATOM      6  C   UNL     1     169.819 142.953 157.241  1.00  0.00     0.000 C 
BRANCH   6   7
ATOM      7  C   UNL     1     169.755 144.181 158.156  1.00  0.00     0.006 C 
BRANCH   7   8
ATOM      8  C   UNL     1     170.992 145.065 157.977  1.00  0.00     0.053 C 
BRANCH   8   9
ATOM      9  C   UNL     1     171.268 145.842 159.226  1.00  0.00     0.041 C 
ATOM     10  O   UNL     1     171.507 147.076 159.164  1.00  0.00    -0.550 OA
ATOM     11  O   UNL     1     171.211 145.211 160.463  1.00  0.00    -0.550 OA
ENDBRANCH   8   9
ENDBRANCH   7   8
ENDBRANCH   6   7
ENDBRANCH   5   6
ENDBRANCH   4   5
ENDBRANCH   3   4
ENDBRANCH   2   3
ENDBRANCH   1   2
BRANCH   1  12
ATOM     12  C   UNL     1     170.135 145.823 154.344  1.00  0.00     0.000 C 
BRANCH  12  13
ATOM     13  C   UNL     1     171.430 145.220 153.769  1.00  0.00    -0.000 C 
BRANCH  13  14
ATOM     14  C   UNL     1     171.718 143.805 154.295  1.00  0.00    -0.000 C 
BRANCH  14  15
ATOM     15  C   UNL     1     171.606 142.730 153.199  1.00  0.00    -0.000 C 
BRANCH  15  16
ATOM     16  C   UNL     1     172.627 142.905 152.054  1.00  0.00    -0.000 C 
BRANCH  16  17
ATOM     17  C   UNL     1     171.949 142.930 150.672  1.00  0.00    -0.000 C 
BRANCH  17  18
ATOM     18  C   UNL     1     170.415 143.062 150.775  1.00  0.00    -0.000 C 
BRANCH  18  19
ATOM     19  C   UNL     1     169.861 144.340 150.124  1.00  0.00    -0.003 C 
ATOM     20  C   UNL     1     170.862 145.494 150.124  1.00  0.00     0.004 C 
ENDBRANCH  18  19
ENDBRANCH  17  18
ENDBRANCH  16  17
ENDBRANCH  15  16
ENDBRANCH  14  15
ENDBRANCH  13  14
ENDBRANCH  12  13
ENDBRANCH   1  12
TORSDOF 16
ENDMDL
MODEL 6
REMARK VINA RESULT:    -5.096      4.671      6.967
REMARK INTER + INTRA:         -10.974
REMARK INTER:                  -7.962
REMARK INTRA:                  -3.012
REMARK UNBOUND:                -1.112
REMARK SMILES CCCCCCCCCCCCCCCCCC(=O)[O-]
REMARK SMILES IDX 10 1 11 2 12 3 13 4 14 5 15 6 16 7 17 8 18 9 19 10 20 11
REMARK SMILES IDX 9 12 8 13 7 14 6 15 5 16 4 17 3 18 2 19 1 20
REMARK H PARENT
REMARK Flexibility Score: inf
ROOT
ATOM      1  C   UNL     1     169.657 146.133 152.285  1.00  0.00     0.000 C 
ENDROOT
BRANCH   1   2
ATOM      2  C   UNL     1     168.669 145.772 153.409  1.00  0.00     0.000 C 
BRANCH   2   3
ATOM      3  C   UNL     1     168.082 144.361 153.245  1.00  0.00     0.000 C 
BRANCH   3   4
ATOM      4  C   UNL     1     168.166 143.535 154.541  1.00  0.00     0.000 C 
BRANCH   4   5
ATOM      5  C   UNL     1     168.138 144.412 155.803  1.00  0.00     0.000 C 
BRANCH   5   6
ATOM      6  C   UNL     1     169.353 144.177 156.713  1.00  0.00     0.000 C 
BRANCH   6   7
ATOM      7  C   UNL     1     170.439 145.228 156.460  1.00  0.00     0.006 C 
BRANCH   7   8
ATOM      8  C   UNL     1     171.802 144.740 156.957  1.00  0.00     0.053 C 
BRANCH   8   9
ATOM      9  C   UNL     1     172.431 145.760 157.853  1.00  0.00     0.041 C 
ATOM     10  O   UNL     1     173.684 145.824 157.958  1.00  0.00    -0.550 OA
ATOM     11  O   UNL     1     171.635 146.675 158.531  1.00  0.00    -0.550 OA
ENDBRANCH   8   9
ENDBRANCH   7   8
ENDBRANCH   6   7
ENDBRANCH   5   6
ENDBRANCH   4   5
ENDBRANCH   3   4
ENDBRANCH   2   3
ENDBRANCH   1   2
BRANCH   1  12
ATOM     12  C   UNL     1     169.718 145.067 151.176  1.00  0.00     0.000 C 
BRANCH  12  13
ATOM     13  C   UNL     1     170.908 145.198 150.208  1.00  0.00    -0.000 C 
BRANCH  13  14
ATOM     14  C   UNL     1     171.289 143.867 149.542  1.00  0.00    -0.000 C 
BRANCH  14  15
ATOM     15  C   UNL     1     170.608 142.655 150.202  1.00  0.00    -0.000 C 
BRANCH  15  16
ATOM     16  C   UNL     1     171.504 141.922 151.224  1.00  0.00    -0.000 C 
BRANCH  16  17
ATOM     17  C   UNL     1     170.889 141.915 152.635  1.00  0.00    -0.000 C 
BRANCH  17  18
ATOM     18  C   UNL     1     171.694 142.782 153.628  1.00  0.00    -0.000 C 
BRANCH  18  19
ATOM     19  C   UNL     1     172.922 143.458 153.001  1.00  0.00    -0.003 C 
ATOM     20  C   UNL     1     173.056 144.931 153.383  1.00  0.00     0.004 C 
ENDBRANCH  18  19
ENDBRANCH  17  18
ENDBRANCH  16  17
ENDBRANCH  15  16
ENDBRANCH  14  15
ENDBRANCH  13  14
ENDBRANCH  12  13
ENDBRANCH   1  12
TORSDOF 16
ENDMDL
MODEL 7
REMARK VINA RESULT:    -5.091      4.204      6.581
REMARK INTER + INTRA:         -10.965
REMARK INTER:                  -8.100
REMARK INTRA:                  -2.865
REMARK UNBOUND:                -1.112
REMARK SMILES CCCCCCCCCCCCCCCCCC(=O)[O-]
REMARK SMILES IDX 10 1 11 2 12 3 13 4 14 5 15 6 16 7 17 8 18 9 19 10 20 11
REMARK SMILES IDX 9 12 8 13 7 14 6 15 5 16 4 17 3 18 2 19 1 20
REMARK H PARENT
REMARK Flexibility Score: inf
ROOT
ATOM      1  C   UNL     1     168.907 144.636 152.364  1.00  0.00     0.000 C 
ENDROOT
BRANCH   1   2
ATOM      2  C   UNL     1     168.070 145.294 153.474  1.00  0.00     0.000 C 
BRANCH   2   3
ATOM      3  C   UNL     1     167.562 144.277 154.509  1.00  0.00     0.000 C 
BRANCH   3   4
ATOM      4  C   UNL     1     168.409 142.992 154.536  1.00  0.00     0.000 C 
BRANCH   4   5
ATOM      5  C   UNL     1     168.832 142.594 155.959  1.00  0.00     0.000 C 
BRANCH   5   6
ATOM      6  C   UNL     1     170.337 142.312 156.070  1.00  0.00     0.000 C 
BRANCH   6   7
ATOM      7  C   UNL     1     171.158 143.535 155.647  1.00  0.00     0.006 C 
BRANCH   7   8
ATOM      8  C   UNL     1     170.797 144.759 156.494  1.00  0.00     0.053 C 
BRANCH   8   9
ATOM      9  C   UNL     1     170.974 146.016 155.702  1.00  0.00     0.041 C 
ATOM     10  O   UNL     1     170.176 146.977 155.853  1.00  0.00    -0.550 OA
ATOM     11  O   UNL     1     172.051 146.145 154.834  1.00  0.00    -0.550 OA
ENDBRANCH   8   9
ENDBRANCH   7   8
ENDBRANCH   6   7
ENDBRANCH   5   6
ENDBRANCH   4   5
ENDBRANCH   3   4
ENDBRANCH   2   3
ENDBRANCH   1   2
BRANCH   1  12
ATOM     12  C   UNL     1     170.135 145.474 151.963  1.00  0.00     0.000 C 
BRANCH  12  13
ATOM     13  C   UNL     1     170.533 145.384 150.477  1.00  0.00    -0.000 C 
BRANCH  13  14
ATOM     14  C   UNL     1     169.768 144.289 149.717  1.00  0.00    -0.000 C 
BRANCH  14  15
ATOM     15  C   UNL     1     170.581 143.694 148.554  1.00  0.00    -0.000 C 
BRANCH  15  16
ATOM     16  C   UNL     1     171.993 143.221 148.965  1.00  0.00    -0.000 C 
BRANCH  16  17
ATOM     17  C   UNL     1     171.945 141.989 149.888  1.00  0.00    -0.000 C 
BRANCH  17  18
ATOM     18  C   UNL     1     172.382 142.321 151.331  1.00  0.00    -0.000 C 
BRANCH  18  19
ATOM     19  C   UNL     1     171.523 141.639 152.407  1.00  0.00    -0.003 C 
ATOM     20  C   UNL     1     170.181 141.138 151.874  1.00  0.00     0.004 C 
ENDBRANCH  18  19
ENDBRANCH  17  18
ENDBRANCH  16  17
ENDBRANCH  15  16
ENDBRANCH  14  15
ENDBRANCH  13  14
ENDBRANCH  12  13
ENDBRANCH   1  12
TORSDOF 16
ENDMDL
MODEL 8
REMARK VINA RESULT:    -5.057      4.625      6.340
REMARK INTER + INTRA:         -10.899
REMARK INTER:                  -8.084
REMARK INTRA:                  -2.815
REMARK UNBOUND:                -1.112
REMARK SMILES CCCCCCCCCCCCCCCCCC(=O)[O-]
REMARK SMILES IDX 10 1 11 2 12 3 13 4 14 5 15 6 16 7 17 8 18 9 19 10 20 11
REMARK SMILES IDX 9 12 8 13 7 14 6 15 5 16 4 17 3 18 2 19 1 20
REMARK H PARENT
REMARK Flexibility Score: inf
ROOT
ATOM      1  C   UNL     1     171.981 142.134 152.563  1.00  0.00     0.000 C 
ENDROOT
BRANCH   1   2
ATOM      2  C   UNL     1     173.390 142.702 152.317  1.00  0.00     0.000 C 
BRANCH   2   3
ATOM      3  C   UNL     1     173.823 143.693 153.410  1.00  0.00     0.000 C 
BRANCH   3   4
ATOM      4  C   UNL     1     172.970 144.974 153.415  1.00  0.00     0.000 C 
BRANCH   4   5
ATOM      5  C   UNL     1     172.782 145.553 154.826  1.00  0.00     0.000 C 
BRANCH   5   6
ATOM      6  C   UNL     1     171.994 144.613 155.750  1.00  0.00     0.000 C 
BRANCH   6   7
ATOM      7  C   UNL     1     170.851 145.360 156.446  1.00  0.00     0.006 C 
BRANCH   7   8
ATOM      8  C   UNL     1     170.789 145.005 157.935  1.00  0.00     0.053 C 
BRANCH   8   9
ATOM      9  C   UNL     1     170.028 143.734 158.140  1.00  0.00     0.041 C 
ATOM     10  O   UNL     1     170.642 142.643 158.275  1.00  0.00    -0.550 OA
ATOM     11  O   UNL     1     168.642 143.761 158.234  1.00  0.00    -0.550 OA
ENDBRANCH   8   9
ENDBRANCH   7   8
ENDBRANCH   6   7
ENDBRANCH   5   6
ENDBRANCH   4   5
ENDBRANCH   3   4
ENDBRANCH   2   3
ENDBRANCH   1   2
BRANCH   1  12
ATOM     12  C   UNL     1     171.049 142.299 151.348  1.00  0.00     0.000 C 
BRANCH  12  13
ATOM     13  C   UNL     1     171.470 143.387 150.343  1.00  0.00    -0.000 C 
BRANCH  13  14
ATOM     14  C   UNL     1     170.351 144.400 150.053  1.00  0.00    -0.000 C 
BRANCH  14  15
ATOM     15  C   UNL     1     169.387 144.577 151.239  1.00  0.00    -0.000 C 
BRANCH  15  16
ATOM     16  C   UNL     1     169.701 145.811 152.114  1.00  0.00    -0.000 C 
BRANCH  16  17
ATOM     17  C   UNL     1     168.882 145.820 153.417  1.00  0.00    -0.000 C 
BRANCH  17  18
ATOM     18  C   UNL     1     167.829 144.692 153.455  1.00  0.00    -0.000 C 
BRANCH  18  19
ATOM     19  C   UNL     1     167.896 143.829 154.725  1.00  0.00    -0.003 C 
ATOM     20  C   UNL     1     168.977 142.752 154.661  1.00  0.00     0.004 C 
ENDBRANCH  18  19
ENDBRANCH  17  18
ENDBRANCH  16  17
ENDBRANCH  15  16
ENDBRANCH  14  15
ENDBRANCH  13  14
ENDBRANCH  12  13
ENDBRANCH   1  12
TORSDOF 16
ENDMDL
MODEL 9
REMARK VINA RESULT:    -5.046      4.343      8.388
REMARK INTER + INTRA:         -10.878
REMARK INTER:                  -8.184
REMARK INTRA:                  -2.694
REMARK UNBOUND:                -1.112
REMARK SMILES CCCCCCCCCCCCCCCCCC(=O)[O-]
REMARK SMILES IDX 10 1 11 2 12 3 13 4 14 5 15 6 16 7 17 8 18 9 19 10 20 11
REMARK SMILES IDX 9 12 8 13 7 14 6 15 5 16 4 17 3 18 2 19 1 20
REMARK H PARENT
REMARK Flexibility Score: inf
ROOT
ATOM      1  C   UNL     1     167.961 143.954 154.688  1.00  0.00     0.000 C 
ENDROOT
BRANCH   1   2
ATOM      2  C   UNL     1     167.847 144.725 153.362  1.00  0.00     0.000 C 
BRANCH   2   3
ATOM      3  C   UNL     1     169.007 144.417 152.401  1.00  0.00     0.000 C 
BRANCH   3   4
ATOM      4  C   UNL     1     169.673 145.693 151.855  1.00  0.00     0.000 C 
BRANCH   4   5
ATOM      5  C   UNL     1     170.511 145.428 150.594  1.00  0.00     0.000 C 
BRANCH   5   6
ATOM      6  C   UNL     1     169.751 144.612 149.539  1.00  0.00     0.000 C 
BRANCH   6   7
ATOM      7  C   UNL     1     170.696 144.127 148.435  1.00  0.00     0.006 C 
BRANCH   7   8
ATOM      8  C   UNL     1     170.181 144.536 147.052  1.00  0.00     0.053 C 
BRANCH   8   9
ATOM      9  C   UNL     1     170.660 145.909 146.698  1.00  0.00     0.041 C 
ATOM     10  O   UNL     1     169.913 146.695 146.060  1.00  0.00    -0.550 OA
ATOM     11  O   UNL     1     171.913 146.338 147.119  1.00  0.00    -0.550 OA
ENDBRANCH   8   9
ENDBRANCH   7   8
ENDBRANCH   6   7
ENDBRANCH   5   6
ENDBRANCH   4   5
ENDBRANCH   3   4
ENDBRANCH   2   3
ENDBRANCH   1   2
BRANCH   1  12
ATOM     12  C   UNL     1     168.451 144.834 155.852  1.00  0.00     0.000 C 
BRANCH  12  13
ATOM     13  C   UNL     1     169.979 144.871 156.046  1.00  0.00    -0.000 C 
BRANCH  13  14
ATOM     14  C   UNL     1     170.635 146.104 155.405  1.00  0.00    -0.000 C 
BRANCH  14  15
ATOM     15  C   UNL     1     172.000 145.786 154.769  1.00  0.00    -0.000 C 
BRANCH  15  16
ATOM     16  C   UNL     1     172.284 144.274 154.636  1.00  0.00    -0.000 C 
BRANCH  16  17
ATOM     17  C   UNL     1     172.629 143.874 153.190  1.00  0.00    -0.000 C 
BRANCH  17  18
ATOM     18  C   UNL     1     172.071 142.483 152.818  1.00  0.00    -0.000 C 
BRANCH  18  19
ATOM     19  C   UNL     1     172.109 142.187 151.311  1.00  0.00    -0.003 C 
ATOM     20  C   UNL     1     170.990 141.251 150.856  1.00  0.00     0.004 C 
ENDBRANCH  18  19
ENDBRANCH  17  18
ENDBRANCH  16  17
ENDBRANCH  15  16
ENDBRANCH  14  15
ENDBRANCH  13  14
ENDBRANCH  12  13
ENDBRANCH   1  12
TORSDOF 16
ENDMDL
