MODEL 1
REMARK VINA RESULT:    -2.742      0.000      0.000
REMARK INTER + INTRA:          -5.234
REMARK INTER:                  -4.987
REMARK INTRA:                  -0.248
REMARK UNBOUND:                -0.248
REMARK SMILES CCCCCCCCCCCCCCCC(=O)[O-]
REMARK SMILES IDX 9 1 10 2 11 3 12 4 13 5 14 6 15 7 16 8 17 9 18 10 8 11 7 12
REMARK SMILES IDX 6 13 5 14 4 15 3 16 2 17 1 18
REMARK H PARENT
REMARK Flexibility Score: inf
ROOT
ATOM      1  C   UNL     1       2.384 -37.877  19.191  1.00  0.00     0.000 C 
ENDROOT
BRANCH   1   2
ATOM      2  C   UNL     1       3.806 -37.341  18.948  1.00  0.00     0.000 C 
BRANCH   2   3
ATOM      3  C   UNL     1       3.885 -35.811  19.063  1.00  0.00     0.000 C 
BRANCH   3   4
ATOM      4  C   UNL     1       4.908 -35.352  20.118  1.00  0.00     0.000 C 
BRANCH   4   5
ATOM      5  C   UNL     1       4.325 -35.328  21.543  1.00  0.00     0.000 C 
BRANCH   5   6
ATOM      6  C   UNL     1       5.117 -36.146  22.580  1.00  0.00     0.006 C 
BRANCH   6   7
ATOM      7  C   UNL     1       5.106 -37.652  22.287  1.00  0.00     0.053 C 
BRANCH   7   8
ATOM      8  C   UNL     1       4.981 -38.431  23.558  1.00  0.00     0.041 C 
ATOM      9  O   UNL     1       5.031 -37.842  24.670  1.00  0.00    -0.550 OA
ATOM     10  O   UNL     1       4.759 -39.802  23.515  1.00  0.00    -0.550 OA
ENDBRANCH   7   8
ENDBRANCH   6   7
ENDBRANCH   5   6
ENDBRANCH   4   5
ENDBRANCH   3   4
ENDBRANCH   2   3
ENDBRANCH   1   2
BRANCH   1  11
ATOM     11  C   UNL     1       1.340 -37.229  18.265  1.00  0.00     0.000 C 
BRANCH  11  12
ATOM     12  C   UNL     1       1.752 -37.284  16.784  1.00  0.00    -0.000 C 
BRANCH  12  13
ATOM     13  C   UNL     1       2.040 -35.892  16.199  1.00  0.00    -0.000 C 
BRANCH  13  14
ATOM     14  C   UNL     1       1.784 -35.819  14.686  1.00  0.00    -0.000 C 
BRANCH  14  15
ATOM     15  C   UNL     1       2.958 -36.417  13.902  1.00  0.00    -0.000 C 
BRANCH  15  16
ATOM     16  C   UNL     1       3.834 -37.295  14.804  1.00  0.00    -0.000 C 
BRANCH  16  17
ATOM     17  C   UNL     1       4.863 -38.076  13.980  1.00  0.00    -0.003 C 
ATOM     18  C   UNL     1       4.727 -39.579  14.210  1.00  0.00     0.004 C 
ENDBRANCH  16  17
ENDBRANCH  15  16
ENDBRANCH  14  15
ENDBRANCH  13  14
ENDBRANCH  12  13
ENDBRANCH  11  12
ENDBRANCH   1  11
TORSDOF 14
ENDMDL
MODEL 2
REMARK VINA RESULT:    -1.540      2.218      3.209
REMARK INTER + INTRA:          -3.048
REMARK INTER:                  -2.217
REMARK INTRA:                  -0.832
REMARK UNBOUND:                -0.248
REMARK SMILES CCCCCCCCCCCCCCCC(=O)[O-]
REMARK SMILES IDX 9 1 10 2 11 3 12 4 13 5 14 6 15 7 16 8 17 9 18 10 8 11 7 12
REMARK SMILES IDX 6 13 5 14 4 15 3 16 2 17 1 18
REMARK H PARENT
REMARK Flexibility Score: inf
ROOT
ATOM      1  C   UNL     1       4.118 -37.982  20.512  1.00  0.00     0.000 C 
ENDROOT
BRANCH   1   2
ATOM      2  C   UNL     1       4.749 -37.629  21.871  1.00  0.00     0.000 C 
BRANCH   2   3
ATOM      3  C   UNL     1       5.017 -36.124  22.021  1.00  0.00     0.000 C 
BRANCH   3   4
ATOM      4  C   UNL     1       5.124 -35.689  23.493  1.00  0.00     0.000 C 
BRANCH   4   5
ATOM      5  C   UNL     1       5.120 -36.878  24.470  1.00  0.00     0.000 C 
BRANCH   5   6
ATOM      6  C   UNL     1       4.648 -36.543  25.897  1.00  0.00     0.006 C 
BRANCH   6   7
ATOM      7  C   UNL     1       3.909 -37.706  26.571  1.00  0.00     0.053 C 
BRANCH   7   8
ATOM      8  C   UNL     1       2.562 -37.263  27.047  1.00  0.00     0.041 C 
ATOM      9  O   UNL     1       1.598 -38.074  27.068  1.00  0.00    -0.550 OA
ATOM     10  O   UNL     1       2.381 -35.968  27.517  1.00  0.00    -0.550 OA
ENDBRANCH   7   8
ENDBRANCH   6   7
ENDBRANCH   5   6
ENDBRANCH   4   5
ENDBRANCH   3   4
ENDBRANCH   2   3
ENDBRANCH   1   2
BRANCH   1  11
ATOM     11  C   UNL     1       3.866 -36.743  19.636  1.00  0.00     0.000 C 
BRANCH  11  12
ATOM     12  C   UNL     1       3.485 -37.110  18.192  1.00  0.00    -0.000 C 
BRANCH  12  13
ATOM     13  C   UNL     1       1.964 -37.114  17.965  1.00  0.00    -0.000 C 
BRANCH  13  14
ATOM     14  C   UNL     1       1.578 -36.770  16.519  1.00  0.00    -0.000 C 
BRANCH  14  15
ATOM     15  C   UNL     1       2.691 -35.971  15.830  1.00  0.00    -0.000 C 
BRANCH  15  16
ATOM     16  C   UNL     1       2.705 -36.234  14.319  1.00  0.00    -0.000 C 
BRANCH  16  17
ATOM     17  C   UNL     1       3.999 -36.936  13.895  1.00  0.00    -0.003 C 
ATOM     18  C   UNL     1       4.145 -38.289  14.587  1.00  0.00     0.004 C 
ENDBRANCH  16  17
ENDBRANCH  15  16
ENDBRANCH  14  15
ENDBRANCH  13  14
ENDBRANCH  12  13
ENDBRANCH  11  12
ENDBRANCH   1  11
TORSDOF 14
ENDMDL
MODEL 3
REMARK VINA RESULT:    -1.522      1.572      3.660
REMARK INTER + INTRA:          -3.016
REMARK INTER:                  -2.946
REMARK INTRA:                  -0.070
REMARK UNBOUND:                -0.248
REMARK SMILES CCCCCCCCCCCCCCCC(=O)[O-]
REMARK SMILES IDX 9 1 10 2 11 3 12 4 13 5 14 6 15 7 16 8 17 9 18 10 8 11 7 12
REMARK SMILES IDX 6 13 5 14 4 15 3 16 2 17 1 18
REMARK H PARENT
REMARK Flexibility Score: inf
ROOT
ATOM      1  C   UNL     1       4.153 -35.626  21.550  1.00  0.00     0.000 C 
ENDROOT
BRANCH   1   2
ATOM      2  C   UNL     1       4.848 -35.233  22.867  1.00  0.00     0.000 C 
BRANCH   2   3
ATOM      3  C   UNL     1       5.075 -36.438  23.792  1.00  0.00     0.000 C 
BRANCH   3   4
ATOM      4  C   UNL     1       4.980 -36.063  25.282  1.00  0.00     0.000 C 
BRANCH   4   5
ATOM      5  C   UNL     1       5.083 -37.284  26.214  1.00  0.00     0.000 C 
BRANCH   5   6
ATOM      6  C   UNL     1       4.294 -38.521  25.749  1.00  0.00     0.006 C 
BRANCH   6   7
ATOM      7  C   UNL     1       5.123 -39.460  24.863  1.00  0.00     0.053 C 
BRANCH   7   8
ATOM      8  C   UNL     1       4.537 -39.536  23.489  1.00  0.00     0.041 C 
ATOM      9  O   UNL     1       3.542 -38.826  23.184  1.00  0.00    -0.550 OA
ATOM     10  O   UNL     1       5.121 -40.352  22.528  1.00  0.00    -0.550 OA
ENDBRANCH   7   8
ENDBRANCH   6   7
ENDBRANCH   5   6
ENDBRANCH   4   5
ENDBRANCH   3   4
ENDBRANCH   2   3
ENDBRANCH   1   2
BRANCH   1  11
ATOM     11  C   UNL     1       4.746 -36.900  20.924  1.00  0.00     0.000 C 
BRANCH  11  12
ATOM     12  C   UNL     1       4.951 -36.769  19.405  1.00  0.00    -0.000 C 
BRANCH  12  13
ATOM     13  C   UNL     1       4.693 -35.342  18.895  1.00  0.00    -0.000 C 
BRANCH  13  14
ATOM     14  C   UNL     1       3.911 -35.316  17.573  1.00  0.00    -0.000 C 
BRANCH  14  15
ATOM     15  C   UNL     1       2.664 -36.205  17.656  1.00  0.00    -0.000 C 
BRANCH  15  16
ATOM     16  C   UNL     1       2.532 -37.087  16.408  1.00  0.00    -0.000 C 
BRANCH  16  17
ATOM     17  C   UNL     1       3.207 -36.433  15.198  1.00  0.00    -0.003 C 
ATOM     18  C   UNL     1       4.090 -37.430  14.453  1.00  0.00     0.004 C 
ENDBRANCH  16  17
ENDBRANCH  15  16
ENDBRANCH  14  15
ENDBRANCH  13  14
ENDBRANCH  12  13
ENDBRANCH  11  12
ENDBRANCH   1  11
TORSDOF 14
ENDMDL
MODEL 4
REMARK VINA RESULT:    -1.144      1.615      3.665
REMARK INTER + INTRA:          -2.328
REMARK INTER:                  -2.408
REMARK INTRA:                   0.080
REMARK UNBOUND:                -0.248
REMARK SMILES CCCCCCCCCCCCCCCC(=O)[O-]
REMARK SMILES IDX 9 1 10 2 11 3 12 4 13 5 14 6 15 7 16 8 17 9 18 10 8 11 7 12
REMARK SMILES IDX 6 13 5 14 4 15 3 16 2 17 1 18
REMARK H PARENT
REMARK Flexibility Score: inf
ROOT
ATOM      1  C   UNL     1       4.190 -35.591  22.263  1.00  0.00     0.000 C 
ENDROOT
BRANCH   1   2
ATOM      2  C   UNL     1       5.124 -36.806  22.121  1.00  0.00     0.000 C 
BRANCH   2   3
ATOM      3  C   UNL     1       4.480 -37.952  21.325  1.00  0.00     0.000 C 
BRANCH   3   4
ATOM      4  C   UNL     1       5.125 -39.316  21.630  1.00  0.00     0.000 C 
BRANCH   4   5
ATOM      5  C   UNL     1       5.064 -39.686  23.123  1.00  0.00     0.000 C 
BRANCH   5   6
ATOM      6  C   UNL     1       4.293 -38.688  24.006  1.00  0.00     0.006 C 
BRANCH   6   7
ATOM      7  C   UNL     1       4.782 -38.675  25.460  1.00  0.00     0.053 C 
BRANCH   7   8
ATOM      8  C   UNL     1       4.435 -37.375  26.116  1.00  0.00     0.041 C 
ATOM      9  O   UNL     1       4.892 -36.294  25.661  1.00  0.00    -0.550 OA
ATOM     10  O   UNL     1       3.567 -37.354  27.200  1.00  0.00    -0.550 OA
ENDBRANCH   7   8
ENDBRANCH   6   7
ENDBRANCH   5   6
ENDBRANCH   4   5
ENDBRANCH   3   4
ENDBRANCH   2   3
ENDBRANCH   1   2
BRANCH   1  11
ATOM     11  C   UNL     1       4.089 -34.766  20.969  1.00  0.00     0.000 C 
BRANCH  11  12
ATOM     12  C   UNL     1       5.084 -35.234  19.893  1.00  0.00    -0.000 C 
BRANCH  12  13
ATOM     13  C   UNL     1       4.411 -35.477  18.532  1.00  0.00    -0.000 C 
BRANCH  13  14
ATOM     14  C   UNL     1       3.258 -36.489  18.613  1.00  0.00    -0.000 C 
BRANCH  14  15
ATOM     15  C   UNL     1       3.233 -37.392  17.374  1.00  0.00    -0.000 C 
BRANCH  15  16
ATOM     16  C   UNL     1       2.275 -36.843  16.310  1.00  0.00    -0.000 C 
BRANCH  16  17
ATOM     17  C   UNL     1       3.043 -36.104  15.208  1.00  0.00    -0.003 C 
ATOM     18  C   UNL     1       3.948 -37.058  14.433  1.00  0.00     0.004 C 
ENDBRANCH  16  17
ENDBRANCH  15  16
ENDBRANCH  14  15
ENDBRANCH  13  14
ENDBRANCH  12  13
ENDBRANCH  11  12
ENDBRANCH   1  11
TORSDOF 14
ENDMDL
MODEL 5
REMARK VINA RESULT:    -0.116      2.423      4.425
REMARK INTER + INTRA:          -0.458
REMARK INTER:                   0.481
REMARK INTRA:                  -0.939
REMARK UNBOUND:                -0.248
REMARK SMILES CCCCCCCCCCCCCCCC(=O)[O-]
REMARK SMILES IDX 9 1 10 2 11 3 12 4 13 5 14 6 15 7 16 8 17 9 18 10 8 11 7 12
REMARK SMILES IDX 6 13 5 14 4 15 3 16 2 17 1 18
REMARK H PARENT
REMARK Flexibility Score: inf
ROOT
ATOM      1  C   UNL     1       4.692 -36.110  22.265  1.00  0.00     0.000 C 
ENDROOT
BRANCH   1   2
ATOM      2  C   UNL     1       5.125 -37.515  21.810  1.00  0.00     0.000 C 
BRANCH   2   3
ATOM      3  C   UNL     1       4.330 -38.629  22.508  1.00  0.00     0.000 C 
BRANCH   3   4
ATOM      4  C   UNL     1       5.064 -39.195  23.737  1.00  0.00     0.000 C 
BRANCH   4   5
ATOM      5  C   UNL     1       5.112 -38.204  24.914  1.00  0.00     0.000 C 
BRANCH   5   6
ATOM      6  C   UNL     1       3.867 -38.214  25.820  1.00  0.00     0.006 C 
BRANCH   6   7
ATOM      7  C   UNL     1       3.762 -36.966  26.706  1.00  0.00     0.053 C 
BRANCH   7   8
ATOM      8  C   UNL     1       2.380 -36.836  27.263  1.00  0.00     0.041 C 
ATOM      9  O   UNL     1       1.983 -35.732  27.723  1.00  0.00    -0.550 OA
ATOM     10  O   UNL     1       1.511 -37.919  27.229  1.00  0.00    -0.550 OA
ENDBRANCH   7   8
ENDBRANCH   6   7
ENDBRANCH   5   6
ENDBRANCH   4   5
ENDBRANCH   3   4
ENDBRANCH   2   3
ENDBRANCH   1   2
BRANCH   1  11
ATOM     11  C   UNL     1       4.347 -35.185  21.086  1.00  0.00     0.000 C 
BRANCH  11  12
ATOM     12  C   UNL     1       4.662 -35.825  19.723  1.00  0.00    -0.000 C 
BRANCH  12  13
ATOM     13  C   UNL     1       4.824 -34.782  18.605  1.00  0.00    -0.000 C 
BRANCH  13  14
ATOM     14  C   UNL     1       3.978 -35.106  17.364  1.00  0.00    -0.000 C 
BRANCH  14  15
ATOM     15  C   UNL     1       3.627 -36.598  17.314  1.00  0.00    -0.000 C 
BRANCH  15  16
ATOM     16  C   UNL     1       2.351 -36.838  16.498  1.00  0.00    -0.000 C 
BRANCH  16  17
ATOM     17  C   UNL     1       1.237 -37.416  17.378  1.00  0.00    -0.003 C 
ATOM     18  C   UNL     1       1.718 -37.623  18.811  1.00  0.00     0.004 C 
ENDBRANCH  16  17
ENDBRANCH  15  16
ENDBRANCH  14  15
ENDBRANCH  13  14
ENDBRANCH  12  13
ENDBRANCH  11  12
ENDBRANCH   1  11
TORSDOF 14
ENDMDL
