MODEL 1
REMARK VINA RESULT:    -1.312      0.000      0.000
REMARK INTER + INTRA:          -2.449
REMARK INTER:                  -2.079
REMARK INTRA:                  -0.370
REMARK UNBOUND:                -0.370
REMARK SMILES CCCCCCCCCCCC(=O)[O-]
REMARK SMILES IDX 7 1 8 2 9 3 10 4 11 5 12 6 13 7 14 8 6 9 5 10 4 11 3 12 2 13
REMARK SMILES IDX 1 14
REMARK H PARENT
REMARK Flexibility Score: inf
ROOT
ATOM      1  C   UNL     1       6.593  40.302  14.622  1.00  0.00     0.000 C 
ENDROOT
BRANCH   1   2
ATOM      2  C   UNL     1       5.612  39.957  15.749  1.00  0.00     0.000 C 
BRANCH   2   3
ATOM      3  C   UNL     1       5.611  38.451  16.037  1.00  0.00     0.000 C 
BRANCH   3   4
ATOM      4  C   UNL     1       4.178  37.907  16.123  1.00  0.00     0.006 C 
BRANCH   4   5
ATOM      5  C   UNL     1       3.146  38.902  15.576  1.00  0.00     0.053 C 
BRANCH   5   6
ATOM      6  C   UNL     1       1.867  38.222  15.193  1.00  0.00     0.041 C 
ATOM      7  O   UNL     1       1.040  37.883  16.080  1.00  0.00    -0.550 OA
ATOM      8  O   UNL     1       1.604  37.933  13.861  1.00  0.00    -0.550 OA
ENDBRANCH   5   6
ENDBRANCH   4   5
ENDBRANCH   3   4
ENDBRANCH   2   3
ENDBRANCH   1   2
BRANCH   1   9
ATOM      9  C   UNL     1       7.436  41.535  14.986  1.00  0.00     0.000 C 
BRANCH   9  10
ATOM     10  C   UNL     1       8.431  41.259  16.123  1.00  0.00    -0.000 C 
BRANCH  10  11
ATOM     11  C   UNL     1       8.958  39.813  16.110  1.00  0.00    -0.000 C 
BRANCH  11  12
ATOM     12  C   UNL     1       9.967  39.564  14.977  1.00  0.00    -0.000 C 
BRANCH  12  13
ATOM     13  C   UNL     1      10.563  38.148  15.014  1.00  0.00    -0.003 C 
ATOM     14  C   UNL     1      11.723  38.066  16.002  1.00  0.00     0.004 C 
ENDBRANCH  12  13
ENDBRANCH  11  12
ENDBRANCH  10  11
ENDBRANCH   9  10
ENDBRANCH   1   9
TORSDOF 10
ENDMDL
MODEL 2
REMARK VINA RESULT:     0.360      1.226      2.172
REMARK INTER + INTRA:           0.200
REMARK INTER:                   0.553
REMARK INTRA:                  -0.353
REMARK UNBOUND:                -0.370
REMARK SMILES CCCCCCCCCCCC(=O)[O-]
REMARK SMILES IDX 7 1 8 2 9 3 10 4 11 5 12 6 13 7 14 8 6 9 5 10 4 11 3 12 2 13
REMARK SMILES IDX 1 14
REMARK H PARENT
REMARK Flexibility Score: inf
ROOT
ATOM      1  C   UNL     1       7.640  39.630  14.508  1.00  0.00     0.000 C 
ENDROOT
BRANCH   1   2
ATOM      2  C   UNL     1       6.461  39.636  15.489  1.00  0.00     0.000 C 
BRANCH   2   3
ATOM      3  C   UNL     1       6.158  38.221  15.996  1.00  0.00     0.000 C 
BRANCH   3   4
ATOM      4  C   UNL     1       4.644  37.983  16.092  1.00  0.00     0.006 C 
BRANCH   4   5
ATOM      5  C   UNL     1       3.843  39.016  15.290  1.00  0.00     0.053 C 
BRANCH   5   6
ATOM      6  C   UNL     1       2.623  38.409  14.666  1.00  0.00     0.041 C 
ATOM      7  O   UNL     1       2.584  38.198  13.426  1.00  0.00    -0.550 OA
ATOM      8  O   UNL     1       1.517  38.107  15.450  1.00  0.00    -0.550 OA
ENDBRANCH   5   6
ENDBRANCH   4   5
ENDBRANCH   3   4
ENDBRANCH   2   3
ENDBRANCH   1   2
BRANCH   1   9
ATOM      9  C   UNL     1       8.977  39.516  15.257  1.00  0.00     0.000 C 
BRANCH   9  10
ATOM     10  C   UNL     1       9.599  38.114  15.153  1.00  0.00    -0.000 C 
BRANCH  10  11
ATOM     11  C   UNL     1      10.803  37.931  16.093  1.00  0.00    -0.000 C 
BRANCH  11  12
ATOM     12  C   UNL     1      12.103  38.502  15.504  1.00  0.00    -0.000 C 
BRANCH  12  13
ATOM     13  C   UNL     1      13.361  37.875  16.124  1.00  0.00    -0.003 C 
ATOM     14  C   UNL     1      14.558  38.004  15.186  1.00  0.00     0.004 C 
ENDBRANCH  12  13
ENDBRANCH  11  12
ENDBRANCH  10  11
ENDBRANCH   9  10
ENDBRANCH   1   9
TORSDOF 10
ENDMDL
MODEL 3
REMARK VINA RESULT:     0.715      2.992      6.407
REMARK INTER + INTRA:           0.764
REMARK INTER:                  -0.357
REMARK INTRA:                   1.121
REMARK UNBOUND:                -0.370
REMARK SMILES CCCCCCCCCCCC(=O)[O-]
REMARK SMILES IDX 7 1 8 2 9 3 10 4 11 5 12 6 13 7 14 8 6 9 5 10 4 11 3 12 2 13
REMARK SMILES IDX 1 14
REMARK H PARENT
REMARK Flexibility Score: inf
ROOT
ATOM      1  C   UNL     1       6.584  38.720  15.199  1.00  0.00     0.000 C 
ENDROOT
BRANCH   1   2
ATOM      2  C   UNL     1       7.641  38.000  16.045  1.00  0.00     0.000 C 
BRANCH   2   3
ATOM      3  C   UNL     1       9.055  38.294  15.528  1.00  0.00     0.000 C 
BRANCH   3   4
ATOM      4  C   UNL     1       9.168  39.741  15.027  1.00  0.00     0.006 C 
BRANCH   4   5
ATOM      5  C   UNL     1       8.831  40.762  16.122  1.00  0.00     0.053 C 
BRANCH   5   6
ATOM      6  C   UNL     1       7.751  41.705  15.688  1.00  0.00     0.041 C 
ATOM      7  O   UNL     1       6.845  41.314  14.906  1.00  0.00    -0.550 OA
ATOM      8  O   UNL     1       7.763  43.024  16.122  1.00  0.00    -0.550 OA
ENDBRANCH   5   6
ENDBRANCH   4   5
ENDBRANCH   3   4
ENDBRANCH   2   3
ENDBRANCH   1   2
BRANCH   1   9
ATOM      9  C   UNL     1       5.301  37.881  15.093  1.00  0.00     0.000 C 
BRANCH   9  10
ATOM     10  C   UNL     1       4.181  38.388  16.015  1.00  0.00    -0.000 C 
BRANCH  10  11
ATOM     11  C   UNL     1       3.436  39.600  15.428  1.00  0.00    -0.000 C 
BRANCH  11  12
ATOM     12  C   UNL     1       2.445  39.203  14.322  1.00  0.00    -0.000 C 
BRANCH  12  13
ATOM     13  C   UNL     1       1.723  37.880  14.619  1.00  0.00    -0.003 C 
ATOM     14  C   UNL     1       1.114  37.889  16.018  1.00  0.00     0.004 C 
ENDBRANCH  12  13
ENDBRANCH  11  12
ENDBRANCH  10  11
ENDBRANCH   9  10
ENDBRANCH   1   9
TORSDOF 10
ENDMDL
MODEL 4
REMARK VINA RESULT:     1.575      3.998      6.731
REMARK INTER + INTRA:           2.126
REMARK INTER:                   1.871
REMARK INTRA:                   0.255
REMARK UNBOUND:                -0.370
REMARK SMILES CCCCCCCCCCCC(=O)[O-]
REMARK SMILES IDX 7 1 8 2 9 3 10 4 11 5 12 6 13 7 14 8 6 9 5 10 4 11 3 12 2 13
REMARK SMILES IDX 1 14
REMARK H PARENT
REMARK Flexibility Score: inf
ROOT
ATOM      1  C   UNL     1       6.865  40.849  14.046  1.00  0.00     0.000 C 
ENDROOT
BRANCH   1   2
ATOM      2  C   UNL     1       7.704  40.543  15.293  1.00  0.00     0.000 C 
BRANCH   2   3
ATOM      3  C   UNL     1       7.341  39.174  15.879  1.00  0.00     0.000 C 
BRANCH   3   4
ATOM      4  C   UNL     1       8.599  38.328  16.124  1.00  0.00     0.006 C 
BRANCH   4   5
ATOM      5  C   UNL     1       9.394  38.084  14.835  1.00  0.00     0.053 C 
BRANCH   5   6
ATOM      6  C   UNL     1      10.829  38.490  14.984  1.00  0.00     0.041 C 
ATOM      7  O   UNL     1      11.367  39.241  14.128  1.00  0.00    -0.550 OA
ATOM      8  O   UNL     1      11.580  38.013  16.049  1.00  0.00    -0.550 OA
ENDBRANCH   5   6
ENDBRANCH   4   5
ENDBRANCH   3   4
ENDBRANCH   2   3
ENDBRANCH   1   2
BRANCH   1   9
ATOM      9  C   UNL     1       5.726  39.829  13.886  1.00  0.00     0.000 C 
BRANCH   9  10
ATOM     10  C   UNL     1       4.514  40.149  14.776  1.00  0.00    -0.000 C 
BRANCH  10  11
ATOM     11  C   UNL     1       4.484  39.301  16.060  1.00  0.00    -0.000 C 
BRANCH  11  12
ATOM     12  C   UNL     1       3.672  38.006  15.892  1.00  0.00    -0.000 C 
BRANCH  12  13
ATOM     13  C   UNL     1       2.321  38.239  15.199  1.00  0.00    -0.003 C 
ATOM     14  C   UNL     1       1.161  37.882  16.125  1.00  0.00     0.004 C 
ENDBRANCH  12  13
ENDBRANCH  11  12
ENDBRANCH  10  11
ENDBRANCH   9  10
ENDBRANCH   1   9
TORSDOF 10
ENDMDL
