MODEL 1
REMARK VINA RESULT:    -3.624      0.000      0.000
REMARK INTER + INTRA:          -9.903
REMARK INTER:                  -7.013
REMARK INTRA:                  -2.890
REMARK UNBOUND:                -2.890
REMARK SMILES CCCCCCCCCCCCCCCCCC(=O)[O-]
REMARK SMILES IDX 10 1 11 2 12 3 13 4 14 5 15 6 16 7 17 8 18 9 19 10 20 11
REMARK SMILES IDX 9 12 8 13 7 14 6 15 5 16 4 17 3 18 2 19 1 20
REMARK H PARENT
REMARK Flexibility Score: inf
ROOT
ATOM      1  C   UNL     1      -9.811  -0.087   8.808  1.00  0.00     0.000 C 
ENDROOT
BRANCH   1   2
ATOM      2  C   UNL     1      -8.756   0.793   8.115  1.00  0.00     0.000 C 
BRANCH   2   3
ATOM      3  C   UNL     1      -8.691   2.212   8.704  1.00  0.00     0.000 C 
BRANCH   3   4
ATOM      4  C   UNL     1      -8.389   3.280   7.638  1.00  0.00     0.000 C 
BRANCH   4   5
ATOM      5  C   UNL     1      -7.991   2.667   6.285  1.00  0.00     0.000 C 
BRANCH   5   6
ATOM      6  C   UNL     1      -6.551   3.022   5.876  1.00  0.00     0.000 C 
BRANCH   6   7
ATOM      7  C   UNL     1      -5.761   3.702   7.010  1.00  0.00     0.006 C 
BRANCH   7   8
ATOM      8  C   UNL     1      -4.362   3.111   7.253  1.00  0.00     0.053 C 
BRANCH   8   9
ATOM      9  C   UNL     1      -4.422   1.659   7.611  1.00  0.00     0.041 C 
ATOM     10  O   UNL     1      -5.255   1.250   8.462  1.00  0.00    -0.550 OA
ATOM     11  O   UNL     1      -3.579   0.752   6.981  1.00  0.00    -0.550 OA
ENDBRANCH   8   9
ENDBRANCH   7   8
ENDBRANCH   6   7
ENDBRANCH   5   6
ENDBRANCH   4   5
ENDBRANCH   3   4
ENDBRANCH   2   3
ENDBRANCH   1   2
BRANCH   1  12
ATOM     12  C   UNL     1     -10.922   0.732   9.487  1.00  0.00     0.000 C 
BRANCH  12  13
ATOM     13  C   UNL     1     -12.190   0.954   8.636  1.00  0.00    -0.000 C 
BRANCH  13  14
ATOM     14  C   UNL     1     -12.268   2.314   7.919  1.00  0.00    -0.000 C 
BRANCH  14  15
ATOM     15  C   UNL     1     -11.792   2.303   6.453  1.00  0.00    -0.000 C 
BRANCH  15  16
ATOM     16  C   UNL     1     -11.902   0.919   5.775  1.00  0.00    -0.000 C 
BRANCH  16  17
ATOM     17  C   UNL     1     -10.655   0.566   4.947  1.00  0.00    -0.000 C 
BRANCH  17  18
ATOM     18  C   UNL     1     -10.251  -0.916   5.104  1.00  0.00    -0.000 C 
BRANCH  18  19
ATOM     19  C   UNL     1      -8.889  -1.252   4.475  1.00  0.00    -0.003 C 
ATOM     20  C   UNL     1      -8.446  -0.234   3.426  1.00  0.00     0.004 C 
ENDBRANCH  18  19
ENDBRANCH  17  18
ENDBRANCH  16  17
ENDBRANCH  15  16
ENDBRANCH  14  15
ENDBRANCH  13  14
ENDBRANCH  12  13
ENDBRANCH   1  12
TORSDOF 16
ENDMDL
MODEL 2
REMARK VINA RESULT:    -3.591      2.091      3.618
REMARK INTER + INTRA:          -9.839
REMARK INTER:                  -6.960
REMARK INTRA:                  -2.879
REMARK UNBOUND:                -2.890
REMARK SMILES CCCCCCCCCCCCCCCCCC(=O)[O-]
REMARK SMILES IDX 10 1 11 2 12 3 13 4 14 5 15 6 16 7 17 8 18 9 19 10 20 11
REMARK SMILES IDX 9 12 8 13 7 14 6 15 5 16 4 17 3 18 2 19 1 20
REMARK H PARENT
REMARK Flexibility Score: inf
ROOT
ATOM      1  C   UNL     1     -13.963   0.648   8.119  1.00  0.00     0.000 C 
ENDROOT
BRANCH   1   2
ATOM      2  C   UNL     1     -13.337   0.065   6.840  1.00  0.00     0.000 C 
BRANCH   2   3
ATOM      3  C   UNL     1     -12.637   1.134   5.984  1.00  0.00     0.000 C 
BRANCH   3   4
ATOM      4  C   UNL     1     -12.669   2.526   6.638  1.00  0.00     0.000 C 
BRANCH   4   5
ATOM      5  C   UNL     1     -11.318   3.256   6.540  1.00  0.00     0.000 C 
BRANCH   5   6
ATOM      6  C   UNL     1     -10.779   3.311   5.100  1.00  0.00     0.000 C 
BRANCH   6   7
ATOM      7  C   UNL     1      -9.564   4.244   4.954  1.00  0.00     0.006 C 
BRANCH   7   8
ATOM      8  C   UNL     1      -8.344   3.835   5.796  1.00  0.00     0.053 C 
BRANCH   8   9
ATOM      9  C   UNL     1      -7.231   3.303   4.948  1.00  0.00     0.041 C 
ATOM     10  O   UNL     1      -6.755   2.159   5.170  1.00  0.00    -0.550 OA
ATOM     11  O   UNL     1      -6.739   4.060   3.891  1.00  0.00    -0.550 OA
ENDBRANCH   8   9
ENDBRANCH   7   8
ENDBRANCH   6   7
ENDBRANCH   5   6
ENDBRANCH   4   5
ENDBRANCH   3   4
ENDBRANCH   2   3
ENDBRANCH   1   2
BRANCH   1  12
ATOM     12  C   UNL     1     -13.225   0.215   9.398  1.00  0.00     0.000 C 
BRANCH  12  13
ATOM     13  C   UNL     1     -11.886   0.934   9.662  1.00  0.00    -0.000 C 
BRANCH  13  14
ATOM     14  C   UNL     1     -10.626   0.113   9.330  1.00  0.00    -0.000 C 
BRANCH  14  15
ATOM     15  C   UNL     1      -9.486   0.915   8.672  1.00  0.00    -0.000 C 
BRANCH  15  16
ATOM     16  C   UNL     1      -9.220   0.524   7.201  1.00  0.00    -0.000 C 
BRANCH  16  17
ATOM     17  C   UNL     1      -9.686  -0.905   6.875  1.00  0.00    -0.000 C 
BRANCH  17  18
ATOM     18  C   UNL     1      -9.803  -1.147   5.354  1.00  0.00    -0.000 C 
BRANCH  18  19
ATOM     19  C   UNL     1      -9.274   0.020   4.503  1.00  0.00    -0.003 C 
ATOM     20  C   UNL     1      -8.357  -0.435   3.369  1.00  0.00     0.004 C 
ENDBRANCH  18  19
ENDBRANCH  17  18
ENDBRANCH  16  17
ENDBRANCH  15  16
ENDBRANCH  14  15
ENDBRANCH  13  14
ENDBRANCH  12  13
ENDBRANCH   1  12
TORSDOF 16
ENDMDL
MODEL 3
REMARK VINA RESULT:    -3.437      1.352      2.572
REMARK INTER + INTRA:          -9.542
REMARK INTER:                  -7.080
REMARK INTRA:                  -2.462
REMARK UNBOUND:                -2.890
REMARK SMILES CCCCCCCCCCCCCCCCCC(=O)[O-]
REMARK SMILES IDX 10 1 11 2 12 3 13 4 14 5 15 6 16 7 17 8 18 9 19 10 20 11
REMARK SMILES IDX 9 12 8 13 7 14 6 15 5 16 4 17 3 18 2 19 1 20
REMARK H PARENT
REMARK Flexibility Score: inf
ROOT
ATOM      1  C   UNL     1     -10.142   3.831   7.571  1.00  0.00     0.000 C 
ENDROOT
BRANCH   1   2
ATOM      2  C   UNL     1     -10.784   3.469   6.220  1.00  0.00     0.000 C 
BRANCH   2   3
ATOM      3  C   UNL     1      -9.881   3.818   5.025  1.00  0.00     0.000 C 
BRANCH   3   4
ATOM      4  C   UNL     1      -8.687   4.701   5.426  1.00  0.00     0.000 C 
BRANCH   4   5
ATOM      5  C   UNL     1      -7.372   4.252   4.767  1.00  0.00     0.000 C 
BRANCH   5   6
ATOM      6  C   UNL     1      -7.105   2.748   4.947  1.00  0.00     0.000 C 
BRANCH   6   7
ATOM      7  C   UNL     1      -6.754   2.375   6.399  1.00  0.00     0.006 C 
BRANCH   7   8
ATOM      8  C   UNL     1      -5.464   3.023   6.928  1.00  0.00     0.053 C 
BRANCH   8   9
ATOM      9  C   UNL     1      -4.582   2.032   7.621  1.00  0.00     0.041 C 
ATOM     10  O   UNL     1      -4.474   2.048   8.876  1.00  0.00    -0.550 OA
ATOM     11  O   UNL     1      -3.904   1.069   6.884  1.00  0.00    -0.550 OA
ENDBRANCH   8   9
ENDBRANCH   7   8
ENDBRANCH   6   7
ENDBRANCH   5   6
ENDBRANCH   4   5
ENDBRANCH   3   4
ENDBRANCH   2   3
ENDBRANCH   1   2
BRANCH   1  12
ATOM     12  C   UNL     1     -10.387   2.766   8.655  1.00  0.00     0.000 C 
BRANCH  12  13
ATOM     13  C   UNL     1      -9.128   2.300   9.416  1.00  0.00    -0.000 C 
BRANCH  13  14
ATOM     14  C   UNL     1      -8.641   0.881   9.069  1.00  0.00    -0.000 C 
BRANCH  14  15
ATOM     15  C   UNL     1      -9.761  -0.126   8.742  1.00  0.00    -0.000 C 
BRANCH  15  16
ATOM     16  C   UNL     1      -9.602  -0.805   7.364  1.00  0.00    -0.000 C 
BRANCH  16  17
ATOM     17  C   UNL     1      -9.563   0.207   6.206  1.00  0.00    -0.000 C 
BRANCH  17  18
ATOM     18  C   UNL     1     -10.234  -0.343   4.928  1.00  0.00    -0.000 C 
BRANCH  18  19
ATOM     19  C   UNL     1      -9.305  -1.223   4.076  1.00  0.00    -0.003 C 
ATOM     20  C   UNL     1      -8.242  -0.422   3.326  1.00  0.00     0.004 C 
ENDBRANCH  18  19
ENDBRANCH  17  18
ENDBRANCH  16  17
ENDBRANCH  15  16
ENDBRANCH  14  15
ENDBRANCH  13  14
ENDBRANCH  12  13
ENDBRANCH   1  12
TORSDOF 16
ENDMDL
MODEL 4
REMARK VINA RESULT:    -3.436     13.788     16.011
REMARK INTER + INTRA:          -9.540
REMARK INTER:                  -6.750
REMARK INTRA:                  -2.790
REMARK UNBOUND:                -2.890
REMARK SMILES CCCCCCCCCCCCCCCCCC(=O)[O-]
REMARK SMILES IDX 10 1 11 2 12 3 13 4 14 5 15 6 16 7 17 8 18 9 19 10 20 11
REMARK SMILES IDX 9 12 8 13 7 14 6 15 5 16 4 17 3 18 2 19 1 20
REMARK H PARENT
REMARK Flexibility Score: inf
ROOT
ATOM      1  C   UNL     1      -3.448 -11.276   7.781  1.00  0.00     0.000 C 
ENDROOT
BRANCH   1   2
ATOM      2  C   UNL     1      -3.161 -12.556   6.976  1.00  0.00     0.000 C 
BRANCH   2   3
ATOM      3  C   UNL     1      -2.716 -12.261   5.534  1.00  0.00     0.000 C 
BRANCH   3   4
ATOM      4  C   UNL     1      -1.197 -12.041   5.420  1.00  0.00     0.000 C 
BRANCH   4   5
ATOM      5  C   UNL     1      -0.433 -13.339   5.108  1.00  0.00     0.000 C 
BRANCH   5   6
ATOM      6  C   UNL     1       0.522 -13.749   6.242  1.00  0.00     0.000 C 
BRANCH   6   7
ATOM      7  C   UNL     1       2.003 -13.677   5.828  1.00  0.00     0.006 C 
BRANCH   7   8
ATOM      8  C   UNL     1       2.923 -13.021   6.870  1.00  0.00     0.053 C 
BRANCH   8   9
ATOM      9  C   UNL     1       4.367 -13.129   6.490  1.00  0.00     0.041 C 
ATOM     10  O   UNL     1       4.764 -14.082   5.769  1.00  0.00    -0.550 OA
ATOM     11  O   UNL     1       5.270 -12.158   6.906  1.00  0.00    -0.550 OA
ENDBRANCH   8   9
ENDBRANCH   7   8
ENDBRANCH   6   7
ENDBRANCH   5   6
ENDBRANCH   4   5
ENDBRANCH   3   4
ENDBRANCH   2   3
ENDBRANCH   1   2
BRANCH   1  12
ATOM     12  C   UNL     1      -2.574 -11.152   9.041  1.00  0.00     0.000 C 
BRANCH  12  13
ATOM     13  C   UNL     1      -1.529 -12.271   9.230  1.00  0.00    -0.000 C 
BRANCH  13  14
ATOM     14  C   UNL     1      -0.061 -11.815   9.157  1.00  0.00    -0.000 C 
BRANCH  14  15
ATOM     15  C   UNL     1       0.138 -10.311   8.889  1.00  0.00    -0.000 C 
BRANCH  15  16
ATOM     16  C   UNL     1       0.913 -10.009   7.587  1.00  0.00    -0.000 C 
BRANCH  16  17
ATOM     17  C   UNL     1       0.455  -8.703   6.915  1.00  0.00    -0.000 C 
BRANCH  17  18
ATOM     18  C   UNL     1      -1.009  -8.353   7.259  1.00  0.00    -0.000 C 
BRANCH  18  19
ATOM     19  C   UNL     1      -1.981  -8.551   6.084  1.00  0.00    -0.003 C 
ATOM     20  C   UNL     1      -2.657  -7.254   5.642  1.00  0.00     0.004 C 
ENDBRANCH  18  19
ENDBRANCH  17  18
ENDBRANCH  16  17
ENDBRANCH  15  16
ENDBRANCH  14  15
ENDBRANCH  13  14
ENDBRANCH  12  13
ENDBRANCH   1  12
TORSDOF 16
ENDMDL
MODEL 5
REMARK VINA RESULT:    -3.402      1.346      2.782
REMARK INTER + INTRA:          -9.474
REMARK INTER:                  -7.044
REMARK INTRA:                  -2.431
REMARK UNBOUND:                -2.890
REMARK SMILES CCCCCCCCCCCCCCCCCC(=O)[O-]
REMARK SMILES IDX 10 1 11 2 12 3 13 4 14 5 15 6 16 7 17 8 18 9 19 10 20 11
REMARK SMILES IDX 9 12 8 13 7 14 6 15 5 16 4 17 3 18 2 19 1 20
REMARK H PARENT
REMARK Flexibility Score: inf
ROOT
ATOM      1  C   UNL     1     -12.216   2.848   8.266  1.00  0.00     0.000 C 
ENDROOT
BRANCH   1   2
ATOM      2  C   UNL     1     -11.557   2.053   9.408  1.00  0.00     0.000 C 
BRANCH   2   3
ATOM      3  C   UNL     1     -11.381   0.564   9.066  1.00  0.00     0.000 C 
BRANCH   3   4
ATOM      4  C   UNL     1     -10.101  -0.033   9.675  1.00  0.00     0.000 C 
BRANCH   4   5
ATOM      5  C   UNL     1      -8.844   0.298   8.852  1.00  0.00     0.000 C 
BRANCH   5   6
ATOM      6  C   UNL     1      -7.953   1.351   9.533  1.00  0.00     0.000 C 
BRANCH   6   7
ATOM      7  C   UNL     1      -7.004   2.056   8.546  1.00  0.00     0.006 C 
BRANCH   7   8
ATOM      8  C   UNL     1      -5.523   1.677   8.707  1.00  0.00     0.053 C 
BRANCH   8   9
ATOM      9  C   UNL     1      -4.712   2.065   7.510  1.00  0.00     0.041 C 
ATOM     10  O   UNL     1      -4.738   3.249   7.083  1.00  0.00    -0.550 OA
ATOM     11  O   UNL     1      -3.903   1.125   6.885  1.00  0.00    -0.550 OA
ENDBRANCH   8   9
ENDBRANCH   7   8
ENDBRANCH   6   7
ENDBRANCH   5   6
ENDBRANCH   4   5
ENDBRANCH   3   4
ENDBRANCH   2   3
ENDBRANCH   1   2
BRANCH   1  12
ATOM     12  C   UNL     1     -11.383   4.063   7.825  1.00  0.00     0.000 C 
BRANCH  12  13
ATOM     13  C   UNL     1      -9.943   3.745   7.371  1.00  0.00    -0.000 C 
BRANCH  13  14
ATOM     14  C   UNL     1      -9.737   3.674   5.848  1.00  0.00    -0.000 C 
BRANCH  14  15
ATOM     15  C   UNL     1      -9.612   2.248   5.277  1.00  0.00    -0.000 C 
BRANCH  15  16
ATOM     16  C   UNL     1     -10.970   1.561   5.015  1.00  0.00    -0.000 C 
BRANCH  16  17
ATOM     17  C   UNL     1     -11.043   0.147   5.617  1.00  0.00    -0.000 C 
BRANCH  17  18
ATOM     18  C   UNL     1      -9.712  -0.620   5.466  1.00  0.00    -0.000 C 
BRANCH  18  19
ATOM     19  C   UNL     1      -9.493  -1.201   4.059  1.00  0.00    -0.003 C 
ATOM     20  C   UNL     1      -8.324  -0.553   3.319  1.00  0.00     0.004 C 
ENDBRANCH  18  19
ENDBRANCH  17  18
ENDBRANCH  16  17
ENDBRANCH  15  16
ENDBRANCH  14  15
ENDBRANCH  13  14
ENDBRANCH  12  13
ENDBRANCH   1  12
TORSDOF 16
ENDMDL
MODEL 6
REMARK VINA RESULT:    -3.402      1.137      3.686
REMARK INTER + INTRA:          -9.473
REMARK INTER:                  -6.665
REMARK INTRA:                  -2.808
REMARK UNBOUND:                -2.890
REMARK SMILES CCCCCCCCCCCCCCCCCC(=O)[O-]
REMARK SMILES IDX 10 1 11 2 12 3 13 4 14 5 15 6 16 7 17 8 18 9 19 10 20 11
REMARK SMILES IDX 9 12 8 13 7 14 6 15 5 16 4 17 3 18 2 19 1 20
REMARK H PARENT
REMARK Flexibility Score: inf
ROOT
ATOM      1  C   UNL     1      -9.415   0.636   4.333  1.00  0.00     0.000 C 
ENDROOT
BRANCH   1   2
ATOM      2  C   UNL     1     -10.742   1.410   4.416  1.00  0.00     0.000 C 
BRANCH   2   3
ATOM      3  C   UNL     1     -10.563   2.832   4.975  1.00  0.00     0.000 C 
BRANCH   3   4
ATOM      4  C   UNL     1      -9.089   3.169   5.265  1.00  0.00     0.000 C 
BRANCH   4   5
ATOM      5  C   UNL     1      -8.892   3.811   6.648  1.00  0.00     0.000 C 
BRANCH   5   6
ATOM      6  C   UNL     1      -7.688   3.225   7.405  1.00  0.00     0.000 C 
BRANCH   6   7
ATOM      7  C   UNL     1      -6.564   2.753   6.464  1.00  0.00     0.006 C 
BRANCH   7   8
ATOM      8  C   UNL     1      -5.143   3.034   6.979  1.00  0.00     0.053 C 
BRANCH   8   9
ATOM      9  C   UNL     1      -4.527   1.826   7.611  1.00  0.00     0.041 C 
ATOM     10  O   UNL     1      -3.952   0.961   6.899  1.00  0.00    -0.550 OA
ATOM     11  O   UNL     1      -4.561   1.669   8.992  1.00  0.00    -0.550 OA
ENDBRANCH   8   9
ENDBRANCH   7   8
ENDBRANCH   6   7
ENDBRANCH   5   6
ENDBRANCH   4   5
ENDBRANCH   3   4
ENDBRANCH   2   3
ENDBRANCH   1   2
BRANCH   1  12
ATOM     12  C   UNL     1      -9.523  -0.798   4.881  1.00  0.00     0.000 C 
BRANCH  12  13
ATOM     13  C   UNL     1     -10.060  -0.913   6.323  1.00  0.00    -0.000 C 
BRANCH  13  14
ATOM     14  C   UNL     1      -9.400   0.030   7.344  1.00  0.00    -0.000 C 
BRANCH  14  15
ATOM     15  C   UNL     1      -9.724  -0.282   8.818  1.00  0.00    -0.000 C 
BRANCH  15  16
ATOM     16  C   UNL     1     -10.885   0.561   9.391  1.00  0.00    -0.000 C 
BRANCH  16  17
ATOM     17  C   UNL     1     -11.096   1.877   8.623  1.00  0.00    -0.000 C 
BRANCH  17  18
ATOM     18  C   UNL     1     -12.513   1.978   8.017  1.00  0.00    -0.000 C 
BRANCH  18  19
ATOM     19  C   UNL     1     -13.121   0.615   7.646  1.00  0.00    -0.003 C 
ATOM     20  C   UNL     1     -13.847   0.631   6.301  1.00  0.00     0.004 C 
ENDBRANCH  18  19
ENDBRANCH  17  18
ENDBRANCH  16  17
ENDBRANCH  15  16
ENDBRANCH  14  15
ENDBRANCH  13  14
ENDBRANCH  12  13
ENDBRANCH   1  12
TORSDOF 16
ENDMDL
MODEL 7
REMARK VINA RESULT:    -3.361     13.602     16.003
REMARK INTER + INTRA:          -9.394
REMARK INTER:                  -7.157
REMARK INTRA:                  -2.237
REMARK UNBOUND:                -2.890
REMARK SMILES CCCCCCCCCCCCCCCCCC(=O)[O-]
REMARK SMILES IDX 10 1 11 2 12 3 13 4 14 5 15 6 16 7 17 8 18 9 19 10 20 11
REMARK SMILES IDX 9 12 8 13 7 14 6 15 5 16 4 17 3 18 2 19 1 20
REMARK H PARENT
REMARK Flexibility Score: inf
ROOT
ATOM      1  C   UNL     1      -0.036  -8.753   8.199  1.00  0.00     0.000 C 
ENDROOT
BRANCH   1   2
ATOM      2  C   UNL     1      -0.277  -8.486   6.703  1.00  0.00     0.000 C 
BRANCH   2   3
ATOM      3  C   UNL     1      -1.746  -8.151   6.392  1.00  0.00     0.000 C 
BRANCH   3   4
ATOM      4  C   UNL     1      -2.718  -8.746   7.427  1.00  0.00     0.000 C 
BRANCH   4   5
ATOM      5  C   UNL     1      -3.268 -10.117   7.001  1.00  0.00     0.000 C 
BRANCH   5   6
ATOM      6  C   UNL     1      -3.339 -11.114   8.171  1.00  0.00     0.000 C 
BRANCH   6   7
ATOM      7  C   UNL     1      -4.003 -12.447   7.778  1.00  0.00     0.006 C 
BRANCH   7   8
ATOM      8  C   UNL     1      -4.829 -12.388   6.483  1.00  0.00     0.053 C 
BRANCH   8   9
ATOM      9  C   UNL     1      -6.301 -12.371   6.757  1.00  0.00     0.041 C 
ATOM     10  O   UNL     1      -6.808 -13.210   7.547  1.00  0.00    -0.550 OA
ATOM     11  O   UNL     1      -7.107 -11.407   6.164  1.00  0.00    -0.550 OA
ENDBRANCH   8   9
ENDBRANCH   7   8
ENDBRANCH   6   7
ENDBRANCH   5   6
ENDBRANCH   4   5
ENDBRANCH   3   4
ENDBRANCH   2   3
ENDBRANCH   1   2
BRANCH   1  12
ATOM     12  C   UNL     1       0.551 -10.150   8.471  1.00  0.00     0.000 C 
BRANCH  12  13
ATOM     13  C   UNL     1       0.929 -10.961   7.214  1.00  0.00    -0.000 C 
BRANCH  13  14
ATOM     14  C   UNL     1      -0.029 -12.114   6.867  1.00  0.00    -0.000 C 
BRANCH  14  15
ATOM     15  C   UNL     1      -0.540 -12.116   5.413  1.00  0.00    -0.000 C 
BRANCH  15  16
ATOM     16  C   UNL     1      -0.407 -13.485   4.709  1.00  0.00    -0.000 C 
BRANCH  16  17
ATOM     17  C   UNL     1       0.330 -14.524   5.571  1.00  0.00    -0.000 C 
BRANCH  17  18
ATOM     18  C   UNL     1       1.729 -14.861   5.011  1.00  0.00    -0.000 C 
BRANCH  18  19
ATOM     19  C   UNL     1       2.873 -14.138   5.740  1.00  0.00    -0.003 C 
ATOM     20  C   UNL     1       4.242 -14.763   5.473  1.00  0.00     0.004 C 
ENDBRANCH  18  19
ENDBRANCH  17  18
ENDBRANCH  16  17
ENDBRANCH  15  16
ENDBRANCH  14  15
ENDBRANCH  13  14
ENDBRANCH  12  13
ENDBRANCH   1  12
TORSDOF 16
ENDMDL
MODEL 8
REMARK VINA RESULT:    -3.329     14.039     16.197
REMARK INTER + INTRA:          -9.332
REMARK INTER:                  -6.441
REMARK INTRA:                  -2.891
REMARK UNBOUND:                -2.890
REMARK SMILES CCCCCCCCCCCCCCCCCC(=O)[O-]
REMARK SMILES IDX 10 1 11 2 12 3 13 4 14 5 15 6 16 7 17 8 18 9 19 10 20 11
REMARK SMILES IDX 9 12 8 13 7 14 6 15 5 16 4 17 3 18 2 19 1 20
REMARK H PARENT
REMARK Flexibility Score: inf
ROOT
ATOM      1  C   UNL     1      -2.231 -12.440   6.868  1.00  0.00     0.000 C 
ENDROOT
BRANCH   1   2
ATOM      2  C   UNL     1      -1.750 -11.719   5.597  1.00  0.00     0.000 C 
BRANCH   2   3
ATOM      3  C   UNL     1      -0.260 -11.964   5.306  1.00  0.00     0.000 C 
BRANCH   3   4
ATOM      4  C   UNL     1       0.359 -13.014   6.245  1.00  0.00     0.000 C 
BRANCH   4   5
ATOM      5  C   UNL     1       1.306 -13.978   5.512  1.00  0.00     0.000 C 
BRANCH   5   6
ATOM      6  C   UNL     1       2.781 -13.755   5.886  1.00  0.00     0.000 C 
BRANCH   6   7
ATOM      7  C   UNL     1       2.951 -12.947   7.186  1.00  0.00     0.006 C 
BRANCH   7   8
ATOM      8  C   UNL     1       3.562 -13.740   8.353  1.00  0.00     0.053 C 
BRANCH   8   9
ATOM      9  C   UNL     1       2.923 -13.393   9.661  1.00  0.00     0.041 C 
ATOM     10  O   UNL     1       3.393 -12.464  10.370  1.00  0.00    -0.550 OA
ATOM     11  O   UNL     1       1.788 -14.075  10.083  1.00  0.00    -0.550 OA
ENDBRANCH   8   9
ENDBRANCH   7   8
ENDBRANCH   6   7
ENDBRANCH   5   6
ENDBRANCH   4   5
ENDBRANCH   3   4
ENDBRANCH   2   3
ENDBRANCH   1   2
BRANCH   1  12
ATOM     12  C   UNL     1      -3.110 -11.550   7.765  1.00  0.00     0.000 C 
BRANCH  12  13
ATOM     13  C   UNL     1      -2.456 -11.097   9.087  1.00  0.00    -0.000 C 
BRANCH  13  14
ATOM     14  C   UNL     1      -1.141 -11.813   9.446  1.00  0.00    -0.000 C 
BRANCH  14  15
ATOM     15  C   UNL     1       0.129 -10.957   9.278  1.00  0.00    -0.000 C 
BRANCH  15  16
ATOM     16  C   UNL     1      -0.157  -9.486   8.901  1.00  0.00    -0.000 C 
BRANCH  16  17
ATOM     17  C   UNL     1       0.636  -9.028   7.665  1.00  0.00    -0.000 C 
BRANCH  17  18
ATOM     18  C   UNL     1      -0.286  -8.508   6.541  1.00  0.00    -0.000 C 
BRANCH  18  19
ATOM     19  C   UNL     1      -1.731  -8.248   7.001  1.00  0.00    -0.003 C 
ATOM     20  C   UNL     1      -2.604  -7.629   5.911  1.00  0.00     0.004 C 
ENDBRANCH  18  19
ENDBRANCH  17  18
ENDBRANCH  16  17
ENDBRANCH  15  16
ENDBRANCH  14  15
ENDBRANCH  13  14
ENDBRANCH  12  13
ENDBRANCH   1  12
TORSDOF 16
ENDMDL
MODEL 9
REMARK VINA RESULT:    -3.328     11.758     14.560
REMARK INTER + INTRA:          -9.330
REMARK INTER:                  -7.479
REMARK INTRA:                  -1.851
REMARK UNBOUND:                -2.890
REMARK SMILES CCCCCCCCCCCCCCCCCC(=O)[O-]
REMARK SMILES IDX 10 1 11 2 12 3 13 4 14 5 15 6 16 7 17 8 18 9 19 10 20 11
REMARK SMILES IDX 9 12 8 13 7 14 6 15 5 16 4 17 3 18 2 19 1 20
REMARK H PARENT
REMARK Flexibility Score: inf
ROOT
ATOM      1  C   UNL     1      -4.003 -11.284   8.167  1.00  0.00     0.000 C 
ENDROOT
BRANCH   1   2
ATOM      2  C   UNL     1      -4.253 -11.791   6.735  1.00  0.00     0.000 C 
BRANCH   2   3
ATOM      3  C   UNL     1      -5.685 -12.317   6.536  1.00  0.00     0.000 C 
BRANCH   3   4
ATOM      4  C   UNL     1      -6.595 -12.018   7.740  1.00  0.00     0.000 C 
BRANCH   4   5
ATOM      5  C   UNL     1      -8.015 -11.602   7.318  1.00  0.00     0.000 C 
BRANCH   5   6
ATOM      6  C   UNL     1      -8.112 -11.267   5.820  1.00  0.00     0.000 C 
BRANCH   6   7
ATOM      7  C   UNL     1      -9.310 -10.359   5.489  1.00  0.00     0.006 C 
BRANCH   7   8
ATOM      8  C   UNL     1      -9.274  -9.747   4.079  1.00  0.00     0.053 C 
BRANCH   8   9
ATOM      9  C   UNL     1      -9.718 -10.722   3.034  1.00  0.00     0.041 C 
ATOM     10  O   UNL     1      -9.143 -10.758   1.914  1.00  0.00    -0.550 OA
ATOM     11  O   UNL     1     -10.747 -11.615   3.308  1.00  0.00    -0.550 OA
ENDBRANCH   8   9
ENDBRANCH   7   8
ENDBRANCH   6   7
ENDBRANCH   5   6
ENDBRANCH   4   5
ENDBRANCH   3   4
ENDBRANCH   2   3
ENDBRANCH   1   2
BRANCH   1  12
ATOM     12  C   UNL     1      -3.099 -10.040   8.212  1.00  0.00     0.000 C 
BRANCH  12  13
ATOM     13  C   UNL     1      -2.838  -9.366   6.848  1.00  0.00    -0.000 C 
BRANCH  13  14
ATOM     14  C   UNL     1      -1.870  -8.170   6.884  1.00  0.00    -0.000 C 
BRANCH  14  15
ATOM     15  C   UNL     1      -0.389  -8.528   6.658  1.00  0.00    -0.000 C 
BRANCH  15  16
ATOM     16  C   UNL     1       0.373  -8.872   7.957  1.00  0.00    -0.000 C 
BRANCH  16  17
ATOM     17  C   UNL     1       0.763 -10.358   8.038  1.00  0.00    -0.000 C 
BRANCH  17  18
ATOM     18  C   UNL     1       0.537 -11.094   6.700  1.00  0.00    -0.000 C 
BRANCH  18  19
ATOM     19  C   UNL     1      -0.470 -12.252   6.797  1.00  0.00    -0.003 C 
ATOM     20  C   UNL     1      -0.889 -12.797   5.433  1.00  0.00     0.004 C 
ENDBRANCH  18  19
ENDBRANCH  17  18
ENDBRANCH  16  17
ENDBRANCH  15  16
ENDBRANCH  14  15
ENDBRANCH  13  14
ENDBRANCH  12  13
ENDBRANCH   1  12
TORSDOF 16
ENDMDL
