MODEL 1
REMARK VINA RESULT:     9.699      0.000      0.000
REMARK INTER + INTRA:          15.933
REMARK INTER:                  16.503
REMARK INTRA:                  -0.570
REMARK UNBOUND:                -0.570
REMARK SMILES CCCCCCCCCCCCCC(=O)[O-]
REMARK SMILES IDX 8 1 9 2 10 3 11 4 12 5 13 6 14 7 15 8 16 9 7 10 6 11 5 12
REMARK SMILES IDX 4 13 3 14 2 15 1 16
REMARK H PARENT
REMARK Flexibility Score: inf
ROOT
ATOM      1  C   UNL     1       7.310  17.891  26.155  1.00  0.00     0.000 C 
ENDROOT
BRANCH   1   2
ATOM      2  C   UNL     1       5.825  18.294  26.136  1.00  0.00     0.000 C 
BRANCH   2   3
ATOM      3  C   UNL     1       5.047  17.769  27.356  1.00  0.00     0.000 C 
BRANCH   3   4
ATOM      4  C   UNL     1       3.518  17.971  27.294  1.00  0.00     0.000 C 
BRANCH   4   5
ATOM      5  C   UNL     1       2.895  17.837  25.893  1.00  0.00     0.006 C 
BRANCH   5   6
ATOM      6  C   UNL     1       1.398  17.510  25.930  1.00  0.00     0.053 C 
BRANCH   6   7
ATOM      7  C   UNL     1       0.690  18.196  24.804  1.00  0.00     0.041 C 
ATOM      8  O   UNL     1       0.528  19.445  24.826  1.00  0.00    -0.550 OA
ATOM      9  O   UNL     1       0.150  17.449  23.763  1.00  0.00    -0.550 OA
ENDBRANCH   6   7
ENDBRANCH   5   6
ENDBRANCH   4   5
ENDBRANCH   3   4
ENDBRANCH   2   3
ENDBRANCH   1   2
BRANCH   1  10
ATOM     10  C   UNL     1       7.680  17.055  27.402  1.00  0.00     0.000 C 
BRANCH  10  11
ATOM     11  C   UNL     1       9.148  17.215  27.834  1.00  0.00    -0.000 C 
BRANCH  11  12
ATOM     12  C   UNL     1       9.346  17.958  29.166  1.00  0.00    -0.000 C 
BRANCH  12  13
ATOM     13  C   UNL     1       8.458  17.427  30.313  1.00  0.00    -0.000 C 
BRANCH  13  14
ATOM     14  C   UNL     1       8.968  17.839  31.701  1.00  0.00    -0.000 C 
BRANCH  14  15
ATOM     15  C   UNL     1       7.921  17.547  32.783  1.00  0.00    -0.003 C 
ATOM     16  C   UNL     1       7.877  16.060  33.122  1.00  0.00     0.004 C 
ENDBRANCH  14  15
ENDBRANCH  13  14
ENDBRANCH  12  13
ENDBRANCH  11  12
ENDBRANCH  10  11
ENDBRANCH   1  10
TORSDOF 12
ENDMDL
MODEL 2
REMARK VINA RESULT:    10.167      2.398      2.947
REMARK INTER + INTRA:          16.729
REMARK INTER:                  17.232
REMARK INTRA:                  -0.502
REMARK UNBOUND:                -0.570
REMARK SMILES CCCCCCCCCCCCCC(=O)[O-]
REMARK SMILES IDX 8 1 9 2 10 3 11 4 12 5 13 6 14 7 15 8 16 9 7 10 6 11 5 12
REMARK SMILES IDX 4 13 3 14 2 15 1 16
REMARK H PARENT
REMARK Flexibility Score: inf
ROOT
ATOM      1  C   UNL     1       7.553  17.133  26.816  1.00  0.00     0.000 C 
ENDROOT
BRANCH   1   2
ATOM      2  C   UNL     1       6.243  17.897  27.075  1.00  0.00     0.000 C 
BRANCH   2   3
ATOM      3  C   UNL     1       5.798  18.747  25.871  1.00  0.00     0.000 C 
BRANCH   3   4
ATOM      4  C   UNL     1       6.072  18.119  24.489  1.00  0.00     0.000 C 
BRANCH   4   5
ATOM      5  C   UNL     1       5.368  18.804  23.305  1.00  0.00     0.006 C 
BRANCH   5   6
ATOM      6  C   UNL     1       4.364  19.878  23.741  1.00  0.00     0.053 C 
BRANCH   6   7
ATOM      7  C   UNL     1       3.884  20.651  22.554  1.00  0.00     0.041 C 
ATOM      8  O   UNL     1       4.636  21.498  22.003  1.00  0.00    -0.550 OA
ATOM      9  O   UNL     1       2.581  20.486  22.096  1.00  0.00    -0.550 OA
ENDBRANCH   6   7
ENDBRANCH   5   6
ENDBRANCH   4   5
ENDBRANCH   3   4
ENDBRANCH   2   3
ENDBRANCH   1   2
BRANCH   1  10
ATOM     10  C   UNL     1       8.799  17.922  27.281  1.00  0.00     0.000 C 
BRANCH  10  11
ATOM     11  C   UNL     1       9.387  17.415  28.609  1.00  0.00    -0.000 C 
BRANCH  11  12
ATOM     12  C   UNL     1       8.422  17.485  29.805  1.00  0.00    -0.000 C 
BRANCH  12  13
ATOM     13  C   UNL     1       9.089  17.962  31.115  1.00  0.00    -0.000 C 
BRANCH  13  14
ATOM     14  C   UNL     1       8.688  17.113  32.330  1.00  0.00    -0.000 C 
BRANCH  14  15
ATOM     15  C   UNL     1       7.530  17.762  33.098  1.00  0.00    -0.003 C 
ATOM     16  C   UNL     1       7.593  19.285  33.010  1.00  0.00     0.004 C 
ENDBRANCH  14  15
ENDBRANCH  13  14
ENDBRANCH  12  13
ENDBRANCH  11  12
ENDBRANCH  10  11
ENDBRANCH   1  10
TORSDOF 12
ENDMDL
MODEL 3
REMARK VINA RESULT:    10.263      2.293      2.715
REMARK INTER + INTRA:          16.892
REMARK INTER:                  17.320
REMARK INTRA:                  -0.428
REMARK UNBOUND:                -0.570
REMARK SMILES CCCCCCCCCCCCCC(=O)[O-]
REMARK SMILES IDX 8 1 9 2 10 3 11 4 12 5 13 6 14 7 15 8 16 9 7 10 6 11 5 12
REMARK SMILES IDX 4 13 3 14 2 15 1 16
REMARK H PARENT
REMARK Flexibility Score: inf
ROOT
ATOM      1  C   UNL     1       7.030  17.169  27.146  1.00  0.00     0.000 C 
ENDROOT
BRANCH   1   2
ATOM      2  C   UNL     1       6.059  18.281  26.710  1.00  0.00     0.000 C 
BRANCH   2   3
ATOM      3  C   UNL     1       5.780  18.273  25.196  1.00  0.00     0.000 C 
BRANCH   3   4
ATOM      4  C   UNL     1       5.196  19.585  24.631  1.00  0.00     0.000 C 
BRANCH   4   5
ATOM      5  C   UNL     1       4.664  19.499  23.190  1.00  0.00     0.006 C 
BRANCH   5   6
ATOM      6  C   UNL     1       4.225  20.857  22.629  1.00  0.00     0.053 C 
BRANCH   6   7
ATOM      7  C   UNL     1       2.738  20.896  22.472  1.00  0.00     0.041 C 
ATOM      8  O   UNL     1       2.170  20.147  21.634  1.00  0.00    -0.550 OA
ATOM      9  O   UNL     1       1.984  21.808  23.203  1.00  0.00    -0.550 OA
ENDBRANCH   6   7
ENDBRANCH   5   6
ENDBRANCH   4   5
ENDBRANCH   3   4
ENDBRANCH   2   3
ENDBRANCH   1   2
BRANCH   1  10
ATOM     10  C   UNL     1       8.511  17.585  26.994  1.00  0.00     0.000 C 
BRANCH  10  11
ATOM     11  C   UNL     1       9.409  17.085  28.139  1.00  0.00    -0.000 C 
BRANCH  11  12
ATOM     12  C   UNL     1       9.409  17.981  29.391  1.00  0.00    -0.000 C 
BRANCH  12  13
ATOM     13  C   UNL     1       8.491  17.468  30.523  1.00  0.00    -0.000 C 
BRANCH  13  14
ATOM     14  C   UNL     1       8.722  18.199  31.853  1.00  0.00    -0.000 C 
BRANCH  14  15
ATOM     15  C   UNL     1       7.863  17.594  32.971  1.00  0.00    -0.003 C 
ATOM     16  C   UNL     1       8.059  16.083  33.062  1.00  0.00     0.004 C 
ENDBRANCH  14  15
ENDBRANCH  13  14
ENDBRANCH  12  13
ENDBRANCH  11  12
ENDBRANCH  10  11
ENDBRANCH   1  10
TORSDOF 12
ENDMDL
MODEL 4
REMARK VINA RESULT:    10.361      0.548      1.181
REMARK INTER + INTRA:          17.059
REMARK INTER:                  17.630
REMARK INTRA:                  -0.571
REMARK UNBOUND:                -0.570
REMARK SMILES CCCCCCCCCCCCCC(=O)[O-]
REMARK SMILES IDX 8 1 9 2 10 3 11 4 12 5 13 6 14 7 15 8 16 9 7 10 6 11 5 12
REMARK SMILES IDX 4 13 3 14 2 15 1 16
REMARK H PARENT
REMARK Flexibility Score: inf
ROOT
ATOM      1  C   UNL     1       7.223  17.966  25.953  1.00  0.00     0.000 C 
ENDROOT
BRANCH   1   2
ATOM      2  C   UNL     1       5.731  18.333  26.045  1.00  0.00     0.000 C 
BRANCH   2   3
ATOM      3  C   UNL     1       5.077  17.858  27.355  1.00  0.00     0.000 C 
BRANCH   3   4
ATOM      4  C   UNL     1       3.534  17.845  27.349  1.00  0.00     0.000 C 
BRANCH   4   5
ATOM      5  C   UNL     1       2.883  17.873  25.954  1.00  0.00     0.006 C 
BRANCH   5   6
ATOM      6  C   UNL     1       1.382  17.563  25.985  1.00  0.00     0.053 C 
BRANCH   6   7
ATOM      7  C   UNL     1       0.713  18.120  24.768  1.00  0.00     0.041 C 
ATOM      8  O   UNL     1       0.327  17.350  23.850  1.00  0.00    -0.550 OA
ATOM      9  O   UNL     1       0.577  19.496  24.617  1.00  0.00    -0.550 OA
ENDBRANCH   6   7
ENDBRANCH   5   6
ENDBRANCH   4   5
ENDBRANCH   3   4
ENDBRANCH   2   3
ENDBRANCH   1   2
BRANCH   1  10
ATOM     10  C   UNL     1       7.718  17.188  27.194  1.00  0.00     0.000 C 
BRANCH  10  11
ATOM     11  C   UNL     1       8.827  17.916  27.973  1.00  0.00    -0.000 C 
BRANCH  11  12
ATOM     12  C   UNL     1       9.216  17.253  29.305  1.00  0.00    -0.000 C 
BRANCH  12  13
ATOM     13  C   UNL     1       8.201  17.502  30.443  1.00  0.00    -0.000 C 
BRANCH  13  14
ATOM     14  C   UNL     1       8.835  17.404  31.838  1.00  0.00    -0.000 C 
BRANCH  14  15
ATOM     15  C   UNL     1       7.810  17.721  32.934  1.00  0.00    -0.003 C 
ATOM     16  C   UNL     1       7.506  19.216  32.989  1.00  0.00     0.004 C 
ENDBRANCH  14  15
ENDBRANCH  13  14
ENDBRANCH  12  13
ENDBRANCH  11  12
ENDBRANCH  10  11
ENDBRANCH   1  10
TORSDOF 12
ENDMDL
MODEL 5
REMARK VINA RESULT:    10.463      4.380      8.388
REMARK INTER + INTRA:          17.233
REMARK INTER:                  17.761
REMARK INTRA:                  -0.528
REMARK UNBOUND:                -0.570
REMARK SMILES CCCCCCCCCCCCCC(=O)[O-]
REMARK SMILES IDX 8 1 9 2 10 3 11 4 12 5 13 6 14 7 15 8 16 9 7 10 6 11 5 12
REMARK SMILES IDX 4 13 3 14 2 15 1 16
REMARK H PARENT
REMARK Flexibility Score: inf
ROOT
ATOM      1  C   UNL     1       7.508  17.685  26.456  1.00  0.00     0.000 C 
ENDROOT
BRANCH   1   2
ATOM      2  C   UNL     1       8.526  17.030  27.406  1.00  0.00     0.000 C 
BRANCH   2   3
ATOM      3  C   UNL     1       9.571  18.025  27.942  1.00  0.00     0.000 C 
BRANCH   3   4
ATOM      4  C   UNL     1       9.954  17.837  29.425  1.00  0.00     0.000 C 
BRANCH   4   5
ATOM      5  C   UNL     1       8.781  17.523  30.370  1.00  0.00     0.006 C 
BRANCH   5   6
ATOM      6  C   UNL     1       9.175  17.562  31.851  1.00  0.00     0.053 C 
BRANCH   6   7
ATOM      7  C   UNL     1       7.954  17.517  32.714  1.00  0.00     0.041 C 
ATOM      8  O   UNL     1       7.426  18.585  33.121  1.00  0.00    -0.550 OA
ATOM      9  O   UNL     1       7.436  16.293  33.124  1.00  0.00    -0.550 OA
ENDBRANCH   6   7
ENDBRANCH   5   6
ENDBRANCH   4   5
ENDBRANCH   3   4
ENDBRANCH   2   3
ENDBRANCH   1   2
BRANCH   1  10
ATOM     10  C   UNL     1       6.115  17.851  27.105  1.00  0.00     0.000 C 
BRANCH  10  11
ATOM     11  C   UNL     1       5.017  18.258  26.106  1.00  0.00    -0.000 C 
BRANCH  11  12
ATOM     12  C   UNL     1       5.528  19.005  24.862  1.00  0.00    -0.000 C 
BRANCH  12  13
ATOM     13  C   UNL     1       4.468  19.157  23.749  1.00  0.00    -0.000 C 
BRANCH  13  14
ATOM     14  C   UNL     1       4.622  20.461  22.954  1.00  0.00    -0.000 C 
BRANCH  14  15
ATOM     15  C   UNL     1       3.342  20.786  22.174  1.00  0.00    -0.003 C 
ATOM     16  C   UNL     1       2.122  20.789  23.090  1.00  0.00     0.004 C 
ENDBRANCH  14  15
ENDBRANCH  13  14
ENDBRANCH  12  13
ENDBRANCH  11  12
ENDBRANCH  10  11
ENDBRANCH   1  10
TORSDOF 12
ENDMDL
MODEL 6
REMARK VINA RESULT:    10.619      4.258      8.203
REMARK INTER + INTRA:          17.498
REMARK INTER:                  17.754
REMARK INTRA:                  -0.257
REMARK UNBOUND:                -0.570
REMARK SMILES CCCCCCCCCCCCCC(=O)[O-]
REMARK SMILES IDX 8 1 9 2 10 3 11 4 12 5 13 6 14 7 15 8 16 9 7 10 6 11 5 12
REMARK SMILES IDX 4 13 3 14 2 15 1 16
REMARK H PARENT
REMARK Flexibility Score: inf
ROOT
ATOM      1  C   UNL     1       7.971  17.014  27.686  1.00  0.00     0.000 C 
ENDROOT
BRANCH   1   2
ATOM      2  C   UNL     1       9.211  17.788  28.168  1.00  0.00     0.000 C 
BRANCH   2   3
ATOM      3  C   UNL     1       9.511  17.569  29.662  1.00  0.00     0.000 C 
BRANCH   3   4
ATOM      4  C   UNL     1       8.268  17.441  30.567  1.00  0.00     0.000 C 
BRANCH   4   5
ATOM      5  C   UNL     1       8.563  17.191  32.056  1.00  0.00     0.006 C 
BRANCH   5   6
ATOM      6  C   UNL     1       7.603  17.934  32.993  1.00  0.00     0.053 C 
BRANCH   6   7
ATOM      7  C   UNL     1       7.614  19.399  32.689  1.00  0.00     0.041 C 
ATOM      8  O   UNL     1       8.659  19.947  32.248  1.00  0.00    -0.550 OA
ATOM      9  O   UNL     1       6.490  20.173  32.957  1.00  0.00    -0.550 OA
ENDBRANCH   6   7
ENDBRANCH   5   6
ENDBRANCH   4   5
ENDBRANCH   3   4
ENDBRANCH   2   3
ENDBRANCH   1   2
BRANCH   1  10
ATOM     10  C   UNL     1       7.389  17.587  26.374  1.00  0.00     0.000 C 
BRANCH  10  11
ATOM     11  C   UNL     1       5.923  18.037  26.498  1.00  0.00    -0.000 C 
BRANCH  11  12
ATOM     12  C   UNL     1       5.538  19.222  25.594  1.00  0.00    -0.000 C 
BRANCH  12  13
ATOM     13  C   UNL     1       5.586  18.894  24.085  1.00  0.00    -0.000 C 
BRANCH  13  14
ATOM     14  C   UNL     1       4.260  19.190  23.370  1.00  0.00    -0.000 C 
BRANCH  14  15
ATOM     15  C   UNL     1       4.297  20.560  22.683  1.00  0.00    -0.003 C 
ATOM     16  C   UNL     1       2.888  21.095  22.442  1.00  0.00     0.004 C 
ENDBRANCH  14  15
ENDBRANCH  13  14
ENDBRANCH  12  13
ENDBRANCH  11  12
ENDBRANCH  10  11
ENDBRANCH   1  10
TORSDOF 12
ENDMDL
MODEL 7
REMARK VINA RESULT:    11.239      2.633      4.567
REMARK INTER + INTRA:          18.553
REMARK INTER:                  18.829
REMARK INTRA:                  -0.276
REMARK UNBOUND:                -0.570
REMARK SMILES CCCCCCCCCCCCCC(=O)[O-]
REMARK SMILES IDX 8 1 9 2 10 3 11 4 12 5 13 6 14 7 15 8 16 9 7 10 6 11 5 12
REMARK SMILES IDX 4 13 3 14 2 15 1 16
REMARK H PARENT
REMARK Flexibility Score: inf
ROOT
ATOM      1  C   UNL     1       9.128  18.107  30.004  1.00  0.00     0.000 C 
ENDROOT
BRANCH   1   2
ATOM      2  C   UNL     1       9.289  18.094  28.474  1.00  0.00     0.000 C 
BRANCH   2   3
ATOM      3  C   UNL     1       9.573  16.689  27.914  1.00  0.00     0.000 C 
BRANCH   3   4
ATOM      4  C   UNL     1       8.689  16.268  26.721  1.00  0.00     0.000 C 
BRANCH   4   5
ATOM      5  C   UNL     1       7.710  17.344  26.219  1.00  0.00     0.006 C 
BRANCH   5   6
ATOM      6  C   UNL     1       6.655  17.731  27.262  1.00  0.00     0.053 C 
BRANCH   6   7
ATOM      7  C   UNL     1       5.407  18.205  26.586  1.00  0.00     0.041 C 
ATOM      8  O   UNL     1       5.480  18.922  25.554  1.00  0.00    -0.550 OA
ATOM      9  O   UNL     1       4.164  17.911  27.135  1.00  0.00    -0.550 OA
ENDBRANCH   6   7
ENDBRANCH   5   6
ENDBRANCH   4   5
ENDBRANCH   3   4
ENDBRANCH   2   3
ENDBRANCH   1   2
BRANCH   1  10
ATOM     10  C   UNL     1       8.003  17.163  30.489  1.00  0.00     0.000 C 
BRANCH  10  11
ATOM     11  C   UNL     1       8.266  16.560  31.880  1.00  0.00    -0.000 C 
BRANCH  11  12
ATOM     12  C   UNL     1       8.362  17.591  33.018  1.00  0.00    -0.000 C 
BRANCH  12  13
ATOM     13  C   UNL     1       7.129  18.515  33.125  1.00  0.00    -0.000 C 
BRANCH  13  14
ATOM     14  C   UNL     1       7.495  20.005  33.063  1.00  0.00    -0.000 C 
BRANCH  14  15
ATOM     15  C   UNL     1       6.236  20.882  33.044  1.00  0.00    -0.003 C 
ATOM     16  C   UNL     1       6.278  21.882  31.892  1.00  0.00     0.004 C 
ENDBRANCH  14  15
ENDBRANCH  13  14
ENDBRANCH  12  13
ENDBRANCH  11  12
ENDBRANCH  10  11
ENDBRANCH   1  10
TORSDOF 12
ENDMDL
MODEL 8
REMARK VINA RESULT:    12.304      5.734      7.733
REMARK INTER + INTRA:          20.365
REMARK INTER:                  20.868
REMARK INTRA:                  -0.503
REMARK UNBOUND:                -0.570
REMARK SMILES CCCCCCCCCCCCCC(=O)[O-]
REMARK SMILES IDX 8 1 9 2 10 3 11 4 12 5 13 6 14 7 15 8 16 9 7 10 6 11 5 12
REMARK SMILES IDX 4 13 3 14 2 15 1 16
REMARK H PARENT
REMARK Flexibility Score: inf
ROOT
ATOM      1  C   UNL     1      10.820  13.232  26.348  1.00  0.00     0.000 C 
ENDROOT
BRANCH   1   2
ATOM      2  C   UNL     1      10.846  11.914  27.143  1.00  0.00     0.000 C 
BRANCH   2   3
ATOM      3  C   UNL     1       9.953  10.824  26.524  1.00  0.00     0.000 C 
BRANCH   3   4
ATOM      4  C   UNL     1       9.786   9.551  27.379  1.00  0.00     0.000 C 
BRANCH   4   5
ATOM      5  C   UNL     1       8.334   9.185  27.736  1.00  0.00     0.006 C 
BRANCH   5   6
ATOM      6  C   UNL     1       7.360   9.380  26.569  1.00  0.00     0.053 C 
BRANCH   6   7
ATOM      7  C   UNL     1       6.168  10.167  27.015  1.00  0.00     0.041 C 
ATOM      8  O   UNL     1       5.537   9.827  28.051  1.00  0.00    -0.550 OA
ATOM      9  O   UNL     1       5.712  11.235  26.250  1.00  0.00    -0.550 OA
ENDBRANCH   6   7
ENDBRANCH   5   6
ENDBRANCH   4   5
ENDBRANCH   3   4
ENDBRANCH   2   3
ENDBRANCH   1   2
BRANCH   1  10
ATOM     10  C   UNL     1      10.843  14.476  27.266  1.00  0.00     0.000 C 
BRANCH  10  11
ATOM     11  C   UNL     1       9.906  15.603  26.795  1.00  0.00    -0.000 C 
BRANCH  11  12
ATOM     12  C   UNL     1       9.878  16.838  27.713  1.00  0.00    -0.000 C 
BRANCH  12  13
ATOM     13  C   UNL     1       8.459  17.396  27.960  1.00  0.00    -0.000 C 
BRANCH  13  14
ATOM     14  C   UNL     1       7.484  17.071  26.820  1.00  0.00    -0.000 C 
BRANCH  14  15
ATOM     15  C   UNL     1       6.189  17.881  26.953  1.00  0.00    -0.003 C 
ATOM     16  C   UNL     1       5.925  18.712  25.700  1.00  0.00     0.004 C 
ENDBRANCH  14  15
ENDBRANCH  13  14
ENDBRANCH  12  13
ENDBRANCH  11  12
ENDBRANCH  10  11
ENDBRANCH   1  10
TORSDOF 12
ENDMDL
