MODEL 1
REMARK VINA RESULT:    -4.957      0.000      0.000
REMARK INTER + INTRA:         -11.707
REMARK INTER:                  -9.593
REMARK INTRA:                  -2.114
REMARK UNBOUND:                -2.114
REMARK SMILES CCCCCCCCCCCCCCCCCC(=O)[O-]
REMARK SMILES IDX 10 1 11 2 12 3 13 4 14 5 15 6 16 7 17 8 18 9 19 10 20 11
REMARK SMILES IDX 9 12 8 13 7 14 6 15 5 16 4 17 3 18 2 19 1 20
REMARK H PARENT
REMARK Flexibility Score: inf
ROOT
ATOM      1  C   UNL     1      34.532  56.945  26.303  1.00  0.00     0.000 C 
ENDROOT
BRANCH   1   2
ATOM      2  C   UNL     1      33.097  56.491  26.619  1.00  0.00     0.000 C 
BRANCH   2   3
ATOM      3  C   UNL     1      32.919  54.954  26.540  1.00  0.00     0.000 C 
BRANCH   3   4
ATOM      4  C   UNL     1      32.295  54.360  27.815  1.00  0.00     0.000 C 
BRANCH   4   5
ATOM      5  C   UNL     1      33.339  53.862  28.837  1.00  0.00     0.000 C 
BRANCH   5   6
ATOM      6  C   UNL     1      33.021  54.309  30.276  1.00  0.00     0.000 C 
BRANCH   6   7
ATOM      7  C   UNL     1      32.883  53.119  31.249  1.00  0.00     0.006 C 
BRANCH   7   8
ATOM      8  C   UNL     1      34.041  52.991  32.258  1.00  0.00     0.053 C 
BRANCH   8   9
ATOM      9  C   UNL     1      34.681  51.629  32.278  1.00  0.00     0.041 C 
ATOM     10  O   UNL     1      33.979  50.617  32.014  1.00  0.00    -0.550 OA
ATOM     11  O   UNL     1      36.035  51.464  32.558  1.00  0.00    -0.550 OA
ENDBRANCH   8   9
ENDBRANCH   7   8
ENDBRANCH   6   7
ENDBRANCH   5   6
ENDBRANCH   4   5
ENDBRANCH   3   4
ENDBRANCH   2   3
ENDBRANCH   1   2
BRANCH   1  12
ATOM     12  C   UNL     1      35.510  56.653  27.462  1.00  0.00     0.000 C 
BRANCH  12  13
ATOM     13  C   UNL     1      36.186  57.934  27.975  1.00  0.00    -0.000 C 
BRANCH  13  14
ATOM     14  C   UNL     1      36.055  58.116  29.498  1.00  0.00    -0.000 C 
BRANCH  14  15
ATOM     15  C   UNL     1      35.136  57.050  30.126  1.00  0.00    -0.000 C 
BRANCH  15  16
ATOM     16  C   UNL     1      34.445  57.539  31.412  1.00  0.00    -0.000 C 
BRANCH  16  17
ATOM     17  C   UNL     1      34.772  56.710  32.668  1.00  0.00    -0.000 C 
BRANCH  17  18
ATOM     18  C   UNL     1      33.730  56.886  33.780  1.00  0.00    -0.000 C 
BRANCH  18  19
ATOM     19  C   UNL     1      32.368  56.337  33.343  1.00  0.00    -0.003 C 
ATOM     20  C   UNL     1      31.884  55.247  34.298  1.00  0.00     0.004 C 
ENDBRANCH  18  19
ENDBRANCH  17  18
ENDBRANCH  16  17
ENDBRANCH  15  16
ENDBRANCH  14  15
ENDBRANCH  13  14
ENDBRANCH  12  13
ENDBRANCH   1  12
TORSDOF 16
ENDMDL
MODEL 2
REMARK VINA RESULT:    -4.935      2.266      4.620
REMARK INTER + INTRA:         -11.664
REMARK INTER:                  -9.774
REMARK INTRA:                  -1.890
REMARK UNBOUND:                -2.114
REMARK SMILES CCCCCCCCCCCCCCCCCC(=O)[O-]
REMARK SMILES IDX 10 1 11 2 12 3 13 4 14 5 15 6 16 7 17 8 18 9 19 10 20 11
REMARK SMILES IDX 9 12 8 13 7 14 6 15 5 16 4 17 3 18 2 19 1 20
REMARK H PARENT
REMARK Flexibility Score: inf
ROOT
ATOM      1  C   UNL     1      32.499  54.728  28.405  1.00  0.00     0.000 C 
ENDROOT
BRANCH   1   2
ATOM      2  C   UNL     1      31.487  55.263  27.378  1.00  0.00     0.000 C 
BRANCH   2   3
ATOM      3  C   UNL     1      32.116  56.259  26.373  1.00  0.00     0.000 C 
BRANCH   3   4
ATOM      4  C   UNL     1      33.596  55.955  26.079  1.00  0.00     0.000 C 
BRANCH   4   5
ATOM      5  C   UNL     1      34.528  57.166  26.294  1.00  0.00     0.000 C 
BRANCH   5   6
ATOM      6  C   UNL     1      35.766  56.819  27.142  1.00  0.00     0.000 C 
BRANCH   6   7
ATOM      7  C   UNL     1      35.897  57.712  28.393  1.00  0.00     0.006 C 
BRANCH   7   8
ATOM      8  C   UNL     1      34.957  57.319  29.550  1.00  0.00     0.053 C 
BRANCH   8   9
ATOM      9  C   UNL     1      35.502  57.646  30.913  1.00  0.00     0.041 C 
ATOM     10  O   UNL     1      35.556  58.851  31.280  1.00  0.00    -0.550 OA
ATOM     11  O   UNL     1      35.925  56.649  31.789  1.00  0.00    -0.550 OA
ENDBRANCH   8   9
ENDBRANCH   7   8
ENDBRANCH   6   7
ENDBRANCH   5   6
ENDBRANCH   4   5
ENDBRANCH   3   4
ENDBRANCH   2   3
ENDBRANCH   1   2
BRANCH   1  12
ATOM     12  C   UNL     1      32.771  53.218  28.232  1.00  0.00     0.000 C 
BRANCH  12  13
ATOM     13  C   UNL     1      33.075  52.535  29.575  1.00  0.00    -0.000 C 
BRANCH  13  14
ATOM     14  C   UNL     1      33.391  53.537  30.702  1.00  0.00    -0.000 C 
BRANCH  14  15
ATOM     15  C   UNL     1      32.592  53.230  31.983  1.00  0.00    -0.000 C 
BRANCH  15  16
ATOM     16  C   UNL     1      32.450  54.455  32.905  1.00  0.00    -0.000 C 
BRANCH  16  17
ATOM     17  C   UNL     1      32.276  55.794  32.164  1.00  0.00    -0.000 C 
BRANCH  17  18
ATOM     18  C   UNL     1      32.721  56.997  33.006  1.00  0.00    -0.000 C 
BRANCH  18  19
ATOM     19  C   UNL     1      33.503  56.539  34.242  1.00  0.00    -0.003 C 
ATOM     20  C   UNL     1      34.372  57.669  34.791  1.00  0.00     0.004 C 
ENDBRANCH  18  19
ENDBRANCH  17  18
ENDBRANCH  16  17
ENDBRANCH  15  16
ENDBRANCH  14  15
ENDBRANCH  13  14
ENDBRANCH  12  13
ENDBRANCH   1  12
TORSDOF 16
ENDMDL
MODEL 3
REMARK VINA RESULT:    -4.899      2.726      5.911
REMARK INTER + INTRA:         -11.596
REMARK INTER:                  -9.756
REMARK INTRA:                  -1.840
REMARK UNBOUND:                -2.114
REMARK SMILES CCCCCCCCCCCCCCCCCC(=O)[O-]
REMARK SMILES IDX 10 1 11 2 12 3 13 4 14 5 15 6 16 7 17 8 18 9 19 10 20 11
REMARK SMILES IDX 9 12 8 13 7 14 6 15 5 16 4 17 3 18 2 19 1 20
REMARK H PARENT
REMARK Flexibility Score: inf
ROOT
ATOM      1  C   UNL     1      34.083  56.282  31.367  1.00  0.00     0.000 C 
ENDROOT
BRANCH   1   2
ATOM      2  C   UNL     1      34.878  57.597  31.351  1.00  0.00     0.000 C 
BRANCH   2   3
ATOM      3  C   UNL     1      35.503  57.907  29.968  1.00  0.00     0.000 C 
BRANCH   3   4
ATOM      4  C   UNL     1      34.955  57.002  28.850  1.00  0.00     0.000 C 
BRANCH   4   5
ATOM      5  C   UNL     1      35.728  57.133  27.520  1.00  0.00     0.000 C 
BRANCH   5   6
ATOM      6  C   UNL     1      34.822  56.951  26.287  1.00  0.00     0.000 C 
BRANCH   6   7
ATOM      7  C   UNL     1      33.356  56.657  26.668  1.00  0.00     0.006 C 
BRANCH   7   8
ATOM      8  C   UNL     1      32.865  55.257  26.251  1.00  0.00     0.053 C 
BRANCH   8   9
ATOM      9  C   UNL     1      31.423  54.993  26.590  1.00  0.00     0.041 C 
ATOM     10  O   UNL     1      30.879  53.934  26.176  1.00  0.00    -0.550 OA
ATOM     11  O   UNL     1      30.682  55.878  27.368  1.00  0.00    -0.550 OA
ENDBRANCH   8   9
ENDBRANCH   7   8
ENDBRANCH   6   7
ENDBRANCH   5   6
ENDBRANCH   4   5
ENDBRANCH   3   4
ENDBRANCH   2   3
ENDBRANCH   1   2
BRANCH   1  12
ATOM     12  C   UNL     1      32.715  56.430  32.067  1.00  0.00     0.000 C 
BRANCH  12  13
ATOM     13  C   UNL     1      32.852  56.418  33.598  1.00  0.00    -0.000 C 
BRANCH  13  14
ATOM     14  C   UNL     1      32.094  55.253  34.262  1.00  0.00    -0.000 C 
BRANCH  14  15
ATOM     15  C   UNL     1      32.583  53.884  33.750  1.00  0.00    -0.000 C 
BRANCH  15  16
ATOM     16  C   UNL     1      31.435  52.989  33.248  1.00  0.00    -0.000 C 
BRANCH  16  17
ATOM     17  C   UNL     1      31.757  52.199  31.965  1.00  0.00    -0.000 C 
BRANCH  17  18
ATOM     18  C   UNL     1      32.993  52.738  31.234  1.00  0.00    -0.000 C 
BRANCH  18  19
ATOM     19  C   UNL     1      32.610  53.314  29.866  1.00  0.00    -0.003 C 
ATOM     20  C   UNL     1      32.566  52.217  28.803  1.00  0.00     0.004 C 
ENDBRANCH  18  19
ENDBRANCH  17  18
ENDBRANCH  16  17
ENDBRANCH  15  16
ENDBRANCH  14  15
ENDBRANCH  13  14
ENDBRANCH  12  13
ENDBRANCH   1  12
TORSDOF 16
ENDMDL
MODEL 4
REMARK VINA RESULT:    -4.841      2.012      4.967
REMARK INTER + INTRA:         -11.484
REMARK INTER:                  -9.454
REMARK INTRA:                  -2.030
REMARK UNBOUND:                -2.114
REMARK SMILES CCCCCCCCCCCCCCCCCC(=O)[O-]
REMARK SMILES IDX 10 1 11 2 12 3 13 4 14 5 15 6 16 7 17 8 18 9 19 10 20 11
REMARK SMILES IDX 9 12 8 13 7 14 6 15 5 16 4 17 3 18 2 19 1 20
REMARK H PARENT
REMARK Flexibility Score: inf
ROOT
ATOM      1  C   UNL     1      35.187  58.006  31.527  1.00  0.00     0.000 C 
ENDROOT
BRANCH   1   2
ATOM      2  C   UNL     1      35.235  57.587  30.049  1.00  0.00     0.000 C 
BRANCH   2   3
ATOM      3  C   UNL     1      36.414  58.231  29.278  1.00  0.00     0.000 C 
BRANCH   3   4
ATOM      4  C   UNL     1      36.599  57.638  27.869  1.00  0.00     0.000 C 
BRANCH   4   5
ATOM      5  C   UNL     1      35.625  56.484  27.554  1.00  0.00     0.000 C 
BRANCH   5   6
ATOM      6  C   UNL     1      34.516  56.895  26.568  1.00  0.00     0.000 C 
BRANCH   6   7
ATOM      7  C   UNL     1      33.209  56.102  26.780  1.00  0.00     0.006 C 
BRANCH   7   8
ATOM      8  C   UNL     1      33.234  55.160  28.000  1.00  0.00     0.053 C 
BRANCH   8   9
ATOM      9  C   UNL     1      32.633  53.807  27.735  1.00  0.00     0.041 C 
ATOM     10  O   UNL     1      33.227  52.778  28.156  1.00  0.00    -0.550 OA
ATOM     11  O   UNL     1      31.425  53.664  27.057  1.00  0.00    -0.550 OA
ENDBRANCH   8   9
ENDBRANCH   7   8
ENDBRANCH   6   7
ENDBRANCH   5   6
ENDBRANCH   4   5
ENDBRANCH   3   4
ENDBRANCH   2   3
ENDBRANCH   1   2
BRANCH   1  12
ATOM     12  C   UNL     1      34.855  56.824  32.463  1.00  0.00     0.000 C 
BRANCH  12  13
ATOM     13  C   UNL     1      33.655  57.134  33.373  1.00  0.00    -0.000 C 
BRANCH  13  14
ATOM     14  C   UNL     1      32.364  56.420  32.931  1.00  0.00    -0.000 C 
BRANCH  14  15
ATOM     15  C   UNL     1      32.606  55.491  31.725  1.00  0.00    -0.000 C 
BRANCH  15  16
ATOM     16  C   UNL     1      32.460  54.000  32.080  1.00  0.00    -0.000 C 
BRANCH  16  17
ATOM     17  C   UNL     1      33.621  53.112  31.594  1.00  0.00    -0.000 C 
BRANCH  17  18
ATOM     18  C   UNL     1      34.223  52.258  32.718  1.00  0.00    -0.000 C 
BRANCH  18  19
ATOM     19  C   UNL     1      34.648  53.136  33.900  1.00  0.00    -0.003 C 
ATOM     20  C   UNL     1      36.053  53.698  33.688  1.00  0.00     0.004 C 
ENDBRANCH  18  19
ENDBRANCH  17  18
ENDBRANCH  16  17
ENDBRANCH  15  16
ENDBRANCH  14  15
ENDBRANCH  13  14
ENDBRANCH  12  13
ENDBRANCH   1  12
TORSDOF 16
ENDMDL
MODEL 5
REMARK VINA RESULT:    -4.835      1.897      2.631
REMARK INTER + INTRA:         -11.471
REMARK INTER:                  -9.318
REMARK INTRA:                  -2.153
REMARK UNBOUND:                -2.114
REMARK SMILES CCCCCCCCCCCCCCCCCC(=O)[O-]
REMARK SMILES IDX 10 1 11 2 12 3 13 4 14 5 15 6 16 7 17 8 18 9 19 10 20 11
REMARK SMILES IDX 9 12 8 13 7 14 6 15 5 16 4 17 3 18 2 19 1 20
REMARK H PARENT
REMARK Flexibility Score: inf
ROOT
ATOM      1  C   UNL     1      32.383  56.196  26.965  1.00  0.00     0.000 C 
ENDROOT
BRANCH   1   2
ATOM      2  C   UNL     1      31.873  54.956  27.716  1.00  0.00     0.000 C 
BRANCH   2   3
ATOM      3  C   UNL     1      32.761  53.707  27.492  1.00  0.00     0.000 C 
BRANCH   3   4
ATOM      4  C   UNL     1      33.318  53.127  28.804  1.00  0.00     0.000 C 
BRANCH   4   5
ATOM      5  C   UNL     1      32.920  53.941  30.054  1.00  0.00     0.000 C 
BRANCH   5   6
ATOM      6  C   UNL     1      33.320  53.245  31.368  1.00  0.00     0.000 C 
BRANCH   6   7
ATOM      7  C   UNL     1      32.198  53.289  32.427  1.00  0.00     0.006 C 
BRANCH   7   8
ATOM      8  C   UNL     1      31.645  51.905  32.818  1.00  0.00     0.053 C 
BRANCH   8   9
ATOM      9  C   UNL     1      30.374  51.534  32.103  1.00  0.00     0.041 C 
ATOM     10  O   UNL     1      30.427  51.216  30.884  1.00  0.00    -0.550 OA
ATOM     11  O   UNL     1      29.147  51.510  32.760  1.00  0.00    -0.550 OA
ENDBRANCH   8   9
ENDBRANCH   7   8
ENDBRANCH   6   7
ENDBRANCH   5   6
ENDBRANCH   4   5
ENDBRANCH   3   4
ENDBRANCH   2   3
ENDBRANCH   1   2
BRANCH   1  12
ATOM     12  C   UNL     1      33.872  56.076  26.574  1.00  0.00     0.000 C 
BRANCH  12  13
ATOM     13  C   UNL     1      34.729  57.157  27.253  1.00  0.00    -0.000 C 
BRANCH  13  14
ATOM     14  C   UNL     1      35.630  56.598  28.369  1.00  0.00    -0.000 C 
BRANCH  14  15
ATOM     15  C   UNL     1      36.211  57.719  29.254  1.00  0.00    -0.000 C 
BRANCH  15  16
ATOM     16  C   UNL     1      35.251  58.150  30.378  1.00  0.00    -0.000 C 
BRANCH  16  17
ATOM     17  C   UNL     1      34.512  56.987  31.067  1.00  0.00    -0.000 C 
BRANCH  17  18
ATOM     18  C   UNL     1      34.778  56.930  32.577  1.00  0.00    -0.000 C 
BRANCH  18  19
ATOM     19  C   UNL     1      33.477  56.694  33.351  1.00  0.00    -0.003 C 
ATOM     20  C   UNL     1      32.259  56.917  32.455  1.00  0.00     0.004 C 
ENDBRANCH  18  19
ENDBRANCH  17  18
ENDBRANCH  16  17
ENDBRANCH  15  16
ENDBRANCH  14  15
ENDBRANCH  13  14
ENDBRANCH  12  13
ENDBRANCH   1  12
TORSDOF 16
ENDMDL
MODEL 6
REMARK VINA RESULT:    -4.790      1.035      2.013
REMARK INTER + INTRA:         -11.384
REMARK INTER:                  -9.104
REMARK INTRA:                  -2.280
REMARK UNBOUND:                -2.114
REMARK SMILES CCCCCCCCCCCCCCCCCC(=O)[O-]
REMARK SMILES IDX 10 1 11 2 12 3 13 4 14 5 15 6 16 7 17 8 18 9 19 10 20 11
REMARK SMILES IDX 9 12 8 13 7 14 6 15 5 16 4 17 3 18 2 19 1 20
REMARK H PARENT
REMARK Flexibility Score: inf
ROOT
ATOM      1  C   UNL     1      32.188  55.906  26.549  1.00  0.00     0.000 C 
ENDROOT
BRANCH   1   2
ATOM      2  C   UNL     1      32.091  55.228  27.926  1.00  0.00     0.000 C 
BRANCH   2   3
ATOM      3  C   UNL     1      32.607  53.768  27.917  1.00  0.00     0.000 C 
BRANCH   3   4
ATOM      4  C   UNL     1      33.306  53.374  29.231  1.00  0.00     0.000 C 
BRANCH   4   5
ATOM      5  C   UNL     1      33.554  54.568  30.177  1.00  0.00     0.000 C 
BRANCH   5   6
ATOM      6  C   UNL     1      32.671  54.519  31.438  1.00  0.00     0.000 C 
BRANCH   6   7
ATOM      7  C   UNL     1      33.024  53.334  32.362  1.00  0.00     0.006 C 
BRANCH   7   8
ATOM      8  C   UNL     1      34.494  53.310  32.824  1.00  0.00     0.053 C 
BRANCH   8   9
ATOM      9  C   UNL     1      35.162  51.973  32.654  1.00  0.00     0.041 C 
ATOM     10  O   UNL     1      34.498  51.010  32.183  1.00  0.00    -0.550 OA
ATOM     11  O   UNL     1      36.502  51.779  32.980  1.00  0.00    -0.550 OA
ENDBRANCH   8   9
ENDBRANCH   7   8
ENDBRANCH   6   7
ENDBRANCH   5   6
ENDBRANCH   4   5
ENDBRANCH   3   4
ENDBRANCH   2   3
ENDBRANCH   1   2
BRANCH   1  12
ATOM     12  C   UNL     1      33.641  55.986  26.033  1.00  0.00     0.000 C 
BRANCH  12  13
ATOM     13  C   UNL     1      34.445  57.079  26.756  1.00  0.00    -0.000 C 
BRANCH  13  14
ATOM     14  C   UNL     1      35.908  56.676  27.019  1.00  0.00    -0.000 C 
BRANCH  14  15
ATOM     15  C   UNL     1      36.342  56.999  28.462  1.00  0.00    -0.000 C 
BRANCH  15  16
ATOM     16  C   UNL     1      35.266  57.766  29.252  1.00  0.00    -0.000 C 
BRANCH  16  17
ATOM     17  C   UNL     1      35.611  58.004  30.734  1.00  0.00    -0.000 C 
BRANCH  17  18
ATOM     18  C   UNL     1      34.441  57.679  31.672  1.00  0.00    -0.000 C 
BRANCH  18  19
ATOM     19  C   UNL     1      34.947  57.342  33.079  1.00  0.00    -0.003 C 
ATOM     20  C   UNL     1      33.783  57.046  34.024  1.00  0.00     0.004 C 
ENDBRANCH  18  19
ENDBRANCH  17  18
ENDBRANCH  16  17
ENDBRANCH  15  16
ENDBRANCH  14  15
ENDBRANCH  13  14
ENDBRANCH  12  13
ENDBRANCH   1  12
TORSDOF 16
ENDMDL
MODEL 7
REMARK VINA RESULT:    -4.746      2.273      4.709
REMARK INTER + INTRA:         -11.298
REMARK INTER:                  -9.087
REMARK INTRA:                  -2.211
REMARK UNBOUND:                -2.114
REMARK SMILES CCCCCCCCCCCCCCCCCC(=O)[O-]
REMARK SMILES IDX 10 1 11 2 12 3 13 4 14 5 15 6 16 7 17 8 18 9 19 10 20 11
REMARK SMILES IDX 9 12 8 13 7 14 6 15 5 16 4 17 3 18 2 19 1 20
REMARK H PARENT
REMARK Flexibility Score: inf
ROOT
ATOM      1  C   UNL     1      31.920  55.319  27.747  1.00  0.00     0.000 C 
ENDROOT
BRANCH   1   2
ATOM      2  C   UNL     1      32.299  56.225  26.564  1.00  0.00     0.000 C 
BRANCH   2   3
ATOM      3  C   UNL     1      33.803  56.149  26.203  1.00  0.00     0.000 C 
BRANCH   3   4
ATOM      4  C   UNL     1      34.643  57.221  26.921  1.00  0.00     0.000 C 
BRANCH   4   5
ATOM      5  C   UNL     1      36.033  56.717  27.364  1.00  0.00     0.000 C 
BRANCH   5   6
ATOM      6  C   UNL     1      36.441  57.246  28.752  1.00  0.00     0.000 C 
BRANCH   6   7
ATOM      7  C   UNL     1      35.233  57.737  29.577  1.00  0.00     0.006 C 
BRANCH   7   8
ATOM      8  C   UNL     1      35.610  58.374  30.929  1.00  0.00     0.053 C 
BRANCH   8   9
ATOM      9  C   UNL     1      35.296  57.506  32.117  1.00  0.00     0.041 C 
ATOM     10  O   UNL     1      35.929  56.428  32.275  1.00  0.00    -0.550 OA
ATOM     11  O   UNL     1      34.340  57.877  33.060  1.00  0.00    -0.550 OA
ENDBRANCH   8   9
ENDBRANCH   7   8
ENDBRANCH   6   7
ENDBRANCH   5   6
ENDBRANCH   4   5
ENDBRANCH   3   4
ENDBRANCH   2   3
ENDBRANCH   1   2
BRANCH   1  12
ATOM     12  C   UNL     1      32.946  54.188  27.974  1.00  0.00     0.000 C 
BRANCH  12  13
ATOM     13  C   UNL     1      33.172  53.914  29.470  1.00  0.00    -0.000 C 
BRANCH  13  14
ATOM     14  C   UNL     1      32.999  55.170  30.345  1.00  0.00    -0.000 C 
BRANCH  14  15
ATOM     15  C   UNL     1      32.768  54.810  31.826  1.00  0.00    -0.000 C 
BRANCH  15  16
ATOM     16  C   UNL     1      33.657  53.648  32.303  1.00  0.00    -0.000 C 
BRANCH  16  17
ATOM     17  C   UNL     1      32.916  52.571  33.119  1.00  0.00    -0.000 C 
BRANCH  17  18
ATOM     18  C   UNL     1      31.426  52.482  32.763  1.00  0.00    -0.000 C 
BRANCH  18  19
ATOM     19  C   UNL     1      31.200  51.504  31.606  1.00  0.00    -0.003 C 
ATOM     20  C   UNL     1      32.217  50.364  31.645  1.00  0.00     0.004 C 
ENDBRANCH  18  19
ENDBRANCH  17  18
ENDBRANCH  16  17
ENDBRANCH  15  16
ENDBRANCH  14  15
ENDBRANCH  13  14
ENDBRANCH  12  13
ENDBRANCH   1  12
TORSDOF 16
ENDMDL
MODEL 8
REMARK VINA RESULT:    -4.728      2.087      4.539
REMARK INTER + INTRA:         -11.265
REMARK INTER:                  -9.194
REMARK INTRA:                  -2.071
REMARK UNBOUND:                -2.114
REMARK SMILES CCCCCCCCCCCCCCCCCC(=O)[O-]
REMARK SMILES IDX 10 1 11 2 12 3 13 4 14 5 15 6 16 7 17 8 18 9 19 10 20 11
REMARK SMILES IDX 9 12 8 13 7 14 6 15 5 16 4 17 3 18 2 19 1 20
REMARK H PARENT
REMARK Flexibility Score: inf
ROOT
ATOM      1  C   UNL     1      34.609  56.325  27.606  1.00  0.00     0.000 C 
ENDROOT
BRANCH   1   2
ATOM      2  C   UNL     1      35.652  57.442  27.771  1.00  0.00     0.000 C 
BRANCH   2   3
ATOM      3  C   UNL     1      36.259  57.497  29.195  1.00  0.00     0.000 C 
BRANCH   3   4
ATOM      4  C   UNL     1      35.279  58.061  30.239  1.00  0.00     0.000 C 
BRANCH   4   5
ATOM      5  C   UNL     1      35.080  57.137  31.459  1.00  0.00     0.000 C 
BRANCH   5   6
ATOM      6  C   UNL     1      33.900  56.163  31.280  1.00  0.00     0.000 C 
BRANCH   6   7
ATOM      7  C   UNL     1      32.647  56.600  32.067  1.00  0.00     0.006 C 
BRANCH   7   8
ATOM      8  C   UNL     1      32.273  55.661  33.230  1.00  0.00     0.053 C 
BRANCH   8   9
ATOM      9  C   UNL     1      33.115  55.854  34.462  1.00  0.00     0.041 C 
ATOM     10  O   UNL     1      33.209  54.912  35.294  1.00  0.00    -0.550 OA
ATOM     11  O   UNL     1      33.812  57.037  34.691  1.00  0.00    -0.550 OA
ENDBRANCH   8   9
ENDBRANCH   7   8
ENDBRANCH   6   7
ENDBRANCH   5   6
ENDBRANCH   4   5
ENDBRANCH   3   4
ENDBRANCH   2   3
ENDBRANCH   1   2
BRANCH   1  12
ATOM     12  C   UNL     1      33.563  56.652  26.520  1.00  0.00     0.000 C 
BRANCH  12  13
ATOM     13  C   UNL     1      32.256  55.870  26.732  1.00  0.00    -0.000 C 
BRANCH  13  14
ATOM     14  C   UNL     1      32.197  55.154  28.094  1.00  0.00    -0.000 C 
BRANCH  14  15
ATOM     15  C   UNL     1      32.428  53.636  27.956  1.00  0.00    -0.000 C 
BRANCH  15  16
ATOM     16  C   UNL     1      33.190  53.037  29.151  1.00  0.00    -0.000 C 
BRANCH  16  17
ATOM     17  C   UNL     1      32.368  52.051  30.002  1.00  0.00    -0.000 C 
BRANCH  17  18
ATOM     18  C   UNL     1      32.320  52.446  31.484  1.00  0.00    -0.000 C 
BRANCH  18  19
ATOM     19  C   UNL     1      33.450  51.769  32.266  1.00  0.00    -0.003 C 
ATOM     20  C   UNL     1      34.527  52.781  32.658  1.00  0.00     0.004 C 
ENDBRANCH  18  19
ENDBRANCH  17  18
ENDBRANCH  16  17
ENDBRANCH  15  16
ENDBRANCH  14  15
ENDBRANCH  13  14
ENDBRANCH  12  13
ENDBRANCH   1  12
TORSDOF 16
ENDMDL
MODEL 9
REMARK VINA RESULT:    -4.710      1.555      2.055
REMARK INTER + INTRA:         -11.229
REMARK INTER:                  -9.390
REMARK INTRA:                  -1.839
REMARK UNBOUND:                -2.114
REMARK SMILES CCCCCCCCCCCCCCCCCC(=O)[O-]
REMARK SMILES IDX 10 1 11 2 12 3 13 4 14 5 15 6 16 7 17 8 18 9 19 10 20 11
REMARK SMILES IDX 9 12 8 13 7 14 6 15 5 16 4 17 3 18 2 19 1 20
REMARK H PARENT
REMARK Flexibility Score: inf
ROOT
ATOM      1  C   UNL     1      34.568  57.337  26.455  1.00  0.00     0.000 C 
ENDROOT
BRANCH   1   2
ATOM      2  C   UNL     1      33.712  56.199  25.875  1.00  0.00     0.000 C 
BRANCH   2   3
ATOM      3  C   UNL     1      32.245  56.235  26.370  1.00  0.00     0.000 C 
BRANCH   3   4
ATOM      4  C   UNL     1      31.873  55.008  27.222  1.00  0.00     0.000 C 
BRANCH   4   5
ATOM      5  C   UNL     1      32.430  55.067  28.660  1.00  0.00     0.000 C 
BRANCH   5   6
ATOM      6  C   UNL     1      33.318  53.856  29.002  1.00  0.00     0.000 C 
BRANCH   6   7
ATOM      7  C   UNL     1      32.528  52.531  29.031  1.00  0.00     0.006 C 
BRANCH   7   8
ATOM      8  C   UNL     1      32.888  51.607  30.211  1.00  0.00     0.053 C 
BRANCH   8   9
ATOM      9  C   UNL     1      31.700  50.926  30.834  1.00  0.00     0.041 C 
ATOM     10  O   UNL     1      31.849  50.304  31.920  1.00  0.00    -0.550 OA
ATOM     11  O   UNL     1      30.436  50.987  30.252  1.00  0.00    -0.550 OA
ENDBRANCH   8   9
ENDBRANCH   7   8
ENDBRANCH   6   7
ENDBRANCH   5   6
ENDBRANCH   4   5
ENDBRANCH   3   4
ENDBRANCH   2   3
ENDBRANCH   1   2
BRANCH   1  12
ATOM     12  C   UNL     1      35.561  56.839  27.527  1.00  0.00     0.000 C 
BRANCH  12  13
ATOM     13  C   UNL     1      36.292  58.004  28.214  1.00  0.00    -0.000 C 
BRANCH  13  14
ATOM     14  C   UNL     1      35.989  58.100  29.721  1.00  0.00    -0.000 C 
BRANCH  14  15
ATOM     15  C   UNL     1      34.919  57.080  30.157  1.00  0.00    -0.000 C 
BRANCH  15  16
ATOM     16  C   UNL     1      34.357  57.369  31.561  1.00  0.00    -0.000 C 
BRANCH  16  17
ATOM     17  C   UNL     1      33.076  56.586  31.908  1.00  0.00    -0.000 C 
BRANCH  17  18
ATOM     18  C   UNL     1      32.756  56.612  33.409  1.00  0.00    -0.000 C 
BRANCH  18  19
ATOM     19  C   UNL     1      32.265  55.241  33.885  1.00  0.00    -0.003 C 
ATOM     20  C   UNL     1      32.446  54.185  32.796  1.00  0.00     0.004 C 
ENDBRANCH  18  19
ENDBRANCH  17  18
ENDBRANCH  16  17
ENDBRANCH  15  16
ENDBRANCH  14  15
ENDBRANCH  13  14
ENDBRANCH  12  13
ENDBRANCH   1  12
TORSDOF 16
ENDMDL
