MODEL 1
REMARK VINA RESULT:    -4.794      0.000      0.000
REMARK INTER + INTRA:         -10.215
REMARK INTER:                  -8.158
REMARK INTRA:                  -2.057
REMARK UNBOUND:                -2.057
REMARK SMILES CCCCCCCCCCCCCC(=O)[O-]
REMARK SMILES IDX 8 1 9 2 10 3 11 4 12 5 13 6 14 7 15 8 16 9 7 10 6 11 5 12
REMARK SMILES IDX 4 13 3 14 2 15 1 16
REMARK H PARENT
REMARK Flexibility Score: inf
ROOT
ATOM      1  C   UNL     1      12.513  15.810 160.137  1.00  0.00     0.000 C 
ENDROOT
BRANCH   1   2
ATOM      2  C   UNL     1      11.010  15.536 160.317  1.00  0.00     0.000 C 
BRANCH   2   3
ATOM      3  C   UNL     1      10.444  16.174 161.596  1.00  0.00     0.000 C 
BRANCH   3   4
ATOM      4  C   UNL     1      11.275  17.376 162.079  1.00  0.00     0.000 C 
BRANCH   4   5
ATOM      5  C   UNL     1      11.193  17.592 163.601  1.00  0.00     0.006 C 
BRANCH   5   6
ATOM      6  C   UNL     1      10.295  16.575 164.329  1.00  0.00     0.053 C 
BRANCH   6   7
ATOM      7  C   UNL     1      10.991  15.905 165.474  1.00  0.00     0.041 C 
ATOM      8  O   UNL     1      12.237  15.726 165.444  1.00  0.00    -0.550 OA
ATOM      9  O   UNL     1      10.258  15.447 166.561  1.00  0.00    -0.550 OA
ENDBRANCH   6   7
ENDBRANCH   5   6
ENDBRANCH   4   5
ENDBRANCH   3   4
ENDBRANCH   2   3
ENDBRANCH   1   2
BRANCH   1  10
ATOM     10  C   UNL     1      13.397  14.662 160.659  1.00  0.00     0.000 C 
BRANCH  10  11
ATOM     11  C   UNL     1      13.984  14.874 162.067  1.00  0.00    -0.000 C 
BRANCH  11  12
ATOM     12  C   UNL     1      13.634  13.740 163.042  1.00  0.00    -0.000 C 
BRANCH  12  13
ATOM     13  C   UNL     1      12.578  12.804 162.441  1.00  0.00    -0.000 C 
BRANCH  13  14
ATOM     14  C   UNL     1      11.253  12.906 163.205  1.00  0.00    -0.000 C 
BRANCH  14  15
ATOM     15  C   UNL     1      10.060  12.699 162.265  1.00  0.00    -0.003 C 
ATOM     16  C   UNL     1      10.422  11.771 161.110  1.00  0.00     0.004 C 
ENDBRANCH  14  15
ENDBRANCH  13  14
ENDBRANCH  12  13
ENDBRANCH  11  12
ENDBRANCH  10  11
ENDBRANCH   1  10
TORSDOF 12
ENDMDL
MODEL 2
REMARK VINA RESULT:    -4.778      2.388      4.381
REMARK INTER + INTRA:         -10.188
REMARK INTER:                  -8.403
REMARK INTRA:                  -1.785
REMARK UNBOUND:                -2.057
REMARK SMILES CCCCCCCCCCCCCC(=O)[O-]
REMARK SMILES IDX 8 1 9 2 10 3 11 4 12 5 13 6 14 7 15 8 16 9 7 10 6 11 5 12
REMARK SMILES IDX 4 13 3 14 2 15 1 16
REMARK H PARENT
REMARK Flexibility Score: inf
ROOT
ATOM      1  C   UNL     1      11.707  13.486 164.438  1.00  0.00     0.000 C 
ENDROOT
BRANCH   1   2
ATOM      2  C   UNL     1      11.162  14.782 165.062  1.00  0.00     0.000 C 
BRANCH   2   3
ATOM      3  C   UNL     1      12.239  15.871 165.191  1.00  0.00     0.000 C 
BRANCH   3   4
ATOM      4  C   UNL     1      12.288  16.807 163.971  1.00  0.00     0.000 C 
BRANCH   4   5
ATOM      5  C   UNL     1      10.974  16.821 163.168  1.00  0.00     0.006 C 
BRANCH   5   6
ATOM      6  C   UNL     1      11.105  17.450 161.769  1.00  0.00     0.053 C 
BRANCH   6   7
ATOM      7  C   UNL     1      10.939  16.448 160.668  1.00  0.00     0.041 C 
ATOM      8  O   UNL     1      11.799  16.360 159.752  1.00  0.00    -0.550 OA
ATOM      9  O   UNL     1       9.815  15.631 160.634  1.00  0.00    -0.550 OA
ENDBRANCH   6   7
ENDBRANCH   5   6
ENDBRANCH   4   5
ENDBRANCH   3   4
ENDBRANCH   2   3
ENDBRANCH   1   2
BRANCH   1  10
ATOM     10  C   UNL     1      10.987  13.100 163.133  1.00  0.00     0.000 C 
BRANCH  10  11
ATOM     11  C   UNL     1      11.882  13.043 161.882  1.00  0.00    -0.000 C 
BRANCH  11  12
ATOM     12  C   UNL     1      13.378  13.169 162.206  1.00  0.00    -0.000 C 
BRANCH  12  13
ATOM     13  C   UNL     1      13.934  14.514 161.725  1.00  0.00    -0.000 C 
BRANCH  13  14
ATOM     14  C   UNL     1      14.944  15.083 162.728  1.00  0.00    -0.000 C 
BRANCH  14  15
ATOM     15  C   UNL     1      15.919  13.998 163.201  1.00  0.00    -0.003 C 
ATOM     16  C   UNL     1      17.247  14.087 162.454  1.00  0.00     0.004 C 
ENDBRANCH  14  15
ENDBRANCH  13  14
ENDBRANCH  12  13
ENDBRANCH  11  12
ENDBRANCH  10  11
ENDBRANCH   1  10
TORSDOF 12
ENDMDL
MODEL 3
REMARK VINA RESULT:    -4.698      1.945      4.513
REMARK INTER + INTRA:         -10.051
REMARK INTER:                  -8.126
REMARK INTRA:                  -1.925
REMARK UNBOUND:                -2.057
REMARK SMILES CCCCCCCCCCCCCC(=O)[O-]
REMARK SMILES IDX 8 1 9 2 10 3 11 4 12 5 13 6 14 7 15 8 16 9 7 10 6 11 5 12
REMARK SMILES IDX 4 13 3 14 2 15 1 16
REMARK H PARENT
REMARK Flexibility Score: inf
ROOT
ATOM      1  C   UNL     1       9.905  15.333 160.884  1.00  0.00     0.000 C 
ENDROOT
BRANCH   1   2
ATOM      2  C   UNL     1       9.803  14.298 162.017  1.00  0.00     0.000 C 
BRANCH   2   3
ATOM      3  C   UNL     1      10.572  13.004 161.703  1.00  0.00     0.000 C 
BRANCH   3   4
ATOM      4  C   UNL     1      11.711  12.731 162.700  1.00  0.00     0.000 C 
BRANCH   4   5
ATOM      5  C   UNL     1      13.074  13.262 162.220  1.00  0.00     0.006 C 
BRANCH   5   6
ATOM      6  C   UNL     1      14.032  13.646 163.362  1.00  0.00     0.053 C 
BRANCH   6   7
ATOM      7  C   UNL     1      14.964  14.756 162.985  1.00  0.00     0.041 C 
ATOM      8  O   UNL     1      14.540  15.938 162.888  1.00  0.00    -0.550 OA
ATOM      9  O   UNL     1      16.297  14.480 162.706  1.00  0.00    -0.550 OA
ENDBRANCH   6   7
ENDBRANCH   5   6
ENDBRANCH   4   5
ENDBRANCH   3   4
ENDBRANCH   2   3
ENDBRANCH   1   2
BRANCH   1  10
ATOM     10  C   UNL     1      11.243  16.096 160.889  1.00  0.00     0.000 C 
BRANCH  10  11
ATOM     11  C   UNL     1      11.157  17.567 161.335  1.00  0.00    -0.000 C 
BRANCH  11  12
ATOM     12  C   UNL     1      11.608  17.783 162.787  1.00  0.00    -0.000 C 
BRANCH  12  13
ATOM     13  C   UNL     1      10.405  18.006 163.710  1.00  0.00    -0.000 C 
BRANCH  13  14
ATOM     14  C   UNL     1      10.212  16.820 164.661  1.00  0.00    -0.000 C 
BRANCH  14  15
ATOM     15  C   UNL     1      11.513  16.023 164.816  1.00  0.00    -0.003 C 
ATOM     16  C   UNL     1      11.294  14.769 165.657  1.00  0.00     0.004 C 
ENDBRANCH  14  15
ENDBRANCH  13  14
ENDBRANCH  12  13
ENDBRANCH  11  12
ENDBRANCH  10  11
ENDBRANCH   1  10
TORSDOF 12
ENDMDL
MODEL 4
REMARK VINA RESULT:    -4.678      2.043      4.607
REMARK INTER + INTRA:         -10.018
REMARK INTER:                  -7.909
REMARK INTRA:                  -2.109
REMARK UNBOUND:                -2.057
REMARK SMILES CCCCCCCCCCCCCC(=O)[O-]
REMARK SMILES IDX 8 1 9 2 10 3 11 4 12 5 13 6 14 7 15 8 16 9 7 10 6 11 5 12
REMARK SMILES IDX 4 13 3 14 2 15 1 16
REMARK H PARENT
REMARK Flexibility Score: inf
ROOT
ATOM      1  C   UNL     1      10.508  13.108 162.775  1.00  0.00     0.000 C 
ENDROOT
BRANCH   1   2
ATOM      2  C   UNL     1      11.123  13.294 161.377  1.00  0.00     0.000 C 
BRANCH   2   3
ATOM      3  C   UNL     1      11.053  14.751 160.893  1.00  0.00     0.000 C 
BRANCH   3   4
ATOM      4  C   UNL     1      12.443  15.368 160.660  1.00  0.00     0.000 C 
BRANCH   4   5
ATOM      5  C   UNL     1      13.585  14.521 161.249  1.00  0.00     0.006 C 
BRANCH   5   6
ATOM      6  C   UNL     1      14.466  15.277 162.261  1.00  0.00     0.053 C 
BRANCH   6   7
ATOM      7  C   UNL     1      15.449  14.384 162.953  1.00  0.00     0.041 C 
ATOM      8  O   UNL     1      15.076  13.638 163.896  1.00  0.00    -0.550 OA
ATOM      9  O   UNL     1      16.786  14.399 162.577  1.00  0.00    -0.550 OA
ENDBRANCH   6   7
ENDBRANCH   5   6
ENDBRANCH   4   5
ENDBRANCH   3   4
ENDBRANCH   2   3
ENDBRANCH   1   2
BRANCH   1  10
ATOM     10  C   UNL     1      11.560  12.802 163.856  1.00  0.00     0.000 C 
BRANCH  10  11
ATOM     11  C   UNL     1      11.539  13.741 165.076  1.00  0.00    -0.000 C 
BRANCH  11  12
ATOM     12  C   UNL     1      11.910  15.190 164.726  1.00  0.00    -0.000 C 
BRANCH  12  13
ATOM     13  C   UNL     1      10.754  16.146 165.043  1.00  0.00    -0.000 C 
BRANCH  13  14
ATOM     14  C   UNL     1      10.391  16.996 163.821  1.00  0.00    -0.000 C 
BRANCH  14  15
ATOM     15  C   UNL     1      11.607  17.783 163.317  1.00  0.00    -0.003 C 
ATOM     16  C   UNL     1      11.263  18.590 162.069  1.00  0.00     0.004 C 
ENDBRANCH  14  15
ENDBRANCH  13  14
ENDBRANCH  12  13
ENDBRANCH  11  12
ENDBRANCH  10  11
ENDBRANCH   1  10
TORSDOF 12
ENDMDL
MODEL 5
REMARK VINA RESULT:    -4.590      2.548      3.586
REMARK INTER + INTRA:          -9.868
REMARK INTER:                  -8.309
REMARK INTRA:                  -1.559
REMARK UNBOUND:                -2.057
REMARK SMILES CCCCCCCCCCCCCC(=O)[O-]
REMARK SMILES IDX 8 1 9 2 10 3 11 4 12 5 13 6 14 7 15 8 16 9 7 10 6 11 5 12
REMARK SMILES IDX 4 13 3 14 2 15 1 16
REMARK H PARENT
REMARK Flexibility Score: inf
ROOT
ATOM      1  C   UNL     1      14.074  16.005 163.251  1.00  0.00     0.000 C 
ENDROOT
BRANCH   1   2
ATOM      2  C   UNL     1      13.016  15.768 164.343  1.00  0.00     0.000 C 
BRANCH   2   3
ATOM      3  C   UNL     1      11.730  16.574 164.101  1.00  0.00     0.000 C 
BRANCH   3   4
ATOM      4  C   UNL     1      11.940  17.755 163.138  1.00  0.00     0.000 C 
BRANCH   4   5
ATOM      5  C   UNL     1      10.944  17.760 161.963  1.00  0.00     0.006 C 
BRANCH   5   6
ATOM      6  C   UNL     1      10.942  16.459 161.142  1.00  0.00     0.053 C 
BRANCH   6   7
ATOM      7  C   UNL     1      11.751  16.568 159.885  1.00  0.00     0.041 C 
ATOM      8  O   UNL     1      11.573  17.532 159.096  1.00  0.00    -0.550 OA
ATOM      9  O   UNL     1      12.679  15.584 159.569  1.00  0.00    -0.550 OA
ENDBRANCH   6   7
ENDBRANCH   5   6
ENDBRANCH   4   5
ENDBRANCH   3   4
ENDBRANCH   2   3
ENDBRANCH   1   2
BRANCH   1  10
ATOM     10  C   UNL     1      14.381  14.740 162.430  1.00  0.00     0.000 C 
BRANCH  10  11
ATOM     11  C   UNL     1      13.831  13.427 163.017  1.00  0.00    -0.000 C 
BRANCH  11  12
ATOM     12  C   UNL     1      12.716  12.806 162.163  1.00  0.00    -0.000 C 
BRANCH  12  13
ATOM     13  C   UNL     1      11.376  12.830 162.907  1.00  0.00    -0.000 C 
BRANCH  13  14
ATOM     14  C   UNL     1      10.204  12.952 161.927  1.00  0.00    -0.000 C 
BRANCH  14  15
ATOM     15  C   UNL     1      10.154  11.750 160.977  1.00  0.00    -0.003 C 
ATOM     16  C   UNL     1       9.714  10.485 161.710  1.00  0.00     0.004 C 
ENDBRANCH  14  15
ENDBRANCH  13  14
ENDBRANCH  12  13
ENDBRANCH  11  12
ENDBRANCH  10  11
ENDBRANCH   1  10
TORSDOF 12
ENDMDL
MODEL 6
REMARK VINA RESULT:    -4.578      2.055      3.222
REMARK INTER + INTRA:          -9.847
REMARK INTER:                  -7.990
REMARK INTRA:                  -1.857
REMARK UNBOUND:                -2.057
REMARK SMILES CCCCCCCCCCCCCC(=O)[O-]
REMARK SMILES IDX 8 1 9 2 10 3 11 4 12 5 13 6 14 7 15 8 16 9 7 10 6 11 5 12
REMARK SMILES IDX 4 13 3 14 2 15 1 16
REMARK H PARENT
REMARK Flexibility Score: inf
ROOT
ATOM      1  C   UNL     1      11.240  18.259 161.468  1.00  0.00     0.000 C 
ENDROOT
BRANCH   1   2
ATOM      2  C   UNL     1      11.707  17.967 162.903  1.00  0.00     0.000 C 
BRANCH   2   3
ATOM      3  C   UNL     1      10.577  17.422 163.791  1.00  0.00     0.000 C 
BRANCH   3   4
ATOM      4  C   UNL     1      11.012  16.209 164.631  1.00  0.00     0.000 C 
BRANCH   4   5
ATOM      5  C   UNL     1      12.516  15.902 164.514  1.00  0.00     0.006 C 
BRANCH   5   6
ATOM      6  C   UNL     1      12.828  14.438 164.152  1.00  0.00     0.053 C 
BRANCH   6   7
ATOM      7  C   UNL     1      14.079  14.298 163.340  1.00  0.00     0.041 C 
ATOM      8  O   UNL     1      14.512  13.157 163.030  1.00  0.00    -0.550 OA
ATOM      9  O   UNL     1      14.788  15.429 162.954  1.00  0.00    -0.550 OA
ENDBRANCH   6   7
ENDBRANCH   5   6
ENDBRANCH   4   5
ENDBRANCH   3   4
ENDBRANCH   2   3
ENDBRANCH   1   2
BRANCH   1  10
ATOM     10  C   UNL     1      10.956  16.981 160.658  1.00  0.00     0.000 C 
BRANCH  10  11
ATOM     11  C   UNL     1      12.035  15.886 160.762  1.00  0.00    -0.000 C 
BRANCH  11  12
ATOM     12  C   UNL     1      11.454  14.465 160.729  1.00  0.00    -0.000 C 
BRANCH  12  13
ATOM     13  C   UNL     1      10.124  14.396 161.488  1.00  0.00    -0.000 C 
BRANCH  13  14
ATOM     14  C   UNL     1       9.925  13.018 162.128  1.00  0.00    -0.000 C 
BRANCH  14  15
ATOM     15  C   UNL     1      10.277  11.898 161.142  1.00  0.00    -0.003 C 
ATOM     16  C   UNL     1       9.735  10.553 161.618  1.00  0.00     0.004 C 
ENDBRANCH  14  15
ENDBRANCH  13  14
ENDBRANCH  12  13
ENDBRANCH  11  12
ENDBRANCH  10  11
ENDBRANCH   1  10
TORSDOF 12
ENDMDL
MODEL 7
REMARK VINA RESULT:    -4.573      1.925      3.807
REMARK INTER + INTRA:          -9.838
REMARK INTER:                  -8.048
REMARK INTRA:                  -1.790
REMARK UNBOUND:                -2.057
REMARK SMILES CCCCCCCCCCCCCC(=O)[O-]
REMARK SMILES IDX 8 1 9 2 10 3 11 4 12 5 13 6 14 7 15 8 16 9 7 10 6 11 5 12
REMARK SMILES IDX 4 13 3 14 2 15 1 16
REMARK H PARENT
REMARK Flexibility Score: inf
ROOT
ATOM      1  C   UNL     1      11.610  17.538 162.841  1.00  0.00     0.000 C 
ENDROOT
BRANCH   1   2
ATOM      2  C   UNL     1      11.206  17.410 161.362  1.00  0.00     0.000 C 
BRANCH   2   3
ATOM      3  C   UNL     1      11.190  15.950 160.881  1.00  0.00     0.000 C 
BRANCH   3   4
ATOM      4  C   UNL     1      12.541  15.501 160.298  1.00  0.00     0.000 C 
BRANCH   4   5
ATOM      5  C   UNL     1      13.330  14.579 161.246  1.00  0.00     0.006 C 
BRANCH   5   6
ATOM      6  C   UNL     1      14.339  15.320 162.141  1.00  0.00     0.053 C 
BRANCH   6   7
ATOM      7  C   UNL     1      15.269  14.389 162.857  1.00  0.00     0.041 C 
ATOM      8  O   UNL     1      14.831  13.610 163.744  1.00  0.00    -0.550 OA
ATOM      9  O   UNL     1      16.628  14.406 162.569  1.00  0.00    -0.550 OA
ENDBRANCH   6   7
ENDBRANCH   5   6
ENDBRANCH   4   5
ENDBRANCH   3   4
ENDBRANCH   2   3
ENDBRANCH   1   2
BRANCH   1  10
ATOM     10  C   UNL     1      10.422  17.357 163.804  1.00  0.00     0.000 C 
BRANCH  10  11
ATOM     11  C   UNL     1      10.578  16.220 164.831  1.00  0.00    -0.000 C 
BRANCH  11  12
ATOM     12  C   UNL     1      11.717  15.250 164.486  1.00  0.00    -0.000 C 
BRANCH  12  13
ATOM     13  C   UNL     1      11.416  13.840 165.006  1.00  0.00    -0.000 C 
BRANCH  13  14
ATOM     14  C   UNL     1      11.390  12.824 163.860  1.00  0.00    -0.000 C 
BRANCH  14  15
ATOM     15  C   UNL     1      10.380  13.236 162.782  1.00  0.00    -0.003 C 
ATOM     16  C   UNL     1      10.390  12.256 161.613  1.00  0.00     0.004 C 
ENDBRANCH  14  15
ENDBRANCH  13  14
ENDBRANCH  12  13
ENDBRANCH  11  12
ENDBRANCH  10  11
ENDBRANCH   1  10
TORSDOF 12
ENDMDL
MODEL 8
REMARK VINA RESULT:    -4.570      2.232      4.785
REMARK INTER + INTRA:          -9.834
REMARK INTER:                  -8.081
REMARK INTRA:                  -1.753
REMARK UNBOUND:                -2.057
REMARK SMILES CCCCCCCCCCCCCC(=O)[O-]
REMARK SMILES IDX 8 1 9 2 10 3 11 4 12 5 13 6 14 7 15 8 16 9 7 10 6 11 5 12
REMARK SMILES IDX 4 13 3 14 2 15 1 16
REMARK H PARENT
REMARK Flexibility Score: inf
ROOT
ATOM      1  C   UNL     1      13.523  16.842 163.642  1.00  0.00     0.000 C 
ENDROOT
BRANCH   1   2
ATOM      2  C   UNL     1      14.233  15.614 163.048  1.00  0.00     0.000 C 
BRANCH   2   3
ATOM      3  C   UNL     1      13.860  14.311 163.773  1.00  0.00     0.000 C 
BRANCH   3   4
ATOM      4  C   UNL     1      13.987  13.070 162.872  1.00  0.00     0.000 C 
BRANCH   4   5
ATOM      5  C   UNL     1      12.705  12.770 162.076  1.00  0.00     0.006 C 
BRANCH   5   6
ATOM      6  C   UNL     1      11.413  13.230 162.776  1.00  0.00     0.053 C 
BRANCH   6   7
ATOM      7  C   UNL     1      10.194  13.027 161.929  1.00  0.00     0.041 C 
ATOM      8  O   UNL     1       9.199  13.789 162.054  1.00  0.00    -0.550 OA
ATOM      9  O   UNL     1      10.143  11.974 161.024  1.00  0.00    -0.550 OA
ENDBRANCH   6   7
ENDBRANCH   5   6
ENDBRANCH   4   5
ENDBRANCH   3   4
ENDBRANCH   2   3
ENDBRANCH   1   2
BRANCH   1  10
ATOM     10  C   UNL     1      12.260  16.476 164.442  1.00  0.00     0.000 C 
BRANCH  10  11
ATOM     11  C   UNL     1      10.926  16.840 163.765  1.00  0.00    -0.000 C 
BRANCH  11  12
ATOM     12  C   UNL     1      10.936  18.239 163.132  1.00  0.00    -0.000 C 
BRANCH  12  13
ATOM     13  C   UNL     1      10.986  18.150 161.602  1.00  0.00    -0.000 C 
BRANCH  13  14
ATOM     14  C   UNL     1      10.930  16.692 161.133  1.00  0.00    -0.000 C 
BRANCH  14  15
ATOM     15  C   UNL     1      11.615  16.526 159.771  1.00  0.00    -0.003 C 
ATOM     16  C   UNL     1      12.649  15.405 159.808  1.00  0.00     0.004 C 
ENDBRANCH  14  15
ENDBRANCH  13  14
ENDBRANCH  12  13
ENDBRANCH  11  12
ENDBRANCH  10  11
ENDBRANCH   1  10
TORSDOF 12
ENDMDL
MODEL 9
REMARK VINA RESULT:    -4.547      1.152      2.683
REMARK INTER + INTRA:          -9.794
REMARK INTER:                  -7.844
REMARK INTRA:                  -1.950
REMARK UNBOUND:                -2.057
REMARK SMILES CCCCCCCCCCCCCC(=O)[O-]
REMARK SMILES IDX 8 1 9 2 10 3 11 4 12 5 13 6 14 7 15 8 16 9 7 10 6 11 5 12
REMARK SMILES IDX 4 13 3 14 2 15 1 16
REMARK H PARENT
REMARK Flexibility Score: inf
ROOT
ATOM      1  C   UNL     1      10.705  15.771 160.482  1.00  0.00     0.000 C 
ENDROOT
BRANCH   1   2
ATOM      2  C   UNL     1      10.889  17.261 160.817  1.00  0.00     0.000 C 
BRANCH   2   3
ATOM      3  C   UNL     1      11.678  17.479 162.118  1.00  0.00     0.000 C 
BRANCH   3   4
ATOM      4  C   UNL     1      10.838  18.151 163.218  1.00  0.00     0.000 C 
BRANCH   4   5
ATOM      5  C   UNL     1      10.427  17.181 164.340  1.00  0.00     0.006 C 
BRANCH   5   6
ATOM      6  C   UNL     1      11.526  16.177 164.732  1.00  0.00     0.053 C 
BRANCH   6   7
ATOM      7  C   UNL     1      11.023  15.093 165.636  1.00  0.00     0.041 C 
ATOM      8  O   UNL     1      11.241  13.884 165.361  1.00  0.00    -0.550 OA
ATOM      9  O   UNL     1      10.284  15.418 166.766  1.00  0.00    -0.550 OA
ENDBRANCH   6   7
ENDBRANCH   5   6
ENDBRANCH   4   5
ENDBRANCH   3   4
ENDBRANCH   2   3
ENDBRANCH   1   2
BRANCH   1  10
ATOM     10  C   UNL     1       9.755  15.051 161.457  1.00  0.00     0.000 C 
BRANCH  10  11
ATOM     11  C   UNL     1      10.223  13.660 161.922  1.00  0.00    -0.000 C 
BRANCH  11  12
ATOM     12  C   UNL     1      11.588  13.260 161.343  1.00  0.00    -0.000 C 
BRANCH  12  13
ATOM     13  C   UNL     1      12.380  12.406 162.340  1.00  0.00    -0.000 C 
BRANCH  13  14
ATOM     14  C   UNL     1      13.635  13.143 162.820  1.00  0.00    -0.000 C 
BRANCH  14  15
ATOM     15  C   UNL     1      13.848  14.440 162.031  1.00  0.00    -0.003 C 
ATOM     16  C   UNL     1      14.593  15.478 162.865  1.00  0.00     0.004 C 
ENDBRANCH  14  15
ENDBRANCH  13  14
ENDBRANCH  12  13
ENDBRANCH  11  12
ENDBRANCH  10  11
ENDBRANCH   1  10
TORSDOF 12
ENDMDL
