MODEL 1
REMARK VINA RESULT:     1.645      0.000      0.000
REMARK INTER + INTRA:           1.741
REMARK INTER:                   1.741
REMARK INTRA:                   0.000
REMARK UNBOUND:                 0.000
REMARK SMILES O=c1ccc2cc(O)c(O)cc2o1
REMARK SMILES IDX 4 1 3 2 2 3 1 4 13 5 12 6 11 7 9 8 7 9 6 10 5 11 8 12 10 14
REMARK H PARENT 8 13 10 15
REMARK Flexibility Score: inf
ROOT
ATOM      1  C   UNL     1      20.927  41.637  12.404  1.00  0.00     0.019 A 
ATOM      2  C   UNL     1      21.222  42.897  12.923  1.00  0.00     0.094 A 
ATOM      3  C   UNL     1      20.397  43.978  12.591  1.00  0.00     0.336 A 
ATOM      4  O   UNL     1      20.647  45.123  13.050  1.00  0.00    -0.246 OA
ATOM      5  O   UNL     1      19.348  43.803  11.791  1.00  0.00    -0.423 OA
ATOM      6  C   UNL     1      19.032  42.618  11.275  1.00  0.00     0.142 A 
ATOM      7  C   UNL     1      17.916  42.495  10.440  1.00  0.00     0.098 A 
ATOM      8  C   UNL     1      17.576  41.253   9.892  1.00  0.00     0.161 A 
ATOM      9  C   UNL     1      18.359  40.120  10.181  1.00  0.00     0.158 A 
ATOM     10  C   UNL     1      19.479  40.239  11.018  1.00  0.00     0.062 A 
ATOM     11  C   UNL     1      19.818  41.483  11.566  1.00  0.00     0.022 A 
ENDROOT
BRANCH   9  12
ATOM     12  O   UNL     1      18.022  38.881   9.637  1.00  0.00    -0.504 OA
ATOM     13  H   UNL     1      17.339  38.276  10.077  1.00  0.00     0.293 HD
ENDBRANCH   9  12
BRANCH   8  14
ATOM     14  O   UNL     1      16.459  41.163   9.063  1.00  0.00    -0.504 OA
ATOM     15  H   UNL     1      15.550  40.885   9.414  1.00  0.00     0.293 HD
ENDBRANCH   8  14
TORSDOF 2
ENDMDL
MODEL 2
REMARK VINA RESULT:     3.074      1.070      4.491
REMARK INTER + INTRA:           3.254
REMARK INTER:                   3.254
REMARK INTRA:                   0.000
REMARK UNBOUND:                 0.000
REMARK SMILES O=c1ccc2cc(O)c(O)cc2o1
REMARK SMILES IDX 4 1 3 2 2 3 1 4 13 5 12 6 11 7 9 8 7 9 6 10 5 11 8 12 10 14
REMARK H PARENT 8 13 10 15
REMARK Flexibility Score: inf
ROOT
ATOM      1  C   UNL     1      19.124  39.851  10.875  1.00  0.00     0.019 A 
ATOM      2  C   UNL     1      17.957  39.666  10.132  1.00  0.00     0.094 A 
ATOM      3  C   UNL     1      17.185  40.782   9.795  1.00  0.00     0.336 A 
ATOM      4  O   UNL     1      16.128  40.636   9.126  1.00  0.00    -0.246 OA
ATOM      5  O   UNL     1      17.558  42.001  10.178  1.00  0.00    -0.423 OA
ATOM      6  C   UNL     1      18.663  42.221  10.887  1.00  0.00     0.142 A 
ATOM      7  C   UNL     1      19.005  43.524  11.260  1.00  0.00     0.098 A 
ATOM      8  C   UNL     1      20.166  43.765  12.006  1.00  0.00     0.161 A 
ATOM      9  C   UNL     1      20.993  42.691  12.383  1.00  0.00     0.158 A 
ATOM     10  C   UNL     1      20.653  41.382  12.010  1.00  0.00     0.062 A 
ATOM     11  C   UNL     1      19.492  41.143  11.263  1.00  0.00     0.022 A 
ENDROOT
BRANCH   9  12
ATOM     12  O   UNL     1      22.150  42.929  13.125  1.00  0.00    -0.504 OA
ATOM     13  H   UNL     1      22.150  43.557  13.919  1.00  0.00     0.293 HD
ENDBRANCH   9  12
BRANCH   8  14
ATOM     14  O   UNL     1      20.479  45.076  12.364  1.00  0.00    -0.504 OA
ATOM     15  H   UNL     1      19.861  45.640  12.934  1.00  0.00     0.293 HD
ENDBRANCH   8  14
TORSDOF 2
ENDMDL
MODEL 3
REMARK VINA RESULT:     3.833      0.665      0.665
REMARK INTER + INTRA:           4.057
REMARK INTER:                   4.057
REMARK INTRA:                   0.000
REMARK UNBOUND:                 0.000
REMARK SMILES O=c1ccc2cc(O)c(O)cc2o1
REMARK SMILES IDX 4 1 3 2 2 3 1 4 13 5 12 6 11 7 9 8 7 9 6 10 5 11 8 12 10 14
REMARK H PARENT 8 13 10 15
REMARK Flexibility Score: inf
ROOT
ATOM      1  C   UNL     1      20.739  41.240  11.880  1.00  0.00     0.019 A 
ATOM      2  C   UNL     1      21.322  42.388  12.416  1.00  0.00     0.094 A 
ATOM      3  C   UNL     1      20.690  43.621  12.229  1.00  0.00     0.336 A 
ATOM      4  O   UNL     1      21.202  44.668  12.706  1.00  0.00    -0.246 OA
ATOM      5  O   UNL     1      19.548  43.696  11.550  1.00  0.00    -0.423 OA
ATOM      6  C   UNL     1      18.958  42.626  11.022  1.00  0.00     0.142 A 
ATOM      7  C   UNL     1      17.758  42.766  10.318  1.00  0.00     0.098 A 
ATOM      8  C   UNL     1      17.130  41.646   9.759  1.00  0.00     0.161 A 
ATOM      9  C   UNL     1      17.708  40.372   9.906  1.00  0.00     0.158 A 
ATOM     10  C   UNL     1      18.912  40.227  10.612  1.00  0.00     0.062 A 
ATOM     11  C   UNL     1      19.538  41.348  11.171  1.00  0.00     0.022 A 
ENDROOT
BRANCH   9  12
ATOM     12  O   UNL     1      17.084  39.255   9.351  1.00  0.00    -0.504 OA
ATOM     13  H   UNL     1      17.598  38.580   8.798  1.00  0.00     0.293 HD
ENDBRANCH   9  12
BRANCH   8  14
ATOM     14  O   UNL     1      15.935  41.819   9.063  1.00  0.00    -0.504 OA
ATOM     15  H   UNL     1      15.034  41.619   9.482  1.00  0.00     0.293 HD
ENDBRANCH   8  14
TORSDOF 2
ENDMDL
