MODEL 1
REMARK VINA RESULT:    33.340      0.000      0.000
REMARK INTER + INTRA:          54.701
REMARK INTER:                  54.780
REMARK INTRA:                  -0.079
REMARK UNBOUND:                -0.079
REMARK SMILES C[C@H]1O[C@H](OC[C@H]2O[C@@H](Oc3c(-c4ccc(O)c(O)c4)oc4cc(O)cc(O)c4c3=O)[C@H](O)[C@@H](O)[C@@H]2O)[C@@H](O)[C@H](O)[C@H]1O
REMARK SMILES IDX 7 1 36 2 34 3 32 4 9 5 8 6 6 7 5 8 4 9 1 10 2 11 42 12 3 13
REMARK SMILES IDX 40 14 38 15 43 16 41 18 39 20 37 22 35 24 10 26 11 27 12 28
REMARK SMILES IDX 30 29 21 30 29 31 31 32 22 33 27 34 23 35 26 36 24 37 13 38
REMARK SMILES IDX 20 39 14 40 18 41 15 42 16 43 19 44 17 46 28 48 25 50 33 52
REMARK H PARENT 43 17 41 19 39 21 37 23 35 25 19 45 17 47 28 49 25 51 33 53
REMARK Flexibility Score: inf
ROOT
ATOM      1  C   UNL     1      -5.115  12.061  -6.737  1.00  0.00     0.180 C 
ATOM      2  C   UNL     1      -5.387  11.258  -8.033  1.00  0.00     0.177 C 
ATOM      3  C   UNL     1      -4.342  10.153  -8.282  1.00  0.00     0.180 C 
ATOM      4  C   UNL     1      -2.896  10.629  -7.994  1.00  0.00     0.214 C 
ATOM      5  C   UNL     1      -2.778  11.533  -6.735  1.00  0.00     0.339 C 
ATOM      6  O   UNL     1      -3.773  12.531  -6.646  1.00  0.00    -0.332 OA
ENDROOT
BRANCH   1   7
ATOM      7  C   UNL     1      -5.636  11.399  -5.449  1.00  0.00     0.198 C 
BRANCH   7   8
ATOM      8  O   UNL     1      -7.045  11.564  -5.366  1.00  0.00    -0.347 OA
BRANCH   8   9
ATOM      9  C   UNL     1      -7.830  10.565  -6.018  1.00  0.00     0.281 C 
ATOM     10  C   UNL     1      -7.808   8.480  -8.132  1.00  0.00     0.041 C 
ATOM     11  C   UNL     1      -7.775   8.269  -6.602  1.00  0.00     0.150 C 
ATOM     12  C   UNL     1      -9.154   7.918  -5.958  1.00  0.00     0.174 C 
ATOM     13  O   UNL     1      -7.128   9.332  -5.913  1.00  0.00    -0.344 OA
ATOM     14  C   UNL     1      -9.650   9.049  -5.023  1.00  0.00     0.179 C 
ATOM     15  C   UNL     1      -9.362  10.430  -5.658  1.00  0.00     0.202 C 
BRANCH  12  16
ATOM     16  O   UNL     1     -10.125   7.658  -6.937  1.00  0.00    -0.388 OA
ATOM     17  H   UNL     1     -11.011   7.801  -6.506  1.00  0.00     0.211 HD
ENDBRANCH  12  16
BRANCH  14  18
ATOM     18  O   UNL     1      -9.020   8.951  -3.766  1.00  0.00    -0.387 OA
ATOM     19  H   UNL     1      -9.526   8.287  -3.222  1.00  0.00     0.211 HD
ENDBRANCH  14  18
BRANCH  15  20
ATOM     20  O   UNL     1     -10.125  10.565  -6.832  1.00  0.00    -0.385 OA
ATOM     21  H   UNL     1     -10.985  10.105  -6.700  1.00  0.00     0.211 HD
ENDBRANCH  15  20
ENDBRANCH   8   9
ENDBRANCH   7   8
ENDBRANCH   1   7
BRANCH   2  22
ATOM     22  O   UNL     1      -5.412  12.145  -9.123  1.00  0.00    -0.387 OA
ATOM     23  H   UNL     1      -4.858  11.738  -9.839  1.00  0.00     0.211 HD
ENDBRANCH   2  22
BRANCH   3  24
ATOM     24  O   UNL     1      -4.672   8.975  -7.589  1.00  0.00    -0.387 OA
ATOM     25  H   UNL     1      -4.220   8.223  -8.041  1.00  0.00     0.211 HD
ENDBRANCH   3  24
BRANCH   5  26
ATOM     26  O   UNL     1      -2.692  10.765  -5.531  1.00  0.00    -0.454 OA
BRANCH  26  27
ATOM     27  C   UNL     1      -1.571  10.800  -4.694  1.00  0.00     0.214 A 
ATOM     28  C   UNL     1      -1.569  10.156  -3.443  1.00  0.00     0.180 A 
ATOM     29  C   UNL     1      -0.435  11.527  -5.079  1.00  0.00     0.239 A 
ATOM     30  O   UNL     1      -0.557  10.342  -2.606  1.00  0.00    -0.452 OA
ATOM     31  C   UNL     1       0.652  11.661  -4.183  1.00  0.00     0.111 A 
ATOM     32  O   UNL     1      -0.439  12.107  -6.195  1.00  0.00    -0.285 OA
ATOM     33  C   UNL     1       0.517  11.065  -2.905  1.00  0.00     0.146 A 
ATOM     34  C   UNL     1       1.839  12.390  -4.468  1.00  0.00     0.134 A 
ATOM     35  C   UNL     1       1.507  11.234  -1.931  1.00  0.00     0.094 A 
ATOM     36  C   UNL     1       2.784  12.596  -3.456  1.00  0.00     0.093 A 
ATOM     37  C   UNL     1       2.630  12.020  -2.192  1.00  0.00     0.123 A 
BRANCH  28  38
ATOM     38  C   UNL     1      -2.675   9.269  -3.025  1.00  0.00     0.025 A 
ATOM     39  C   UNL     1      -2.438   8.150  -2.207  1.00  0.00     0.062 A 
ATOM     40  C   UNL     1      -3.986   9.592  -3.406  1.00  0.00     0.016 A 
ATOM     41  C   UNL     1      -3.501   7.331  -1.817  1.00  0.00     0.158 A 
ATOM     42  C   UNL     1      -5.048   8.795  -3.002  1.00  0.00     0.051 A 
ATOM     43  C   UNL     1      -4.817   7.662  -2.208  1.00  0.00     0.157 A 
BRANCH  41  44
ATOM     44  O   UNL     1      -3.238   6.181  -1.062  1.00  0.00    -0.504 OA
ATOM     45  H   UNL     1      -3.348   5.257  -1.471  1.00  0.00     0.293 HD
ENDBRANCH  41  44
BRANCH  43  46
ATOM     46  O   UNL     1      -5.891   6.870  -1.798  1.00  0.00    -0.504 OA
ATOM     47  H   UNL     1      -6.853   7.209  -1.849  1.00  0.00     0.293 HD
ENDBRANCH  43  46
ENDBRANCH  28  38
BRANCH  34  48
ATOM     48  O   UNL     1       2.151  12.911  -5.723  1.00  0.00    -0.507 OA
ATOM     49  H   UNL     1       2.757  12.463  -6.394  1.00  0.00     0.293 HD
ENDBRANCH  34  48
BRANCH  37  50
ATOM     50  O   UNL     1       3.595  12.200  -1.207  1.00  0.00    -0.508 OA
ATOM     51  H   UNL     1       4.442  12.721  -1.400  1.00  0.00     0.293 HD
ENDBRANCH  37  50
ENDBRANCH  26  27
ENDBRANCH   5  26
BRANCH   4  52
ATOM     52  O   UNL     1      -2.368  11.277  -9.125  1.00  0.00    -0.384 OA
ATOM     53  H   UNL     1      -1.949  10.575  -9.698  1.00  0.00     0.211 HD
ENDBRANCH   4  52
TORSDOF 16
ENDMDL
MODEL 2
REMARK VINA RESULT:    33.479      1.329      5.075
REMARK INTER + INTRA:          54.929
REMARK INTER:                  49.622
REMARK INTRA:                   5.307
REMARK UNBOUND:                -0.079
REMARK SMILES C[C@H]1O[C@H](OC[C@H]2O[C@@H](Oc3c(-c4ccc(O)c(O)c4)oc4cc(O)cc(O)c4c3=O)[C@H](O)[C@@H](O)[C@@H]2O)[C@@H](O)[C@H](O)[C@H]1O
REMARK SMILES IDX 7 1 36 2 34 3 32 4 9 5 8 6 6 7 5 8 4 9 1 10 2 11 42 12 3 13
REMARK SMILES IDX 40 14 38 15 43 16 41 18 39 20 37 22 35 24 10 26 11 27 12 28
REMARK SMILES IDX 30 29 21 30 29 31 31 32 22 33 27 34 23 35 26 36 24 37 13 38
REMARK SMILES IDX 20 39 14 40 18 41 15 42 16 43 19 44 17 46 28 48 25 50 33 52
REMARK H PARENT 43 17 41 19 39 21 37 23 35 25 19 45 17 47 28 49 25 51 33 53
REMARK Flexibility Score: inf
ROOT
ATOM      1  C   UNL     1      -4.589  12.538  -6.847  1.00  0.00     0.180 C 
ATOM      2  C   UNL     1      -4.598  11.576  -8.060  1.00  0.00     0.177 C 
ATOM      3  C   UNL     1      -4.100  10.161  -7.705  1.00  0.00     0.180 C 
ATOM      4  C   UNL     1      -2.852  10.186  -6.787  1.00  0.00     0.214 C 
ATOM      5  C   UNL     1      -2.911  11.282  -5.687  1.00  0.00     0.339 C 
ATOM      6  O   UNL     1      -3.346  12.543  -6.151  1.00  0.00    -0.332 OA
ENDROOT
BRANCH   1   7
ATOM      7  C   UNL     1      -5.820  12.429  -5.930  1.00  0.00     0.198 C 
BRANCH   7   8
ATOM      8  O   UNL     1      -6.915  11.899  -6.665  1.00  0.00    -0.347 OA
BRANCH   8   9
ATOM      9  C   UNL     1      -7.709  10.927  -5.986  1.00  0.00     0.281 C 
ATOM     10  C   UNL     1     -10.125  10.535  -4.305  1.00  0.00     0.041 C 
ATOM     11  C   UNL     1      -9.952  10.183  -5.799  1.00  0.00     0.150 C 
ATOM     12  C   UNL     1      -9.636   8.681  -6.089  1.00  0.00     0.174 C 
ATOM     13  O   UNL     1      -9.043  11.050  -6.467  1.00  0.00    -0.344 OA
ATOM     14  C   UNL     1      -8.211   8.500  -6.668  1.00  0.00     0.179 C 
ATOM     15  C   UNL     1      -7.215   9.427  -5.930  1.00  0.00     0.202 C 
BRANCH  12  16
ATOM     16  O   UNL     1      -9.778   7.897  -4.934  1.00  0.00    -0.388 OA
ATOM     17  H   UNL     1     -10.720   7.575  -4.920  1.00  0.00     0.211 HD
ENDBRANCH  12  16
BRANCH  14  18
ATOM     18  O   UNL     1      -8.208   8.784  -8.048  1.00  0.00    -0.387 OA
ATOM     19  H   UNL     1      -7.678   9.616  -8.187  1.00  0.00     0.211 HD
ENDBRANCH  14  18
BRANCH  15  20
ATOM     20  O   UNL     1      -7.118   9.023  -4.586  1.00  0.00    -0.385 OA
ATOM     21  H   UNL     1      -6.191   8.741  -4.412  1.00  0.00     0.211 HD
ENDBRANCH  15  20
ENDBRANCH   8   9
ENDBRANCH   7   8
ENDBRANCH   1   7
BRANCH   2  22
ATOM     22  O   UNL     1      -3.800  12.120  -9.081  1.00  0.00    -0.387 OA
ATOM     23  H   UNL     1      -4.407  12.618  -9.687  1.00  0.00     0.211 HD
ENDBRANCH   2  22
BRANCH   3  24
ATOM     24  O   UNL     1      -5.140   9.372  -7.184  1.00  0.00    -0.387 OA
ATOM     25  H   UNL     1      -5.408   8.728  -7.884  1.00  0.00     0.211 HD
ENDBRANCH   3  24
BRANCH   5  26
ATOM     26  O   UNL     1      -3.658  10.854  -4.545  1.00  0.00    -0.454 OA
BRANCH  26  27
ATOM     27  C   UNL     1      -3.208   9.845  -3.685  1.00  0.00     0.214 A 
ATOM     28  C   UNL     1      -1.836   9.633  -3.458  1.00  0.00     0.180 A 
ATOM     29  C   UNL     1      -4.134   8.993  -3.065  1.00  0.00     0.239 A 
ATOM     30  O   UNL     1      -1.437   8.572  -2.770  1.00  0.00    -0.452 OA
ATOM     31  C   UNL     1      -3.675   7.900  -2.292  1.00  0.00     0.111 A 
ATOM     32  O   UNL     1      -5.360   9.180  -3.272  1.00  0.00    -0.285 OA
ATOM     33  C   UNL     1      -2.275   7.706  -2.209  1.00  0.00     0.146 A 
ATOM     34  C   UNL     1      -4.528   6.968  -1.639  1.00  0.00     0.134 A 
ATOM     35  C   UNL     1      -1.747   6.595  -1.543  1.00  0.00     0.094 A 
ATOM     36  C   UNL     1      -3.976   5.833  -1.033  1.00  0.00     0.093 A 
ATOM     37  C   UNL     1      -2.593   5.641  -0.976  1.00  0.00     0.123 A 
BRANCH  28  38
ATOM     38  C   UNL     1      -0.812  10.566  -3.972  1.00  0.00     0.025 A 
ATOM     39  C   UNL     1       0.083  11.213  -3.099  1.00  0.00     0.062 A 
ATOM     40  C   UNL     1      -0.698  10.755  -5.357  1.00  0.00     0.016 A 
ATOM     41  C   UNL     1       1.050  12.084  -3.609  1.00  0.00     0.158 A 
ATOM     42  C   UNL     1       0.276  11.601  -5.869  1.00  0.00     0.051 A 
ATOM     43  C   UNL     1       1.154  12.271  -5.005  1.00  0.00     0.157 A 
BRANCH  41  44
ATOM     44  O   UNL     1       1.885  12.774  -2.722  1.00  0.00    -0.504 OA
ATOM     45  H   UNL     1       1.887  13.790  -2.698  1.00  0.00     0.293 HD
ENDBRANCH  41  44
BRANCH  43  46
ATOM     46  O   UNL     1       2.137  13.113  -5.528  1.00  0.00    -0.504 OA
ATOM     47  H   UNL     1       2.727  13.685  -4.922  1.00  0.00     0.293 HD
ENDBRANCH  43  46
ENDBRANCH  28  38
BRANCH  34  48
ATOM     48  O   UNL     1      -5.911   7.117  -1.534  1.00  0.00    -0.507 OA
ATOM     49  H   UNL     1      -6.585   6.436  -1.849  1.00  0.00     0.293 HD
ENDBRANCH  34  48
BRANCH  37  50
ATOM     50  O   UNL     1      -2.057   4.528  -0.337  1.00  0.00    -0.508 OA
ATOM     51  H   UNL     1      -1.673   3.758  -0.870  1.00  0.00     0.293 HD
ENDBRANCH  37  50
ENDBRANCH  26  27
ENDBRANCH   5  26
BRANCH   4  52
ATOM     52  O   UNL     1      -1.686  10.318  -7.562  1.00  0.00    -0.384 OA
ATOM     53  H   UNL     1      -1.641  11.268  -7.866  1.00  0.00     0.211 HD
ENDBRANCH   4  52
TORSDOF 16
ENDMDL
MODEL 3
REMARK VINA RESULT:    34.298     13.008     16.552
REMARK INTER + INTRA:          56.274
REMARK INTER:                  46.218
REMARK INTRA:                  10.056
REMARK UNBOUND:                -0.079
REMARK SMILES C[C@H]1O[C@H](OC[C@H]2O[C@@H](Oc3c(-c4ccc(O)c(O)c4)oc4cc(O)cc(O)c4c3=O)[C@H](O)[C@@H](O)[C@@H]2O)[C@@H](O)[C@H](O)[C@H]1O
REMARK SMILES IDX 7 1 36 2 34 3 32 4 9 5 8 6 6 7 5 8 4 9 1 10 2 11 42 12 3 13
REMARK SMILES IDX 40 14 38 15 43 16 41 18 39 20 37 22 35 24 10 26 11 27 12 28
REMARK SMILES IDX 30 29 21 30 29 31 31 32 22 33 27 34 23 35 26 36 24 37 13 38
REMARK SMILES IDX 20 39 14 40 18 41 15 42 16 43 19 44 17 46 28 48 25 50 33 52
REMARK H PARENT 43 17 41 19 39 21 37 23 35 25 19 45 17 47 28 49 25 51 33 53
REMARK Flexibility Score: inf
ROOT
ATOM      1  C   UNL     1       7.920  10.303   7.409  1.00  0.00     0.180 C 
ATOM      2  C   UNL     1       9.382  10.795   7.536  1.00  0.00     0.177 C 
ATOM      3  C   UNL     1       9.493  12.331   7.600  1.00  0.00     0.180 C 
ATOM      4  C   UNL     1       8.558  13.036   6.584  1.00  0.00     0.214 C 
ATOM      5  C   UNL     1       7.160  12.367   6.459  1.00  0.00     0.339 C 
ATOM      6  O   UNL     1       7.201  10.959   6.368  1.00  0.00    -0.332 OA
ENDROOT
BRANCH   1   7
ATOM      7  C   UNL     1       7.152  10.216   8.741  1.00  0.00     0.198 C 
BRANCH   7   8
ATOM      8  O   UNL     1       5.757  10.330   8.493  1.00  0.00    -0.347 OA
BRANCH   8   9
ATOM      9  C   UNL     1       5.024   9.105   8.475  1.00  0.00     0.281 C 
ATOM     10  C   UNL     1       5.148   6.211   9.126  1.00  0.00     0.041 C 
ATOM     11  C   UNL     1       4.389   7.316   9.894  1.00  0.00     0.150 C 
ATOM     12  C   UNL     1       2.863   7.407   9.576  1.00  0.00     0.174 C 
ATOM     13  O   UNL     1       5.023   8.586   9.800  1.00  0.00    -0.344 OA
ATOM     14  C   UNL     1       2.510   8.731   8.853  1.00  0.00     0.179 C 
ATOM     15  C   UNL     1       3.595   9.070   7.802  1.00  0.00     0.202 C 
BRANCH  12  16
ATOM     16  O   UNL     1       2.436   6.320   8.799  1.00  0.00    -0.388 OA
ATOM     17  H   UNL     1       3.075   5.576   8.972  1.00  0.00     0.211 HD
ENDBRANCH  12  16
BRANCH  14  18
ATOM     18  O   UNL     1       2.394   9.780   9.788  1.00  0.00    -0.387 OA
ATOM     19  H   UNL     1       1.627   9.570  10.387  1.00  0.00     0.211 HD
ENDBRANCH  14  18
BRANCH  15  20
ATOM     20  O   UNL     1       3.584   8.089   6.795  1.00  0.00    -0.385 OA
ATOM     21  H   UNL     1       2.721   8.137   6.323  1.00  0.00     0.211 HD
ENDBRANCH  15  20
ENDBRANCH   8   9
ENDBRANCH   7   8
ENDBRANCH   1   7
BRANCH   2  22
ATOM     22  O   UNL     1      10.123  10.309   6.445  1.00  0.00    -0.387 OA
ATOM     23  H   UNL     1      11.079  10.333   6.712  1.00  0.00     0.211 HD
ENDBRANCH   2  22
BRANCH   3  24
ATOM     24  O   UNL     1       9.316  12.799   8.914  1.00  0.00    -0.387 OA
ATOM     25  H   UNL     1       9.940  13.551   9.052  1.00  0.00     0.211 HD
ENDBRANCH   3  24
BRANCH   5  26
ATOM     26  O   UNL     1       6.264  12.804   7.484  1.00  0.00    -0.454 OA
BRANCH  26  27
ATOM     27  C   UNL     1       4.919  12.416   7.524  1.00  0.00     0.214 A 
ATOM     28  C   UNL     1       4.273  11.891   6.389  1.00  0.00     0.180 A 
ATOM     29  C   UNL     1       4.178  12.590   8.702  1.00  0.00     0.239 A 
ATOM     30  O   UNL     1       2.963  11.685   6.412  1.00  0.00    -0.452 OA
ATOM     31  C   UNL     1       2.791  12.308   8.707  1.00  0.00     0.111 A 
ATOM     32  O   UNL     1       4.754  13.063   9.714  1.00  0.00    -0.285 OA
ATOM     33  C   UNL     1       2.209  11.886   7.487  1.00  0.00     0.146 A 
ATOM     34  C   UNL     1       1.947  12.468   9.840  1.00  0.00     0.134 A 
ATOM     35  C   UNL     1       0.829  11.680   7.389  1.00  0.00     0.094 A 
ATOM     36  C   UNL     1       0.562  12.316   9.699  1.00  0.00     0.093 A 
ATOM     37  C   UNL     1      -0.002  11.919   8.484  1.00  0.00     0.123 A 
BRANCH  28  38
ATOM     38  C   UNL     1       5.018  11.562   5.156  1.00  0.00     0.025 A 
ATOM     39  C   UNL     1       6.102  12.350   4.730  1.00  0.00     0.062 A 
ATOM     40  C   UNL     1       4.668  10.407   4.439  1.00  0.00     0.016 A 
ATOM     41  C   UNL     1       6.797  12.013   3.565  1.00  0.00     0.158 A 
ATOM     42  C   UNL     1       5.371  10.055   3.295  1.00  0.00     0.051 A 
ATOM     43  C   UNL     1       6.436  10.851   2.848  1.00  0.00     0.157 A 
BRANCH  41  44
ATOM     44  O   UNL     1       7.828  12.849   3.117  1.00  0.00    -0.504 OA
ATOM     45  H   UNL     1       8.426  13.333   3.781  1.00  0.00     0.293 HD
ENDBRANCH  41  44
BRANCH  43  46
ATOM     46  O   UNL     1       7.143  10.486   1.702  1.00  0.00    -0.504 OA
ATOM     47  H   UNL     1       7.711   9.638   1.674  1.00  0.00     0.293 HD
ENDBRANCH  43  46
ENDBRANCH  28  38
BRANCH  34  48
ATOM     48  O   UNL     1       2.412  12.751  11.125  1.00  0.00    -0.507 OA
ATOM     49  H   UNL     1       2.166  13.574  11.654  1.00  0.00     0.293 HD
ENDBRANCH  34  48
BRANCH  37  50
ATOM     50  O   UNL     1      -1.376  11.734   8.367  1.00  0.00    -0.508 OA
ATOM     51  H   UNL     1      -1.938  11.496   9.174  1.00  0.00     0.293 HD
ENDBRANCH  37  50
ENDBRANCH  26  27
ENDBRANCH   5  26
BRANCH   4  52
ATOM     52  O   UNL     1       9.187  13.119   5.330  1.00  0.00    -0.384 OA
ATOM     53  H   UNL     1       8.664  13.769   4.781  1.00  0.00     0.211 HD
ENDBRANCH   4  52
TORSDOF 16
ENDMDL
