MODEL 1
REMARK VINA RESULT:    -3.154      0.000      0.000
REMARK INTER + INTRA:          -3.998
REMARK INTER:                  -3.707
REMARK INTRA:                  -0.291
REMARK UNBOUND:                -0.291
REMARK SMILES O=c1cc(-c2ccc(O)c(O)c2)oc2cc(O)cc(O)c12
REMARK SMILES IDX 4 1 3 2 2 3 1 4 21 5 19 6 18 7 16 8 15 9 14 10 13 11 5 12
REMARK SMILES IDX 6 13 7 14 8 15 12 16 10 17 9 18 11 20 20 22 17 24
REMARK H PARENT 9 19 11 21 20 23 17 25
REMARK Flexibility Score: inf
ROOT
ATOM      1  C   UNL     1      -8.535 -22.462  20.130  1.00  0.00     0.138 A 
ATOM      2  C   UNL     1      -7.218 -22.867  19.879  1.00  0.00     0.100 A 
ATOM      3  C   UNL     1      -6.673 -22.696  18.606  1.00  0.00     0.197 A 
ATOM      4  O   UNL     1      -5.507 -23.120  18.398  1.00  0.00    -0.289 OA
ATOM      5  C   UNL     1      -7.441 -22.081  17.588  1.00  0.00     0.107 A 
ATOM      6  C   UNL     1      -6.979 -21.823  16.262  1.00  0.00     0.134 A 
ATOM      7  C   UNL     1      -7.866 -21.300  15.312  1.00  0.00     0.093 A 
ATOM      8  C   UNL     1      -9.177 -20.971  15.654  1.00  0.00     0.123 A 
ATOM      9  C   UNL     1      -9.625 -21.172  16.960  1.00  0.00     0.094 A 
ATOM     10  C   UNL     1      -8.776 -21.725  17.922  1.00  0.00     0.146 A 
ATOM     11  O   UNL     1      -9.248 -21.917  19.149  1.00  0.00    -0.456 OA
ENDROOT
BRANCH   1  12
ATOM     12  C   UNL     1      -9.164 -22.617  21.467  1.00  0.00     0.021 A 
ATOM     13  C   UNL     1     -10.561 -22.556  21.639  1.00  0.00     0.016 A 
ATOM     14  C   UNL     1     -11.124 -22.695  22.909  1.00  0.00     0.051 A 
ATOM     15  C   UNL     1     -10.306 -22.888  24.029  1.00  0.00     0.157 A 
ATOM     16  C   UNL     1      -8.349 -22.797  22.598  1.00  0.00     0.062 A 
ATOM     17  C   UNL     1      -8.916 -22.937  23.873  1.00  0.00     0.158 A 
BRANCH  15  18
ATOM     18  O   UNL     1     -10.865 -23.028  25.297  1.00  0.00    -0.504 OA
ATOM     19  H   UNL     1     -10.291 -23.036  26.133  1.00  0.00     0.293 HD
ENDBRANCH  15  18
BRANCH  17  20
ATOM     20  O   UNL     1      -8.103 -23.125  24.989  1.00  0.00    -0.504 OA
ATOM     21  H   UNL     1      -7.215 -22.646  25.086  1.00  0.00     0.293 HD
ENDBRANCH  17  20
ENDBRANCH   1  12
BRANCH   6  22
ATOM     22  O   UNL     1      -5.666 -22.040  15.833  1.00  0.00    -0.507 OA
ATOM     23  H   UNL     1      -4.965 -22.551  16.348  1.00  0.00     0.293 HD
ENDBRANCH   6  22
BRANCH   8  24
ATOM     24  O   UNL     1     -10.026 -20.438  14.686  1.00  0.00    -0.508 OA
ATOM     25  H   UNL     1     -10.188 -19.440  14.616  1.00  0.00     0.293 HD
ENDBRANCH   8  24
TORSDOF 5
ENDMDL
MODEL 2
REMARK VINA RESULT:    -2.390     13.692     17.642
REMARK INTER + INTRA:          -3.100
REMARK INTER:                  -2.782
REMARK INTRA:                  -0.318
REMARK UNBOUND:                -0.291
REMARK SMILES O=c1cc(-c2ccc(O)c(O)c2)oc2cc(O)cc(O)c12
REMARK SMILES IDX 4 1 3 2 2 3 1 4 21 5 19 6 18 7 16 8 15 9 14 10 13 11 5 12
REMARK SMILES IDX 6 13 7 14 8 15 12 16 10 17 9 18 11 20 20 22 17 24
REMARK H PARENT 9 19 11 21 20 23 17 25
REMARK Flexibility Score: inf
ROOT
ATOM      1  C   UNL     1       6.789 -22.199  12.677  1.00  0.00     0.138 A 
ATOM      2  C   UNL     1       7.597 -21.791  13.747  1.00  0.00     0.100 A 
ATOM      3  C   UNL     1       7.056 -21.707  15.029  1.00  0.00     0.197 A 
ATOM      4  O   UNL     1       7.793 -21.285  15.958  1.00  0.00    -0.289 OA
ATOM      5  C   UNL     1       5.705 -22.070  15.248  1.00  0.00     0.107 A 
ATOM      6  C   UNL     1       5.054 -22.058  16.519  1.00  0.00     0.134 A 
ATOM      7  C   UNL     1       3.684 -22.342  16.595  1.00  0.00     0.093 A 
ATOM      8  C   UNL     1       2.957 -22.695  15.459  1.00  0.00     0.123 A 
ATOM      9  C   UNL     1       3.594 -22.760  14.220  1.00  0.00     0.094 A 
ATOM     10  C   UNL     1       4.951 -22.448  14.105  1.00  0.00     0.146 A 
ATOM     11  O   UNL     1       5.515 -22.503  12.903  1.00  0.00    -0.456 OA
ENDROOT
BRANCH   1  12
ATOM     12  C   UNL     1       7.314 -22.309  11.292  1.00  0.00     0.021 A 
ATOM     13  C   UNL     1       8.662 -22.037  10.987  1.00  0.00     0.016 A 
ATOM     14  C   UNL     1       9.125 -22.139   9.674  1.00  0.00     0.051 A 
ATOM     15  C   UNL     1       8.252 -22.505   8.642  1.00  0.00     0.157 A 
ATOM     16  C   UNL     1       6.441 -22.662  10.248  1.00  0.00     0.062 A 
ATOM     17  C   UNL     1       6.907 -22.765   8.929  1.00  0.00     0.158 A 
BRANCH  15  18
ATOM     18  O   UNL     1       8.712 -22.609   7.331  1.00  0.00    -0.504 OA
ATOM     19  H   UNL     1       9.656 -22.914   7.122  1.00  0.00     0.293 HD
ENDBRANCH  15  18
BRANCH  17  20
ATOM     20  O   UNL     1       6.039 -23.125   7.900  1.00  0.00    -0.504 OA
ATOM     21  H   UNL     1       5.369 -23.877   8.010  1.00  0.00     0.293 HD
ENDBRANCH  17  20
ENDBRANCH   1  12
BRANCH   6  22
ATOM     22  O   UNL     1       5.703 -21.796  17.730  1.00  0.00    -0.507 OA
ATOM     23  H   UNL     1       6.629 -21.407  17.819  1.00  0.00     0.293 HD
ENDBRANCH   6  22
BRANCH   8  24
ATOM     24  O   UNL     1       1.600 -22.987  15.576  1.00  0.00    -0.508 OA
ATOM     25  H   UNL     1       0.953 -22.815  14.815  1.00  0.00     0.293 HD
ENDBRANCH   8  24
TORSDOF 5
ENDMDL
MODEL 3
REMARK VINA RESULT:    -1.495      2.667      7.351
REMARK INTER + INTRA:          -2.048
REMARK INTER:                  -1.786
REMARK INTRA:                  -0.263
REMARK UNBOUND:                -0.291
REMARK SMILES O=c1cc(-c2ccc(O)c(O)c2)oc2cc(O)cc(O)c12
REMARK SMILES IDX 4 1 3 2 2 3 1 4 21 5 19 6 18 7 16 8 15 9 14 10 13 11 5 12
REMARK SMILES IDX 6 13 7 14 8 15 12 16 10 17 9 18 11 20 20 22 17 24
REMARK H PARENT 9 19 11 21 20 23 17 25
REMARK Flexibility Score: inf
ROOT
ATOM      1  C   UNL     1     -10.204 -20.790  18.651  1.00  0.00     0.138 A 
ATOM      2  C   UNL     1     -10.581 -21.983  19.282  1.00  0.00     0.100 A 
ATOM      3  C   UNL     1     -10.715 -22.018  20.670  1.00  0.00     0.197 A 
ATOM      4  O   UNL     1     -11.000 -23.117  21.211  1.00  0.00    -0.289 OA
ATOM      5  C   UNL     1     -10.506 -20.840  21.427  1.00  0.00     0.107 A 
ATOM      6  C   UNL     1     -10.648 -20.747  22.845  1.00  0.00     0.134 A 
ATOM      7  C   UNL     1     -10.316 -19.551  23.494  1.00  0.00     0.093 A 
ATOM      8  C   UNL     1      -9.906 -18.429  22.774  1.00  0.00     0.123 A 
ATOM      9  C   UNL     1      -9.813 -18.493  21.384  1.00  0.00     0.094 A 
ATOM     10  C   UNL     1     -10.102 -19.682  20.710  1.00  0.00     0.146 A 
ATOM     11  O   UNL     1      -9.982 -19.706  19.386  1.00  0.00    -0.456 OA
ENDROOT
BRANCH   1  12
ATOM     12  C   UNL     1     -10.050 -20.695  17.176  1.00  0.00     0.021 A 
ATOM     13  C   UNL     1     -11.117 -20.302  16.345  1.00  0.00     0.016 A 
ATOM     14  C   UNL     1     -10.946 -20.231  14.960  1.00  0.00     0.051 A 
ATOM     15  C   UNL     1      -9.713 -20.559  14.382  1.00  0.00     0.157 A 
ATOM     16  C   UNL     1      -8.820 -21.036  16.586  1.00  0.00     0.062 A 
ATOM     17  C   UNL     1      -8.650 -20.964  15.196  1.00  0.00     0.158 A 
BRANCH  15  18
ATOM     18  O   UNL     1      -9.540 -20.488  13.001  1.00  0.00    -0.504 OA
ATOM     19  H   UNL     1     -10.295 -20.701  12.360  1.00  0.00     0.293 HD
ENDBRANCH  15  18
BRANCH  17  20
ATOM     20  O   UNL     1      -7.425 -21.294  14.618  1.00  0.00    -0.504 OA
ATOM     21  H   UNL     1      -7.043 -22.230  14.682  1.00  0.00     0.293 HD
ENDBRANCH  17  20
ENDBRANCH   1  12
BRANCH   6  22
ATOM     22  O   UNL     1     -11.125 -21.782  23.655  1.00  0.00    -0.507 OA
ATOM     23  H   UNL     1     -11.879 -21.698  24.318  1.00  0.00     0.293 HD
ENDBRANCH   6  22
BRANCH   8  24
ATOM     24  O   UNL     1      -9.601 -17.252  23.453  1.00  0.00    -0.508 OA
ATOM     25  H   UNL     1      -9.968 -17.063  24.379  1.00  0.00     0.293 HD
ENDBRANCH   8  24
TORSDOF 5
ENDMDL
MODEL 4
REMARK VINA RESULT:    -1.187      1.012      1.015
REMARK INTER + INTRA:          -1.686
REMARK INTER:                  -1.393
REMARK INTRA:                  -0.293
REMARK UNBOUND:                -0.291
REMARK SMILES O=c1cc(-c2ccc(O)c(O)c2)oc2cc(O)cc(O)c12
REMARK SMILES IDX 4 1 3 2 2 3 1 4 21 5 19 6 18 7 16 8 15 9 14 10 13 11 5 12
REMARK SMILES IDX 6 13 7 14 8 15 12 16 10 17 9 18 11 20 20 22 17 24
REMARK H PARENT 9 19 11 21 20 23 17 25
REMARK Flexibility Score: inf
ROOT
ATOM      1  C   UNL     1      -8.880 -21.749  19.744  1.00  0.00     0.138 A 
ATOM      2  C   UNL     1      -7.644 -22.370  19.521  1.00  0.00     0.100 A 
ATOM      3  C   UNL     1      -7.117 -22.416  18.231  1.00  0.00     0.197 A 
ATOM      4  O   UNL     1      -6.033 -23.030  18.054  1.00  0.00    -0.289 OA
ATOM      5  C   UNL     1      -7.815 -21.803  17.163  1.00  0.00     0.107 A 
ATOM      6  C   UNL     1      -7.359 -21.757  15.810  1.00  0.00     0.134 A 
ATOM      7  C   UNL     1      -8.185 -21.209  14.821  1.00  0.00     0.093 A 
ATOM      8  C   UNL     1      -9.423 -20.654  15.143  1.00  0.00     0.123 A 
ATOM      9  C   UNL     1      -9.858 -20.648  16.468  1.00  0.00     0.094 A 
ATOM     10  C   UNL     1      -9.072 -21.218  17.473  1.00  0.00     0.146 A 
ATOM     11  O   UNL     1      -9.532 -21.209  18.720  1.00  0.00    -0.456 OA
ENDROOT
BRANCH   1  12
ATOM     12  C   UNL     1      -9.486 -21.667  21.098  1.00  0.00     0.021 A 
ATOM     13  C   UNL     1     -10.579 -20.821  21.369  1.00  0.00     0.016 A 
ATOM     14  C   UNL     1     -11.123 -20.757  22.655  1.00  0.00     0.051 A 
ATOM     15  C   UNL     1     -10.582 -21.528  23.691  1.00  0.00     0.157 A 
ATOM     16  C   UNL     1      -8.940 -22.426  22.147  1.00  0.00     0.062 A 
ATOM     17  C   UNL     1      -9.487 -22.362  23.437  1.00  0.00     0.158 A 
BRANCH  15  18
ATOM     18  O   UNL     1     -11.123 -21.467  24.973  1.00  0.00    -0.504 OA
ATOM     19  H   UNL     1     -12.049 -21.092  25.141  1.00  0.00     0.293 HD
ENDBRANCH  15  18
BRANCH  17  20
ATOM     20  O   UNL     1      -8.947 -23.125  24.471  1.00  0.00    -0.504 OA
ATOM     21  H   UNL     1      -8.773 -22.729  25.387  1.00  0.00     0.293 HD
ENDBRANCH  17  20
ENDBRANCH   1  12
BRANCH   6  22
ATOM     22  O   UNL     1      -6.104 -22.212  15.391  1.00  0.00    -0.507 OA
ATOM     23  H   UNL     1      -5.490 -21.719  14.762  1.00  0.00     0.293 HD
ENDBRANCH   6  22
BRANCH   8  24
ATOM     24  O   UNL     1     -10.211 -20.104  14.134  1.00  0.00    -0.508 OA
ATOM     25  H   UNL     1     -11.220 -20.052  14.219  1.00  0.00     0.293 HD
ENDBRANCH   8  24
TORSDOF 5
ENDMDL
MODEL 5
REMARK VINA RESULT:    -0.855     11.616     14.258
REMARK INTER + INTRA:          -1.296
REMARK INTER:                  -1.016
REMARK INTRA:                  -0.280
REMARK UNBOUND:                -0.291
REMARK SMILES O=c1cc(-c2ccc(O)c(O)c2)oc2cc(O)cc(O)c12
REMARK SMILES IDX 4 1 3 2 2 3 1 4 21 5 19 6 18 7 16 8 15 9 14 10 13 11 5 12
REMARK SMILES IDX 6 13 7 14 8 15 12 16 10 17 9 18 11 20 20 22 17 24
REMARK H PARENT 9 19 11 21 20 23 17 25
REMARK Flexibility Score: inf
ROOT
ATOM      1  C   UNL     1       3.967 -22.185  15.497  1.00  0.00     0.138 A 
ATOM      2  C   UNL     1       4.790 -21.924  16.600  1.00  0.00     0.100 A 
ATOM      3  C   UNL     1       6.176 -21.916  16.442  1.00  0.00     0.197 A 
ATOM      4  O   UNL     1       6.889 -21.733  17.463  1.00  0.00    -0.289 OA
ATOM      5  C   UNL     1       6.740 -22.133  15.161  1.00  0.00     0.107 A 
ATOM      6  C   UNL     1       8.138 -22.113  14.873  1.00  0.00     0.134 A 
ATOM      7  C   UNL     1       8.581 -22.442  13.585  1.00  0.00     0.093 A 
ATOM      8  C   UNL     1       7.678 -22.731  12.564  1.00  0.00     0.123 A 
ATOM      9  C   UNL     1       6.307 -22.704  12.822  1.00  0.00     0.094 A 
ATOM     10  C   UNL     1       5.834 -22.415  14.104  1.00  0.00     0.146 A 
ATOM     11  O   UNL     1       4.521 -22.418  14.312  1.00  0.00    -0.456 OA
ENDROOT
BRANCH   1  12
ATOM     12  C   UNL     1       2.486 -22.203  15.607  1.00  0.00     0.021 A 
ATOM     13  C   UNL     1       1.702 -23.125  14.887  1.00  0.00     0.016 A 
ATOM     14  C   UNL     1       0.310 -23.112  15.003  1.00  0.00     0.051 A 
ATOM     15  C   UNL     1      -0.323 -22.177  15.830  1.00  0.00     0.157 A 
ATOM     16  C   UNL     1       1.842 -21.258  16.425  1.00  0.00     0.062 A 
ATOM     17  C   UNL     1       0.444 -21.247  16.541  1.00  0.00     0.158 A 
BRANCH  15  18
ATOM     18  O   UNL     1      -1.711 -22.162  15.948  1.00  0.00    -0.504 OA
ATOM     19  H   UNL     1      -2.248 -21.316  15.796  1.00  0.00     0.293 HD
ENDBRANCH  15  18
BRANCH  17  20
ATOM     20  O   UNL     1      -0.188 -20.314  17.361  1.00  0.00    -0.504 OA
ATOM     21  H   UNL     1      -0.826 -20.598  18.095  1.00  0.00     0.293 HD
ENDBRANCH  17  20
ENDBRANCH   1  12
BRANCH   6  22
ATOM     22  O   UNL     1       9.125 -21.760  15.799  1.00  0.00    -0.507 OA
ATOM     23  H   UNL     1       9.799 -21.021  15.674  1.00  0.00     0.293 HD
ENDBRANCH   6  22
BRANCH   8  24
ATOM     24  O   UNL     1       8.155 -23.038  11.291  1.00  0.00    -0.508 OA
ATOM     25  H   UNL     1       8.998 -23.585  11.159  1.00  0.00     0.293 HD
ENDBRANCH   8  24
TORSDOF 5
ENDMDL
MODEL 6
REMARK VINA RESULT:    -0.183      1.956      3.505
REMARK INTER + INTRA:          -0.506
REMARK INTER:                  -0.234
REMARK INTRA:                  -0.272
REMARK UNBOUND:                -0.291
REMARK SMILES O=c1cc(-c2ccc(O)c(O)c2)oc2cc(O)cc(O)c12
REMARK SMILES IDX 4 1 3 2 2 3 1 4 21 5 19 6 18 7 16 8 15 9 14 10 13 11 5 12
REMARK SMILES IDX 6 13 7 14 8 15 12 16 10 17 9 18 11 20 20 22 17 24
REMARK H PARENT 9 19 11 21 20 23 17 25
REMARK Flexibility Score: inf
ROOT
ATOM      1  C   UNL     1      -9.810 -20.405  19.231  1.00  0.00     0.138 A 
ATOM      2  C   UNL     1     -10.635 -19.943  18.197  1.00  0.00     0.100 A 
ATOM      3  C   UNL     1     -10.262 -20.152  16.870  1.00  0.00     0.197 A 
ATOM      4  O   UNL     1     -10.996 -19.676  15.965  1.00  0.00    -0.289 OA
ATOM      5  C   UNL     1      -9.073 -20.862  16.576  1.00  0.00     0.107 A 
ATOM      6  C   UNL     1      -8.609 -21.165  15.259  1.00  0.00     0.134 A 
ATOM      7  C   UNL     1      -7.365 -21.786  15.093  1.00  0.00     0.093 A 
ATOM      8  C   UNL     1      -6.596 -22.168  16.191  1.00  0.00     0.123 A 
ATOM      9  C   UNL     1      -7.062 -21.922  17.483  1.00  0.00     0.094 A 
ATOM     10  C   UNL     1      -8.283 -21.272  17.683  1.00  0.00     0.146 A 
ATOM     11  O   UNL     1      -8.682 -21.041  18.929  1.00  0.00    -0.456 OA
ENDROOT
BRANCH   1  12
ATOM     12  C   UNL     1     -10.159 -20.214  20.662  1.00  0.00     0.021 A 
ATOM     13  C   UNL     1     -10.180 -18.936  21.254  1.00  0.00     0.016 A 
ATOM     14  C   UNL     1     -10.503 -18.787  22.605  1.00  0.00     0.051 A 
ATOM     15  C   UNL     1     -10.801 -19.908  23.389  1.00  0.00     0.157 A 
ATOM     16  C   UNL     1     -10.445 -21.335  21.460  1.00  0.00     0.062 A 
ATOM     17  C   UNL     1     -10.770 -21.184  22.816  1.00  0.00     0.158 A 
BRANCH  15  18
ATOM     18  O   UNL     1     -11.124 -19.762  24.736  1.00  0.00    -0.504 OA
ATOM     19  H   UNL     1     -10.408 -19.638  25.443  1.00  0.00     0.293 HD
ENDBRANCH  15  18
BRANCH  17  20
ATOM     20  O   UNL     1     -11.062 -22.299  23.599  1.00  0.00    -0.504 OA
ATOM     21  H   UNL     1     -11.600 -22.221  24.455  1.00  0.00     0.293 HD
ENDBRANCH  17  20
ENDBRANCH   1  12
BRANCH   6  22
ATOM     22  O   UNL     1      -9.333 -20.899  14.093  1.00  0.00    -0.507 OA
ATOM     23  H   UNL     1      -9.653 -21.596  13.438  1.00  0.00     0.293 HD
ENDBRANCH   6  22
BRANCH   8  24
ATOM     24  O   UNL     1      -5.371 -22.798  15.986  1.00  0.00    -0.508 OA
ATOM     25  H   UNL     1      -5.010 -22.964  15.054  1.00  0.00     0.293 HD
ENDBRANCH   8  24
TORSDOF 5
ENDMDL
