MODEL 1
REMARK VINA RESULT:    -4.620      0.000      0.000
REMARK INTER + INTRA:         -10.292
REMARK INTER:                  -8.942
REMARK INTRA:                  -1.350
REMARK UNBOUND:                -1.350
REMARK SMILES CCCCCCCCCCCCCCCCCC(=O)[O-]
REMARK SMILES IDX 10 1 11 2 12 3 13 4 14 5 15 6 16 7 17 8 18 9 19 10 20 11
REMARK SMILES IDX 9 12 8 13 7 14 6 15 5 16 4 17 3 18 2 19 1 20
REMARK H PARENT
REMARK Flexibility Score: inf
ROOT
ATOM      1  C   UNL     1       3.726  10.163   7.150  1.00  0.00     0.000 C 
ENDROOT
BRANCH   1   2
ATOM      2  C   UNL     1       2.933  10.637   8.383  1.00  0.00     0.000 C 
BRANCH   2   3
ATOM      3  C   UNL     1       3.486  11.929   9.021  1.00  0.00     0.000 C 
BRANCH   3   4
ATOM      4  C   UNL     1       2.415  12.703   9.805  1.00  0.00     0.000 C 
BRANCH   4   5
ATOM      5  C   UNL     1       1.026  12.089   9.589  1.00  0.00     0.000 C 
BRANCH   5   6
ATOM      6  C   UNL     1       0.053  13.122   9.002  1.00  0.00     0.000 C 
BRANCH   6   7
ATOM      7  C   UNL     1      -1.111  12.479   8.225  1.00  0.00     0.006 C 
BRANCH   7   8
ATOM      8  C   UNL     1      -2.496  12.757   8.836  1.00  0.00     0.053 C 
BRANCH   8   9
ATOM      9  C   UNL     1      -3.615  12.292   7.956  1.00  0.00     0.041 C 
ATOM     10  O   UNL     1      -3.587  11.140   7.450  1.00  0.00    -0.550 OA
ATOM     11  O   UNL     1      -4.701  13.125   7.710  1.00  0.00    -0.550 OA
ENDBRANCH   8   9
ENDBRANCH   7   8
ENDBRANCH   6   7
ENDBRANCH   5   6
ENDBRANCH   4   5
ENDBRANCH   3   4
ENDBRANCH   2   3
ENDBRANCH   1   2
BRANCH   1  12
ATOM     12  C   UNL     1       4.898  11.073   6.737  1.00  0.00     0.000 C 
BRANCH  12  13
ATOM     13  C   UNL     1       5.262  11.027   5.242  1.00  0.00    -0.000 C 
BRANCH  13  14
ATOM     14  C   UNL     1       6.258  12.121   4.834  1.00  0.00    -0.000 C 
BRANCH  14  15
ATOM     15  C   UNL     1       7.458  11.520   4.087  1.00  0.00    -0.000 C 
BRANCH  15  16
ATOM     16  C   UNL     1       8.687  12.446   4.087  1.00  0.00    -0.000 C 
BRANCH  16  17
ATOM     17  C   UNL     1       9.322  12.692   5.470  1.00  0.00    -0.000 C 
BRANCH  17  18
ATOM     18  C   UNL     1       9.620  11.422   6.286  1.00  0.00    -0.000 C 
BRANCH  18  19
ATOM     19  C   UNL     1       8.658  11.234   7.468  1.00  0.00    -0.003 C 
ATOM     20  C   UNL     1       8.136  12.577   7.970  1.00  0.00     0.004 C 
ENDBRANCH  18  19
ENDBRANCH  17  18
ENDBRANCH  16  17
ENDBRANCH  15  16
ENDBRANCH  14  15
ENDBRANCH  13  14
ENDBRANCH  12  13
ENDBRANCH   1  12
TORSDOF 16
ENDMDL
MODEL 2
REMARK VINA RESULT:    -4.365      2.370      4.008
REMARK INTER + INTRA:          -9.797
REMARK INTER:                  -8.395
REMARK INTRA:                  -1.401
REMARK UNBOUND:                -1.350
REMARK SMILES CCCCCCCCCCCCCCCCCC(=O)[O-]
REMARK SMILES IDX 10 1 11 2 12 3 13 4 14 5 15 6 16 7 17 8 18 9 19 10 20 11
REMARK SMILES IDX 9 12 8 13 7 14 6 15 5 16 4 17 3 18 2 19 1 20
REMARK H PARENT
REMARK Flexibility Score: inf
ROOT
ATOM      1  C   UNL     1       6.134  11.368   5.536  1.00  0.00     0.000 C 
ENDROOT
BRANCH   1   2
ATOM      2  C   UNL     1       4.690  10.877   5.313  1.00  0.00     0.000 C 
BRANCH   2   3
ATOM      3  C   UNL     1       3.956  10.488   6.614  1.00  0.00     0.000 C 
BRANCH   3   4
ATOM      4  C   UNL     1       4.715   9.425   7.422  1.00  0.00     0.000 C 
BRANCH   4   5
ATOM      5  C   UNL     1       3.978   9.097   8.727  1.00  0.00     0.000 C 
BRANCH   5   6
ATOM      6  C   UNL     1       3.395  10.367   9.364  1.00  0.00     0.000 C 
BRANCH   6   7
ATOM      7  C   UNL     1       2.546  10.077  10.616  1.00  0.00     0.006 C 
BRANCH   7   8
ATOM      8  C   UNL     1       1.265  10.924  10.710  1.00  0.00     0.053 C 
BRANCH   8   9
ATOM      9  C   UNL     1       1.136  11.899   9.581  1.00  0.00     0.041 C 
ATOM     10  O   UNL     1       1.729  13.008   9.632  1.00  0.00    -0.550 OA
ATOM     11  O   UNL     1       0.377  11.575   8.463  1.00  0.00    -0.550 OA
ENDBRANCH   8   9
ENDBRANCH   7   8
ENDBRANCH   6   7
ENDBRANCH   5   6
ENDBRANCH   4   5
ENDBRANCH   3   4
ENDBRANCH   2   3
ENDBRANCH   1   2
BRANCH   1  12
ATOM     12  C   UNL     1       6.261  12.828   6.010  1.00  0.00     0.000 C 
BRANCH  12  13
ATOM     13  C   UNL     1       6.184  13.025   7.535  1.00  0.00    -0.000 C 
BRANCH  13  14
ATOM     14  C   UNL     1       7.497  12.676   8.251  1.00  0.00    -0.000 C 
BRANCH  14  15
ATOM     15  C   UNL     1       7.958  11.255   7.889  1.00  0.00    -0.000 C 
BRANCH  15  16
ATOM     16  C   UNL     1       9.345  11.228   7.223  1.00  0.00    -0.000 C 
BRANCH  16  17
ATOM     17  C   UNL     1       9.984  12.611   6.986  1.00  0.00    -0.000 C 
BRANCH  17  18
ATOM     18  C   UNL     1       9.907  13.125   5.536  1.00  0.00    -0.000 C 
BRANCH  18  19
ATOM     19  C   UNL     1       9.621  12.008   4.523  1.00  0.00    -0.003 C 
ATOM     20  C   UNL     1       9.001  12.569   3.247  1.00  0.00     0.004 C 
ENDBRANCH  18  19
ENDBRANCH  17  18
ENDBRANCH  16  17
ENDBRANCH  15  16
ENDBRANCH  14  15
ENDBRANCH  13  14
ENDBRANCH  12  13
ENDBRANCH   1  12
TORSDOF 16
ENDMDL
MODEL 3
REMARK VINA RESULT:    -4.317      3.410      8.821
REMARK INTER + INTRA:          -9.705
REMARK INTER:                  -8.945
REMARK INTRA:                  -0.759
REMARK UNBOUND:                -1.350
REMARK SMILES CCCCCCCCCCCCCCCCCC(=O)[O-]
REMARK SMILES IDX 10 1 11 2 12 3 13 4 14 5 15 6 16 7 17 8 18 9 19 10 20 11
REMARK SMILES IDX 9 12 8 13 7 14 6 15 5 16 4 17 3 18 2 19 1 20
REMARK H PARENT
REMARK Flexibility Score: inf
ROOT
ATOM      1  C   UNL     1       4.684   9.762   7.370  1.00  0.00     0.000 C 
ENDROOT
BRANCH   1   2
ATOM      2  C   UNL     1       5.497  10.263   8.580  1.00  0.00     0.000 C 
BRANCH   2   3
ATOM      3  C   UNL     1       5.614  11.800   8.659  1.00  0.00     0.000 C 
BRANCH   3   4
ATOM      4  C   UNL     1       7.053  12.292   8.441  1.00  0.00     0.000 C 
BRANCH   4   5
ATOM      5  C   UNL     1       7.956  11.150   7.957  1.00  0.00     0.000 C 
BRANCH   5   6
ATOM      6  C   UNL     1       9.015  11.666   6.971  1.00  0.00     0.000 C 
BRANCH   6   7
ATOM      7  C   UNL     1       8.645  11.401   5.499  1.00  0.00     0.006 C 
BRANCH   7   8
ATOM      8  C   UNL     1       7.265  10.748   5.312  1.00  0.00     0.053 C 
BRANCH   8   9
ATOM      9  C   UNL     1       6.283  11.660   4.643  1.00  0.00     0.041 C 
ATOM     10  O   UNL     1       6.357  12.905   4.816  1.00  0.00    -0.550 OA
ATOM     11  O   UNL     1       5.299  11.138   3.813  1.00  0.00    -0.550 OA
ENDBRANCH   8   9
ENDBRANCH   7   8
ENDBRANCH   6   7
ENDBRANCH   5   6
ENDBRANCH   4   5
ENDBRANCH   3   4
ENDBRANCH   2   3
ENDBRANCH   1   2
BRANCH   1  12
ATOM     12  C   UNL     1       3.249  10.313   7.274  1.00  0.00     0.000 C 
BRANCH  12  13
ATOM     13  C   UNL     1       2.679  10.873   8.590  1.00  0.00    -0.000 C 
BRANCH  13  14
ATOM     14  C   UNL     1       1.183  11.206   8.499  1.00  0.00    -0.000 C 
BRANCH  14  15
ATOM     15  C   UNL     1       0.699  11.909   9.777  1.00  0.00    -0.000 C 
BRANCH  15  16
ATOM     16  C   UNL     1      -0.202  13.123   9.486  1.00  0.00    -0.000 C 
BRANCH  16  17
ATOM     17  C   UNL     1      -1.258  12.906   8.384  1.00  0.00    -0.000 C 
BRANCH  17  18
ATOM     18  C   UNL     1      -2.720  12.942   8.866  1.00  0.00    -0.000 C 
BRANCH  18  19
ATOM     19  C   UNL     1      -3.729  12.912   7.709  1.00  0.00    -0.003 C 
ATOM     20  C   UNL     1      -3.730  11.552   7.016  1.00  0.00     0.004 C 
ENDBRANCH  18  19
ENDBRANCH  17  18
ENDBRANCH  16  17
ENDBRANCH  15  16
ENDBRANCH  14  15
ENDBRANCH  13  14
ENDBRANCH  12  13
ENDBRANCH   1  12
TORSDOF 16
ENDMDL
MODEL 4
REMARK VINA RESULT:    -4.185      4.241      8.629
REMARK INTER + INTRA:          -9.449
REMARK INTER:                  -8.156
REMARK INTRA:                  -1.293
REMARK UNBOUND:                -1.350
REMARK SMILES CCCCCCCCCCCCCCCCCC(=O)[O-]
REMARK SMILES IDX 10 1 11 2 12 3 13 4 14 5 15 6 16 7 17 8 18 9 19 10 20 11
REMARK SMILES IDX 9 12 8 13 7 14 6 15 5 16 4 17 3 18 2 19 1 20
REMARK H PARENT
REMARK Flexibility Score: inf
ROOT
ATOM      1  C   UNL     1       6.265  11.850   6.208  1.00  0.00     0.000 C 
ENDROOT
BRANCH   1   2
ATOM      2  C   UNL     1       6.516  12.902   7.306  1.00  0.00     0.000 C 
BRANCH   2   3
ATOM      3  C   UNL     1       7.558  12.468   8.359  1.00  0.00     0.000 C 
BRANCH   3   4
ATOM      4  C   UNL     1       8.095  11.050   8.106  1.00  0.00     0.000 C 
BRANCH   4   5
ATOM      5  C   UNL     1       9.010  11.022   6.875  1.00  0.00     0.000 C 
BRANCH   5   6
ATOM      6  C   UNL     1       9.943  12.242   6.854  1.00  0.00     0.000 C 
BRANCH   6   7
ATOM      7  C   UNL     1       9.751  13.125   5.607  1.00  0.00     0.006 C 
BRANCH   7   8
ATOM      8  C   UNL     1      10.125  12.428   4.287  1.00  0.00     0.053 C 
BRANCH   8   9
ATOM      9  C   UNL     1       9.035  12.511   3.264  1.00  0.00     0.041 C 
ATOM     10  O   UNL     1       9.283  12.947   2.109  1.00  0.00    -0.550 OA
ATOM     11  O   UNL     1       7.748  12.089   3.578  1.00  0.00    -0.550 OA
ENDBRANCH   8   9
ENDBRANCH   7   8
ENDBRANCH   6   7
ENDBRANCH   5   6
ENDBRANCH   4   5
ENDBRANCH   3   4
ENDBRANCH   2   3
ENDBRANCH   1   2
BRANCH   1  12
ATOM     12  C   UNL     1       4.783  11.537   5.930  1.00  0.00     0.000 C 
BRANCH  12  13
ATOM     13  C   UNL     1       4.348  10.100   6.272  1.00  0.00    -0.000 C 
BRANCH  13  14
ATOM     14  C   UNL     1       3.410  10.032   7.486  1.00  0.00    -0.000 C 
BRANCH  14  15
ATOM     15  C   UNL     1       4.212   9.948   8.794  1.00  0.00    -0.000 C 
BRANCH  15  16
ATOM     16  C   UNL     1       4.125  11.236   9.632  1.00  0.00    -0.000 C 
BRANCH  16  17
ATOM     17  C   UNL     1       3.289  12.370   9.006  1.00  0.00    -0.000 C 
BRANCH  17  18
ATOM     18  C   UNL     1       2.009  12.740   9.778  1.00  0.00    -0.000 C 
BRANCH  18  19
ATOM     19  C   UNL     1       0.767  12.002   9.260  1.00  0.00    -0.003 C 
ATOM     20  C   UNL     1      -0.350  12.983   8.914  1.00  0.00     0.004 C 
ENDBRANCH  18  19
ENDBRANCH  17  18
ENDBRANCH  16  17
ENDBRANCH  15  16
ENDBRANCH  14  15
ENDBRANCH  13  14
ENDBRANCH  12  13
ENDBRANCH   1  12
TORSDOF 16
ENDMDL
MODEL 5
REMARK VINA RESULT:    -4.125      3.801      9.228
REMARK INTER + INTRA:          -9.333
REMARK INTER:                  -8.591
REMARK INTRA:                  -0.742
REMARK UNBOUND:                -1.350
REMARK SMILES CCCCCCCCCCCCCCCCCC(=O)[O-]
REMARK SMILES IDX 10 1 11 2 12 3 13 4 14 5 15 6 16 7 17 8 18 9 19 10 20 11
REMARK SMILES IDX 9 12 8 13 7 14 6 15 5 16 4 17 3 18 2 19 1 20
REMARK H PARENT
REMARK Flexibility Score: inf
ROOT
ATOM      1  C   UNL     1       3.565   9.648   7.416  1.00  0.00     0.000 C 
ENDROOT
BRANCH   1   2
ATOM      2  C   UNL     1       4.236  10.956   6.951  1.00  0.00     0.000 C 
BRANCH   2   3
ATOM      3  C   UNL     1       5.512  10.738   6.111  1.00  0.00     0.000 C 
BRANCH   3   4
ATOM      4  C   UNL     1       5.662  11.777   4.989  1.00  0.00     0.000 C 
BRANCH   4   5
ATOM      5  C   UNL     1       6.877  11.461   4.108  1.00  0.00     0.000 C 
BRANCH   5   6
ATOM      6  C   UNL     1       7.943  12.560   4.225  1.00  0.00     0.000 C 
BRANCH   6   7
ATOM      7  C   UNL     1       9.033  12.233   5.263  1.00  0.00     0.006 C 
BRANCH   7   8
ATOM      8  C   UNL     1       8.923  13.052   6.560  1.00  0.00     0.053 C 
BRANCH   8   9
ATOM      9  C   UNL     1       8.282  12.283   7.674  1.00  0.00     0.041 C 
ATOM     10  O   UNL     1       7.448  12.844   8.432  1.00  0.00    -0.550 OA
ATOM     11  O   UNL     1       8.590  10.941   7.863  1.00  0.00    -0.550 OA
ENDBRANCH   8   9
ENDBRANCH   7   8
ENDBRANCH   6   7
ENDBRANCH   5   6
ENDBRANCH   4   5
ENDBRANCH   3   4
ENDBRANCH   2   3
ENDBRANCH   1   2
BRANCH   1  12
ATOM     12  C   UNL     1       3.709   9.339   8.918  1.00  0.00     0.000 C 
BRANCH  12  13
ATOM     13  C   UNL     1       2.787  10.157   9.841  1.00  0.00    -0.000 C 
BRANCH  13  14
ATOM     14  C   UNL     1       1.800  11.043   9.068  1.00  0.00    -0.000 C 
BRANCH  14  15
ATOM     15  C   UNL     1       1.365  12.248   9.916  1.00  0.00    -0.000 C 
BRANCH  15  16
ATOM     16  C   UNL     1       0.300  13.115   9.221  1.00  0.00    -0.000 C 
BRANCH  16  17
ATOM     17  C   UNL     1      -0.934  12.347   8.704  1.00  0.00    -0.000 C 
BRANCH  17  18
ATOM     18  C   UNL     1      -2.276  13.082   8.869  1.00  0.00    -0.000 C 
BRANCH  18  19
ATOM     19  C   UNL     1      -3.435  12.374   8.154  1.00  0.00    -0.003 C 
ATOM     20  C   UNL     1      -3.828  13.112   6.878  1.00  0.00     0.004 C 
ENDBRANCH  18  19
ENDBRANCH  17  18
ENDBRANCH  16  17
ENDBRANCH  15  16
ENDBRANCH  14  15
ENDBRANCH  13  14
ENDBRANCH  12  13
ENDBRANCH   1  12
TORSDOF 16
ENDMDL
MODEL 6
REMARK VINA RESULT:    -4.027      3.383      8.065
REMARK INTER + INTRA:          -9.143
REMARK INTER:                  -8.203
REMARK INTRA:                  -0.940
REMARK UNBOUND:                -1.350
REMARK SMILES CCCCCCCCCCCCCCCCCC(=O)[O-]
REMARK SMILES IDX 10 1 11 2 12 3 13 4 14 5 15 6 16 7 17 8 18 9 19 10 20 11
REMARK SMILES IDX 9 12 8 13 7 14 6 15 5 16 4 17 3 18 2 19 1 20
REMARK H PARENT
REMARK Flexibility Score: inf
ROOT
ATOM      1  C   UNL     1       6.226  12.328   5.584  1.00  0.00     0.000 C 
ENDROOT
BRANCH   1   2
ATOM      2  C   UNL     1       7.322  13.022   4.751  1.00  0.00     0.000 C 
BRANCH   2   3
ATOM      3  C   UNL     1       8.319  12.043   4.095  1.00  0.00     0.000 C 
BRANCH   3   4
ATOM      4  C   UNL     1       8.925  11.056   5.104  1.00  0.00     0.000 C 
BRANCH   4   5
ATOM      5  C   UNL     1       9.902  11.768   6.049  1.00  0.00     0.000 C 
BRANCH   5   6
ATOM      6  C   UNL     1       9.387  11.743   7.495  1.00  0.00     0.000 C 
BRANCH   6   7
ATOM      7  C   UNL     1       8.864  13.111   7.971  1.00  0.00     0.006 C 
BRANCH   7   8
ATOM      8  C   UNL     1       8.027  13.044   9.260  1.00  0.00     0.053 C 
BRANCH   8   9
ATOM      9  C   UNL     1       6.697  12.390   9.049  1.00  0.00     0.041 C 
ATOM     10  O   UNL     1       5.647  13.085   9.018  1.00  0.00    -0.550 OA
ATOM     11  O   UNL     1       6.617  11.015   8.866  1.00  0.00    -0.550 OA
ENDBRANCH   8   9
ENDBRANCH   7   8
ENDBRANCH   6   7
ENDBRANCH   5   6
ENDBRANCH   4   5
ENDBRANCH   3   4
ENDBRANCH   2   3
ENDBRANCH   1   2
BRANCH   1  12
ATOM     12  C   UNL     1       5.533  11.140   4.890  1.00  0.00     0.000 C 
BRANCH  12  13
ATOM     13  C   UNL     1       4.186  10.722   5.509  1.00  0.00    -0.000 C 
BRANCH  13  14
ATOM     14  C   UNL     1       4.320  10.235   6.959  1.00  0.00    -0.000 C 
BRANCH  14  15
ATOM     15  C   UNL     1       2.969  10.305   7.687  1.00  0.00    -0.000 C 
BRANCH  15  16
ATOM     16  C   UNL     1       3.116  10.311   9.219  1.00  0.00    -0.000 C 
BRANCH  16  17
ATOM     17  C   UNL     1       2.012  11.073   9.980  1.00  0.00    -0.000 C 
BRANCH  17  18
ATOM     18  C   UNL     1       1.837  12.547   9.570  1.00  0.00    -0.000 C 
BRANCH  18  19
ATOM     19  C   UNL     1       0.704  12.752   8.555  1.00  0.00    -0.003 C 
ATOM     20  C   UNL     1      -0.631  12.976   9.259  1.00  0.00     0.004 C 
ENDBRANCH  18  19
ENDBRANCH  17  18
ENDBRANCH  16  17
ENDBRANCH  15  16
ENDBRANCH  14  15
ENDBRANCH  13  14
ENDBRANCH  12  13
ENDBRANCH   1  12
TORSDOF 16
ENDMDL
MODEL 7
REMARK VINA RESULT:    -3.990      3.523      8.794
REMARK INTER + INTRA:          -9.072
REMARK INTER:                  -7.710
REMARK INTRA:                  -1.362
REMARK UNBOUND:                -1.350
REMARK SMILES CCCCCCCCCCCCCCCCCC(=O)[O-]
REMARK SMILES IDX 10 1 11 2 12 3 13 4 14 5 15 6 16 7 17 8 18 9 19 10 20 11
REMARK SMILES IDX 9 12 8 13 7 14 6 15 5 16 4 17 3 18 2 19 1 20
REMARK H PARENT
REMARK Flexibility Score: inf
ROOT
ATOM      1  C   UNL     1       6.142  10.399   7.128  1.00  0.00     0.000 C 
ENDROOT
BRANCH   1   2
ATOM      2  C   UNL     1       7.658  10.561   7.352  1.00  0.00     0.000 C 
BRANCH   2   3
ATOM      3  C   UNL     1       8.044  11.866   8.080  1.00  0.00     0.000 C 
BRANCH   3   4
ATOM      4  C   UNL     1       8.731  12.878   7.150  1.00  0.00     0.000 C 
BRANCH   4   5
ATOM      5  C   UNL     1      10.108  12.368   6.707  1.00  0.00     0.000 C 
BRANCH   5   6
ATOM      6  C   UNL     1      10.099  11.976   5.222  1.00  0.00     0.000 C 
BRANCH   6   7
ATOM      7  C   UNL     1       9.024  12.723   4.410  1.00  0.00     0.006 C 
BRANCH   7   8
ATOM      8  C   UNL     1       8.084  11.796   3.620  1.00  0.00     0.053 C 
BRANCH   8   9
ATOM      9  C   UNL     1       6.645  11.987   3.988  1.00  0.00     0.041 C 
ATOM     10  O   UNL     1       5.792  11.113   3.682  1.00  0.00    -0.550 OA
ATOM     11  O   UNL     1       6.248  13.120   4.687  1.00  0.00    -0.550 OA
ENDBRANCH   8   9
ENDBRANCH   7   8
ENDBRANCH   6   7
ENDBRANCH   5   6
ENDBRANCH   4   5
ENDBRANCH   3   4
ENDBRANCH   2   3
ENDBRANCH   1   2
BRANCH   1  12
ATOM     12  C   UNL     1       5.294  11.638   7.472  1.00  0.00     0.000 C 
BRANCH  12  13
ATOM     13  C   UNL     1       4.088  11.366   8.390  1.00  0.00    -0.000 C 
BRANCH  13  14
ATOM     14  C   UNL     1       2.875  10.806   7.633  1.00  0.00    -0.000 C 
BRANCH  14  15
ATOM     15  C   UNL     1       1.626  10.799   8.529  1.00  0.00    -0.000 C 
BRANCH  15  16
ATOM     16  C   UNL     1       1.579  11.994   9.498  1.00  0.00    -0.000 C 
BRANCH  16  17
ATOM     17  C   UNL     1       0.380  12.944   9.307  1.00  0.00    -0.000 C 
BRANCH  17  18
ATOM     18  C   UNL     1      -0.841  12.321   8.607  1.00  0.00    -0.000 C 
BRANCH  18  19
ATOM     19  C   UNL     1      -2.130  13.125   8.830  1.00  0.00    -0.003 C 
ATOM     20  C   UNL     1      -3.340  12.396   8.251  1.00  0.00     0.004 C 
ENDBRANCH  18  19
ENDBRANCH  17  18
ENDBRANCH  16  17
ENDBRANCH  15  16
ENDBRANCH  14  15
ENDBRANCH  13  14
ENDBRANCH  12  13
ENDBRANCH   1  12
TORSDOF 16
ENDMDL
MODEL 8
REMARK VINA RESULT:    -3.944      1.836      2.509
REMARK INTER + INTRA:          -8.983
REMARK INTER:                  -7.491
REMARK INTRA:                  -1.492
REMARK UNBOUND:                -1.350
REMARK SMILES CCCCCCCCCCCCCCCCCC(=O)[O-]
REMARK SMILES IDX 10 1 11 2 12 3 13 4 14 5 15 6 16 7 17 8 18 9 19 10 20 11
REMARK SMILES IDX 9 12 8 13 7 14 6 15 5 16 4 17 3 18 2 19 1 20
REMARK H PARENT
REMARK Flexibility Score: inf
ROOT
ATOM      1  C   UNL     1       4.430   9.649   6.667  1.00  0.00     0.000 C 
ENDROOT
BRANCH   1   2
ATOM      2  C   UNL     1       4.758   9.368   8.146  1.00  0.00     0.000 C 
BRANCH   2   3
ATOM      3  C   UNL     1       4.052  10.323   9.133  1.00  0.00     0.000 C 
BRANCH   3   4
ATOM      4  C   UNL     1       4.979  11.441   9.634  1.00  0.00     0.000 C 
BRANCH   4   5
ATOM      5  C   UNL     1       4.573  12.797   9.041  1.00  0.00     0.000 C 
BRANCH   5   6
ATOM      6  C   UNL     1       3.064  12.845   8.759  1.00  0.00     0.000 C 
BRANCH   6   7
ATOM      7  C   UNL     1       2.225  13.123  10.021  1.00  0.00     0.006 C 
BRANCH   7   8
ATOM      8  C   UNL     1       1.004  12.200  10.172  1.00  0.00     0.053 C 
BRANCH   8   9
ATOM      9  C   UNL     1       0.161  12.154   8.935  1.00  0.00     0.041 C 
ATOM     10  O   UNL     1       0.361  11.266   8.066  1.00  0.00    -0.550 OA
ATOM     11  O   UNL     1      -0.858  13.081   8.750  1.00  0.00    -0.550 OA
ENDBRANCH   8   9
ENDBRANCH   7   8
ENDBRANCH   6   7
ENDBRANCH   5   6
ENDBRANCH   4   5
ENDBRANCH   3   4
ENDBRANCH   2   3
ENDBRANCH   1   2
BRANCH   1  12
ATOM     12  C   UNL     1       4.999  10.967   6.110  1.00  0.00     0.000 C 
BRANCH  12  13
ATOM     13  C   UNL     1       5.673  10.854   4.731  1.00  0.00    -0.000 C 
BRANCH  13  14
ATOM     14  C   UNL     1       5.949  12.219   4.085  1.00  0.00    -0.000 C 
BRANCH  14  15
ATOM     15  C   UNL     1       6.964  13.022   4.913  1.00  0.00    -0.000 C 
BRANCH  15  16
ATOM     16  C   UNL     1       8.422  12.728   4.519  1.00  0.00    -0.000 C 
BRANCH  16  17
ATOM     17  C   UNL     1       9.023  11.450   5.139  1.00  0.00    -0.000 C 
BRANCH  17  18
ATOM     18  C   UNL     1      10.055  11.691   6.256  1.00  0.00    -0.000 C 
BRANCH  18  19
ATOM     19  C   UNL     1       9.430  12.284   7.527  1.00  0.00    -0.003 C 
ATOM     20  C   UNL     1       8.233  11.457   7.988  1.00  0.00     0.004 C 
ENDBRANCH  18  19
ENDBRANCH  17  18
ENDBRANCH  16  17
ENDBRANCH  15  16
ENDBRANCH  14  15
ENDBRANCH  13  14
ENDBRANCH  12  13
ENDBRANCH   1  12
TORSDOF 16
ENDMDL
