MODEL 1
REMARK VINA RESULT:    -4.055      0.000      0.000
REMARK INTER + INTRA:          -7.082
REMARK INTER:                  -6.425
REMARK INTRA:                  -0.656
REMARK UNBOUND:                -0.656
REMARK SMILES CCCCCCCCCCCC(=O)[O-]
REMARK SMILES IDX 7 1 8 2 9 3 10 4 11 5 12 6 13 7 14 8 6 9 5 10 4 11 3 12 2 13
REMARK SMILES IDX 1 14
REMARK H PARENT
REMARK Flexibility Score: inf
ROOT
ATOM      1  C   UNL     1       8.844   4.095   9.785  1.00  0.00     0.000 C 
ENDROOT
BRANCH   1   2
ATOM      2  C   UNL     1       7.325   4.162  10.022  1.00  0.00     0.000 C 
BRANCH   2   3
ATOM      3  C   UNL     1       6.520   3.515   8.884  1.00  0.00     0.000 C 
BRANCH   3   4
ATOM      4  C   UNL     1       6.430   1.987   9.014  1.00  0.00     0.006 C 
BRANCH   4   5
ATOM      5  C   UNL     1       4.988   1.506   8.833  1.00  0.00     0.053 C 
BRANCH   5   6
ATOM      6  C   UNL     1       4.627   1.463   7.382  1.00  0.00     0.041 C 
ATOM      7  O   UNL     1       3.648   2.129   6.953  1.00  0.00    -0.550 OA
ATOM      8  O   UNL     1       5.400   0.725   6.495  1.00  0.00    -0.550 OA
ENDBRANCH   5   6
ENDBRANCH   4   5
ENDBRANCH   3   4
ENDBRANCH   2   3
ENDBRANCH   1   2
BRANCH   1   9
ATOM      9  C   UNL     1       9.532   5.456   9.971  1.00  0.00     0.000 C 
BRANCH   9  10
ATOM     10  C   UNL     1      10.790   5.610   9.104  1.00  0.00    -0.000 C 
BRANCH  10  11
ATOM     11  C   UNL     1      10.695   6.859   8.215  1.00  0.00    -0.000 C 
BRANCH  11  12
ATOM     12  C   UNL     1       9.244   7.226   7.863  1.00  0.00    -0.000 C 
BRANCH  12  13
ATOM     13  C   UNL     1       8.934   8.711   8.106  1.00  0.00    -0.003 C 
ATOM     14  C   UNL     1       8.013   8.889   9.309  1.00  0.00     0.004 C 
ENDBRANCH  12  13
ENDBRANCH  11  12
ENDBRANCH  10  11
ENDBRANCH   9  10
ENDBRANCH   1   9
TORSDOF 10
ENDMDL
MODEL 2
REMARK VINA RESULT:    -3.847      1.265      1.866
REMARK INTER + INTRA:          -6.752
REMARK INTER:                  -6.444
REMARK INTRA:                  -0.309
REMARK UNBOUND:                -0.656
REMARK SMILES CCCCCCCCCCCC(=O)[O-]
REMARK SMILES IDX 7 1 8 2 9 3 10 4 11 5 12 6 13 7 14 8 6 9 5 10 4 11 3 12 2 13
REMARK SMILES IDX 1 14
REMARK H PARENT
REMARK Flexibility Score: inf
ROOT
ATOM      1  C   UNL     1       8.083   4.960   9.177  1.00  0.00     0.000 C 
ENDROOT
BRANCH   1   2
ATOM      2  C   UNL     1       8.433   3.637   9.880  1.00  0.00     0.000 C 
BRANCH   2   3
ATOM      3  C   UNL     1       7.245   2.663   9.931  1.00  0.00     0.000 C 
BRANCH   3   4
ATOM      4  C   UNL     1       6.281   2.839   8.748  1.00  0.00     0.006 C 
BRANCH   4   5
ATOM      5  C   UNL     1       5.265   1.694   8.695  1.00  0.00     0.053 C 
BRANCH   5   6
ATOM      6  C   UNL     1       4.717   1.543   7.312  1.00  0.00     0.041 C 
ATOM      7  O   UNL     1       3.693   2.188   6.963  1.00  0.00    -0.550 OA
ATOM      8  O   UNL     1       5.364   0.728   6.391  1.00  0.00    -0.550 OA
ENDBRANCH   5   6
ENDBRANCH   4   5
ENDBRANCH   3   4
ENDBRANCH   2   3
ENDBRANCH   1   2
BRANCH   1   9
ATOM      9  C   UNL     1       9.255   5.954   9.168  1.00  0.00     0.000 C 
BRANCH   9  10
ATOM     10  C   UNL     1       8.972   7.200   8.317  1.00  0.00    -0.000 C 
BRANCH  10  11
ATOM     11  C   UNL     1       8.259   8.280   9.145  1.00  0.00    -0.000 C 
BRANCH  11  12
ATOM     12  C   UNL     1       7.971   9.555   8.336  1.00  0.00    -0.000 C 
BRANCH  12  13
ATOM     13  C   UNL     1       7.042  10.528   9.076  1.00  0.00    -0.003 C 
ATOM     14  C   UNL     1       6.319  11.448   8.097  1.00  0.00     0.004 C 
ENDBRANCH  12  13
ENDBRANCH  11  12
ENDBRANCH  10  11
ENDBRANCH   9  10
ENDBRANCH   1   9
TORSDOF 10
ENDMDL
MODEL 3
REMARK VINA RESULT:    -3.711      1.277      2.368
REMARK INTER + INTRA:          -6.537
REMARK INTER:                  -5.830
REMARK INTRA:                  -0.707
REMARK UNBOUND:                -0.656
REMARK SMILES CCCCCCCCCCCC(=O)[O-]
REMARK SMILES IDX 7 1 8 2 9 3 10 4 11 5 12 6 13 7 14 8 6 9 5 10 4 11 3 12 2 13
REMARK SMILES IDX 1 14
REMARK H PARENT
REMARK Flexibility Score: inf
ROOT
ATOM      1  C   UNL     1       7.040   3.788   9.174  1.00  0.00     0.000 C 
ENDROOT
BRANCH   1   2
ATOM      2  C   UNL     1       5.769   3.623  10.026  1.00  0.00     0.000 C 
BRANCH   2   3
ATOM      3  C   UNL     1       4.481   3.754   9.197  1.00  0.00     0.000 C 
BRANCH   3   4
ATOM      4  C   UNL     1       3.606   2.493   9.255  1.00  0.00     0.006 C 
BRANCH   4   5
ATOM      5  C   UNL     1       4.404   1.254   8.839  1.00  0.00     0.053 C 
BRANCH   5   6
ATOM      6  C   UNL     1       4.742   1.313   7.383  1.00  0.00     0.041 C 
ATOM      7  O   UNL     1       5.945   1.279   7.011  1.00  0.00    -0.550 OA
ATOM      8  O   UNL     1       3.729   1.356   6.434  1.00  0.00    -0.550 OA
ENDBRANCH   5   6
ENDBRANCH   4   5
ENDBRANCH   3   4
ENDBRANCH   2   3
ENDBRANCH   1   2
BRANCH   1   9
ATOM      9  C   UNL     1       8.268   4.170  10.014  1.00  0.00     0.000 C 
BRANCH   9  10
ATOM     10  C   UNL     1       8.568   5.676   9.978  1.00  0.00    -0.000 C 
BRANCH  10  11
ATOM     11  C   UNL     1       8.648   6.185   8.531  1.00  0.00    -0.000 C 
BRANCH  11  12
ATOM     12  C   UNL     1       9.885   7.062   8.278  1.00  0.00    -0.000 C 
BRANCH  12  13
ATOM     13  C   UNL     1      11.022   6.782   9.272  1.00  0.00    -0.003 C 
ATOM     14  C   UNL     1      12.032   5.799   8.688  1.00  0.00     0.004 C 
ENDBRANCH  12  13
ENDBRANCH  11  12
ENDBRANCH  10  11
ENDBRANCH   9  10
ENDBRANCH   1   9
TORSDOF 10
ENDMDL
MODEL 4
REMARK VINA RESULT:    -3.372      4.755      7.685
REMARK INTER + INTRA:          -5.999
REMARK INTER:                  -5.424
REMARK INTRA:                  -0.575
REMARK UNBOUND:                -0.656
REMARK SMILES CCCCCCCCCCCC(=O)[O-]
REMARK SMILES IDX 7 1 8 2 9 3 10 4 11 5 12 6 13 7 14 8 6 9 5 10 4 11 3 12 2 13
REMARK SMILES IDX 1 14
REMARK H PARENT
REMARK Flexibility Score: inf
ROOT
ATOM      1  C   UNL     1       1.857   3.012   9.120  1.00  0.00     0.000 C 
ENDROOT
BRANCH   1   2
ATOM      2  C   UNL     1       3.128   3.388   9.902  1.00  0.00     0.000 C 
BRANCH   2   3
ATOM      3  C   UNL     1       4.066   2.189  10.117  1.00  0.00     0.000 C 
BRANCH   3   4
ATOM      4  C   UNL     1       5.360   2.293   9.295  1.00  0.00     0.006 C 
BRANCH   4   5
ATOM      5  C   UNL     1       5.051   2.588   7.824  1.00  0.00     0.053 C 
BRANCH   5   6
ATOM      6  C   UNL     1       4.572   1.352   7.131  1.00  0.00     0.041 C 
ATOM      7  O   UNL     1       3.640   1.421   6.286  1.00  0.00    -0.550 OA
ATOM      8  O   UNL     1       5.187   0.132   7.380  1.00  0.00    -0.550 OA
ENDBRANCH   5   6
ENDBRANCH   4   5
ENDBRANCH   3   4
ENDBRANCH   2   3
ENDBRANCH   1   2
BRANCH   1   9
ATOM      9  C   UNL     1       0.869   2.188   9.960  1.00  0.00     0.000 C 
BRANCH   9  10
ATOM     10  C   UNL     1      -0.528   2.823  10.029  1.00  0.00    -0.000 C 
BRANCH  10  11
ATOM     11  C   UNL     1      -0.670   3.948   8.992  1.00  0.00    -0.000 C 
BRANCH  11  12
ATOM     12  C   UNL     1      -2.136   4.314   8.711  1.00  0.00    -0.000 C 
BRANCH  12  13
ATOM     13  C   UNL     1      -2.627   5.491   9.567  1.00  0.00    -0.003 C 
ATOM     14  C   UNL     1      -1.600   6.618   9.592  1.00  0.00     0.004 C 
ENDBRANCH  12  13
ENDBRANCH  11  12
ENDBRANCH  10  11
ENDBRANCH   9  10
ENDBRANCH   1   9
TORSDOF 10
ENDMDL
MODEL 5
REMARK VINA RESULT:    -3.281      5.208      7.676
REMARK INTER + INTRA:          -5.856
REMARK INTER:                  -5.413
REMARK INTRA:                  -0.443
REMARK UNBOUND:                -0.656
REMARK SMILES CCCCCCCCCCCC(=O)[O-]
REMARK SMILES IDX 7 1 8 2 9 3 10 4 11 5 12 6 13 7 14 8 6 9 5 10 4 11 3 12 2 13
REMARK SMILES IDX 1 14
REMARK H PARENT
REMARK Flexibility Score: inf
ROOT
ATOM      1  C   UNL     1       6.875  10.795   8.155  1.00  0.00     0.000 C 
ENDROOT
BRANCH   1   2
ATOM      2  C   UNL     1       5.911  11.993   8.211  1.00  0.00     0.000 C 
BRANCH   2   3
ATOM      3  C   UNL     1       4.781  11.892   7.173  1.00  0.00     0.000 C 
BRANCH   3   4
ATOM      4  C   UNL     1       3.410  12.279   7.747  1.00  0.00     0.006 C 
BRANCH   4   5
ATOM      5  C   UNL     1       3.136  11.535   9.058  1.00  0.00     0.053 C 
BRANCH   5   6
ATOM      6  C   UNL     1       1.681  11.216   9.185  1.00  0.00     0.041 C 
ATOM      7  O   UNL     1       0.853  12.129   9.443  1.00  0.00    -0.550 OA
ATOM      8  O   UNL     1       1.231   9.919   8.972  1.00  0.00    -0.550 OA
ENDBRANCH   5   6
ENDBRANCH   4   5
ENDBRANCH   3   4
ENDBRANCH   2   3
ENDBRANCH   1   2
BRANCH   1   9
ATOM      9  C   UNL     1       7.264  10.285   9.551  1.00  0.00     0.000 C 
BRANCH   9  10
ATOM     10  C   UNL     1       7.911   8.892   9.516  1.00  0.00    -0.000 C 
BRANCH  10  11
ATOM     11  C   UNL     1       8.655   8.666   8.191  1.00  0.00    -0.000 C 
BRANCH  11  12
ATOM     12  C   UNL     1       9.308   7.277   8.108  1.00  0.00    -0.000 C 
BRANCH  12  13
ATOM     13  C   UNL     1      10.779   7.287   8.550  1.00  0.00    -0.003 C 
ATOM     14  C   UNL     1      11.278   5.873   8.828  1.00  0.00     0.004 C 
ENDBRANCH  12  13
ENDBRANCH  11  12
ENDBRANCH  10  11
ENDBRANCH   9  10
ENDBRANCH   1   9
TORSDOF 10
ENDMDL
MODEL 6
REMARK VINA RESULT:    -3.271      4.219      6.648
REMARK INTER + INTRA:          -5.839
REMARK INTER:                  -5.296
REMARK INTRA:                  -0.544
REMARK UNBOUND:                -0.656
REMARK SMILES CCCCCCCCCCCC(=O)[O-]
REMARK SMILES IDX 7 1 8 2 9 3 10 4 11 5 12 6 13 7 14 8 6 9 5 10 4 11 3 12 2 13
REMARK SMILES IDX 1 14
REMARK H PARENT
REMARK Flexibility Score: inf
ROOT
ATOM      1  C   UNL     1       7.796  10.140   9.986  1.00  0.00     0.000 C 
ENDROOT
BRANCH   1   2
ATOM      2  C   UNL     1       8.628   8.885   9.671  1.00  0.00     0.000 C 
BRANCH   2   3
ATOM      3  C   UNL     1       8.842   8.682   8.162  1.00  0.00     0.000 C 
BRANCH   3   4
ATOM      4  C   UNL     1       9.451   7.312   7.828  1.00  0.00     0.006 C 
BRANCH   4   5
ATOM      5  C   UNL     1       8.885   6.223   8.745  1.00  0.00     0.053 C 
BRANCH   5   6
ATOM      6  C   UNL     1       9.985   5.359   9.275  1.00  0.00     0.041 C 
ATOM      7  O   UNL     1      11.186   5.720   9.156  1.00  0.00    -0.550 OA
ATOM      8  O   UNL     1       9.683   4.179   9.943  1.00  0.00    -0.550 OA
ENDBRANCH   5   6
ENDBRANCH   4   5
ENDBRANCH   3   4
ENDBRANCH   2   3
ENDBRANCH   1   2
BRANCH   1   9
ATOM      9  C   UNL     1       7.084  10.704   8.746  1.00  0.00     0.000 C 
BRANCH   9  10
ATOM     10  C   UNL     1       5.977  11.708   9.101  1.00  0.00    -0.000 C 
BRANCH  10  11
ATOM     11  C   UNL     1       5.960  12.879   8.107  1.00  0.00    -0.000 C 
BRANCH  11  12
ATOM     12  C   UNL     1       4.537  13.264   7.669  1.00  0.00    -0.000 C 
BRANCH  12  13
ATOM     13  C   UNL     1       3.654  12.040   7.385  1.00  0.00    -0.003 C 
ATOM     14  C   UNL     1       4.094  11.330   6.109  1.00  0.00     0.004 C 
ENDBRANCH  12  13
ENDBRANCH  11  12
ENDBRANCH  10  11
ENDBRANCH   9  10
ENDBRANCH   1   9
TORSDOF 10
ENDMDL
MODEL 7
REMARK VINA RESULT:    -3.097      1.965      2.601
REMARK INTER + INTRA:          -5.563
REMARK INTER:                  -4.993
REMARK INTRA:                  -0.570
REMARK UNBOUND:                -0.656
REMARK SMILES CCCCCCCCCCCC(=O)[O-]
REMARK SMILES IDX 7 1 8 2 9 3 10 4 11 5 12 6 13 7 14 8 6 9 5 10 4 11 3 12 2 13
REMARK SMILES IDX 1 14
REMARK H PARENT
REMARK Flexibility Score: inf
ROOT
ATOM      1  C   UNL     1       7.065   3.706   9.371  1.00  0.00     0.000 C 
ENDROOT
BRANCH   1   2
ATOM      2  C   UNL     1       6.199   2.437   9.438  1.00  0.00     0.000 C 
BRANCH   2   3
ATOM      3  C   UNL     1       5.619   2.044   8.069  1.00  0.00     0.000 C 
BRANCH   3   4
ATOM      4  C   UNL     1       4.093   1.877   8.096  1.00  0.00     0.006 C 
BRANCH   4   5
ATOM      5  C   UNL     1       3.517   2.330   9.442  1.00  0.00     0.053 C 
BRANCH   5   6
ATOM      6  C   UNL     1       2.713   3.580   9.274  1.00  0.00     0.041 C 
ATOM      7  O   UNL     1       1.517   3.517   8.884  1.00  0.00    -0.550 OA
ATOM      8  O   UNL     1       3.269   4.813   9.595  1.00  0.00    -0.550 OA
ENDBRANCH   5   6
ENDBRANCH   4   5
ENDBRANCH   3   4
ENDBRANCH   2   3
ENDBRANCH   1   2
BRANCH   1   9
ATOM      9  C   UNL     1       8.443   3.517  10.026  1.00  0.00     0.000 C 
BRANCH   9  10
ATOM     10  C   UNL     1       9.314   4.780   9.954  1.00  0.00    -0.000 C 
BRANCH  10  11
ATOM     11  C   UNL     1       8.484   5.994   9.513  1.00  0.00    -0.000 C 
BRANCH  11  12
ATOM     12  C   UNL     1       8.998   6.621   8.207  1.00  0.00    -0.000 C 
BRANCH  12  13
ATOM     13  C   UNL     1       9.139   8.148   8.298  1.00  0.00    -0.003 C 
ATOM     14  C   UNL     1       9.952   8.552   9.523  1.00  0.00     0.004 C 
ENDBRANCH  12  13
ENDBRANCH  11  12
ENDBRANCH  10  11
ENDBRANCH   9  10
ENDBRANCH   1   9
TORSDOF 10
ENDMDL
MODEL 8
REMARK VINA RESULT:    -3.083      2.741      4.036
REMARK INTER + INTRA:          -5.542
REMARK INTER:                  -5.056
REMARK INTRA:                  -0.486
REMARK UNBOUND:                -0.656
REMARK SMILES CCCCCCCCCCCC(=O)[O-]
REMARK SMILES IDX 7 1 8 2 9 3 10 4 11 5 12 6 13 7 14 8 6 9 5 10 4 11 3 12 2 13
REMARK SMILES IDX 1 14
REMARK H PARENT
REMARK Flexibility Score: inf
ROOT
ATOM      1  C   UNL     1       6.363   2.132   8.600  1.00  0.00     0.000 C 
ENDROOT
BRANCH   1   2
ATOM      2  C   UNL     1       4.854   1.994   8.868  1.00  0.00     0.000 C 
BRANCH   2   3
ATOM      3  C   UNL     1       4.043   3.169   8.298  1.00  0.00     0.000 C 
BRANCH   3   4
ATOM      4  C   UNL     1       3.197   3.880   9.365  1.00  0.00     0.006 C 
BRANCH   4   5
ATOM      5  C   UNL     1       1.872   3.146   9.591  1.00  0.00     0.053 C 
BRANCH   5   6
ATOM      6  C   UNL     1       0.718   4.081   9.410  1.00  0.00     0.041 C 
ATOM      7  O   UNL     1       0.792   5.266   9.829  1.00  0.00    -0.550 OA
ATOM      8  O   UNL     1      -0.421   3.658   8.736  1.00  0.00    -0.550 OA
ENDBRANCH   5   6
ENDBRANCH   4   5
ENDBRANCH   3   4
ENDBRANCH   2   3
ENDBRANCH   1   2
BRANCH   1   9
ATOM      9  C   UNL     1       7.132   2.671   9.817  1.00  0.00     0.000 C 
BRANCH   9  10
ATOM     10  C   UNL     1       7.177   4.206   9.860  1.00  0.00    -0.000 C 
BRANCH  10  11
ATOM     11  C   UNL     1       8.616   4.717   9.702  1.00  0.00    -0.000 C 
BRANCH  11  12
ATOM     12  C   UNL     1       8.707   5.967   8.811  1.00  0.00    -0.000 C 
BRANCH  12  13
ATOM     13  C   UNL     1      10.148   6.470   8.641  1.00  0.00    -0.003 C 
ATOM     14  C   UNL     1      11.139   5.540   9.333  1.00  0.00     0.004 C 
ENDBRANCH  12  13
ENDBRANCH  11  12
ENDBRANCH  10  11
ENDBRANCH   9  10
ENDBRANCH   1   9
TORSDOF 10
ENDMDL
MODEL 9
REMARK VINA RESULT:    -3.047      3.793      6.904
REMARK INTER + INTRA:          -5.484
REMARK INTER:                  -5.026
REMARK INTRA:                  -0.458
REMARK UNBOUND:                -0.656
REMARK SMILES CCCCCCCCCCCC(=O)[O-]
REMARK SMILES IDX 7 1 8 2 9 3 10 4 11 5 12 6 13 7 14 8 6 9 5 10 4 11 3 12 2 13
REMARK SMILES IDX 1 14
REMARK H PARENT
REMARK Flexibility Score: inf
ROOT
ATOM      1  C   UNL     1       7.768   4.976  10.033  1.00  0.00     0.000 C 
ENDROOT
BRANCH   1   2
ATOM      2  C   UNL     1       8.634   5.767   9.038  1.00  0.00     0.000 C 
BRANCH   2   3
ATOM      3  C   UNL     1       9.204   7.059   9.647  1.00  0.00     0.000 C 
BRANCH   3   4
ATOM      4  C   UNL     1       9.862   7.969   8.599  1.00  0.00     0.006 C 
BRANCH   4   5
ATOM      5  C   UNL     1      10.764   7.161   7.662  1.00  0.00     0.053 C 
BRANCH   5   6
ATOM      6  C   UNL     1      11.994   6.705   8.381  1.00  0.00     0.041 C 
ATOM      7  O   UNL     1      12.217   5.475   8.537  1.00  0.00    -0.550 OA
ATOM      8  O   UNL     1      12.919   7.636   8.837  1.00  0.00    -0.550 OA
ENDBRANCH   5   6
ENDBRANCH   4   5
ENDBRANCH   3   4
ENDBRANCH   2   3
ENDBRANCH   1   2
BRANCH   1   9
ATOM      9  C   UNL     1       8.098   3.475  10.041  1.00  0.00     0.000 C 
BRANCH   9  10
ATOM     10  C   UNL     1       6.848   2.590   9.929  1.00  0.00    -0.000 C 
BRANCH  10  11
ATOM     11  C   UNL     1       6.148   2.798   8.577  1.00  0.00    -0.000 C 
BRANCH  11  12
ATOM     12  C   UNL     1       5.366   1.557   8.118  1.00  0.00    -0.000 C 
BRANCH  12  13
ATOM     13  C   UNL     1       3.891   1.863   7.821  1.00  0.00    -0.003 C 
ATOM     14  C   UNL     1       3.358   2.950   8.749  1.00  0.00     0.004 C 
ENDBRANCH  12  13
ENDBRANCH  11  12
ENDBRANCH  10  11
ENDBRANCH   9  10
ENDBRANCH   1   9
TORSDOF 10
ENDMDL
