MODEL 1
REMARK VINA RESULT:    -9.007      0.000      0.000
REMARK INTER + INTRA:         -11.158
REMARK INTER:                 -10.850
REMARK INTRA:                  -0.308
REMARK UNBOUND:                -0.308
REMARK SMILES O=c1c(O)c(-c2ccc(O)cc2O)oc2cc(O)cc(O)c12
REMARK SMILES IDX 5 1 3 2 2 3 1 4 22 5 20 6 19 7 17 8 16 9 15 10 14 11 6 12
REMARK SMILES IDX 8 13 7 14 9 15 11 16 12 17 10 18 13 20 4 22 21 24 18 26
REMARK H PARENT 10 19 13 21 4 23 21 25 18 27
REMARK Flexibility Score: inf
ROOT
ATOM      1  C   UNL     1     126.337 135.072 110.172  1.00  0.00     0.184 A 
ATOM      2  C   UNL     1     126.593 136.280 109.505  1.00  0.00     0.208 A 
ATOM      3  C   UNL     1     127.314 136.253 108.303  1.00  0.00     0.238 A 
ATOM      4  O   UNL     1     127.494 137.333 107.682  1.00  0.00    -0.285 OA
ATOM      5  C   UNL     1     127.785 135.019 107.792  1.00  0.00     0.111 A 
ATOM      6  C   UNL     1     128.561 134.878 106.602  1.00  0.00     0.134 A 
ATOM      7  C   UNL     1     128.860 133.597 106.121  1.00  0.00     0.093 A 
ATOM      8  C   UNL     1     128.467 132.454 106.821  1.00  0.00     0.123 A 
ATOM      9  C   UNL     1     127.761 132.583 108.015  1.00  0.00     0.094 A 
ATOM     10  C   UNL     1     127.416 133.846 108.500  1.00  0.00     0.146 A 
ATOM     11  O   UNL     1     126.732 133.924 109.636  1.00  0.00    -0.451 OA
ENDROOT
BRANCH   1  12
ATOM     12  C   UNL     1     125.597 135.032 111.451  1.00  0.00     0.063 A 
ATOM     13  C   UNL     1     123.610 134.362 112.681  1.00  0.00     0.047 A 
ATOM     14  C   UNL     1     124.333 134.422 111.488  1.00  0.00     0.020 A 
ATOM     15  C   UNL     1     124.148 134.899 113.858  1.00  0.00     0.119 A 
ATOM     16  C   UNL     1     125.415 135.487 113.836  1.00  0.00     0.093 A 
ATOM     17  C   UNL     1     126.150 135.547 112.642  1.00  0.00     0.130 A 
BRANCH  15  18
ATOM     18  O   UNL     1     123.433 134.848 115.053  1.00  0.00    -0.508 OA
ATOM     19  H   UNL     1     123.888 134.990 115.948  1.00  0.00     0.293 HD
ENDBRANCH  15  18
BRANCH  17  20
ATOM     20  O   UNL     1     127.433 136.092 112.645  1.00  0.00    -0.507 OA
ATOM     21  H   UNL     1     127.758 136.687 113.399  1.00  0.00     0.293 HD
ENDBRANCH  17  20
ENDBRANCH   1  12
BRANCH   2  22
ATOM     22  O   UNL     1     126.101 137.482 110.023  1.00  0.00    -0.502 OA
ATOM     23  H   UNL     1     126.183 138.360 109.527  1.00  0.00     0.293 HD
ENDBRANCH   2  22
BRANCH   6  24
ATOM     24  O   UNL     1     129.081 135.954 105.876  1.00  0.00    -0.507 OA
ATOM     25  H   UNL     1     128.933 136.926 106.104  1.00  0.00     0.293 HD
ENDBRANCH   6  24
BRANCH   8  26
ATOM     26  O   UNL     1     128.784 131.185 106.344  1.00  0.00    -0.508 OA
ATOM     27  H   UNL     1     129.625 130.702 106.636  1.00  0.00     0.293 HD
ENDBRANCH   8  26
TORSDOF 6
ENDMDL
MODEL 2
REMARK VINA RESULT:    -8.791      4.090      4.891
REMARK INTER + INTRA:         -10.899
REMARK INTER:                 -10.512
REMARK INTRA:                  -0.386
REMARK UNBOUND:                -0.308
REMARK SMILES O=c1c(O)c(-c2ccc(O)cc2O)oc2cc(O)cc(O)c12
REMARK SMILES IDX 5 1 3 2 2 3 1 4 22 5 20 6 19 7 17 8 16 9 15 10 14 11 6 12
REMARK SMILES IDX 8 13 7 14 9 15 11 16 12 17 10 18 13 20 4 22 21 24 18 26
REMARK H PARENT 10 19 13 21 4 23 21 25 18 27
REMARK Flexibility Score: inf
ROOT
ATOM      1  C   UNL     1     129.043 134.737 113.113  1.00  0.00     0.184 A 
ATOM      2  C   UNL     1     129.937 135.699 113.606  1.00  0.00     0.208 A 
ATOM      3  C   UNL     1     131.288 135.624 113.238  1.00  0.00     0.238 A 
ATOM      4  O   UNL     1     132.075 136.521 113.640  1.00  0.00    -0.285 OA
ATOM      5  C   UNL     1     131.730 134.578 112.393  1.00  0.00     0.111 A 
ATOM      6  C   UNL     1     133.085 134.381 111.987  1.00  0.00     0.134 A 
ATOM      7  C   UNL     1     133.386 133.389 111.045  1.00  0.00     0.093 A 
ATOM      8  C   UNL     1     132.392 132.544 110.544  1.00  0.00     0.123 A 
ATOM      9  C   UNL     1     131.077 132.690 110.980  1.00  0.00     0.094 A 
ATOM     10  C   UNL     1     130.739 133.694 111.890  1.00  0.00     0.146 A 
ATOM     11  O   UNL     1     129.472 133.806 112.270  1.00  0.00    -0.451 OA
ENDROOT
BRANCH   1  12
ATOM     12  C   UNL     1     127.610 134.749 113.475  1.00  0.00     0.063 A 
ATOM     13  C   UNL     1     125.826 133.954 114.924  1.00  0.00     0.047 A 
ATOM     14  C   UNL     1     127.173 133.962 114.553  1.00  0.00     0.020 A 
ATOM     15  C   UNL     1     124.901 134.744 114.231  1.00  0.00     0.119 A 
ATOM     16  C   UNL     1     125.331 135.549 113.172  1.00  0.00     0.093 A 
ATOM     17  C   UNL     1     126.682 135.566 112.796  1.00  0.00     0.130 A 
BRANCH  15  18
ATOM     18  O   UNL     1     123.554 134.741 114.591  1.00  0.00    -0.508 OA
ATOM     19  H   UNL     1     122.837 135.074 113.957  1.00  0.00     0.293 HD
ENDBRANCH  15  18
BRANCH  17  20
ATOM     20  O   UNL     1     127.105 136.410 111.770  1.00  0.00    -0.507 OA
ATOM     21  H   UNL     1     127.734 137.186 111.944  1.00  0.00     0.293 HD
ENDBRANCH  17  20
ENDBRANCH   1  12
BRANCH   2  22
ATOM     22  O   UNL     1     129.470 136.733 114.424  1.00  0.00    -0.502 OA
ATOM     23  H   UNL     1     128.581 136.686 114.905  1.00  0.00     0.293 HD
ENDBRANCH   2  22
BRANCH   6  24
ATOM     24  O   UNL     1     134.166 135.108 112.495  1.00  0.00    -0.507 OA
ATOM     25  H   UNL     1     135.130 134.954 112.241  1.00  0.00     0.293 HD
ENDBRANCH   6  24
BRANCH   8  26
ATOM     26  O   UNL     1     132.704 131.550 109.620  1.00  0.00    -0.508 OA
ATOM     27  H   UNL     1     133.306 131.734 108.826  1.00  0.00     0.293 HD
ENDBRANCH   8  26
TORSDOF 6
ENDMDL
MODEL 3
REMARK VINA RESULT:    -8.680     10.129     11.298
REMARK INTER + INTRA:         -10.764
REMARK INTER:                 -10.345
REMARK INTRA:                  -0.419
REMARK UNBOUND:                -0.308
REMARK SMILES O=c1c(O)c(-c2ccc(O)cc2O)oc2cc(O)cc(O)c12
REMARK SMILES IDX 5 1 3 2 2 3 1 4 22 5 20 6 19 7 17 8 16 9 15 10 14 11 6 12
REMARK SMILES IDX 8 13 7 14 9 15 11 16 12 17 10 18 13 20 4 22 21 24 18 26
REMARK H PARENT 10 19 13 21 4 23 21 25 18 27
REMARK Flexibility Score: inf
ROOT
ATOM      1  C   UNL     1     135.197 134.347 114.620  1.00  0.00     0.184 A 
ATOM      2  C   UNL     1     136.125 134.590 113.595  1.00  0.00     0.208 A 
ATOM      3  C   UNL     1     137.486 134.686 113.919  1.00  0.00     0.238 A 
ATOM      4  O   UNL     1     138.318 134.851 112.989  1.00  0.00    -0.285 OA
ATOM      5  C   UNL     1     137.900 134.554 115.266  1.00  0.00     0.111 A 
ATOM      6  C   UNL     1     139.250 134.673 115.714  1.00  0.00     0.134 A 
ATOM      7  C   UNL     1     139.561 134.394 117.052  1.00  0.00     0.093 A 
ATOM      8  C   UNL     1     138.562 134.064 117.970  1.00  0.00     0.123 A 
ATOM      9  C   UNL     1     137.234 134.003 117.555  1.00  0.00     0.094 A 
ATOM     10  C   UNL     1     136.897 134.240 116.221  1.00  0.00     0.146 A 
ATOM     11  O   UNL     1     135.620 134.160 115.864  1.00  0.00    -0.451 OA
ENDROOT
BRANCH   1  12
ATOM     12  C   UNL     1     133.748 134.250 114.350  1.00  0.00     0.063 A 
ATOM     13  C   UNL     1     131.876 132.962 113.482  1.00  0.00     0.047 A 
ATOM     14  C   UNL     1     133.242 133.088 113.747  1.00  0.00     0.020 A 
ATOM     15  C   UNL     1     130.995 133.993 113.832  1.00  0.00     0.119 A 
ATOM     16  C   UNL     1     131.486 135.144 114.455  1.00  0.00     0.093 A 
ATOM     17  C   UNL     1     132.856 135.276 114.728  1.00  0.00     0.130 A 
BRANCH  15  18
ATOM     18  O   UNL     1     129.631 133.881 113.570  1.00  0.00    -0.508 OA
ATOM     19  H   UNL     1     129.029 133.299 114.142  1.00  0.00     0.293 HD
ENDBRANCH  15  18
BRANCH  17  20
ATOM     20  O   UNL     1     133.324 136.408 115.393  1.00  0.00    -0.507 OA
ATOM     21  H   UNL     1     133.188 137.340 115.020  1.00  0.00     0.293 HD
ENDBRANCH  17  20
ENDBRANCH   1  12
BRANCH   2  22
ATOM     22  O   UNL     1     135.690 134.698 112.271  1.00  0.00    -0.502 OA
ATOM     23  H   UNL     1     134.729 134.903 112.030  1.00  0.00     0.293 HD
ENDBRANCH   2  22
BRANCH   6  24
ATOM     24  O   UNL     1     140.310 135.085 114.901  1.00  0.00    -0.507 OA
ATOM     25  H   UNL     1     140.422 134.830 113.931  1.00  0.00     0.293 HD
ENDBRANCH   6  24
BRANCH   8  26
ATOM     26  O   UNL     1     138.879 133.804 119.301  1.00  0.00    -0.508 OA
ATOM     27  H   UNL     1     139.840 133.758 119.618  1.00  0.00     0.293 HD
ENDBRANCH   8  26
TORSDOF 6
ENDMDL
MODEL 4
REMARK VINA RESULT:    -8.457      5.082      8.039
REMARK INTER + INTRA:         -10.496
REMARK INTER:                 -10.099
REMARK INTRA:                  -0.397
REMARK UNBOUND:                -0.308
REMARK SMILES O=c1c(O)c(-c2ccc(O)cc2O)oc2cc(O)cc(O)c12
REMARK SMILES IDX 5 1 3 2 2 3 1 4 22 5 20 6 19 7 17 8 16 9 15 10 14 11 6 12
REMARK SMILES IDX 8 13 7 14 9 15 11 16 12 17 10 18 13 20 4 22 21 24 18 26
REMARK H PARENT 10 19 13 21 4 23 21 25 18 27
REMARK Flexibility Score: inf
ROOT
ATOM      1  C   UNL     1     131.066 133.702 111.399  1.00  0.00     0.184 A 
ATOM      2  C   UNL     1     132.306 133.080 111.614  1.00  0.00     0.208 A 
ATOM      3  C   UNL     1     132.896 133.162 112.884  1.00  0.00     0.238 A 
ATOM      4  O   UNL     1     133.982 132.557 113.085  1.00  0.00    -0.285 OA
ATOM      5  C   UNL     1     132.246 133.878 113.918  1.00  0.00     0.111 A 
ATOM      6  C   UNL     1     132.772 134.060 115.232  1.00  0.00     0.134 A 
ATOM      7  C   UNL     1     131.983 134.675 116.213  1.00  0.00     0.093 A 
ATOM      8  C   UNL     1     130.714 135.174 115.908  1.00  0.00     0.123 A 
ATOM      9  C   UNL     1     130.216 135.054 114.613  1.00  0.00     0.094 A 
ATOM     10  C   UNL     1     130.964 134.412 113.623  1.00  0.00     0.146 A 
ATOM     11  O   UNL     1     130.448 134.310 112.404  1.00  0.00    -0.451 OA
ENDROOT
BRANCH   1  12
ATOM     12  C   UNL     1     130.397 133.668 110.082  1.00  0.00     0.063 A 
ATOM     13  C   UNL     1     129.227 132.388 108.377  1.00  0.00     0.047 A 
ATOM     14  C   UNL     1     129.870 132.453 109.616  1.00  0.00     0.020 A 
ATOM     15  C   UNL     1     129.091 133.541 107.594  1.00  0.00     0.119 A 
ATOM     16  C   UNL     1     129.592 134.760 108.060  1.00  0.00     0.093 A 
ATOM     17  C   UNL     1     130.235 134.835 109.305  1.00  0.00     0.130 A 
BRANCH  15  18
ATOM     18  O   UNL     1     128.455 133.487 106.355  1.00  0.00    -0.508 OA
ATOM     19  H   UNL     1     128.878 133.018 105.563  1.00  0.00     0.293 HD
ENDBRANCH  15  18
BRANCH  17  20
ATOM     20  O   UNL     1     130.686 136.066 109.779  1.00  0.00    -0.507 OA
ATOM     21  H   UNL     1     131.535 136.492 109.429  1.00  0.00     0.293 HD
ENDBRANCH  17  20
ENDBRANCH   1  12
BRANCH   2  22
ATOM     22  O   UNL     1     132.917 132.364 110.581  1.00  0.00    -0.502 OA
ATOM     23  H   UNL     1     133.092 132.768 109.670  1.00  0.00     0.293 HD
ENDBRANCH   2  22
BRANCH   6  24
ATOM     24  O   UNL     1     134.062 133.682 115.617  1.00  0.00    -0.507 OA
ATOM     25  H   UNL     1     134.872 134.281 115.575  1.00  0.00     0.293 HD
ENDBRANCH   6  24
BRANCH   8  26
ATOM     26  O   UNL     1     129.944 135.799 116.886  1.00  0.00    -0.508 OA
ATOM     27  H   UNL     1     130.078 135.606 117.871  1.00  0.00     0.293 HD
ENDBRANCH   8  26
TORSDOF 6
ENDMDL
MODEL 5
REMARK VINA RESULT:    -8.420      5.093      7.442
REMARK INTER + INTRA:         -10.451
REMARK INTER:                 -10.111
REMARK INTRA:                  -0.340
REMARK UNBOUND:                -0.308
REMARK SMILES O=c1c(O)c(-c2ccc(O)cc2O)oc2cc(O)cc(O)c12
REMARK SMILES IDX 5 1 3 2 2 3 1 4 22 5 20 6 19 7 17 8 16 9 15 10 14 11 6 12
REMARK SMILES IDX 8 13 7 14 9 15 11 16 12 17 10 18 13 20 4 22 21 24 18 26
REMARK H PARENT 10 19 13 21 4 23 21 25 18 27
REMARK Flexibility Score: inf
ROOT
ATOM      1  C   UNL     1     130.775 134.570 110.929  1.00  0.00     0.184 A 
ATOM      2  C   UNL     1     130.027 135.177 111.949  1.00  0.00     0.208 A 
ATOM      3  C   UNL     1     130.669 135.533 113.145  1.00  0.00     0.238 A 
ATOM      4  O   UNL     1     130.005 136.125 114.035  1.00  0.00    -0.285 OA
ATOM      5  C   UNL     1     132.049 135.261 113.310  1.00  0.00     0.111 A 
ATOM      6  C   UNL     1     132.794 135.542 114.495  1.00  0.00     0.134 A 
ATOM      7  C   UNL     1     134.182 135.350 114.500  1.00  0.00     0.093 A 
ATOM      8  C   UNL     1     134.841 134.827 113.385  1.00  0.00     0.123 A 
ATOM      9  C   UNL     1     134.114 134.494 112.244  1.00  0.00     0.094 A 
ATOM     10  C   UNL     1     132.735 134.709 112.196  1.00  0.00     0.146 A 
ATOM     11  O   UNL     1     132.081 134.388 111.086  1.00  0.00    -0.451 OA
ENDROOT
BRANCH   1  12
ATOM     12  C   UNL     1     130.157 134.157 109.652  1.00  0.00     0.063 A 
ATOM     13  C   UNL     1     129.280 132.375 108.250  1.00  0.00     0.047 A 
ATOM     14  C   UNL     1     129.868 132.799 109.444  1.00  0.00     0.020 A 
ATOM     15  C   UNL     1     128.959 133.306 107.254  1.00  0.00     0.119 A 
ATOM     16  C   UNL     1     129.222 134.663 107.463  1.00  0.00     0.093 A 
ATOM     17  C   UNL     1     129.808 135.098 108.661  1.00  0.00     0.130 A 
BRANCH  15  18
ATOM     18  O   UNL     1     128.375 132.894 106.058  1.00  0.00    -0.508 OA
ATOM     19  H   UNL     1     127.375 132.753 105.979  1.00  0.00     0.293 HD
ENDBRANCH  15  18
BRANCH  17  20
ATOM     20  O   UNL     1     130.020 136.459 108.875  1.00  0.00    -0.507 OA
ATOM     21  H   UNL     1     129.252 137.120 108.899  1.00  0.00     0.293 HD
ENDBRANCH  17  20
ENDBRANCH   1  12
BRANCH   2  22
ATOM     22  O   UNL     1     128.670 135.451 111.753  1.00  0.00    -0.502 OA
ATOM     23  H   UNL     1     127.993 134.725 111.555  1.00  0.00     0.293 HD
ENDBRANCH   2  22
BRANCH   6  24
ATOM     24  O   UNL     1     132.221 135.980 115.692  1.00  0.00    -0.507 OA
ATOM     25  H   UNL     1     132.553 136.764 116.234  1.00  0.00     0.293 HD
ENDBRANCH   6  24
BRANCH   8  26
ATOM     26  O   UNL     1     136.219 134.625 113.405  1.00  0.00    -0.508 OA
ATOM     27  H   UNL     1     136.707 134.380 114.258  1.00  0.00     0.293 HD
ENDBRANCH   8  26
TORSDOF 6
ENDMDL
MODEL 6
REMARK VINA RESULT:    -8.334      3.733      4.808
REMARK INTER + INTRA:         -10.347
REMARK INTER:                  -9.940
REMARK INTRA:                  -0.407
REMARK UNBOUND:                -0.308
REMARK SMILES O=c1c(O)c(-c2ccc(O)cc2O)oc2cc(O)cc(O)c12
REMARK SMILES IDX 5 1 3 2 2 3 1 4 22 5 20 6 19 7 17 8 16 9 15 10 14 11 6 12
REMARK SMILES IDX 8 13 7 14 9 15 11 16 12 17 10 18 13 20 4 22 21 24 18 26
REMARK H PARENT 10 19 13 21 4 23 21 25 18 27
REMARK Flexibility Score: inf
ROOT
ATOM      1  C   UNL     1     129.274 134.649 112.647  1.00  0.00     0.184 A 
ATOM      2  C   UNL     1     128.090 135.390 112.515  1.00  0.00     0.208 A 
ATOM      3  C   UNL     1     127.342 135.273 111.334  1.00  0.00     0.238 A 
ATOM      4  O   UNL     1     126.254 135.898 111.244  1.00  0.00    -0.285 OA
ATOM      5  C   UNL     1     127.798 134.429 110.293  1.00  0.00     0.111 A 
ATOM      6  C   UNL     1     127.141 134.264 109.037  1.00  0.00     0.134 A 
ATOM      7  C   UNL     1     127.612 133.303 108.132  1.00  0.00     0.093 A 
ATOM      8  C   UNL     1     128.753 132.548 108.412  1.00  0.00     0.123 A 
ATOM      9  C   UNL     1     129.435 132.743 109.610  1.00  0.00     0.094 A 
ATOM     10  C   UNL     1     128.969 133.667 110.548  1.00  0.00     0.146 A 
ATOM     11  O   UNL     1     129.643 133.814 111.682  1.00  0.00    -0.451 OA
ENDROOT
BRANCH   1  12
ATOM     12  C   UNL     1     130.117 134.738 113.857  1.00  0.00     0.063 A 
ATOM     13  C   UNL     1     130.428 134.231 116.215  1.00  0.00     0.047 A 
ATOM     14  C   UNL     1     129.654 134.169 115.054  1.00  0.00     0.020 A 
ATOM     15  C   UNL     1     131.684 134.852 116.191  1.00  0.00     0.119 A 
ATOM     16  C   UNL     1     132.164 135.401 114.998  1.00  0.00     0.093 A 
ATOM     17  C   UNL     1     131.394 135.338 113.826  1.00  0.00     0.130 A 
BRANCH  15  18
ATOM     18  O   UNL     1     132.463 134.923 117.344  1.00  0.00    -0.508 OA
ATOM     19  H   UNL     1     132.186 134.456 118.199  1.00  0.00     0.293 HD
ENDBRANCH  15  18
BRANCH  17  20
ATOM     20  O   UNL     1     131.906 135.846 112.633  1.00  0.00    -0.507 OA
ATOM     21  H   UNL     1     131.816 136.825 112.389  1.00  0.00     0.293 HD
ENDBRANCH  17  20
ENDBRANCH   1  12
BRANCH   2  22
ATOM     22  O   UNL     1     127.654 136.202 113.566  1.00  0.00    -0.502 OA
ATOM     23  H   UNL     1     128.177 137.008 113.882  1.00  0.00     0.293 HD
ENDBRANCH   2  22
BRANCH   6  24
ATOM     24  O   UNL     1     126.049 135.031 108.620  1.00  0.00    -0.507 OA
ATOM     25  H   UNL     1     125.082 134.776 108.757  1.00  0.00     0.293 HD
ENDBRANCH   6  24
BRANCH   8  26
ATOM     26  O   UNL     1     129.222 131.607 107.499  1.00  0.00    -0.508 OA
ATOM     27  H   UNL     1     130.078 131.090 107.662  1.00  0.00     0.293 HD
ENDBRANCH   8  26
TORSDOF 6
ENDMDL
MODEL 7
REMARK VINA RESULT:    -8.251      4.802      6.848
REMARK INTER + INTRA:         -10.247
REMARK INTER:                  -9.831
REMARK INTRA:                  -0.416
REMARK UNBOUND:                -0.308
REMARK SMILES O=c1c(O)c(-c2ccc(O)cc2O)oc2cc(O)cc(O)c12
REMARK SMILES IDX 5 1 3 2 2 3 1 4 22 5 20 6 19 7 17 8 16 9 15 10 14 11 6 12
REMARK SMILES IDX 8 13 7 14 9 15 11 16 12 17 10 18 13 20 4 22 21 24 18 26
REMARK H PARENT 10 19 13 21 4 23 21 25 18 27
REMARK Flexibility Score: inf
ROOT
ATOM      1  C   UNL     1     130.075 134.347 110.653  1.00  0.00     0.184 A 
ATOM      2  C   UNL     1     130.442 133.001 110.503  1.00  0.00     0.208 A 
ATOM      3  C   UNL     1     131.480 132.487 111.294  1.00  0.00     0.238 A 
ATOM      4  O   UNL     1     131.768 131.266 111.193  1.00  0.00    -0.285 OA
ATOM      5  C   UNL     1     132.149 133.331 112.213  1.00  0.00     0.111 A 
ATOM      6  C   UNL     1     133.242 132.927 113.037  1.00  0.00     0.134 A 
ATOM      7  C   UNL     1     133.742 133.810 114.003  1.00  0.00     0.093 A 
ATOM      8  C   UNL     1     133.231 135.104 114.130  1.00  0.00     0.123 A 
ATOM      9  C   UNL     1     132.204 135.527 113.290  1.00  0.00     0.094 A 
ATOM     10  C   UNL     1     131.660 134.658 112.342  1.00  0.00     0.146 A 
ATOM     11  O   UNL     1     130.674 135.098 111.569  1.00  0.00    -0.451 OA
ENDROOT
BRANCH   1  12
ATOM     12  C   UNL     1     129.001 134.956 109.840  1.00  0.00     0.063 A 
ATOM     13  C   UNL     1     128.297 135.948 107.735  1.00  0.00     0.047 A 
ATOM     14  C   UNL     1     129.290 135.373 108.531  1.00  0.00     0.020 A 
ATOM     15  C   UNL     1     126.997 136.099 108.232  1.00  0.00     0.119 A 
ATOM     16  C   UNL     1     126.693 135.665 109.526  1.00  0.00     0.093 A 
ATOM     17  C   UNL     1     127.684 135.083 110.331  1.00  0.00     0.130 A 
BRANCH  15  18
ATOM     18  O   UNL     1     125.999 136.675 107.448  1.00  0.00    -0.508 OA
ATOM     19  H   UNL     1     125.024 136.421 107.563  1.00  0.00     0.293 HD
ENDBRANCH  15  18
BRANCH  17  20
ATOM     20  O   UNL     1     127.356 134.609 111.600  1.00  0.00    -0.507 OA
ATOM     21  H   UNL     1     126.943 133.694 111.737  1.00  0.00     0.293 HD
ENDBRANCH  17  20
ENDBRANCH   1  12
BRANCH   2  22
ATOM     22  O   UNL     1     129.752 132.185 109.601  1.00  0.00    -0.502 OA
ATOM     23  H   UNL     1     129.828 132.299 108.599  1.00  0.00     0.293 HD
ENDBRANCH   2  22
BRANCH   6  24
ATOM     24  O   UNL     1     133.886 131.691 112.930  1.00  0.00    -0.507 OA
ATOM     25  H   UNL     1     134.825 131.560 112.586  1.00  0.00     0.293 HD
ENDBRANCH   6  24
BRANCH   8  26
ATOM     26  O   UNL     1     133.745 135.980 115.083  1.00  0.00    -0.508 OA
ATOM     27  H   UNL     1     134.512 135.714 115.689  1.00  0.00     0.293 HD
ENDBRANCH   8  26
TORSDOF 6
ENDMDL
MODEL 8
REMARK VINA RESULT:    -8.182      5.070      6.283
REMARK INTER + INTRA:         -10.164
REMARK INTER:                  -9.778
REMARK INTRA:                  -0.386
REMARK UNBOUND:                -0.308
REMARK SMILES O=c1c(O)c(-c2ccc(O)cc2O)oc2cc(O)cc(O)c12
REMARK SMILES IDX 5 1 3 2 2 3 1 4 22 5 20 6 19 7 17 8 16 9 15 10 14 11 6 12
REMARK SMILES IDX 8 13 7 14 9 15 11 16 12 17 10 18 13 20 4 22 21 24 18 26
REMARK H PARENT 10 19 13 21 4 23 21 25 18 27
REMARK Flexibility Score: inf
ROOT
ATOM      1  C   UNL     1     131.058 134.228 111.859  1.00  0.00     0.184 A 
ATOM      2  C   UNL     1     129.933 134.956 112.275  1.00  0.00     0.208 A 
ATOM      3  C   UNL     1     128.759 134.890 111.509  1.00  0.00     0.238 A 
ATOM      4  O   UNL     1     127.737 135.501 111.916  1.00  0.00    -0.285 OA
ATOM      5  C   UNL     1     128.732 134.109 110.329  1.00  0.00     0.111 A 
ATOM      6  C   UNL     1     127.609 134.000 109.454  1.00  0.00     0.134 A 
ATOM      7  C   UNL     1     127.651 133.096 108.385  1.00  0.00     0.093 A 
ATOM      8  C   UNL     1     128.799 132.345 108.121  1.00  0.00     0.123 A 
ATOM      9  C   UNL     1     129.921 132.488 108.933  1.00  0.00     0.094 A 
ATOM     10  C   UNL     1     129.897 133.354 110.029  1.00  0.00     0.146 A 
ATOM     11  O   UNL     1     130.984 133.451 110.785  1.00  0.00    -0.451 OA
ENDROOT
BRANCH   1  12
ATOM     12  C   UNL     1     132.330 134.267 112.610  1.00  0.00     0.063 A 
ATOM     13  C   UNL     1     133.577 133.692 114.617  1.00  0.00     0.047 A 
ATOM     14  C   UNL     1     132.389 133.678 113.883  1.00  0.00     0.020 A 
ATOM     15  C   UNL     1     134.728 134.284 114.081  1.00  0.00     0.119 A 
ATOM     16  C   UNL     1     134.686 134.852 112.805  1.00  0.00     0.093 A 
ATOM     17  C   UNL     1     133.497 134.838 112.059  1.00  0.00     0.130 A 
BRANCH  15  18
ATOM     18  O   UNL     1     135.918 134.308 114.806  1.00  0.00    -0.508 OA
ATOM     19  H   UNL     1     136.024 133.782 115.666  1.00  0.00     0.293 HD
ENDBRANCH  15  18
BRANCH  17  20
ATOM     20  O   UNL     1     133.482 135.364 110.768  1.00  0.00    -0.507 OA
ATOM     21  H   UNL     1     133.287 134.785 109.959  1.00  0.00     0.293 HD
ENDBRANCH  17  20
ENDBRANCH   1  12
BRANCH   2  22
ATOM     22  O   UNL     1     129.982 135.704 113.455  1.00  0.00    -0.502 OA
ATOM     23  H   UNL     1     129.153 135.923 113.993  1.00  0.00     0.293 HD
ENDBRANCH   2  22
BRANCH   6  24
ATOM     24  O   UNL     1     126.449 134.771 109.574  1.00  0.00    -0.507 OA
ATOM     25  H   UNL     1     126.321 135.684 109.166  1.00  0.00     0.293 HD
ENDBRANCH   6  24
BRANCH   8  26
ATOM     26  O   UNL     1     128.837 131.461 107.045  1.00  0.00    -0.508 OA
ATOM     27  H   UNL     1     128.244 131.587 106.234  1.00  0.00     0.293 HD
ENDBRANCH   8  26
TORSDOF 6
ENDMDL
MODEL 9
REMARK VINA RESULT:    -8.110      3.672      6.540
REMARK INTER + INTRA:         -10.078
REMARK INTER:                  -9.685
REMARK INTRA:                  -0.393
REMARK UNBOUND:                -0.308
REMARK SMILES O=c1c(O)c(-c2ccc(O)cc2O)oc2cc(O)cc(O)c12
REMARK SMILES IDX 5 1 3 2 2 3 1 4 22 5 20 6 19 7 17 8 16 9 15 10 14 11 6 12
REMARK SMILES IDX 8 13 7 14 9 15 11 16 12 17 10 18 13 20 4 22 21 24 18 26
REMARK H PARENT 10 19 13 21 4 23 21 25 18 27
REMARK Flexibility Score: inf
ROOT
ATOM      1  C   UNL     1     129.088 134.094 111.089  1.00  0.00     0.184 A 
ATOM      2  C   UNL     1     128.435 134.150 109.849  1.00  0.00     0.208 A 
ATOM      3  C   UNL     1     127.062 134.436 109.815  1.00  0.00     0.238 A 
ATOM      4  O   UNL     1     126.493 134.538 108.697  1.00  0.00    -0.285 OA
ATOM      5  C   UNL     1     126.358 134.647 111.025  1.00  0.00     0.111 A 
ATOM      6  C   UNL     1     124.956 134.904 111.112  1.00  0.00     0.134 A 
ATOM      7  C   UNL     1     124.389 135.226 112.353  1.00  0.00     0.093 A 
ATOM      8  C   UNL     1     125.161 135.236 113.517  1.00  0.00     0.123 A 
ATOM      9  C   UNL     1     126.517 134.927 113.451  1.00  0.00     0.094 A 
ATOM     10  C   UNL     1     127.119 134.639 112.224  1.00  0.00     0.146 A 
ATOM     11  O   UNL     1     128.417 134.361 112.203  1.00  0.00    -0.451 OA
ENDROOT
BRANCH   1  12
ATOM     12  C   UNL     1     130.529 133.781 111.197  1.00  0.00     0.063 A 
ATOM     13  C   UNL     1     132.277 132.120 111.507  1.00  0.00     0.047 A 
ATOM     14  C   UNL     1     130.924 132.451 111.406  1.00  0.00     0.020 A 
ATOM     15  C   UNL     1     133.255 133.116 111.385  1.00  0.00     0.119 A 
ATOM     16  C   UNL     1     132.872 134.440 111.153  1.00  0.00     0.093 A 
ATOM     17  C   UNL     1     131.515 134.779 111.046  1.00  0.00     0.130 A 
BRANCH  15  18
ATOM     18  O   UNL     1     134.608 132.798 111.488  1.00  0.00    -0.508 OA
ATOM     19  H   UNL     1     134.936 131.844 111.398  1.00  0.00     0.293 HD
ENDBRANCH  15  18
BRANCH  17  20
ATOM     20  O   UNL     1     131.149 136.095 110.766  1.00  0.00    -0.507 OA
ATOM     21  H   UNL     1     130.280 136.490 111.105  1.00  0.00     0.293 HD
ENDBRANCH  17  20
ENDBRANCH   1  12
BRANCH   2  22
ATOM     22  O   UNL     1     129.159 133.956 108.668  1.00  0.00    -0.502 OA
ATOM     23  H   UNL     1     128.739 133.575 107.831  1.00  0.00     0.293 HD
ENDBRANCH   2  22
BRANCH   6  24
ATOM     24  O   UNL     1     124.079 134.831 110.026  1.00  0.00    -0.507 OA
ATOM     25  H   UNL     1     124.364 134.819 109.058  1.00  0.00     0.293 HD
ENDBRANCH   6  24
BRANCH   8  26
ATOM     26  O   UNL     1     124.584 135.541 114.748  1.00  0.00    -0.508 OA
ATOM     27  H   UNL     1     123.993 136.354 114.869  1.00  0.00     0.293 HD
ENDBRANCH   8  26
TORSDOF 6
ENDMDL
