MODEL 1
REMARK VINA RESULT:    -5.935      0.000      0.000
REMARK INTER + INTRA:         -20.774
REMARK INTER:                 -15.650
REMARK INTRA:                  -5.124
REMARK UNBOUND:                -5.124
REMARK SMILES CCCCCCCCCCCCCCCCCCCCCCCCCCCCCC(=O)[O-]
REMARK SMILES IDX 16 1 17 2 18 3 19 4 20 5 21 6 22 7 23 8 24 9 25 10 26 11
REMARK SMILES IDX 27 12 28 13 29 14 30 15 31 16 32 17 15 18 14 19 13 20 12 21
REMARK SMILES IDX 11 22 10 23 9 24 8 25 7 26 6 27 5 28 4 29 3 30 2 31 1 32
REMARK H PARENT
REMARK Flexibility Score: inf
ROOT
ATOM      1  C   UNL     1      66.281   2.432  23.376  1.00  0.00     0.000 C 
ENDROOT
BRANCH   1   2
ATOM      2  C   UNL     1      66.928   3.808  23.587  1.00  0.00     0.000 C 
BRANCH   2   3
ATOM      3  C   UNL     1      68.454   3.721  23.443  1.00  0.00     0.000 C 
BRANCH   3   4
ATOM      4  C   UNL     1      69.114   5.090  23.201  1.00  0.00     0.000 C 
BRANCH   4   5
ATOM      5  C   UNL     1      70.643   5.053  22.988  1.00  0.00     0.000 C 
BRANCH   5   6
ATOM      6  C   UNL     1      71.126   4.121  21.863  1.00  0.00     0.000 C 
BRANCH   6   7
ATOM      7  C   UNL     1      72.447   4.542  21.190  1.00  0.00     0.000 C 
BRANCH   7   8
ATOM      8  C   UNL     1      72.953   5.937  21.620  1.00  0.00     0.000 C 
BRANCH   8   9
ATOM      9  C   UNL     1      73.349   6.820  20.423  1.00  0.00     0.000 C 
BRANCH   9  10
ATOM     10  C   UNL     1      72.350   7.962  20.177  1.00  0.00     0.000 C 
BRANCH  10  11
ATOM     11  C   UNL     1      71.083   7.493  19.441  1.00  0.00     0.000 C 
BRANCH  11  12
ATOM     12  C   UNL     1      69.827   7.567  20.325  1.00  0.00     0.000 C 
BRANCH  12  13
ATOM     13  C   UNL     1      69.994   8.539  21.506  1.00  0.00     0.006 C 
BRANCH  13  14
ATOM     14  C   UNL     1      68.710   8.669  22.338  1.00  0.00     0.053 C 
BRANCH  14  15
ATOM     15  C   UNL     1      68.400  10.096  22.674  1.00  0.00     0.041 C 
ATOM     16  O   UNL     1      67.266  10.578  22.412  1.00  0.00    -0.550 OA
ATOM     17  O   UNL     1      69.362  10.893  23.283  1.00  0.00    -0.550 OA
ENDBRANCH  14  15
ENDBRANCH  13  14
ENDBRANCH  12  13
ENDBRANCH  11  12
ENDBRANCH  10  11
ENDBRANCH   9  10
ENDBRANCH   8   9
ENDBRANCH   7   8
ENDBRANCH   6   7
ENDBRANCH   5   6
ENDBRANCH   4   5
ENDBRANCH   3   4
ENDBRANCH   2   3
ENDBRANCH   1   2
BRANCH   1  18
ATOM     18  C   UNL     1      64.743   2.486  23.371  1.00  0.00     0.000 C 
BRANCH  18  19
ATOM     19  C   UNL     1      64.141   3.892  23.182  1.00  0.00     0.000 C 
BRANCH  19  20
ATOM     20  C   UNL     1      62.610   3.932  23.006  1.00  0.00     0.000 C 
BRANCH  20  21
ATOM     21  C   UNL     1      62.122   4.463  21.646  1.00  0.00     0.000 C 
BRANCH  21  22
ATOM     22  C   UNL     1      60.972   3.627  21.060  1.00  0.00     0.000 C 
BRANCH  22  23
ATOM     23  C   UNL     1      61.394   2.797  19.833  1.00  0.00     0.000 C 
BRANCH  23  24
ATOM     24  C   UNL     1      62.154   1.494  20.150  1.00  0.00    -0.000 C 
BRANCH  24  25
ATOM     25  C   UNL     1      63.374   1.274  19.244  1.00  0.00    -0.000 C 
BRANCH  25  26
ATOM     26  C   UNL     1      64.553   2.159  19.677  1.00  0.00    -0.000 C 
BRANCH  26  27
ATOM     27  C   UNL     1      64.898   3.245  18.641  1.00  0.00    -0.000 C 
BRANCH  27  28
ATOM     28  C   UNL     1      65.071   4.660  19.222  1.00  0.00    -0.000 C 
BRANCH  28  29
ATOM     29  C   UNL     1      66.134   4.726  20.332  1.00  0.00    -0.000 C 
BRANCH  29  30
ATOM     30  C   UNL     1      66.462   6.180  20.736  1.00  0.00    -0.000 C 
BRANCH  30  31
ATOM     31  C   UNL     1      65.399   7.198  20.290  1.00  0.00    -0.003 C 
ATOM     32  C   UNL     1      66.000   8.483  19.726  1.00  0.00     0.004 C 
ENDBRANCH  30  31
ENDBRANCH  29  30
ENDBRANCH  28  29
ENDBRANCH  27  28
ENDBRANCH  26  27
ENDBRANCH  25  26
ENDBRANCH  24  25
ENDBRANCH  23  24
ENDBRANCH  22  23
ENDBRANCH  21  22
ENDBRANCH  20  21
ENDBRANCH  19  20
ENDBRANCH  18  19
ENDBRANCH   1  18
TORSDOF 28
ENDMDL
MODEL 2
REMARK VINA RESULT:    -5.903      1.474      6.301
REMARK INTER + INTRA:         -20.690
REMARK INTER:                 -16.051
REMARK INTRA:                  -4.638
REMARK UNBOUND:                -5.124
REMARK SMILES CCCCCCCCCCCCCCCCCCCCCCCCCCCCCC(=O)[O-]
REMARK SMILES IDX 16 1 17 2 18 3 19 4 20 5 21 6 22 7 23 8 24 9 25 10 26 11
REMARK SMILES IDX 27 12 28 13 29 14 30 15 31 16 32 17 15 18 14 19 13 20 12 21
REMARK SMILES IDX 11 22 10 23 9 24 8 25 7 26 6 27 5 28 4 29 3 30 2 31 1 32
REMARK H PARENT
REMARK Flexibility Score: inf
ROOT
ATOM      1  C   UNL     1      62.345   4.413  22.088  1.00  0.00     0.000 C 
ENDROOT
BRANCH   1   2
ATOM      2  C   UNL     1      61.216   3.420  21.777  1.00  0.00     0.000 C 
BRANCH   2   3
ATOM      3  C   UNL     1      61.049   3.240  20.262  1.00  0.00     0.000 C 
BRANCH   3   4
ATOM      4  C   UNL     1      62.389   3.233  19.505  1.00  0.00     0.000 C 
BRANCH   4   5
ATOM      5  C   UNL     1      63.136   1.882  19.505  1.00  0.00     0.000 C 
BRANCH   5   6
ATOM      6  C   UNL     1      64.671   1.982  19.445  1.00  0.00     0.000 C 
BRANCH   6   7
ATOM      7  C   UNL     1      65.220   3.380  19.101  1.00  0.00     0.000 C 
BRANCH   7   8
ATOM      8  C   UNL     1      66.011   4.043  20.249  1.00  0.00     0.000 C 
BRANCH   8   9
ATOM      9  C   UNL     1      65.476   5.441  20.610  1.00  0.00     0.000 C 
BRANCH   9  10
ATOM     10  C   UNL     1      66.581   6.384  21.110  1.00  0.00     0.000 C 
BRANCH  10  11
ATOM     11  C   UNL     1      66.595   7.730  20.366  1.00  0.00     0.000 C 
BRANCH  11  12
ATOM     12  C   UNL     1      65.332   7.947  19.516  1.00  0.00     0.000 C 
BRANCH  12  13
ATOM     13  C   UNL     1      64.944   9.433  19.406  1.00  0.00     0.006 C 
BRANCH  13  14
ATOM     14  C   UNL     1      66.163  10.337  19.176  1.00  0.00     0.053 C 
BRANCH  14  15
ATOM     15  C   UNL     1      66.169  11.517  20.098  1.00  0.00     0.041 C 
ATOM     16  O   UNL     1      65.401  12.494  19.884  1.00  0.00    -0.550 OA
ATOM     17  O   UNL     1      67.019  11.538  21.197  1.00  0.00    -0.550 OA
ENDBRANCH  14  15
ENDBRANCH  13  14
ENDBRANCH  12  13
ENDBRANCH  11  12
ENDBRANCH  10  11
ENDBRANCH   9  10
ENDBRANCH   8   9
ENDBRANCH   7   8
ENDBRANCH   6   7
ENDBRANCH   5   6
ENDBRANCH   4   5
ENDBRANCH   3   4
ENDBRANCH   2   3
ENDBRANCH   1   2
BRANCH   1  18
ATOM     18  C   UNL     1      63.338   3.883  23.137  1.00  0.00     0.000 C 
BRANCH  18  19
ATOM     19  C   UNL     1      63.539   2.355  23.132  1.00  0.00     0.000 C 
BRANCH  19  20
ATOM     20  C   UNL     1      65.006   1.887  23.196  1.00  0.00     0.000 C 
BRANCH  20  21
ATOM     21  C   UNL     1      65.889   2.640  24.208  1.00  0.00     0.000 C 
BRANCH  21  22
ATOM     22  C   UNL     1      67.149   3.242  23.565  1.00  0.00     0.000 C 
BRANCH  22  23
ATOM     23  C   UNL     1      67.640   4.514  24.281  1.00  0.00     0.000 C 
BRANCH  23  24
ATOM     24  C   UNL     1      69.093   4.925  23.971  1.00  0.00    -0.000 C 
BRANCH  24  25
ATOM     25  C   UNL     1      69.623   4.319  22.663  1.00  0.00    -0.000 C 
BRANCH  25  26
ATOM     26  C   UNL     1      70.080   5.416  21.690  1.00  0.00    -0.000 C 
BRANCH  26  27
ATOM     27  C   UNL     1      70.229   6.792  22.366  1.00  0.00    -0.000 C 
BRANCH  27  28
ATOM     28  C   UNL     1      70.202   7.992  21.401  1.00  0.00    -0.000 C 
BRANCH  28  29
ATOM     29  C   UNL     1      71.250   7.882  20.280  1.00  0.00    -0.000 C 
BRANCH  29  30
ATOM     30  C   UNL     1      72.574   8.585  20.653  1.00  0.00    -0.000 C 
BRANCH  30  31
ATOM     31  C   UNL     1      72.431   9.601  21.798  1.00  0.00    -0.003 C 
ATOM     32  C   UNL     1      72.597  11.048  21.339  1.00  0.00     0.004 C 
ENDBRANCH  30  31
ENDBRANCH  29  30
ENDBRANCH  28  29
ENDBRANCH  27  28
ENDBRANCH  26  27
ENDBRANCH  25  26
ENDBRANCH  24  25
ENDBRANCH  23  24
ENDBRANCH  22  23
ENDBRANCH  21  22
ENDBRANCH  20  21
ENDBRANCH  19  20
ENDBRANCH  18  19
ENDBRANCH   1  18
TORSDOF 28
ENDMDL
MODEL 3
REMARK VINA RESULT:    -5.895      3.023      4.422
REMARK INTER + INTRA:         -20.669
REMARK INTER:                 -15.991
REMARK INTRA:                  -4.678
REMARK UNBOUND:                -5.124
REMARK SMILES CCCCCCCCCCCCCCCCCCCCCCCCCCCCCC(=O)[O-]
REMARK SMILES IDX 16 1 17 2 18 3 19 4 20 5 21 6 22 7 23 8 24 9 25 10 26 11
REMARK SMILES IDX 27 12 28 13 29 14 30 15 31 16 32 17 15 18 14 19 13 20 12 21
REMARK SMILES IDX 11 22 10 23 9 24 8 25 7 26 6 27 5 28 4 29 3 30 2 31 1 32
REMARK H PARENT
REMARK Flexibility Score: inf
ROOT
ATOM      1  C   UNL     1      63.843   2.473  23.133  1.00  0.00     0.000 C 
ENDROOT
BRANCH   1   2
ATOM      2  C   UNL     1      65.322   2.078  23.253  1.00  0.00     0.000 C 
BRANCH   2   3
ATOM      3  C   UNL     1      66.015   2.887  24.360  1.00  0.00     0.000 C 
BRANCH   3   4
ATOM      4  C   UNL     1      67.322   3.550  23.892  1.00  0.00     0.000 C 
BRANCH   4   5
ATOM      5  C   UNL     1      67.863   4.660  24.819  1.00  0.00     0.000 C 
BRANCH   5   6
ATOM      6  C   UNL     1      69.318   5.088  24.550  1.00  0.00     0.000 C 
BRANCH   6   7
ATOM      7  C   UNL     1      70.020   4.325  23.410  1.00  0.00     0.000 C 
BRANCH   7   8
ATOM      8  C   UNL     1      70.979   5.196  22.570  1.00  0.00     0.000 C 
BRANCH   8   9
ATOM      9  C   UNL     1      70.936   4.852  21.070  1.00  0.00     0.000 C 
BRANCH   9  10
ATOM     10  C   UNL     1      71.771   5.821  20.219  1.00  0.00     0.000 C 
BRANCH  10  11
ATOM     11  C   UNL     1      72.958   6.419  20.994  1.00  0.00     0.000 C 
BRANCH  11  12
ATOM     12  C   UNL     1      74.281   6.318  20.218  1.00  0.00     0.000 C 
BRANCH  12  13
ATOM     13  C   UNL     1      75.343   5.494  20.969  1.00  0.00     0.006 C 
BRANCH  13  14
ATOM     14  C   UNL     1      74.716   4.454  21.908  1.00  0.00     0.053 C 
BRANCH  14  15
ATOM     15  C   UNL     1      75.544   3.209  22.002  1.00  0.00     0.041 C 
ATOM     16  O   UNL     1      76.573   3.184  22.731  1.00  0.00    -0.550 OA
ATOM     17  O   UNL     1      75.178   2.074  21.290  1.00  0.00    -0.550 OA
ENDBRANCH  14  15
ENDBRANCH  13  14
ENDBRANCH  12  13
ENDBRANCH  11  12
ENDBRANCH  10  11
ENDBRANCH   9  10
ENDBRANCH   8   9
ENDBRANCH   7   8
ENDBRANCH   6   7
ENDBRANCH   5   6
ENDBRANCH   4   5
ENDBRANCH   3   4
ENDBRANCH   2   3
ENDBRANCH   1   2
BRANCH   1  18
ATOM     18  C   UNL     1      63.642   3.980  22.899  1.00  0.00     0.000 C 
BRANCH  18  19
ATOM     19  C   UNL     1      62.202   4.397  22.538  1.00  0.00     0.000 C 
BRANCH  19  20
ATOM     20  C   UNL     1      61.335   3.286  21.913  1.00  0.00     0.000 C 
BRANCH  20  21
ATOM     21  C   UNL     1      61.239   3.318  20.377  1.00  0.00     0.000 C 
BRANCH  21  22
ATOM     22  C   UNL     1      61.243   1.913  19.752  1.00  0.00     0.000 C 
BRANCH  22  23
ATOM     23  C   UNL     1      62.539   1.130  20.038  1.00  0.00     0.000 C 
BRANCH  23  24
ATOM     24  C   UNL     1      63.679   1.351  19.025  1.00  0.00    -0.000 C 
BRANCH  24  25
ATOM     25  C   UNL     1      64.726   2.365  19.510  1.00  0.00    -0.000 C 
BRANCH  25  26
ATOM     26  C   UNL     1      64.646   3.671  18.705  1.00  0.00    -0.000 C 
BRANCH  26  27
ATOM     27  C   UNL     1      65.106   4.899  19.511  1.00  0.00    -0.000 C 
BRANCH  27  28
ATOM     28  C   UNL     1      66.221   4.620  20.536  1.00  0.00    -0.000 C 
BRANCH  28  29
ATOM     29  C   UNL     1      66.541   5.838  21.419  1.00  0.00    -0.000 C 
BRANCH  29  30
ATOM     30  C   UNL     1      67.904   6.470  21.064  1.00  0.00    -0.000 C 
BRANCH  30  31
ATOM     31  C   UNL     1      67.987   7.972  21.381  1.00  0.00    -0.003 C 
ATOM     32  C   UNL     1      68.743   8.271  22.672  1.00  0.00     0.004 C 
ENDBRANCH  30  31
ENDBRANCH  29  30
ENDBRANCH  28  29
ENDBRANCH  27  28
ENDBRANCH  26  27
ENDBRANCH  25  26
ENDBRANCH  24  25
ENDBRANCH  23  24
ENDBRANCH  22  23
ENDBRANCH  21  22
ENDBRANCH  20  21
ENDBRANCH  19  20
ENDBRANCH  18  19
ENDBRANCH   1  18
TORSDOF 28
ENDMDL
MODEL 4
REMARK VINA RESULT:    -5.887      5.705     10.869
REMARK INTER + INTRA:         -20.649
REMARK INTER:                 -15.796
REMARK INTRA:                  -4.853
REMARK UNBOUND:                -5.124
REMARK SMILES CCCCCCCCCCCCCCCCCCCCCCCCCCCCCC(=O)[O-]
REMARK SMILES IDX 16 1 17 2 18 3 19 4 20 5 21 6 22 7 23 8 24 9 25 10 26 11
REMARK SMILES IDX 27 12 28 13 29 14 30 15 31 16 32 17 15 18 14 19 13 20 12 21
REMARK SMILES IDX 11 22 10 23 9 24 8 25 7 26 6 27 5 28 4 29 3 30 2 31 1 32
REMARK H PARENT
REMARK Flexibility Score: inf
ROOT
ATOM      1  C   UNL     1      75.716   7.603  23.687  1.00  0.00     0.000 C 
ENDROOT
BRANCH   1   2
ATOM      2  C   UNL     1      76.254   7.793  22.262  1.00  0.00     0.000 C 
BRANCH   2   3
ATOM      3  C   UNL     1      77.684   7.246  22.142  1.00  0.00     0.000 C 
BRANCH   3   4
ATOM      4  C   UNL     1      77.854   6.260  20.972  1.00  0.00     0.000 C 
BRANCH   4   5
ATOM      5  C   UNL     1      79.092   5.342  21.062  1.00  0.00     0.000 C 
BRANCH   5   6
ATOM      6  C   UNL     1      79.227   4.549  22.375  1.00  0.00     0.000 C 
BRANCH   6   7
ATOM      7  C   UNL     1      78.736   3.090  22.307  1.00  0.00     0.000 C 
BRANCH   7   8
ATOM      8  C   UNL     1      77.408   2.910  21.541  1.00  0.00     0.000 C 
BRANCH   8   9
ATOM      9  C   UNL     1      76.183   2.881  22.472  1.00  0.00     0.000 C 
BRANCH   9  10
ATOM     10  C   UNL     1      75.355   4.173  22.396  1.00  0.00     0.000 C 
BRANCH  10  11
ATOM     11  C   UNL     1      74.599   4.315  21.064  1.00  0.00     0.000 C 
BRANCH  11  12
ATOM     12  C   UNL     1      73.595   3.174  20.831  1.00  0.00     0.000 C 
BRANCH  12  13
ATOM     13  C   UNL     1      72.137   3.668  20.807  1.00  0.00     0.006 C 
BRANCH  13  14
ATOM     14  C   UNL     1      71.619   4.021  22.209  1.00  0.00     0.053 C 
BRANCH  14  15
ATOM     15  C   UNL     1      70.785   5.265  22.204  1.00  0.00     0.041 C 
ATOM     16  O   UNL     1      70.861   6.085  23.159  1.00  0.00    -0.550 OA
ATOM     17  O   UNL     1      69.927   5.524  21.142  1.00  0.00    -0.550 OA
ENDBRANCH  14  15
ENDBRANCH  13  14
ENDBRANCH  12  13
ENDBRANCH  11  12
ENDBRANCH  10  11
ENDBRANCH   9  10
ENDBRANCH   8   9
ENDBRANCH   7   8
ENDBRANCH   6   7
ENDBRANCH   5   6
ENDBRANCH   4   5
ENDBRANCH   3   4
ENDBRANCH   2   3
ENDBRANCH   1   2
BRANCH   1  18
ATOM     18  C   UNL     1      76.815   7.238  24.701  1.00  0.00     0.000 C 
BRANCH  18  19
ATOM     19  C   UNL     1      76.628   7.836  26.109  1.00  0.00     0.000 C 
BRANCH  19  20
ATOM     20  C   UNL     1      77.587   8.991  26.463  1.00  0.00     0.000 C 
BRANCH  20  21
ATOM     21  C   UNL     1      78.604   9.355  25.367  1.00  0.00     0.000 C 
BRANCH  21  22
ATOM     22  C   UNL     1      78.226  10.636  24.606  1.00  0.00     0.000 C 
BRANCH  22  23
ATOM     23  C   UNL     1      77.377  11.607  25.448  1.00  0.00     0.000 C 
BRANCH  23  24
ATOM     24  C   UNL     1      76.061  12.069  24.792  1.00  0.00    -0.000 C 
BRANCH  24  25
ATOM     25  C   UNL     1      75.319  10.936  24.069  1.00  0.00    -0.000 C 
BRANCH  25  26
ATOM     26  C   UNL     1      73.815  11.233  23.971  1.00  0.00    -0.000 C 
BRANCH  26  27
ATOM     27  C   UNL     1      73.436  11.989  22.685  1.00  0.00    -0.000 C 
BRANCH  27  28
ATOM     28  C   UNL     1      72.793  11.119  21.589  1.00  0.00    -0.000 C 
BRANCH  28  29
ATOM     29  C   UNL     1      71.972   9.950  22.158  1.00  0.00    -0.000 C 
BRANCH  29  30
ATOM     30  C   UNL     1      71.686   8.869  21.092  1.00  0.00    -0.000 C 
BRANCH  30  31
ATOM     31  C   UNL     1      72.907   8.000  20.753  1.00  0.00    -0.003 C 
ATOM     32  C   UNL     1      72.696   7.125  19.521  1.00  0.00     0.004 C 
ENDBRANCH  30  31
ENDBRANCH  29  30
ENDBRANCH  28  29
ENDBRANCH  27  28
ENDBRANCH  26  27
ENDBRANCH  25  26
ENDBRANCH  24  25
ENDBRANCH  23  24
ENDBRANCH  22  23
ENDBRANCH  21  22
ENDBRANCH  20  21
ENDBRANCH  19  20
ENDBRANCH  18  19
ENDBRANCH   1  18
TORSDOF 28
ENDMDL
MODEL 5
REMARK VINA RESULT:    -5.887      2.598      8.015
REMARK INTER + INTRA:         -20.648
REMARK INTER:                 -15.545
REMARK INTRA:                  -5.103
REMARK UNBOUND:                -5.124
REMARK SMILES CCCCCCCCCCCCCCCCCCCCCCCCCCCCCC(=O)[O-]
REMARK SMILES IDX 16 1 17 2 18 3 19 4 20 5 21 6 22 7 23 8 24 9 25 10 26 11
REMARK SMILES IDX 27 12 28 13 29 14 30 15 31 16 32 17 15 18 14 19 13 20 12 21
REMARK SMILES IDX 11 22 10 23 9 24 8 25 7 26 6 27 5 28 4 29 3 30 2 31 1 32
REMARK H PARENT
REMARK Flexibility Score: inf
ROOT
ATOM      1  C   UNL     1      66.105   4.169  19.874  1.00  0.00     0.000 C 
ENDROOT
BRANCH   1   2
ATOM      2  C   UNL     1      65.584   2.992  19.037  1.00  0.00     0.000 C 
BRANCH   2   3
ATOM      3  C   UNL     1      64.051   2.927  19.081  1.00  0.00     0.000 C 
BRANCH   3   4
ATOM      4  C   UNL     1      63.517   1.522  19.414  1.00  0.00     0.000 C 
BRANCH   4   5
ATOM      5  C   UNL     1      62.037   1.468  19.848  1.00  0.00     0.000 C 
BRANCH   5   6
ATOM      6  C   UNL     1      61.282   2.807  19.773  1.00  0.00     0.000 C 
BRANCH   6   7
ATOM      7  C   UNL     1      60.881   3.407  21.135  1.00  0.00     0.000 C 
BRANCH   7   8
ATOM      8  C   UNL     1      61.904   4.415  21.702  1.00  0.00     0.000 C 
BRANCH   8   9
ATOM      9  C   UNL     1      62.490   3.970  23.055  1.00  0.00     0.000 C 
BRANCH   9  10
ATOM     10  C   UNL     1      63.412   2.748  22.924  1.00  0.00     0.000 C 
BRANCH  10  11
ATOM     11  C   UNL     1      64.903   3.120  22.991  1.00  0.00     0.000 C 
BRANCH  11  12
ATOM     12  C   UNL     1      65.167   4.339  23.890  1.00  0.00     0.000 C 
BRANCH  12  13
ATOM     13  C   UNL     1      66.660   4.710  23.956  1.00  0.00     0.006 C 
BRANCH  13  14
ATOM     14  C   UNL     1      67.555   3.634  23.326  1.00  0.00     0.053 C 
BRANCH  14  15
ATOM     15  C   UNL     1      69.008   3.992  23.408  1.00  0.00     0.041 C 
ATOM     16  O   UNL     1      69.370   5.044  24.001  1.00  0.00    -0.550 OA
ATOM     17  O   UNL     1      69.963   3.161  22.836  1.00  0.00    -0.550 OA
ENDBRANCH  14  15
ENDBRANCH  13  14
ENDBRANCH  12  13
ENDBRANCH  11  12
ENDBRANCH  10  11
ENDBRANCH   9  10
ENDBRANCH   8   9
ENDBRANCH   7   8
ENDBRANCH   6   7
ENDBRANCH   5   6
ENDBRANCH   4   5
ENDBRANCH   3   4
ENDBRANCH   2   3
ENDBRANCH   1   2
BRANCH   1  18
ATOM     18  C   UNL     1      65.067   5.293  20.039  1.00  0.00     0.000 C 
BRANCH  18  19
ATOM     19  C   UNL     1      65.544   6.505  20.863  1.00  0.00     0.000 C 
BRANCH  19  20
ATOM     20  C   UNL     1      67.065   6.756  20.839  1.00  0.00     0.000 C 
BRANCH  20  21
ATOM     21  C   UNL     1      67.629   7.472  22.080  1.00  0.00     0.000 C 
BRANCH  21  22
ATOM     22  C   UNL     1      68.217   8.855  21.753  1.00  0.00     0.000 C 
BRANCH  22  23
ATOM     23  C   UNL     1      67.716   9.962  22.699  1.00  0.00     0.000 C 
BRANCH  23  24
ATOM     24  C   UNL     1      67.844  11.399  22.157  1.00  0.00    -0.000 C 
BRANCH  24  25
ATOM     25  C   UNL     1      66.785  12.354  22.726  1.00  0.00    -0.000 C 
BRANCH  25  26
ATOM     26  C   UNL     1      65.413  11.670  22.814  1.00  0.00    -0.000 C 
BRANCH  26  27
ATOM     27  C   UNL     1      64.339  12.368  21.959  1.00  0.00    -0.000 C 
BRANCH  27  28
ATOM     28  C   UNL     1      62.977  11.651  21.918  1.00  0.00    -0.000 C 
BRANCH  28  29
ATOM     29  C   UNL     1      63.029  10.312  21.164  1.00  0.00    -0.000 C 
BRANCH  29  30
ATOM     30  C   UNL     1      63.598  10.471  19.737  1.00  0.00    -0.000 C 
BRANCH  30  31
ATOM     31  C   UNL     1      64.856   9.627  19.478  1.00  0.00    -0.003 C 
ATOM     32  C   UNL     1      66.071  10.466  19.089  1.00  0.00     0.004 C 
ENDBRANCH  30  31
ENDBRANCH  29  30
ENDBRANCH  28  29
ENDBRANCH  27  28
ENDBRANCH  26  27
ENDBRANCH  25  26
ENDBRANCH  24  25
ENDBRANCH  23  24
ENDBRANCH  22  23
ENDBRANCH  21  22
ENDBRANCH  20  21
ENDBRANCH  19  20
ENDBRANCH  18  19
ENDBRANCH   1  18
TORSDOF 28
ENDMDL
MODEL 6
REMARK VINA RESULT:    -5.876      2.498      4.873
REMARK INTER + INTRA:         -20.619
REMARK INTER:                 -16.354
REMARK INTRA:                  -4.265
REMARK UNBOUND:                -5.124
REMARK SMILES CCCCCCCCCCCCCCCCCCCCCCCCCCCCCC(=O)[O-]
REMARK SMILES IDX 16 1 17 2 18 3 19 4 20 5 21 6 22 7 23 8 24 9 25 10 26 11
REMARK SMILES IDX 27 12 28 13 29 14 30 15 31 16 32 17 15 18 14 19 13 20 12 21
REMARK SMILES IDX 11 22 10 23 9 24 8 25 7 26 6 27 5 28 4 29 3 30 2 31 1 32
REMARK H PARENT
REMARK Flexibility Score: inf
ROOT
ATOM      1  C   UNL     1      69.874   4.852  22.894  1.00  0.00     0.000 C 
ENDROOT
BRANCH   1   2
ATOM      2  C   UNL     1      71.003   4.435  21.941  1.00  0.00     0.000 C 
BRANCH   2   3
ATOM      3  C   UNL     1      71.772   3.229  22.500  1.00  0.00     0.000 C 
BRANCH   3   4
ATOM      4  C   UNL     1      73.261   3.231  22.111  1.00  0.00     0.000 C 
BRANCH   4   5
ATOM      5  C   UNL     1      73.595   2.499  20.793  1.00  0.00     0.000 C 
BRANCH   5   6
ATOM      6  C   UNL     1      75.096   2.395  20.464  1.00  0.00     0.000 C 
BRANCH   6   7
ATOM      7  C   UNL     1      76.038   2.514  21.678  1.00  0.00     0.000 C 
BRANCH   7   8
ATOM      8  C   UNL     1      77.440   3.063  21.331  1.00  0.00     0.000 C 
BRANCH   8   9
ATOM      9  C   UNL     1      77.612   4.542  21.722  1.00  0.00     0.000 C 
BRANCH   9  10
ATOM     10  C   UNL     1      76.623   4.983  22.812  1.00  0.00     0.000 C 
BRANCH  10  11
ATOM     11  C   UNL     1      75.654   6.074  22.326  1.00  0.00     0.000 C 
BRANCH  11  12
ATOM     12  C   UNL     1      75.605   6.180  20.793  1.00  0.00     0.000 C 
BRANCH  12  13
ATOM     13  C   UNL     1      74.166   6.295  20.257  1.00  0.00     0.006 C 
BRANCH  13  14
ATOM     14  C   UNL     1      73.426   7.511  20.832  1.00  0.00     0.053 C 
BRANCH  14  15
ATOM     15  C   UNL     1      72.101   7.728  20.168  1.00  0.00     0.041 C 
ATOM     16  O   UNL     1      71.270   8.538  20.660  1.00  0.00    -0.550 OA
ATOM     17  O   UNL     1      71.785   7.041  19.003  1.00  0.00    -0.550 OA
ENDBRANCH  14  15
ENDBRANCH  13  14
ENDBRANCH  12  13
ENDBRANCH  11  12
ENDBRANCH  10  11
ENDBRANCH   9  10
ENDBRANCH   8   9
ENDBRANCH   7   8
ENDBRANCH   6   7
ENDBRANCH   5   6
ENDBRANCH   4   5
ENDBRANCH   3   4
ENDBRANCH   2   3
ENDBRANCH   1   2
BRANCH   1  18
ATOM     18  C   UNL     1      69.840   6.368  23.157  1.00  0.00     0.000 C 
BRANCH  18  19
ATOM     19  C   UNL     1      68.634   7.108  22.546  1.00  0.00     0.000 C 
BRANCH  19  20
ATOM     20  C   UNL     1      67.968   6.401  21.348  1.00  0.00     0.000 C 
BRANCH  20  21
ATOM     21  C   UNL     1      66.562   6.913  20.986  1.00  0.00     0.000 C 
BRANCH  21  22
ATOM     22  C   UNL     1      65.637   5.798  20.471  1.00  0.00     0.000 C 
BRANCH  22  23
ATOM     23  C   UNL     1      66.380   4.474  20.208  1.00  0.00     0.000 C 
BRANCH  23  24
ATOM     24  C   UNL     1      65.777   3.591  19.098  1.00  0.00    -0.000 C 
BRANCH  24  25
ATOM     25  C   UNL     1      64.276   3.327  19.288  1.00  0.00    -0.000 C 
BRANCH  25  26
ATOM     26  C   UNL     1      63.970   1.822  19.257  1.00  0.00    -0.000 C 
BRANCH  26  27
ATOM     27  C   UNL     1      63.604   1.257  20.642  1.00  0.00    -0.000 C 
BRANCH  27  28
ATOM     28  C   UNL     1      63.970   2.166  21.829  1.00  0.00    -0.000 C 
BRANCH  28  29
ATOM     29  C   UNL     1      65.064   1.566  22.728  1.00  0.00    -0.000 C 
BRANCH  29  30
ATOM     30  C   UNL     1      65.382   2.470  23.938  1.00  0.00    -0.000 C 
BRANCH  30  31
ATOM     31  C   UNL     1      65.254   3.972  23.635  1.00  0.00    -0.003 C 
ATOM     32  C   UNL     1      66.314   4.817  24.338  1.00  0.00     0.004 C 
ENDBRANCH  30  31
ENDBRANCH  29  30
ENDBRANCH  28  29
ENDBRANCH  27  28
ENDBRANCH  26  27
ENDBRANCH  25  26
ENDBRANCH  24  25
ENDBRANCH  23  24
ENDBRANCH  22  23
ENDBRANCH  21  22
ENDBRANCH  20  21
ENDBRANCH  19  20
ENDBRANCH  18  19
ENDBRANCH   1  18
TORSDOF 28
ENDMDL
MODEL 7
REMARK VINA RESULT:    -5.861      1.910      6.778
REMARK INTER + INTRA:         -20.580
REMARK INTER:                 -15.375
REMARK INTRA:                  -5.205
REMARK UNBOUND:                -5.124
REMARK SMILES CCCCCCCCCCCCCCCCCCCCCCCCCCCCCC(=O)[O-]
REMARK SMILES IDX 16 1 17 2 18 3 19 4 20 5 21 6 22 7 23 8 24 9 25 10 26 11
REMARK SMILES IDX 27 12 28 13 29 14 30 15 31 16 32 17 15 18 14 19 13 20 12 21
REMARK SMILES IDX 11 22 10 23 9 24 8 25 7 26 6 27 5 28 4 29 3 30 2 31 1 32
REMARK H PARENT
REMARK Flexibility Score: inf
ROOT
ATOM      1  C   UNL     1      63.397   1.141  19.384  1.00  0.00     0.000 C 
ENDROOT
BRANCH   1   2
ATOM      2  C   UNL     1      61.928   1.513  19.632  1.00  0.00     0.000 C 
BRANCH   2   3
ATOM      3  C   UNL     1      61.736   3.036  19.587  1.00  0.00     0.000 C 
BRANCH   3   4
ATOM      4  C   UNL     1      60.996   3.586  20.819  1.00  0.00     0.000 C 
BRANCH   4   5
ATOM      5  C   UNL     1      61.898   4.238  21.889  1.00  0.00     0.000 C 
BRANCH   5   6
ATOM      6  C   UNL     1      62.396   3.289  22.994  1.00  0.00     0.000 C 
BRANCH   6   7
ATOM      7  C   UNL     1      63.928   3.196  23.131  1.00  0.00     0.000 C 
BRANCH   7   8
ATOM      8  C   UNL     1      64.605   4.526  23.526  1.00  0.00     0.000 C 
BRANCH   8   9
ATOM      9  C   UNL     1      66.040   4.332  24.049  1.00  0.00     0.000 C 
BRANCH   9  10
ATOM     10  C   UNL     1      66.738   3.119  23.415  1.00  0.00     0.000 C 
BRANCH  10  11
ATOM     11  C   UNL     1      68.236   3.362  23.164  1.00  0.00     0.000 C 
BRANCH  11  12
ATOM     12  C   UNL     1      68.780   4.564  23.954  1.00  0.00     0.000 C 
BRANCH  12  13
ATOM     13  C   UNL     1      70.234   4.904  23.583  1.00  0.00     0.006 C 
BRANCH  13  14
ATOM     14  C   UNL     1      70.553   4.575  22.118  1.00  0.00     0.053 C 
BRANCH  14  15
ATOM     15  C   UNL     1      71.652   5.436  21.575  1.00  0.00     0.041 C 
ATOM     16  O   UNL     1      71.429   6.642  21.283  1.00  0.00    -0.550 OA
ATOM     17  O   UNL     1      72.925   4.909  21.395  1.00  0.00    -0.550 OA
ENDBRANCH  14  15
ENDBRANCH  13  14
ENDBRANCH  12  13
ENDBRANCH  11  12
ENDBRANCH  10  11
ENDBRANCH   9  10
ENDBRANCH   8   9
ENDBRANCH   7   8
ENDBRANCH   6   7
ENDBRANCH   5   6
ENDBRANCH   4   5
ENDBRANCH   3   4
ENDBRANCH   2   3
ENDBRANCH   1   2
BRANCH   1  18
ATOM     18  C   UNL     1      64.379   2.226  19.860  1.00  0.00     0.000 C 
BRANCH  18  19
ATOM     19  C   UNL     1      65.302   2.794  18.765  1.00  0.00     0.000 C 
BRANCH  19  20
ATOM     20  C   UNL     1      65.084   4.283  18.431  1.00  0.00     0.000 C 
BRANCH  20  21
ATOM     21  C   UNL     1      65.000   5.221  19.649  1.00  0.00     0.000 C 
BRANCH  21  22
ATOM     22  C   UNL     1      66.339   5.349  20.394  1.00  0.00     0.000 C 
BRANCH  22  23
ATOM     23  C   UNL     1      66.491   6.692  21.132  1.00  0.00     0.000 C 
BRANCH  23  24
ATOM     24  C   UNL     1      67.913   7.286  21.131  1.00  0.00    -0.000 C 
BRANCH  24  25
ATOM     25  C   UNL     1      68.343   7.822  22.504  1.00  0.00    -0.000 C 
BRANCH  25  26
ATOM     26  C   UNL     1      69.082   9.161  22.370  1.00  0.00    -0.000 C 
BRANCH  26  27
ATOM     27  C   UNL     1      68.286  10.345  22.950  1.00  0.00    -0.000 C 
BRANCH  27  28
ATOM     28  C   UNL     1      68.007  11.486  21.954  1.00  0.00    -0.000 C 
BRANCH  28  29
ATOM     29  C   UNL     1      66.507  11.702  21.695  1.00  0.00    -0.000 C 
BRANCH  29  30
ATOM     30  C   UNL     1      65.751  10.367  21.516  1.00  0.00    -0.000 C 
BRANCH  30  31
ATOM     31  C   UNL     1      65.152  10.182  20.113  1.00  0.00    -0.003 C 
ATOM     32  C   UNL     1      66.198   9.832  19.057  1.00  0.00     0.004 C 
ENDBRANCH  30  31
ENDBRANCH  29  30
ENDBRANCH  28  29
ENDBRANCH  27  28
ENDBRANCH  26  27
ENDBRANCH  25  26
ENDBRANCH  24  25
ENDBRANCH  23  24
ENDBRANCH  22  23
ENDBRANCH  21  22
ENDBRANCH  20  21
ENDBRANCH  19  20
ENDBRANCH  18  19
ENDBRANCH   1  18
TORSDOF 28
ENDMDL
MODEL 8
REMARK VINA RESULT:    -5.858      1.341      6.923
REMARK INTER + INTRA:         -20.572
REMARK INTER:                 -15.492
REMARK INTRA:                  -5.079
REMARK UNBOUND:                -5.124
REMARK SMILES CCCCCCCCCCCCCCCCCCCCCCCCCCCCCC(=O)[O-]
REMARK SMILES IDX 16 1 17 2 18 3 19 4 20 5 21 6 22 7 23 8 24 9 25 10 26 11
REMARK SMILES IDX 27 12 28 13 29 14 30 15 31 16 32 17 15 18 14 19 13 20 12 21
REMARK SMILES IDX 11 22 10 23 9 24 8 25 7 26 6 27 5 28 4 29 3 30 2 31 1 32
REMARK H PARENT
REMARK Flexibility Score: inf
ROOT
ATOM      1  C   UNL     1      63.190   2.893  23.303  1.00  0.00     0.000 C 
ENDROOT
BRANCH   1   2
ATOM      2  C   UNL     1      63.333   4.222  22.547  1.00  0.00     0.000 C 
BRANCH   2   3
ATOM      3  C   UNL     1      62.097   4.490  21.676  1.00  0.00     0.000 C 
BRANCH   3   4
ATOM      4  C   UNL     1      61.329   3.207  21.311  1.00  0.00     0.000 C 
BRANCH   4   5
ATOM      5  C   UNL     1      61.672   2.606  19.931  1.00  0.00     0.000 C 
BRANCH   5   6
ATOM      6  C   UNL     1      62.479   1.296  19.969  1.00  0.00     0.000 C 
BRANCH   6   7
ATOM      7  C   UNL     1      63.814   1.330  19.200  1.00  0.00     0.000 C 
BRANCH   7   8
ATOM      8  C   UNL     1      64.750   2.485  19.618  1.00  0.00     0.000 C 
BRANCH   8   9
ATOM      9  C   UNL     1      64.866   3.577  18.540  1.00  0.00     0.000 C 
BRANCH   9  10
ATOM     10  C   UNL     1      65.230   4.950  19.127  1.00  0.00     0.000 C 
BRANCH  10  11
ATOM     11  C   UNL     1      66.188   4.846  20.326  1.00  0.00     0.000 C 
BRANCH  11  12
ATOM     12  C   UNL     1      66.362   6.186  21.059  1.00  0.00     0.000 C 
BRANCH  12  13
ATOM     13  C   UNL     1      65.769   7.369  20.273  1.00  0.00     0.006 C 
BRANCH  13  14
ATOM     14  C   UNL     1      66.608   8.646  20.420  1.00  0.00     0.053 C 
BRANCH  14  15
ATOM     15  C   UNL     1      65.951   9.828  19.777  1.00  0.00     0.041 C 
ATOM     16  O   UNL     1      65.141   9.665  18.824  1.00  0.00    -0.550 OA
ATOM     17  O   UNL     1      66.229  11.112  20.231  1.00  0.00    -0.550 OA
ENDBRANCH  14  15
ENDBRANCH  13  14
ENDBRANCH  12  13
ENDBRANCH  11  12
ENDBRANCH  10  11
ENDBRANCH   9  10
ENDBRANCH   8   9
ENDBRANCH   7   8
ENDBRANCH   6   7
ENDBRANCH   5   6
ENDBRANCH   4   5
ENDBRANCH   3   4
ENDBRANCH   2   3
ENDBRANCH   1   2
BRANCH   1  18
ATOM     18  C   UNL     1      64.407   1.968  23.124  1.00  0.00     0.000 C 
BRANCH  18  19
ATOM     19  C   UNL     1      65.777   2.669  23.205  1.00  0.00     0.000 C 
BRANCH  19  20
ATOM     20  C   UNL     1      66.050   3.426  24.520  1.00  0.00     0.000 C 
BRANCH  20  21
ATOM     21  C   UNL     1      66.910   4.695  24.377  1.00  0.00     0.000 C 
BRANCH  21  22
ATOM     22  C   UNL     1      68.417   4.392  24.354  1.00  0.00     0.000 C 
BRANCH  22  23
ATOM     23  C   UNL     1      69.110   4.882  23.069  1.00  0.00     0.000 C 
BRANCH  23  24
ATOM     24  C   UNL     1      70.555   5.387  23.252  1.00  0.00    -0.000 C 
BRANCH  24  25
ATOM     25  C   UNL     1      70.649   6.917  23.353  1.00  0.00    -0.000 C 
BRANCH  25  26
ATOM     26  C   UNL     1      69.674   7.598  22.381  1.00  0.00    -0.000 C 
BRANCH  26  27
ATOM     27  C   UNL     1      70.390   8.364  21.254  1.00  0.00    -0.000 C 
BRANCH  27  28
ATOM     28  C   UNL     1      70.275   7.720  19.860  1.00  0.00    -0.000 C 
BRANCH  28  29
ATOM     29  C   UNL     1      71.642   7.370  19.248  1.00  0.00    -0.000 C 
BRANCH  29  30
ATOM     30  C   UNL     1      72.444   6.395  20.137  1.00  0.00    -0.000 C 
BRANCH  30  31
ATOM     31  C   UNL     1      73.870   6.876  20.447  1.00  0.00    -0.003 C 
ATOM     32  C   UNL     1      74.114   7.108  21.936  1.00  0.00     0.004 C 
ENDBRANCH  30  31
ENDBRANCH  29  30
ENDBRANCH  28  29
ENDBRANCH  27  28
ENDBRANCH  26  27
ENDBRANCH  25  26
ENDBRANCH  24  25
ENDBRANCH  23  24
ENDBRANCH  22  23
ENDBRANCH  21  22
ENDBRANCH  20  21
ENDBRANCH  19  20
ENDBRANCH  18  19
ENDBRANCH   1  18
TORSDOF 28
ENDMDL
MODEL 9
REMARK VINA RESULT:    -5.858      2.501      4.718
REMARK INTER + INTRA:         -20.570
REMARK INTER:                 -15.676
REMARK INTRA:                  -4.894
REMARK UNBOUND:                -5.124
REMARK SMILES CCCCCCCCCCCCCCCCCCCCCCCCCCCCCC(=O)[O-]
REMARK SMILES IDX 16 1 17 2 18 3 19 4 20 5 21 6 22 7 23 8 24 9 25 10 26 11
REMARK SMILES IDX 27 12 28 13 29 14 30 15 31 16 32 17 15 18 14 19 13 20 12 21
REMARK SMILES IDX 11 22 10 23 9 24 8 25 7 26 6 27 5 28 4 29 3 30 2 31 1 32
REMARK H PARENT
REMARK Flexibility Score: inf
ROOT
ATOM      1  C   UNL     1      63.488   4.040  22.848  1.00  0.00     0.000 C 
ENDROOT
BRANCH   1   2
ATOM      2  C   UNL     1      63.268   2.589  23.302  1.00  0.00     0.000 C 
BRANCH   2   3
ATOM      3  C   UNL     1      64.599   1.931  23.690  1.00  0.00     0.000 C 
BRANCH   3   4
ATOM      4  C   UNL     1      65.816   2.837  23.430  1.00  0.00     0.000 C 
BRANCH   4   5
ATOM      5  C   UNL     1      66.430   3.490  24.687  1.00  0.00     0.000 C 
BRANCH   5   6
ATOM      6  C   UNL     1      67.598   4.456  24.419  1.00  0.00     0.000 C 
BRANCH   6   7
ATOM      7  C   UNL     1      68.539   4.039  23.272  1.00  0.00     0.000 C 
BRANCH   7   8
ATOM      8  C   UNL     1      69.669   5.052  22.988  1.00  0.00     0.000 C 
BRANCH   8   9
ATOM      9  C   UNL     1      70.137   5.025  21.521  1.00  0.00     0.000 C 
BRANCH   9  10
ATOM     10  C   UNL     1      71.590   4.545  21.375  1.00  0.00     0.000 C 
BRANCH  10  11
ATOM     11  C   UNL     1      71.892   3.302  22.228  1.00  0.00     0.000 C 
BRANCH  11  12
ATOM     12  C   UNL     1      73.187   2.592  21.798  1.00  0.00     0.000 C 
BRANCH  12  13
ATOM     13  C   UNL     1      73.980   3.397  20.753  1.00  0.00     0.006 C 
BRANCH  13  14
ATOM     14  C   UNL     1      75.370   3.802  21.263  1.00  0.00     0.053 C 
BRANCH  14  15
ATOM     15  C   UNL     1      75.598   5.279  21.163  1.00  0.00     0.041 C 
ATOM     16  O   UNL     1      74.773   6.009  20.551  1.00  0.00    -0.550 OA
ATOM     17  O   UNL     1      76.720   5.852  21.751  1.00  0.00    -0.550 OA
ENDBRANCH  14  15
ENDBRANCH  13  14
ENDBRANCH  12  13
ENDBRANCH  11  12
ENDBRANCH  10  11
ENDBRANCH   9  10
ENDBRANCH   8   9
ENDBRANCH   7   8
ENDBRANCH   6   7
ENDBRANCH   5   6
ENDBRANCH   4   5
ENDBRANCH   3   4
ENDBRANCH   2   3
ENDBRANCH   1   2
BRANCH   1  18
ATOM     18  C   UNL     1      62.474   4.496  21.784  1.00  0.00     0.000 C 
BRANCH  18  19
ATOM     19  C   UNL     1      61.175   3.667  21.723  1.00  0.00     0.000 C 
BRANCH  19  20
ATOM     20  C   UNL     1      60.920   2.944  20.386  1.00  0.00     0.000 C 
BRANCH  20  21
ATOM     21  C   UNL     1      61.410   1.485  20.329  1.00  0.00     0.000 C 
BRANCH  21  22
ATOM     22  C   UNL     1      62.545   1.279  19.312  1.00  0.00     0.000 C 
BRANCH  22  23
ATOM     23  C   UNL     1      63.922   1.089  19.977  1.00  0.00     0.000 C 
BRANCH  23  24
ATOM     24  C   UNL     1      64.946   2.207  19.703  1.00  0.00    -0.000 C 
BRANCH  24  25
ATOM     25  C   UNL     1      64.373   3.354  18.857  1.00  0.00    -0.000 C 
BRANCH  25  26
ATOM     26  C   UNL     1      65.098   4.675  19.152  1.00  0.00    -0.000 C 
BRANCH  26  27
ATOM     27  C   UNL     1      66.151   4.545  20.268  1.00  0.00    -0.000 C 
BRANCH  27  28
ATOM     28  C   UNL     1      66.305   5.790  21.160  1.00  0.00    -0.000 C 
BRANCH  28  29
ATOM     29  C   UNL     1      65.987   7.100  20.420  1.00  0.00    -0.000 C 
BRANCH  29  30
ATOM     30  C   UNL     1      67.113   8.144  20.580  1.00  0.00    -0.000 C 
BRANCH  30  31
ATOM     31  C   UNL     1      67.541   8.370  22.039  1.00  0.00    -0.003 C 
ATOM     32  C   UNL     1      69.044   8.589  22.195  1.00  0.00     0.004 C 
ENDBRANCH  30  31
ENDBRANCH  29  30
ENDBRANCH  28  29
ENDBRANCH  27  28
ENDBRANCH  26  27
ENDBRANCH  25  26
ENDBRANCH  24  25
ENDBRANCH  23  24
ENDBRANCH  22  23
ENDBRANCH  21  22
ENDBRANCH  20  21
ENDBRANCH  19  20
ENDBRANCH  18  19
ENDBRANCH   1  18
TORSDOF 28
ENDMDL
