MODEL 1
REMARK VINA RESULT:    -3.839      0.000      0.000
REMARK INTER + INTRA:          -7.845
REMARK INTER:                  -6.532
REMARK INTRA:                  -1.313
REMARK UNBOUND:                -1.313
REMARK SMILES CCCCCCCCCCCCCC(=O)[O-]
REMARK SMILES IDX 8 1 9 2 10 3 11 4 12 5 13 6 14 7 15 8 16 9 7 10 6 11 5 12
REMARK SMILES IDX 4 13 3 14 2 15 1 16
REMARK H PARENT
REMARK Flexibility Score: inf
ROOT
ATOM      1  C   UNL     1      14.086 -16.318  -7.007  1.00  0.00     0.000 C 
ENDROOT
BRANCH   1   2
ATOM      2  C   UNL     1      13.028 -17.134  -7.766  1.00  0.00     0.000 C 
BRANCH   2   3
ATOM      3  C   UNL     1      12.038 -17.843  -6.828  1.00  0.00     0.000 C 
BRANCH   3   4
ATOM      4  C   UNL     1      10.712 -18.196  -7.524  1.00  0.00     0.000 C 
BRANCH   4   5
ATOM      5  C   UNL     1      10.810 -19.481  -8.364  1.00  0.00     0.006 C 
BRANCH   5   6
ATOM      6  C   UNL     1      10.531 -19.239  -9.852  1.00  0.00     0.053 C 
BRANCH   6   7
ATOM      7  C   UNL     1      11.814 -19.070 -10.603  1.00  0.00     0.041 C 
ATOM      8  O   UNL     1      12.091 -17.967 -11.143  1.00  0.00    -0.550 OA
ATOM      9  O   UNL     1      12.726 -20.115 -10.665  1.00  0.00    -0.550 OA
ENDBRANCH   6   7
ENDBRANCH   5   6
ENDBRANCH   4   5
ENDBRANCH   3   4
ENDBRANCH   2   3
ENDBRANCH   1   2
BRANCH   1  10
ATOM     10  C   UNL     1      14.027 -14.836  -7.411  1.00  0.00     0.000 C 
BRANCH  10  11
ATOM     11  C   UNL     1      13.579 -13.924  -6.257  1.00  0.00    -0.000 C 
BRANCH  11  12
ATOM     12  C   UNL     1      13.181 -14.714  -4.999  1.00  0.00    -0.000 C 
BRANCH  12  13
ATOM     13  C   UNL     1      11.753 -14.398  -4.521  1.00  0.00    -0.000 C 
BRANCH  13  14
ATOM     14  C   UNL     1      10.914 -15.621  -4.098  1.00  0.00    -0.000 C 
BRANCH  14  15
ATOM     15  C   UNL     1       9.626 -15.838  -4.913  1.00  0.00    -0.003 C 
ATOM     16  C   UNL     1       8.586 -16.674  -4.169  1.00  0.00     0.004 C 
ENDBRANCH  14  15
ENDBRANCH  13  14
ENDBRANCH  12  13
ENDBRANCH  11  12
ENDBRANCH  10  11
ENDBRANCH   1  10
TORSDOF 12
ENDMDL
MODEL 2
REMARK VINA RESULT:    -3.732     11.918     13.918
REMARK INTER + INTRA:          -7.663
REMARK INTER:                  -6.923
REMARK INTRA:                  -0.740
REMARK UNBOUND:                -1.313
REMARK SMILES CCCCCCCCCCCCCC(=O)[O-]
REMARK SMILES IDX 8 1 9 2 10 3 11 4 12 5 13 6 14 7 15 8 16 9 7 10 6 11 5 12
REMARK SMILES IDX 4 13 3 14 2 15 1 16
REMARK H PARENT
REMARK Flexibility Score: inf
ROOT
ATOM      1  C   UNL     1      -0.593 -18.391  -8.175  1.00  0.00     0.000 C 
ENDROOT
BRANCH   1   2
ATOM      2  C   UNL     1      -1.043 -16.928  -8.032  1.00  0.00     0.000 C 
BRANCH   2   3
ATOM      3  C   UNL     1      -0.045 -15.936  -8.649  1.00  0.00     0.000 C 
BRANCH   3   4
ATOM      4  C   UNL     1       0.346 -14.809  -7.678  1.00  0.00     0.000 C 
BRANCH   4   5
ATOM      5  C   UNL     1      -0.325 -14.955  -6.302  1.00  0.00     0.006 C 
BRANCH   5   6
ATOM      6  C   UNL     1      -0.958 -13.648  -5.810  1.00  0.00     0.053 C 
BRANCH   6   7
ATOM      7  C   UNL     1      -0.331 -13.216  -4.523  1.00  0.00     0.041 C 
ATOM      8  O   UNL     1       0.015 -12.016  -4.357  1.00  0.00    -0.550 OA
ATOM      9  O   UNL     1      -0.172 -14.127  -3.486  1.00  0.00    -0.550 OA
ENDBRANCH   6   7
ENDBRANCH   5   6
ENDBRANCH   4   5
ENDBRANCH   3   4
ENDBRANCH   2   3
ENDBRANCH   1   2
BRANCH   1  10
ATOM     10  C   UNL     1       0.855 -18.568  -7.690  1.00  0.00     0.000 C 
BRANCH  10  11
ATOM     11  C   UNL     1       1.363 -20.010  -7.853  1.00  0.00    -0.000 C 
BRANCH  11  12
ATOM     12  C   UNL     1       0.377 -20.900  -8.628  1.00  0.00    -0.000 C 
BRANCH  12  13
ATOM     13  C   UNL     1       1.028 -22.186  -9.166  1.00  0.00    -0.000 C 
BRANCH  13  14
ATOM     14  C   UNL     1       0.174 -22.987 -10.169  1.00  0.00    -0.000 C 
BRANCH  14  15
ATOM     15  C   UNL     1      -0.999 -22.209 -10.791  1.00  0.00    -0.003 C 
ATOM     16  C   UNL     1      -1.247 -22.573 -12.254  1.00  0.00     0.004 C 
ENDBRANCH  14  15
ENDBRANCH  13  14
ENDBRANCH  12  13
ENDBRANCH  11  12
ENDBRANCH  10  11
ENDBRANCH   1  10
TORSDOF 12
ENDMDL
MODEL 3
REMARK VINA RESULT:    -3.713     12.292     14.636
REMARK INTER + INTRA:          -7.631
REMARK INTER:                  -5.709
REMARK INTRA:                  -1.922
REMARK UNBOUND:                -1.313
REMARK SMILES CCCCCCCCCCCCCC(=O)[O-]
REMARK SMILES IDX 8 1 9 2 10 3 11 4 12 5 13 6 14 7 15 8 16 9 7 10 6 11 5 12
REMARK SMILES IDX 4 13 3 14 2 15 1 16
REMARK H PARENT
REMARK Flexibility Score: inf
ROOT
ATOM      1  C   UNL     1      -0.118 -18.207  -8.028  1.00  0.00     0.000 C 
ENDROOT
BRANCH   1   2
ATOM      2  C   UNL     1      -0.131 -16.908  -8.848  1.00  0.00     0.000 C 
BRANCH   2   3
ATOM      3  C   UNL     1      -0.316 -15.656  -7.976  1.00  0.00     0.000 C 
BRANCH   3   4
ATOM      4  C   UNL     1       0.369 -15.784  -6.604  1.00  0.00     0.000 C 
BRANCH   4   5
ATOM      5  C   UNL     1       0.341 -14.470  -5.806  1.00  0.00     0.006 C 
BRANCH   5   6
ATOM      6  C   UNL     1      -1.083 -13.999  -5.488  1.00  0.00     0.053 C 
BRANCH   6   7
ATOM      7  C   UNL     1      -1.050 -12.706  -4.737  1.00  0.00     0.041 C 
ATOM      8  O   UNL     1      -2.124 -12.153  -4.379  1.00  0.00    -0.550 OA
ATOM      9  O   UNL     1       0.167 -12.135  -4.388  1.00  0.00    -0.550 OA
ENDBRANCH   6   7
ENDBRANCH   5   6
ENDBRANCH   4   5
ENDBRANCH   3   4
ENDBRANCH   2   3
ENDBRANCH   1   2
BRANCH   1  10
ATOM     10  C   UNL     1      -1.198 -19.180  -8.527  1.00  0.00     0.000 C 
BRANCH  10  11
ATOM     11  C   UNL     1      -2.029 -18.602  -9.684  1.00  0.00    -0.000 C 
BRANCH  11  12
ATOM     12  C   UNL     1      -3.499 -18.372  -9.298  1.00  0.00    -0.000 C 
BRANCH  12  13
ATOM     13  C   UNL     1      -3.845 -16.883  -9.121  1.00  0.00    -0.000 C 
BRANCH  13  14
ATOM     14  C   UNL     1      -4.005 -16.413  -7.661  1.00  0.00    -0.000 C 
BRANCH  14  15
ATOM     15  C   UNL     1      -3.962 -17.535  -6.609  1.00  0.00    -0.003 C 
ATOM     16  C   UNL     1      -2.827 -17.363  -5.601  1.00  0.00     0.004 C 
ENDBRANCH  14  15
ENDBRANCH  13  14
ENDBRANCH  12  13
ENDBRANCH  11  12
ENDBRANCH  10  11
ENDBRANCH   1  10
TORSDOF 12
ENDMDL
MODEL 4
REMARK VINA RESULT:    -3.689     11.755     14.130
REMARK INTER + INTRA:          -7.589
REMARK INTER:                  -5.341
REMARK INTRA:                  -2.248
REMARK UNBOUND:                -1.313
REMARK SMILES CCCCCCCCCCCCCC(=O)[O-]
REMARK SMILES IDX 8 1 9 2 10 3 11 4 12 5 13 6 14 7 15 8 16 9 7 10 6 11 5 12
REMARK SMILES IDX 4 13 3 14 2 15 1 16
REMARK H PARENT
REMARK Flexibility Score: inf
ROOT
ATOM      1  C   UNL     1      -3.173 -16.617  -7.051  1.00  0.00     0.000 C 
ENDROOT
BRANCH   1   2
ATOM      2  C   UNL     1      -2.099 -16.257  -8.089  1.00  0.00     0.000 C 
BRANCH   2   3
ATOM      3  C   UNL     1      -1.494 -14.863  -7.859  1.00  0.00     0.000 C 
BRANCH   3   4
ATOM      4  C   UNL     1      -0.079 -14.925  -7.258  1.00  0.00     0.000 C 
BRANCH   4   5
ATOM      5  C   UNL     1      -0.010 -14.312  -5.849  1.00  0.00     0.006 C 
BRANCH   5   6
ATOM      6  C   UNL     1      -1.302 -13.588  -5.453  1.00  0.00     0.053 C 
BRANCH   6   7
ATOM      7  C   UNL     1      -0.999 -12.434  -4.551  1.00  0.00     0.041 C 
ATOM      8  O   UNL     1       0.191 -12.063  -4.375  1.00  0.00    -0.550 OA
ATOM      9  O   UNL     1      -2.034 -11.736  -3.942  1.00  0.00    -0.550 OA
ENDBRANCH   6   7
ENDBRANCH   5   6
ENDBRANCH   4   5
ENDBRANCH   3   4
ENDBRANCH   2   3
ENDBRANCH   1   2
BRANCH   1  10
ATOM     10  C   UNL     1      -2.686 -17.746  -6.129  1.00  0.00     0.000 C 
BRANCH  10  11
ATOM     11  C   UNL     1      -2.083 -17.221  -4.815  1.00  0.00    -0.000 C 
BRANCH  11  12
ATOM     12  C   UNL     1      -0.669 -17.766  -4.555  1.00  0.00    -0.000 C 
BRANCH  12  13
ATOM     13  C   UNL     1      -0.164 -18.680  -5.685  1.00  0.00    -0.000 C 
BRANCH  13  14
ATOM     14  C   UNL     1       1.123 -18.206  -6.391  1.00  0.00    -0.000 C 
BRANCH  14  15
ATOM     15  C   UNL     1       1.158 -18.447  -7.910  1.00  0.00    -0.003 C 
ATOM     16  C   UNL     1       0.003 -19.317  -8.401  1.00  0.00     0.004 C 
ENDBRANCH  14  15
ENDBRANCH  13  14
ENDBRANCH  12  13
ENDBRANCH  11  12
ENDBRANCH  10  11
ENDBRANCH   1  10
TORSDOF 12
ENDMDL
MODEL 5
REMARK VINA RESULT:    -3.669     12.328     14.465
REMARK INTER + INTRA:          -7.555
REMARK INTER:                  -5.769
REMARK INTRA:                  -1.786
REMARK UNBOUND:                -1.313
REMARK SMILES CCCCCCCCCCCCCC(=O)[O-]
REMARK SMILES IDX 8 1 9 2 10 3 11 4 12 5 13 6 14 7 15 8 16 9 7 10 6 11 5 12
REMARK SMILES IDX 4 13 3 14 2 15 1 16
REMARK H PARENT
REMARK Flexibility Score: inf
ROOT
ATOM      1  C   UNL     1      -0.059 -19.055  -8.257  1.00  0.00     0.000 C 
ENDROOT
BRANCH   1   2
ATOM      2  C   UNL     1       0.214 -17.642  -7.718  1.00  0.00     0.000 C 
BRANCH   2   3
ATOM      3  C   UNL     1      -0.011 -16.548  -8.774  1.00  0.00     0.000 C 
BRANCH   3   4
ATOM      4  C   UNL     1       0.235 -15.133  -8.222  1.00  0.00     0.000 C 
BRANCH   4   5
ATOM      5  C   UNL     1       0.160 -15.076  -6.687  1.00  0.00     0.006 C 
BRANCH   5   6
ATOM      6  C   UNL     1      -0.832 -14.023  -6.181  1.00  0.00     0.053 C 
BRANCH   6   7
ATOM      7  C   UNL     1      -0.419 -13.522  -4.833  1.00  0.00     0.041 C 
ATOM      8  O   UNL     1      -0.255 -14.328  -3.880  1.00  0.00    -0.550 OA
ATOM      9  O   UNL     1      -0.168 -12.169  -4.641  1.00  0.00    -0.550 OA
ENDBRANCH   6   7
ENDBRANCH   5   6
ENDBRANCH   4   5
ENDBRANCH   3   4
ENDBRANCH   2   3
ENDBRANCH   1   2
BRANCH   1  10
ATOM     10  C   UNL     1      -1.551 -19.404  -8.146  1.00  0.00     0.000 C 
BRANCH  10  11
ATOM     11  C   UNL     1      -2.080 -19.301  -6.706  1.00  0.00    -0.000 C 
BRANCH  11  12
ATOM     12  C   UNL     1      -3.375 -18.478  -6.610  1.00  0.00    -0.000 C 
BRANCH  12  13
ATOM     13  C   UNL     1      -3.121 -16.960  -6.623  1.00  0.00    -0.000 C 
BRANCH  13  14
ATOM     14  C   UNL     1      -3.636 -16.217  -7.873  1.00  0.00    -0.000 C 
BRANCH  14  15
ATOM     15  C   UNL     1      -4.611 -17.021  -8.751  1.00  0.00    -0.003 C 
ATOM     16  C   UNL     1      -4.003 -17.434 -10.090  1.00  0.00     0.004 C 
ENDBRANCH  14  15
ENDBRANCH  13  14
ENDBRANCH  12  13
ENDBRANCH  11  12
ENDBRANCH  10  11
ENDBRANCH   1  10
TORSDOF 12
ENDMDL
MODEL 6
REMARK VINA RESULT:    -3.669     12.299     13.615
REMARK INTER + INTRA:          -7.555
REMARK INTER:                  -6.582
REMARK INTRA:                  -0.973
REMARK UNBOUND:                -1.313
REMARK SMILES CCCCCCCCCCCCCC(=O)[O-]
REMARK SMILES IDX 8 1 9 2 10 3 11 4 12 5 13 6 14 7 15 8 16 9 7 10 6 11 5 12
REMARK SMILES IDX 4 13 3 14 2 15 1 16
REMARK H PARENT
REMARK Flexibility Score: inf
ROOT
ATOM      1  C   UNL     1       0.122 -17.578  -7.477  1.00  0.00     0.000 C 
ENDROOT
BRANCH   1   2
ATOM      2  C   UNL     1       0.551 -18.969  -7.970  1.00  0.00     0.000 C 
BRANCH   2   3
ATOM      3  C   UNL     1      -0.607 -19.759  -8.601  1.00  0.00     0.000 C 
BRANCH   3   4
ATOM      4  C   UNL     1      -1.934 -19.569  -7.847  1.00  0.00     0.000 C 
BRANCH   4   5
ATOM      5  C   UNL     1      -3.129 -19.375  -8.794  1.00  0.00     0.006 C 
BRANCH   5   6
ATOM      6  C   UNL     1      -2.856 -18.334  -9.887  1.00  0.00     0.053 C 
BRANCH   6   7
ATOM      7  C   UNL     1      -3.730 -17.135  -9.697  1.00  0.00     0.041 C 
ATOM      8  O   UNL     1      -3.502 -16.326  -8.760  1.00  0.00    -0.550 OA
ATOM      9  O   UNL     1      -4.768 -16.884 -10.586  1.00  0.00    -0.550 OA
ENDBRANCH   6   7
ENDBRANCH   5   6
ENDBRANCH   4   5
ENDBRANCH   3   4
ENDBRANCH   2   3
ENDBRANCH   1   2
BRANCH   1  10
ATOM     10  C   UNL     1       0.135 -16.561  -8.629  1.00  0.00     0.000 C 
BRANCH  10  11
ATOM     11  C   UNL     1       0.091 -15.105  -8.136  1.00  0.00    -0.000 C 
BRANCH  11  12
ATOM     12  C   UNL     1       0.316 -14.988  -6.619  1.00  0.00    -0.000 C 
BRANCH  12  13
ATOM     13  C   UNL     1      -0.772 -14.158  -5.916  1.00  0.00    -0.000 C 
BRANCH  13  14
ATOM     14  C   UNL     1      -0.426 -13.694  -4.486  1.00  0.00    -0.000 C 
BRANCH  14  15
ATOM     15  C   UNL     1      -0.448 -12.170  -4.274  1.00  0.00    -0.003 C 
ATOM     16  C   UNL     1      -1.816 -11.651  -3.835  1.00  0.00     0.004 C 
ENDBRANCH  14  15
ENDBRANCH  13  14
ENDBRANCH  12  13
ENDBRANCH  11  12
ENDBRANCH  10  11
ENDBRANCH   1  10
TORSDOF 12
ENDMDL
MODEL 7
REMARK VINA RESULT:    -3.608      1.042      3.090
REMARK INTER + INTRA:          -7.452
REMARK INTER:                  -5.981
REMARK INTRA:                  -1.470
REMARK UNBOUND:                -1.313
REMARK SMILES CCCCCCCCCCCCCC(=O)[O-]
REMARK SMILES IDX 8 1 9 2 10 3 11 4 12 5 13 6 14 7 15 8 16 9 7 10 6 11 5 12
REMARK SMILES IDX 4 13 3 14 2 15 1 16
REMARK H PARENT
REMARK Flexibility Score: inf
ROOT
ATOM      1  C   UNL     1      11.322 -18.029  -5.295  1.00  0.00     0.000 C 
ENDROOT
BRANCH   1   2
ATOM      2  C   UNL     1      11.499 -18.961  -6.505  1.00  0.00     0.000 C 
BRANCH   2   3
ATOM      3  C   UNL     1      10.625 -18.555  -7.702  1.00  0.00     0.000 C 
BRANCH   3   4
ATOM      4  C   UNL     1      10.217 -19.756  -8.571  1.00  0.00     0.000 C 
BRANCH   4   5
ATOM      5  C   UNL     1      10.511 -19.532 -10.064  1.00  0.00     0.006 C 
BRANCH   5   6
ATOM      6  C   UNL     1      11.382 -18.295 -10.317  1.00  0.00     0.053 C 
BRANCH   6   7
ATOM      7  C   UNL     1      12.730 -18.701 -10.824  1.00  0.00     0.041 C 
ATOM      8  O   UNL     1      13.544 -17.829 -11.227  1.00  0.00    -0.550 OA
ATOM      9  O   UNL     1      13.107 -20.037 -10.804  1.00  0.00    -0.550 OA
ENDBRANCH   6   7
ENDBRANCH   5   6
ENDBRANCH   4   5
ENDBRANCH   3   4
ENDBRANCH   2   3
ENDBRANCH   1   2
BRANCH   1  10
ATOM     10  C   UNL     1      10.467 -16.807  -5.666  1.00  0.00     0.000 C 
BRANCH  10  11
ATOM     11  C   UNL     1      10.607 -15.656  -4.657  1.00  0.00    -0.000 C 
BRANCH  11  12
ATOM     12  C   UNL     1      12.068 -15.401  -4.251  1.00  0.00    -0.000 C 
BRANCH  12  13
ATOM     13  C   UNL     1      12.772 -14.380  -5.162  1.00  0.00    -0.000 C 
BRANCH  13  14
ATOM     14  C   UNL     1      14.045 -14.892  -5.865  1.00  0.00    -0.000 C 
BRANCH  14  15
ATOM     15  C   UNL     1      13.967 -14.935  -7.401  1.00  0.00    -0.003 C 
ATOM     16  C   UNL     1      13.629 -16.323  -7.942  1.00  0.00     0.004 C 
ENDBRANCH  14  15
ENDBRANCH  13  14
ENDBRANCH  12  13
ENDBRANCH  11  12
ENDBRANCH  10  11
ENDBRANCH   1  10
TORSDOF 12
ENDMDL
MODEL 8
REMARK VINA RESULT:    -3.598     11.931     14.038
REMARK INTER + INTRA:          -7.434
REMARK INTER:                  -6.295
REMARK INTRA:                  -1.139
REMARK UNBOUND:                -1.313
REMARK SMILES CCCCCCCCCCCCCC(=O)[O-]
REMARK SMILES IDX 8 1 9 2 10 3 11 4 12 5 13 6 14 7 15 8 16 9 7 10 6 11 5 12
REMARK SMILES IDX 4 13 3 14 2 15 1 16
REMARK H PARENT
REMARK Flexibility Score: inf
ROOT
ATOM      1  C   UNL     1      -2.080 -15.794  -8.301  1.00  0.00     0.000 C 
ENDROOT
BRANCH   1   2
ATOM      2  C   UNL     1      -1.516 -14.755  -7.319  1.00  0.00     0.000 C 
BRANCH   2   3
ATOM      3  C   UNL     1       0.020 -14.712  -7.317  1.00  0.00     0.000 C 
BRANCH   3   4
ATOM      4  C   UNL     1       0.620 -15.077  -5.948  1.00  0.00     0.000 C 
BRANCH   4   5
ATOM      5  C   UNL     1      -0.456 -15.318  -4.877  1.00  0.00     0.006 C 
BRANCH   5   6
ATOM      6  C   UNL     1      -0.370 -14.321  -3.715  1.00  0.00     0.053 C 
BRANCH   6   7
ATOM      7  C   UNL     1      -0.799 -12.960  -4.163  1.00  0.00     0.041 C 
ATOM      8  O   UNL     1      -2.018 -12.713  -4.361  1.00  0.00    -0.550 OA
ATOM      9  O   UNL     1       0.141 -11.948  -4.313  1.00  0.00    -0.550 OA
ENDBRANCH   6   7
ENDBRANCH   5   6
ENDBRANCH   4   5
ENDBRANCH   3   4
ENDBRANCH   2   3
ENDBRANCH   1   2
BRANCH   1  10
ATOM     10  C   UNL     1      -1.837 -17.222  -7.787  1.00  0.00     0.000 C 
BRANCH  10  11
ATOM     11  C   UNL     1      -0.886 -18.024  -8.691  1.00  0.00    -0.000 C 
BRANCH  11  12
ATOM     12  C   UNL     1       0.486 -18.264  -8.039  1.00  0.00    -0.000 C 
BRANCH  12  13
ATOM     13  C   UNL     1       0.891 -19.748  -8.027  1.00  0.00    -0.000 C 
BRANCH  13  14
ATOM     14  C   UNL     1      -0.057 -20.696  -8.791  1.00  0.00    -0.000 C 
BRANCH  14  15
ATOM     15  C   UNL     1       0.629 -21.895  -9.467  1.00  0.00    -0.003 C 
ATOM     16  C   UNL     1      -0.250 -22.570 -10.518  1.00  0.00     0.004 C 
ENDBRANCH  14  15
ENDBRANCH  13  14
ENDBRANCH  12  13
ENDBRANCH  11  12
ENDBRANCH  10  11
ENDBRANCH   1  10
TORSDOF 12
ENDMDL
MODEL 9
REMARK VINA RESULT:    -3.575     10.848     13.096
REMARK INTER + INTRA:          -7.396
REMARK INTER:                  -5.683
REMARK INTRA:                  -1.712
REMARK UNBOUND:                -1.313
REMARK SMILES CCCCCCCCCCCCCC(=O)[O-]
REMARK SMILES IDX 8 1 9 2 10 3 11 4 12 5 13 6 14 7 15 8 16 9 7 10 6 11 5 12
REMARK SMILES IDX 4 13 3 14 2 15 1 16
REMARK H PARENT
REMARK Flexibility Score: inf
ROOT
ATOM      1  C   UNL     1      -1.351 -15.150  -7.803  1.00  0.00     0.000 C 
ENDROOT
BRANCH   1   2
ATOM      2  C   UNL     1       0.065 -15.647  -8.139  1.00  0.00     0.000 C 
BRANCH   2   3
ATOM      3  C   UNL     1       0.065 -17.026  -8.815  1.00  0.00     0.000 C 
BRANCH   3   4
ATOM      4  C   UNL     1      -0.621 -18.105  -7.961  1.00  0.00     0.000 C 
BRANCH   4   5
ATOM      5  C   UNL     1      -1.563 -19.000  -8.783  1.00  0.00     0.006 C 
BRANCH   5   6
ATOM      6  C   UNL     1      -2.225 -18.251  -9.948  1.00  0.00     0.053 C 
BRANCH   6   7
ATOM      7  C   UNL     1      -3.632 -17.882  -9.599  1.00  0.00     0.041 C 
ATOM      8  O   UNL     1      -4.012 -16.685  -9.682  1.00  0.00    -0.550 OA
ATOM      9  O   UNL     1      -4.538 -18.868  -9.229  1.00  0.00    -0.550 OA
ENDBRANCH   6   7
ENDBRANCH   5   6
ENDBRANCH   4   5
ENDBRANCH   3   4
ENDBRANCH   2   3
ENDBRANCH   1   2
BRANCH   1  10
ATOM     10  C   UNL     1      -1.348 -14.325  -6.506  1.00  0.00     0.000 C 
BRANCH  10  11
ATOM     11  C   UNL     1      -0.045 -14.485  -5.704  1.00  0.00    -0.000 C 
BRANCH  11  12
ATOM     12  C   UNL     1      -0.289 -15.016  -4.282  1.00  0.00    -0.000 C 
BRANCH  12  13
ATOM     13  C   UNL     1       0.671 -16.156  -3.897  1.00  0.00    -0.000 C 
BRANCH  13  14
ATOM     14  C   UNL     1       0.687 -17.357  -4.864  1.00  0.00    -0.000 C 
BRANCH  14  15
ATOM     15  C   UNL     1       2.086 -17.789  -5.340  1.00  0.00    -0.003 C 
ATOM     16  C   UNL     1       3.022 -16.607  -5.586  1.00  0.00     0.004 C 
ENDBRANCH  14  15
ENDBRANCH  13  14
ENDBRANCH  12  13
ENDBRANCH  11  12
ENDBRANCH  10  11
ENDBRANCH   1  10
TORSDOF 12
ENDMDL
