MODEL 1
REMARK VINA RESULT:    -4.472      0.000      0.000
REMARK INTER + INTRA:          -7.392
REMARK INTER:                  -6.432
REMARK INTRA:                  -0.960
REMARK UNBOUND:                -0.960
REMARK SMILES O=c1c(O[C@H]2O[C@@H](CO)[C@@H](O)[C@H](O)[C@H]2O)c(-c2ccc(O)cc2)oc2cc(O)cc(O)c12
REMARK SMILES IDX 4 1 3 2 16 3 24 4 2 5 25 6 1 7 32 8 26 9 30 10 27 11 29 12
REMARK SMILES IDX 17 13 18 14 19 15 20 16 23 17 22 18 21 19 31 21 28 23 5 25
REMARK SMILES IDX 14 26 6 27 12 28 7 29 10 30 15 31 13 33 8 35 9 36 11 38
REMARK H PARENT 21 20 31 22 28 24 15 32 13 34 9 37 11 39
REMARK Flexibility Score: inf
ROOT
ATOM      1  O   UNL     1       3.562 -17.182   5.874  1.00  0.00    -0.454 OA
ENDROOT
BRANCH   1   2
ATOM      2  C   UNL     1       3.992 -15.859   6.056  1.00  0.00     0.214 A 
ATOM      3  C   UNL     1       4.217 -15.367   7.355  1.00  0.00     0.180 A 
ATOM      4  O   UNL     1       4.394 -14.067   7.563  1.00  0.00    -0.452 OA
ATOM      5  C   UNL     1       4.018 -14.946   4.982  1.00  0.00     0.239 A 
ATOM      6  C   UNL     1       4.383 -13.169   6.590  1.00  0.00     0.146 A 
ATOM      7  O   UNL     1       3.766 -15.350   3.815  1.00  0.00    -0.285 OA
ATOM      8  C   UNL     1       4.245 -13.574   5.242  1.00  0.00     0.111 A 
ATOM      9  C   UNL     1       4.458 -11.811   6.915  1.00  0.00     0.094 A 
ATOM     10  C   UNL     1       4.268 -12.591   4.222  1.00  0.00     0.134 A 
ATOM     11  C   UNL     1       4.386 -10.844   5.912  1.00  0.00     0.123 A 
ATOM     12  C   UNL     1       4.329 -11.235   4.572  1.00  0.00     0.093 A 
BRANCH   3  13
ATOM     13  C   UNL     1       4.175 -16.247   8.525  1.00  0.00     0.021 A 
ATOM     14  C   UNL     1       3.090 -17.117   8.704  1.00  0.00     0.016 A 
ATOM     15  C   UNL     1       3.036 -17.956   9.822  1.00  0.00     0.047 A 
ATOM     16  C   UNL     1       4.079 -17.934  10.762  1.00  0.00     0.115 A 
ATOM     17  C   UNL     1       5.194 -16.196   9.490  1.00  0.00     0.016 A 
ATOM     18  C   UNL     1       5.152 -17.050  10.595  1.00  0.00     0.047 A 
BRANCH  16  19
ATOM     19  O   UNL     1       4.053 -18.778  11.867  1.00  0.00    -0.508 OA
ATOM     20  H   UNL     1       3.375 -19.527  11.954  1.00  0.00     0.293 HD
ENDBRANCH  16  19
ENDBRANCH   3  13
BRANCH  10  21
ATOM     21  O   UNL     1       4.238 -12.951   2.875  1.00  0.00    -0.507 OA
ATOM     22  H   UNL     1       4.135 -13.922   2.585  1.00  0.00     0.293 HD
ENDBRANCH  10  21
BRANCH  11  23
ATOM     23  O   UNL     1       4.337  -9.493   6.234  1.00  0.00    -0.508 OA
ATOM     24  H   UNL     1       3.534  -8.920   6.014  1.00  0.00     0.293 HD
ENDBRANCH  11  23
ENDBRANCH   1   2
BRANCH   1  25
ATOM     25  C   UNL     1       4.388 -18.320   5.573  1.00  0.00     0.339 C 
ATOM     26  C   UNL     1       3.977 -18.972   4.216  1.00  0.00     0.214 C 
ATOM     27  O   UNL     1       4.385 -19.246   6.653  1.00  0.00    -0.332 OA
ATOM     28  C   UNL     1       3.205 -20.278   4.463  1.00  0.00     0.180 C 
ATOM     29  C   UNL     1       5.001 -20.461   6.275  1.00  0.00     0.179 C 
ATOM     30  C   UNL     1       4.064 -21.251   5.316  1.00  0.00     0.177 C 
BRANCH  26  31
ATOM     31  O   UNL     1       3.206 -18.080   3.454  1.00  0.00    -0.384 OA
ATOM     32  H   UNL     1       2.283 -18.104   3.821  1.00  0.00     0.211 HD
ENDBRANCH  26  31
BRANCH  28  33
ATOM     33  O   UNL     1       2.875 -20.861   3.231  1.00  0.00    -0.387 OA
ATOM     34  H   UNL     1       2.002 -20.490   2.955  1.00  0.00     0.211 HD
ENDBRANCH  28  33
BRANCH  29  35
ATOM     35  C   UNL     1       5.422 -21.249   7.522  1.00  0.00     0.191 C 
BRANCH  35  36
ATOM     36  O   UNL     1       5.495 -20.412   8.649  1.00  0.00    -0.394 OA
ATOM     37  H   UNL     1       5.428 -19.475   8.341  1.00  0.00     0.210 HD
ENDBRANCH  35  36
ENDBRANCH  29  35
BRANCH  30  38
ATOM     38  O   UNL     1       3.223 -22.121   6.035  1.00  0.00    -0.387 OA
ATOM     39  H   UNL     1       2.522 -22.433   5.404  1.00  0.00     0.211 HD
ENDBRANCH  30  38
ENDBRANCH   1  25
TORSDOF 11
ENDMDL
MODEL 2
REMARK VINA RESULT:    -4.155      1.442      2.623
REMARK INTER + INTRA:          -6.937
REMARK INTER:                  -7.448
REMARK INTRA:                   0.512
REMARK UNBOUND:                -0.960
REMARK SMILES O=c1c(O[C@H]2O[C@@H](CO)[C@@H](O)[C@H](O)[C@H]2O)c(-c2ccc(O)cc2)oc2cc(O)cc(O)c12
REMARK SMILES IDX 4 1 3 2 16 3 24 4 2 5 25 6 1 7 32 8 26 9 30 10 27 11 29 12
REMARK SMILES IDX 17 13 18 14 19 15 20 16 23 17 22 18 21 19 31 21 28 23 5 25
REMARK SMILES IDX 14 26 6 27 12 28 7 29 10 30 15 31 13 33 8 35 9 36 11 38
REMARK H PARENT 21 20 31 22 28 24 15 32 13 34 9 37 11 39
REMARK Flexibility Score: inf
ROOT
ATOM      1  O   UNL     1       3.088 -18.007   7.318  1.00  0.00    -0.454 OA
ENDROOT
BRANCH   1   2
ATOM      2  C   UNL     1       3.692 -16.781   6.998  1.00  0.00     0.214 A 
ATOM      3  C   UNL     1       4.339 -16.035   8.001  1.00  0.00     0.180 A 
ATOM      4  O   UNL     1       4.707 -14.779   7.776  1.00  0.00    -0.452 OA
ATOM      5  C   UNL     1       3.500 -16.181   5.738  1.00  0.00     0.239 A 
ATOM      6  C   UNL     1       4.507 -14.161   6.621  1.00  0.00     0.146 A 
ATOM      7  O   UNL     1       2.875 -16.805   4.839  1.00  0.00    -0.285 OA
ATOM      8  C   UNL     1       3.938 -14.852   5.526  1.00  0.00     0.111 A 
ATOM      9  C   UNL     1       4.819 -12.802   6.513  1.00  0.00     0.094 A 
ATOM     10  C   UNL     1       3.766 -14.171   4.297  1.00  0.00     0.134 A 
ATOM     11  C   UNL     1       4.560 -12.114   5.327  1.00  0.00     0.123 A 
ATOM     12  C   UNL     1       4.072 -12.805   4.216  1.00  0.00     0.093 A 
BRANCH   3  13
ATOM     13  C   UNL     1       4.548 -16.578   9.345  1.00  0.00     0.021 A 
ATOM     14  C   UNL     1       4.572 -15.714  10.449  1.00  0.00     0.016 A 
ATOM     15  C   UNL     1       4.779 -16.222  11.736  1.00  0.00     0.047 A 
ATOM     16  C   UNL     1       4.952 -17.602  11.923  1.00  0.00     0.115 A 
ATOM     17  C   UNL     1       4.767 -17.952   9.530  1.00  0.00     0.016 A 
ATOM     18  C   UNL     1       4.950 -18.463  10.817  1.00  0.00     0.047 A 
BRANCH  16  19
ATOM     19  O   UNL     1       5.136 -18.127  13.197  1.00  0.00    -0.508 OA
ATOM     20  H   UNL     1       6.056 -18.216  13.613  1.00  0.00     0.293 HD
ENDBRANCH  16  19
ENDBRANCH   3  13
BRANCH  10  21
ATOM     21  O   UNL     1       3.305 -14.838   3.162  1.00  0.00    -0.507 OA
ATOM     22  H   UNL     1       2.324 -14.811   2.889  1.00  0.00     0.293 HD
ENDBRANCH  10  21
BRANCH  11  23
ATOM     23  O   UNL     1       4.753 -10.740   5.249  1.00  0.00    -0.508 OA
ATOM     24  H   UNL     1       4.149 -10.088   5.730  1.00  0.00     0.293 HD
ENDBRANCH  11  23
ENDBRANCH   1   2
BRANCH   1  25
ATOM     25  C   UNL     1       3.175 -19.229   6.565  1.00  0.00     0.339 C 
ATOM     26  C   UNL     1       3.297 -20.465   7.510  1.00  0.00     0.214 C 
ATOM     27  O   UNL     1       4.226 -19.160   5.609  1.00  0.00    -0.332 OA
ATOM     28  C   UNL     1       4.740 -20.996   7.511  1.00  0.00     0.180 C 
ATOM     29  C   UNL     1       4.465 -20.427   5.032  1.00  0.00     0.179 C 
ATOM     30  C   UNL     1       5.177 -21.350   6.063  1.00  0.00     0.177 C 
BRANCH  26  31
ATOM     31  O   UNL     1       2.894 -20.133   8.812  1.00  0.00    -0.384 OA
ATOM     32  H   UNL     1       3.474 -20.642   9.438  1.00  0.00     0.211 HD
ENDBRANCH  26  31
BRANCH  28  33
ATOM     33  O   UNL     1       4.817 -22.125   8.340  1.00  0.00    -0.387 OA
ATOM     34  H   UNL     1       4.472 -21.861   9.227  1.00  0.00     0.211 HD
ENDBRANCH  28  33
BRANCH  29  35
ATOM     35  C   UNL     1       5.225 -20.269   3.709  1.00  0.00     0.191 C 
BRANCH  35  36
ATOM     36  O   UNL     1       4.758 -19.158   2.985  1.00  0.00    -0.394 OA
ATOM     37  H   UNL     1       5.443 -18.920   2.313  1.00  0.00     0.210 HD
ENDBRANCH  35  36
ENDBRANCH  29  35
BRANCH  30  38
ATOM     38  O   UNL     1       6.576 -21.247   5.951  1.00  0.00    -0.387 OA
ATOM     39  H   UNL     1       6.861 -21.907   5.266  1.00  0.00     0.211 HD
ENDBRANCH  30  38
ENDBRANCH   1  25
TORSDOF 11
ENDMDL
MODEL 3
REMARK VINA RESULT:    -3.573      1.537      4.761
REMARK INTER + INTRA:          -6.100
REMARK INTER:                  -6.203
REMARK INTRA:                   0.103
REMARK UNBOUND:                -0.960
REMARK SMILES O=c1c(O[C@H]2O[C@@H](CO)[C@@H](O)[C@H](O)[C@H]2O)c(-c2ccc(O)cc2)oc2cc(O)cc(O)c12
REMARK SMILES IDX 4 1 3 2 16 3 24 4 2 5 25 6 1 7 32 8 26 9 30 10 27 11 29 12
REMARK SMILES IDX 17 13 18 14 19 15 20 16 23 17 22 18 21 19 31 21 28 23 5 25
REMARK SMILES IDX 14 26 6 27 12 28 7 29 10 30 15 31 13 33 8 35 9 36 11 38
REMARK H PARENT 21 20 31 22 28 24 15 32 13 34 9 37 11 39
REMARK Flexibility Score: inf
ROOT
ATOM      1  O   UNL     1       4.976 -16.230   8.293  1.00  0.00    -0.454 OA
ENDROOT
BRANCH   1   2
ATOM      2  C   UNL     1       4.457 -15.350   7.331  1.00  0.00     0.214 A 
ATOM      3  C   UNL     1       3.941 -15.856   6.123  1.00  0.00     0.180 A 
ATOM      4  O   UNL     1       3.666 -15.039   5.113  1.00  0.00    -0.452 OA
ATOM      5  C   UNL     1       4.617 -13.956   7.457  1.00  0.00     0.239 A 
ATOM      6  C   UNL     1       3.841 -13.728   5.172  1.00  0.00     0.146 A 
ATOM      7  O   UNL     1       5.128 -13.479   8.506  1.00  0.00    -0.285 OA
ATOM      8  C   UNL     1       4.278 -13.116   6.370  1.00  0.00     0.111 A 
ATOM      9  C   UNL     1       3.637 -12.961   4.021  1.00  0.00     0.094 A 
ATOM     10  C   UNL     1       4.426 -11.708   6.409  1.00  0.00     0.134 A 
ATOM     11  C   UNL     1       3.875 -11.586   4.042  1.00  0.00     0.123 A 
ATOM     12  C   UNL     1       4.232 -10.960   5.239  1.00  0.00     0.093 A 
BRANCH   3  13
ATOM     13  C   UNL     1       3.776 -17.295   5.904  1.00  0.00     0.021 A 
ATOM     14  C   UNL     1       3.033 -18.057   6.818  1.00  0.00     0.016 A 
ATOM     15  C   UNL     1       2.875 -19.433   6.622  1.00  0.00     0.047 A 
ATOM     16  C   UNL     1       3.454 -20.050   5.502  1.00  0.00     0.115 A 
ATOM     17  C   UNL     1       4.391 -17.923   4.810  1.00  0.00     0.016 A 
ATOM     18  C   UNL     1       4.215 -19.293   4.602  1.00  0.00     0.047 A 
BRANCH  16  19
ATOM     19  O   UNL     1       3.288 -21.412   5.280  1.00  0.00    -0.508 OA
ATOM     20  H   UNL     1       2.774 -22.003   5.925  1.00  0.00     0.293 HD
ENDBRANCH  16  19
ENDBRANCH   3  13
BRANCH  10  21
ATOM     21  O   UNL     1       4.756 -11.052   7.595  1.00  0.00    -0.507 OA
ATOM     22  H   UNL     1       4.058 -10.543   8.134  1.00  0.00     0.293 HD
ENDBRANCH  10  21
BRANCH  11  23
ATOM     23  O   UNL     1       3.794 -10.836   2.875  1.00  0.00    -0.508 OA
ATOM     24  H   UNL     1       2.929 -10.405   2.576  1.00  0.00     0.293 HD
ENDBRANCH  11  23
ENDBRANCH   1   2
BRANCH   1  25
ATOM     25  C   UNL     1       4.222 -17.056   9.196  1.00  0.00     0.339 C 
ATOM     26  C   UNL     1       4.198 -16.444  10.632  1.00  0.00     0.214 C 
ATOM     27  O   UNL     1       4.700 -18.395   9.176  1.00  0.00    -0.332 OA
ATOM     28  C   UNL     1       5.141 -17.226  11.561  1.00  0.00     0.180 C 
ATOM     29  C   UNL     1       4.122 -19.152  10.221  1.00  0.00     0.179 C 
ATOM     30  C   UNL     1       4.742 -18.726  11.584  1.00  0.00     0.177 C 
BRANCH  26  31
ATOM     31  O   UNL     1       4.555 -15.087  10.596  1.00  0.00    -0.384 OA
ATOM     32  H   UNL     1       5.423 -15.000  11.070  1.00  0.00     0.211 HD
ENDBRANCH  26  31
BRANCH  28  33
ATOM     33  O   UNL     1       5.077 -16.678  12.851  1.00  0.00    -0.387 OA
ATOM     34  H   UNL     1       5.326 -15.725  12.778  1.00  0.00     0.211 HD
ENDBRANCH  28  33
BRANCH  29  35
ATOM     35  C   UNL     1       4.250 -20.651   9.920  1.00  0.00     0.191 C 
BRANCH  35  36
ATOM     36  O   UNL     1       5.438 -20.928   9.222  1.00  0.00    -0.394 OA
ATOM     37  H   UNL     1       5.506 -21.908   9.108  1.00  0.00     0.210 HD
ENDBRANCH  35  36
ENDBRANCH  29  35
BRANCH  30  38
ATOM     38  O   UNL     1       5.868 -19.512  11.894  1.00  0.00    -0.387 OA
ATOM     39  H   UNL     1       6.337 -19.696  11.038  1.00  0.00     0.211 HD
ENDBRANCH  30  38
ENDBRANCH   1  25
TORSDOF 11
ENDMDL
MODEL 4
REMARK VINA RESULT:    -2.667      1.531      5.614
REMARK INTER + INTRA:          -4.797
REMARK INTER:                  -5.669
REMARK INTRA:                   0.872
REMARK UNBOUND:                -0.960
REMARK SMILES O=c1c(O[C@H]2O[C@@H](CO)[C@@H](O)[C@H](O)[C@H]2O)c(-c2ccc(O)cc2)oc2cc(O)cc(O)c12
REMARK SMILES IDX 4 1 3 2 16 3 24 4 2 5 25 6 1 7 32 8 26 9 30 10 27 11 29 12
REMARK SMILES IDX 17 13 18 14 19 15 20 16 23 17 22 18 21 19 31 21 28 23 5 25
REMARK SMILES IDX 14 26 6 27 12 28 7 29 10 30 15 31 13 33 8 35 9 36 11 38
REMARK H PARENT 21 20 31 22 28 24 15 32 13 34 9 37 11 39
REMARK Flexibility Score: inf
ROOT
ATOM      1  O   UNL     1       3.755 -17.431   6.495  1.00  0.00    -0.454 OA
ENDROOT
BRANCH   1   2
ATOM      2  C   UNL     1       3.943 -17.186   7.864  1.00  0.00     0.214 A 
ATOM      3  C   UNL     1       4.323 -15.904   8.302  1.00  0.00     0.180 A 
ATOM      4  O   UNL     1       4.731 -15.711   9.551  1.00  0.00    -0.452 OA
ATOM      5  C   UNL     1       3.954 -18.241   8.798  1.00  0.00     0.239 A 
ATOM      6  C   UNL     1       4.798 -16.681  10.450  1.00  0.00     0.146 A 
ATOM      7  O   UNL     1       3.671 -19.411   8.421  1.00  0.00    -0.285 OA
ATOM      8  C   UNL     1       4.361 -17.988  10.129  1.00  0.00     0.111 A 
ATOM      9  C   UNL     1       5.352 -16.410  11.705  1.00  0.00     0.094 A 
ATOM     10  C   UNL     1       4.417 -18.995  11.123  1.00  0.00     0.134 A 
ATOM     11  C   UNL     1       5.490 -17.430  12.647  1.00  0.00     0.123 A 
ATOM     12  C   UNL     1       4.991 -18.705  12.369  1.00  0.00     0.093 A 
BRANCH   3  13
ATOM     13  C   UNL     1       4.367 -14.763   7.384  1.00  0.00     0.021 A 
ATOM     14  C   UNL     1       3.844 -14.891   6.089  1.00  0.00     0.016 A 
ATOM     15  C   UNL     1       3.889 -13.811   5.202  1.00  0.00     0.047 A 
ATOM     16  C   UNL     1       4.450 -12.592   5.614  1.00  0.00     0.115 A 
ATOM     17  C   UNL     1       4.969 -13.557   7.777  1.00  0.00     0.016 A 
ATOM     18  C   UNL     1       4.993 -12.471   6.900  1.00  0.00     0.047 A 
BRANCH  16  19
ATOM     19  O   UNL     1       4.483 -11.501   4.753  1.00  0.00    -0.508 OA
ATOM     20  H   UNL     1       5.145 -11.441   3.987  1.00  0.00     0.293 HD
ENDBRANCH  16  19
ENDBRANCH   3  13
BRANCH  10  21
ATOM     21  O   UNL     1       3.904 -20.270  10.885  1.00  0.00    -0.507 OA
ATOM     22  H   UNL     1       4.362 -20.918  10.246  1.00  0.00     0.293 HD
ENDBRANCH  10  21
BRANCH  11  23
ATOM     23  O   UNL     1       6.149 -17.200  13.848  1.00  0.00    -0.508 OA
ATOM     24  H   UNL     1       6.149 -17.879  14.597  1.00  0.00     0.293 HD
ENDBRANCH  11  23
ENDBRANCH   1   2
BRANCH   1  25
ATOM     25  C   UNL     1       4.613 -18.200   5.635  1.00  0.00     0.339 C 
ATOM     26  C   UNL     1       3.942 -18.449   4.248  1.00  0.00     0.214 C 
ATOM     27  O   UNL     1       5.022 -19.403   6.274  1.00  0.00    -0.332 OA
ATOM     28  C   UNL     1       3.444 -19.900   4.149  1.00  0.00     0.180 C 
ATOM     29  C   UNL     1       5.668 -20.264   5.358  1.00  0.00     0.179 C 
ATOM     30  C   UNL     1       4.621 -20.884   4.389  1.00  0.00     0.177 C 
BRANCH  26  31
ATOM     31  O   UNL     1       2.885 -17.550   4.042  1.00  0.00    -0.384 OA
ATOM     32  H   UNL     1       3.288 -16.669   3.826  1.00  0.00     0.211 HD
ENDBRANCH  26  31
BRANCH  28  33
ATOM     33  O   UNL     1       2.876 -20.109   2.884  1.00  0.00    -0.387 OA
ATOM     34  H   UNL     1       2.642 -19.222   2.517  1.00  0.00     0.211 HD
ENDBRANCH  28  33
BRANCH  29  35
ATOM     35  C   UNL     1       6.509 -21.302   6.114  1.00  0.00     0.191 C 
BRANCH  35  36
ATOM     36  O   UNL     1       7.878 -20.994   6.042  1.00  0.00    -0.394 OA
ATOM     37  H   UNL     1       8.288 -21.214   6.915  1.00  0.00     0.210 HD
ENDBRANCH  35  36
ENDBRANCH  29  35
BRANCH  30  38
ATOM     38  O   UNL     1       4.127 -22.102   4.892  1.00  0.00    -0.387 OA
ATOM     39  H   UNL     1       3.356 -22.359   4.322  1.00  0.00     0.211 HD
ENDBRANCH  30  38
ENDBRANCH   1  25
TORSDOF 11
ENDMDL
MODEL 5
REMARK VINA RESULT:    -2.587      1.660      7.036
REMARK INTER + INTRA:          -4.681
REMARK INTER:                  -5.602
REMARK INTRA:                   0.921
REMARK UNBOUND:                -0.960
REMARK SMILES O=c1c(O[C@H]2O[C@@H](CO)[C@@H](O)[C@H](O)[C@H]2O)c(-c2ccc(O)cc2)oc2cc(O)cc(O)c12
REMARK SMILES IDX 4 1 3 2 16 3 24 4 2 5 25 6 1 7 32 8 26 9 30 10 27 11 29 12
REMARK SMILES IDX 17 13 18 14 19 15 20 16 23 17 22 18 21 19 31 21 28 23 5 25
REMARK SMILES IDX 14 26 6 27 12 28 7 29 10 30 15 31 13 33 8 35 9 36 11 38
REMARK H PARENT 21 20 31 22 28 24 15 32 13 34 9 37 11 39
REMARK Flexibility Score: inf
ROOT
ATOM      1  O   UNL     1       4.820 -16.626   8.224  1.00  0.00    -0.454 OA
ENDROOT
BRANCH   1   2
ATOM      2  C   UNL     1       4.796 -17.451   7.090  1.00  0.00     0.214 A 
ATOM      3  C   UNL     1       4.302 -16.952   5.869  1.00  0.00     0.180 A 
ATOM      4  O   UNL     1       4.052 -17.774   4.856  1.00  0.00    -0.452 OA
ATOM      5  C   UNL     1       5.071 -18.830   7.185  1.00  0.00     0.239 A 
ATOM      6  C   UNL     1       4.255 -19.081   4.917  1.00  0.00     0.146 A 
ATOM      7  O   UNL     1       5.462 -19.313   8.281  1.00  0.00    -0.285 OA
ATOM      8  C   UNL     1       4.825 -19.667   6.071  1.00  0.00     0.111 A 
ATOM      9  C   UNL     1       3.852 -19.883   3.844  1.00  0.00     0.094 A 
ATOM     10  C   UNL     1       5.057 -21.064   6.090  1.00  0.00     0.134 A 
ATOM     11  C   UNL     1       3.999 -21.269   3.909  1.00  0.00     0.123 A 
ATOM     12  C   UNL     1       4.631 -21.850   5.010  1.00  0.00     0.093 A 
BRANCH   3  13
ATOM     13  C   UNL     1       3.962 -15.537   5.702  1.00  0.00     0.021 A 
ATOM     14  C   UNL     1       3.216 -15.127   4.588  1.00  0.00     0.016 A 
ATOM     15  C   UNL     1       2.894 -13.777   4.415  1.00  0.00     0.047 A 
ATOM     16  C   UNL     1       3.310 -12.832   5.366  1.00  0.00     0.115 A 
ATOM     17  C   UNL     1       4.416 -14.584   6.627  1.00  0.00     0.016 A 
ATOM     18  C   UNL     1       4.075 -13.238   6.467  1.00  0.00     0.047 A 
BRANCH  16  19
ATOM     19  O   UNL     1       2.979 -11.489   5.222  1.00  0.00    -0.508 OA
ATOM     20  H   UNL     1       2.414 -11.000   5.907  1.00  0.00     0.293 HD
ENDBRANCH  16  19
ENDBRANCH   3  13
BRANCH  10  21
ATOM     21  O   UNL     1       5.710 -21.670   7.164  1.00  0.00    -0.507 OA
ATOM     22  H   UNL     1       5.716 -21.247   8.091  1.00  0.00     0.293 HD
ENDBRANCH  10  21
BRANCH  11  23
ATOM     23  O   UNL     1       3.492 -22.082   2.903  1.00  0.00    -0.508 OA
ATOM     24  H   UNL     1       3.112 -21.700   2.047  1.00  0.00     0.293 HD
ENDBRANCH  11  23
ENDBRANCH   1   2
BRANCH   1  25
ATOM     25  C   UNL     1       4.089 -16.826   9.447  1.00  0.00     0.339 C 
ATOM     26  C   UNL     1       4.724 -16.017  10.621  1.00  0.00     0.214 C 
ATOM     27  O   UNL     1       3.962 -18.212   9.738  1.00  0.00    -0.332 OA
ATOM     28  C   UNL     1       5.496 -16.957  11.561  1.00  0.00     0.180 C 
ATOM     29  C   UNL     1       3.454 -18.407  11.042  1.00  0.00     0.179 C 
ATOM     30  C   UNL     1       4.553 -18.070  12.092  1.00  0.00     0.177 C 
BRANCH  26  31
ATOM     31  O   UNL     1       5.569 -15.011  10.127  1.00  0.00    -0.384 OA
ATOM     32  H   UNL     1       6.211 -15.446   9.506  1.00  0.00     0.211 HD
ENDBRANCH  26  31
BRANCH  28  33
ATOM     33  O   UNL     1       6.029 -16.213  12.624  1.00  0.00    -0.387 OA
ATOM     34  H   UNL     1       5.280 -15.982  13.225  1.00  0.00     0.211 HD
ENDBRANCH  28  33
BRANCH  29  35
ATOM     35  C   UNL     1       2.877 -19.823  11.177  1.00  0.00     0.191 C 
BRANCH  35  36
ATOM     36  O   UNL     1       3.077 -20.565  10.000  1.00  0.00    -0.394 OA
ATOM     37  H   UNL     1       2.861 -21.511  10.194  1.00  0.00     0.210 HD
ENDBRANCH  35  36
ENDBRANCH  29  35
BRANCH  30  38
ATOM     38  O   UNL     1       5.305 -19.214  12.419  1.00  0.00    -0.387 OA
ATOM     39  H   UNL     1       5.975 -19.337  11.696  1.00  0.00     0.211 HD
ENDBRANCH  30  38
ENDBRANCH   1  25
TORSDOF 11
ENDMDL
MODEL 6
REMARK VINA RESULT:    -1.942      1.504      7.070
REMARK INTER + INTRA:          -3.753
REMARK INTER:                  -3.659
REMARK INTRA:                  -0.094
REMARK UNBOUND:                -0.960
REMARK SMILES O=c1c(O[C@H]2O[C@@H](CO)[C@@H](O)[C@H](O)[C@H]2O)c(-c2ccc(O)cc2)oc2cc(O)cc(O)c12
REMARK SMILES IDX 4 1 3 2 16 3 24 4 2 5 25 6 1 7 32 8 26 9 30 10 27 11 29 12
REMARK SMILES IDX 17 13 18 14 19 15 20 16 23 17 22 18 21 19 31 21 28 23 5 25
REMARK SMILES IDX 14 26 6 27 12 28 7 29 10 30 15 31 13 33 8 35 9 36 11 38
REMARK H PARENT 21 20 31 22 28 24 15 32 13 34 9 37 11 39
REMARK Flexibility Score: inf
ROOT
ATOM      1  O   UNL     1       4.518 -16.493   6.585  1.00  0.00    -0.454 OA
ENDROOT
BRANCH   1   2
ATOM      2  C   UNL     1       4.791 -17.155   7.792  1.00  0.00     0.214 A 
ATOM      3  C   UNL     1       4.658 -18.554   7.870  1.00  0.00     0.180 A 
ATOM      4  O   UNL     1       4.681 -19.169   9.047  1.00  0.00    -0.452 OA
ATOM      5  C   UNL     1       5.006 -16.437   8.985  1.00  0.00     0.239 A 
ATOM      6  C   UNL     1       4.838 -18.530  10.196  1.00  0.00     0.146 A 
ATOM      7  O   UNL     1       5.075 -15.179   8.951  1.00  0.00    -0.285 OA
ATOM      8  C   UNL     1       5.061 -17.133  10.215  1.00  0.00     0.111 A 
ATOM      9  C   UNL     1       4.731 -19.245  11.393  1.00  0.00     0.094 A 
ATOM     10  C   UNL     1       5.255 -16.485  11.460  1.00  0.00     0.134 A 
ATOM     11  C   UNL     1       4.831 -18.583  12.617  1.00  0.00     0.123 A 
ATOM     12  C   UNL     1       5.128 -17.218  12.648  1.00  0.00     0.093 A 
BRANCH   3  13
ATOM     13  C   UNL     1       4.401 -19.367   6.678  1.00  0.00     0.021 A 
ATOM     14  C   UNL     1       5.457 -20.055   6.064  1.00  0.00     0.016 A 
ATOM     15  C   UNL     1       5.224 -20.827   4.921  1.00  0.00     0.047 A 
ATOM     16  C   UNL     1       3.926 -20.921   4.394  1.00  0.00     0.115 A 
ATOM     17  C   UNL     1       3.113 -19.426   6.123  1.00  0.00     0.016 A 
ATOM     18  C   UNL     1       2.875 -20.215   4.995  1.00  0.00     0.047 A 
BRANCH  16  19
ATOM     19  O   UNL     1       3.672 -21.702   3.273  1.00  0.00    -0.508 OA
ATOM     20  H   UNL     1       2.990 -21.430   2.573  1.00  0.00     0.293 HD
ENDBRANCH  16  19
ENDBRANCH   3  13
BRANCH  10  21
ATOM     21  O   UNL     1       5.579 -15.130  11.522  1.00  0.00    -0.507 OA
ATOM     22  H   UNL     1       6.398 -14.755  11.046  1.00  0.00     0.293 HD
ENDBRANCH  10  21
BRANCH  11  23
ATOM     23  O   UNL     1       4.605 -19.261  13.809  1.00  0.00    -0.508 OA
ATOM     24  H   UNL     1       3.789 -19.083  14.379  1.00  0.00     0.293 HD
ENDBRANCH  11  23
ENDBRANCH   1   2
BRANCH   1  25
ATOM     25  C   UNL     1       3.816 -15.247   6.429  1.00  0.00     0.339 C 
ATOM     26  C   UNL     1       3.046 -15.201   5.073  1.00  0.00     0.214 C 
ATOM     27  O   UNL     1       4.700 -14.146   6.599  1.00  0.00    -0.332 OA
ATOM     28  C   UNL     1       3.779 -14.292   4.073  1.00  0.00     0.180 C 
ATOM     29  C   UNL     1       4.074 -12.936   6.222  1.00  0.00     0.179 C 
ATOM     30  C   UNL     1       3.948 -12.869   4.672  1.00  0.00     0.177 C 
BRANCH  26  31
ATOM     31  O   UNL     1       2.895 -16.492   4.546  1.00  0.00    -0.384 OA
ATOM     32  H   UNL     1       3.465 -17.098   5.089  1.00  0.00     0.211 HD
ENDBRANCH  26  31
BRANCH  28  33
ATOM     33  O   UNL     1       3.051 -14.240   2.875  1.00  0.00    -0.387 OA
ATOM     34  H   UNL     1       3.159 -13.330   2.505  1.00  0.00     0.211 HD
ENDBRANCH  28  33
BRANCH  29  35
ATOM     35  C   UNL     1       4.816 -11.743   6.838  1.00  0.00     0.191 C 
BRANCH  35  36
ATOM     36  O   UNL     1       4.429 -10.536   6.231  1.00  0.00    -0.394 OA
ATOM     37  H   UNL     1       3.447 -10.454   6.311  1.00  0.00     0.210 HD
ENDBRANCH  35  36
ENDBRANCH  29  35
BRANCH  30  38
ATOM     38  O   UNL     1       5.072 -12.244   4.101  1.00  0.00    -0.387 OA
ATOM     39  H   UNL     1       4.734 -11.611   3.415  1.00  0.00     0.211 HD
ENDBRANCH  30  38
ENDBRANCH   1  25
TORSDOF 11
ENDMDL
