MODEL 1
REMARK VINA RESULT:    58.913      0.000      0.000
REMARK INTER + INTRA:          85.162
REMARK INTER:                  86.466
REMARK INTRA:                  -1.303
REMARK UNBOUND:                -1.303
REMARK SMILES O=c1c(O[C@H]2O[C@@H](CO)[C@@H](O)[C@@H](O)[C@@H]2O)c(-c2ccc(O)c(O)c2)oc2cc(O)cc(O)c12
REMARK SMILES IDX 4 1 3 2 16 3 25 4 2 5 26 6 1 7 33 8 27 9 31 10 28 11 30 12
REMARK SMILES IDX 17 13 18 14 19 15 20 16 24 17 22 18 21 19 23 21 32 23 29 25
REMARK SMILES IDX 5 27 14 28 6 29 12 30 7 31 10 32 15 33 13 35 8 37 9 38 11 40
REMARK H PARENT 21 20 23 22 32 24 29 26 15 34 13 36 9 39 11 41
REMARK Flexibility Score: inf
ROOT
ATOM      1  O   UNL     1       0.608  -1.110  -0.120  1.00  0.00    -0.454 OA
ENDROOT
BRANCH   1   2
ATOM      2  C   UNL     1       0.862   0.270  -0.311  1.00  0.00     0.214 A 
ATOM      3  C   UNL     1       2.117   0.762   0.072  1.00  0.00     0.180 A 
ATOM      4  O   UNL     1       2.427   2.035  -0.120  1.00  0.00    -0.452 OA
ATOM      5  C   UNL     1      -0.069   1.177  -0.876  1.00  0.00     0.239 A 
ATOM      6  C   UNL     1       1.604   2.905  -0.683  1.00  0.00     0.146 A 
ATOM      7  O   UNL     1      -1.280   0.851  -0.988  1.00  0.00    -0.285 OA
ATOM      8  C   UNL     1       0.340   2.498  -1.163  1.00  0.00     0.111 A 
ATOM      9  C   UNL     1       1.999   4.237  -0.790  1.00  0.00     0.094 A 
ATOM     10  C   UNL     1      -0.480   3.448  -1.831  1.00  0.00     0.134 A 
ATOM     11  C   UNL     1       1.132   5.183  -1.325  1.00  0.00     0.123 A 
ATOM     12  C   UNL     1      -0.092   4.790  -1.860  1.00  0.00     0.093 A 
BRANCH   3  13
ATOM     13  C   UNL     1       3.116  -0.127   0.691  1.00  0.00     0.025 A 
ATOM     14  C   UNL     1       2.993  -0.502   2.040  1.00  0.00     0.016 A 
ATOM     15  C   UNL     1       3.990  -1.267   2.653  1.00  0.00     0.051 A 
ATOM     16  C   UNL     1       5.095  -1.711   1.915  1.00  0.00     0.157 A 
ATOM     17  C   UNL     1       4.222  -0.570  -0.050  1.00  0.00     0.062 A 
ATOM     18  C   UNL     1       5.201  -1.370   0.552  1.00  0.00     0.158 A 
BRANCH  16  19
ATOM     19  O   UNL     1       6.081  -2.478   2.555  1.00  0.00    -0.504 OA
ATOM     20  H   UNL     1       7.064  -2.343   2.358  1.00  0.00     0.293 HD
ENDBRANCH  16  19
BRANCH  18  21
ATOM     21  O   UNL     1       6.281  -1.824  -0.200  1.00  0.00    -0.504 OA
ATOM     22  H   UNL     1       6.743  -1.249  -0.891  1.00  0.00     0.293 HD
ENDBRANCH  18  21
ENDBRANCH   3  13
BRANCH  10  23
ATOM     23  O   UNL     1      -1.647   3.106  -2.520  1.00  0.00    -0.507 OA
ATOM     24  H   UNL     1      -1.693   3.075  -3.534  1.00  0.00     0.293 HD
ENDBRANCH  10  23
BRANCH  11  25
ATOM     25  O   UNL     1       1.460   6.533  -1.284  1.00  0.00    -0.508 OA
ATOM     26  H   UNL     1       1.834   6.939  -0.430  1.00  0.00     0.293 HD
ENDBRANCH  11  25
ENDBRANCH   1   2
BRANCH   1  27
ATOM     27  C   UNL     1       1.032  -2.187  -0.943  1.00  0.00     0.339 C 
ATOM     28  C   UNL     1       0.193  -2.267  -2.219  1.00  0.00     0.214 C 
ATOM     29  O   UNL     1       1.041  -3.417  -0.236  1.00  0.00    -0.332 OA
ATOM     30  C   UNL     1      -1.265  -2.639  -1.891  1.00  0.00     0.180 C 
ATOM     31  C   UNL     1      -0.241  -3.909   0.125  1.00  0.00     0.179 C 
ATOM     32  C   UNL     1      -1.303  -3.909  -1.031  1.00  0.00     0.177 C 
BRANCH  28  33
ATOM     33  O   UNL     1       0.754  -3.187  -3.121  1.00  0.00    -0.384 OA
ATOM     34  H   UNL     1       0.069  -3.876  -3.344  1.00  0.00     0.211 HD
ENDBRANCH  28  33
BRANCH  30  35
ATOM     35  O   UNL     1      -1.932  -1.593  -1.234  1.00  0.00    -0.387 OA
ATOM     36  H   UNL     1      -1.931  -0.804  -1.842  1.00  0.00     0.211 HD
ENDBRANCH  30  35
BRANCH  31  37
ATOM     37  C   UNL     1      -0.703  -3.388   1.517  1.00  0.00     0.191 C 
BRANCH  37  38
ATOM     38  O   UNL     1       0.288  -2.688   2.209  1.00  0.00    -0.394 OA
ATOM     39  H   UNL     1       0.680  -2.036   1.584  1.00  0.00     0.210 HD
ENDBRANCH  37  38
ENDBRANCH  31  37
BRANCH  32  40
ATOM     40  O   UNL     1      -2.588  -4.125  -0.494  1.00  0.00    -0.387 OA
ATOM     41  H   UNL     1      -3.207  -4.306  -1.248  1.00  0.00     0.211 HD
ENDBRANCH  32  40
ENDBRANCH   1  27
TORSDOF 12
ENDMDL
MODEL 2
REMARK VINA RESULT:    61.031      2.988      3.811
REMARK INTER + INTRA:          88.270
REMARK INTER:                  81.439
REMARK INTRA:                   6.832
REMARK UNBOUND:                -1.303
REMARK SMILES O=c1c(O[C@H]2O[C@@H](CO)[C@@H](O)[C@@H](O)[C@@H]2O)c(-c2ccc(O)c(O)c2)oc2cc(O)cc(O)c12
REMARK SMILES IDX 4 1 3 2 16 3 25 4 2 5 26 6 1 7 33 8 27 9 31 10 28 11 30 12
REMARK SMILES IDX 17 13 18 14 19 15 20 16 24 17 22 18 21 19 23 21 32 23 29 25
REMARK SMILES IDX 5 27 14 28 6 29 12 30 7 31 10 32 15 33 13 35 8 37 9 38 11 40
REMARK H PARENT 21 20 23 22 32 24 29 26 15 34 13 36 9 39 11 41
REMARK Flexibility Score: inf
ROOT
ATOM      1  O   UNL     1       0.969  -1.310  -0.761  1.00  0.00    -0.454 OA
ENDROOT
BRANCH   1   2
ATOM      2  C   UNL     1       0.605  -0.945   0.559  1.00  0.00     0.214 A 
ATOM      3  C   UNL     1       1.635  -0.755   1.491  1.00  0.00     0.180 A 
ATOM      4  O   UNL     1       1.359  -0.373   2.728  1.00  0.00    -0.452 OA
ATOM      5  C   UNL     1      -0.731  -0.749   0.988  1.00  0.00     0.239 A 
ATOM      6  C   UNL     1       0.129  -0.137   3.157  1.00  0.00     0.146 A 
ATOM      7  O   UNL     1      -1.688  -1.157   0.278  1.00  0.00    -0.285 OA
ATOM      8  C   UNL     1      -0.974  -0.237   2.281  1.00  0.00     0.111 A 
ATOM      9  C   UNL     1      -0.066   0.205   4.494  1.00  0.00     0.094 A 
ATOM     10  C   UNL     1      -2.267   0.101   2.764  1.00  0.00     0.134 A 
ATOM     11  C   UNL     1      -1.352   0.403   4.985  1.00  0.00     0.123 A 
ATOM     12  C   UNL     1      -2.445   0.370   4.123  1.00  0.00     0.093 A 
BRANCH   3  13
ATOM     13  C   UNL     1       3.042  -0.973   1.111  1.00  0.00     0.025 A 
ATOM     14  C   UNL     1       3.477  -0.690  -0.195  1.00  0.00     0.016 A 
ATOM     15  C   UNL     1       4.788  -0.985  -0.580  1.00  0.00     0.051 A 
ATOM     16  C   UNL     1       5.694  -1.519   0.345  1.00  0.00     0.157 A 
ATOM     17  C   UNL     1       3.948  -1.508   2.040  1.00  0.00     0.062 A 
ATOM     18  C   UNL     1       5.272  -1.766   1.666  1.00  0.00     0.158 A 
BRANCH  16  19
ATOM     19  O   UNL     1       7.004  -1.805  -0.070  1.00  0.00    -0.504 OA
ATOM     20  H   UNL     1       7.568  -2.496   0.408  1.00  0.00     0.293 HD
ENDBRANCH  16  19
BRANCH  18  21
ATOM     21  O   UNL     1       6.168  -2.273   2.602  1.00  0.00    -0.504 OA
ATOM     22  H   UNL     1       6.500  -1.730   3.387  1.00  0.00     0.293 HD
ENDBRANCH  18  21
ENDBRANCH   3  13
BRANCH  10  23
ATOM     23  O   UNL     1      -3.386   0.235   1.936  1.00  0.00    -0.507 OA
ATOM     24  H   UNL     1      -3.954  -0.557   1.655  1.00  0.00     0.293 HD
ENDBRANCH  10  23
BRANCH  11  25
ATOM     25  O   UNL     1      -1.558   0.583   6.347  1.00  0.00    -0.508 OA
ATOM     26  H   UNL     1      -2.273   1.230   6.672  1.00  0.00     0.293 HD
ENDBRANCH  11  25
ENDBRANCH   1   2
BRANCH   1  27
ATOM     27  C   UNL     1       1.375  -2.590  -1.220  1.00  0.00     0.339 C 
ATOM     28  C   UNL     1       0.671  -2.953  -2.528  1.00  0.00     0.214 C 
ATOM     29  O   UNL     1       1.195  -3.587  -0.227  1.00  0.00    -0.332 OA
ATOM     30  C   UNL     1      -0.842  -3.133  -2.302  1.00  0.00     0.180 C 
ATOM     31  C   UNL     1      -0.158  -3.885   0.084  1.00  0.00     0.179 C 
ATOM     32  C   UNL     1      -1.088  -4.125  -1.157  1.00  0.00     0.177 C 
BRANCH  28  33
ATOM     33  O   UNL     1       1.235  -4.112  -3.087  1.00  0.00    -0.384 OA
ATOM     34  H   UNL     1       0.635  -4.885  -2.897  1.00  0.00     0.211 HD
ENDBRANCH  28  33
BRANCH  30  35
ATOM     35  O   UNL     1      -1.474  -1.911  -2.024  1.00  0.00    -0.387 OA
ATOM     36  H   UNL     1      -2.115  -2.065  -1.276  1.00  0.00     0.211 HD
ENDBRANCH  30  35
BRANCH  31  37
ATOM     37  C   UNL     1      -0.714  -2.985   1.227  1.00  0.00     0.191 C 
BRANCH  37  38
ATOM     38  O   UNL     1      -0.361  -3.425   2.505  1.00  0.00    -0.394 OA
ATOM     39  H   UNL     1      -0.776  -2.813   3.154  1.00  0.00     0.210 HD
ENDBRANCH  37  38
ENDBRANCH  31  37
BRANCH  32  40
ATOM     40  O   UNL     1      -2.437  -4.110  -0.750  1.00  0.00    -0.387 OA
ATOM     41  H   UNL     1      -2.638  -3.209  -0.389  1.00  0.00     0.211 HD
ENDBRANCH  32  40
ENDBRANCH   1  27
TORSDOF 12
ENDMDL
