MODEL 1
REMARK VINA RESULT:    -4.246      0.000      0.000
REMARK INTER + INTRA:         -15.846
REMARK INTER:                 -11.196
REMARK INTRA:                  -4.649
REMARK UNBOUND:                -4.649
REMARK SMILES CCCCCCCCCCCCCCCCCCCCCCCCCCCCCC(=O)[O-]
REMARK SMILES IDX 16 1 17 2 18 3 19 4 20 5 21 6 22 7 23 8 24 9 25 10 26 11
REMARK SMILES IDX 27 12 28 13 29 14 30 15 31 16 32 17 15 18 14 19 13 20 12 21
REMARK SMILES IDX 11 22 10 23 9 24 8 25 7 26 6 27 5 28 4 29 3 30 2 31 1 32
REMARK H PARENT
REMARK Flexibility Score: inf
ROOT
ATOM      1  C   UNL     1     130.616 132.768 134.496  1.00  0.00     0.000 C 
ENDROOT
BRANCH   1   2
ATOM      2  C   UNL     1     131.463 133.161 133.270  1.00  0.00     0.000 C 
BRANCH   2   3
ATOM      3  C   UNL     1     132.339 134.410 133.482  1.00  0.00     0.000 C 
BRANCH   3   4
ATOM      4  C   UNL     1     133.454 134.549 132.433  1.00  0.00     0.000 C 
BRANCH   4   5
ATOM      5  C   UNL     1     133.484 135.953 131.792  1.00  0.00     0.000 C 
BRANCH   5   6
ATOM      6  C   UNL     1     132.459 136.933 132.392  1.00  0.00     0.000 C 
BRANCH   6   7
ATOM      7  C   UNL     1     131.717 137.756 131.325  1.00  0.00     0.000 C 
BRANCH   7   8
ATOM      8  C   UNL     1     130.214 137.446 131.278  1.00  0.00     0.000 C 
BRANCH   8   9
ATOM      9  C   UNL     1     129.830 136.548 130.088  1.00  0.00     0.000 C 
BRANCH   9  10
ATOM     10  C   UNL     1     130.052 135.050 130.385  1.00  0.00     0.000 C 
BRANCH  10  11
ATOM     11  C   UNL     1     131.005 134.353 129.400  1.00  0.00     0.000 C 
BRANCH  11  12
ATOM     12  C   UNL     1     131.165 132.853 129.678  1.00  0.00     0.000 C 
BRANCH  12  13
ATOM     13  C   UNL     1     130.767 132.019 128.455  1.00  0.00     0.006 C 
BRANCH  13  14
ATOM     14  C   UNL     1     129.352 131.455 128.611  1.00  0.00     0.053 C 
BRANCH  14  15
ATOM     15  C   UNL     1     128.444 132.019 127.564  1.00  0.00     0.041 C 
ATOM     16  O   UNL     1     128.452 131.544 126.396  1.00  0.00    -0.550 OA
ATOM     17  O   UNL     1     127.633 133.106 127.860  1.00  0.00    -0.550 OA
ENDBRANCH  14  15
ENDBRANCH  13  14
ENDBRANCH  12  13
ENDBRANCH  11  12
ENDBRANCH  10  11
ENDBRANCH   9  10
ENDBRANCH   8   9
ENDBRANCH   7   8
ENDBRANCH   6   7
ENDBRANCH   5   6
ENDBRANCH   4   5
ENDBRANCH   3   4
ENDBRANCH   2   3
ENDBRANCH   1   2
BRANCH   1  18
ATOM     18  C   UNL     1     131.458 132.244 135.674  1.00  0.00     0.000 C 
BRANCH  18  19
ATOM     19  C   UNL     1     132.057 130.860 135.374  1.00  0.00     0.000 C 
BRANCH  19  20
ATOM     20  C   UNL     1     131.040 129.713 135.584  1.00  0.00     0.000 C 
BRANCH  20  21
ATOM     21  C   UNL     1     130.411 129.215 134.272  1.00  0.00     0.000 C 
BRANCH  21  22
ATOM     22  C   UNL     1     128.877 129.328 134.292  1.00  0.00     0.000 C 
BRANCH  22  23
ATOM     23  C   UNL     1     128.167 127.975 134.112  1.00  0.00     0.000 C 
BRANCH  23  24
ATOM     24  C   UNL     1     127.532 127.390 135.390  1.00  0.00    -0.000 C 
BRANCH  24  25
ATOM     25  C   UNL     1     128.528 126.811 136.413  1.00  0.00    -0.000 C 
BRANCH  25  26
ATOM     26  C   UNL     1     128.691 127.689 137.662  1.00  0.00    -0.000 C 
BRANCH  26  27
ATOM     27  C   UNL     1     127.321 128.065 138.247  1.00  0.00    -0.000 C 
BRANCH  27  28
ATOM     28  C   UNL     1     127.194 129.564 138.560  1.00  0.00    -0.000 C 
BRANCH  28  29
ATOM     29  C   UNL     1     127.922 130.468 137.539  1.00  0.00    -0.000 C 
BRANCH  29  30
ATOM     30  C   UNL     1     128.945 131.422 138.195  1.00  0.00    -0.000 C 
BRANCH  30  31
ATOM     31  C   UNL     1     129.578 130.850 139.476  1.00  0.00    -0.003 C 
ATOM     32  C   UNL     1     130.976 130.280 139.249  1.00  0.00     0.004 C 
ENDBRANCH  30  31
ENDBRANCH  29  30
ENDBRANCH  28  29
ENDBRANCH  27  28
ENDBRANCH  26  27
ENDBRANCH  25  26
ENDBRANCH  24  25
ENDBRANCH  23  24
ENDBRANCH  22  23
ENDBRANCH  21  22
ENDBRANCH  20  21
ENDBRANCH  19  20
ENDBRANCH  18  19
ENDBRANCH   1  18
TORSDOF 28
ENDMDL
MODEL 2
REMARK VINA RESULT:    -3.971      5.657     10.218
REMARK INTER + INTRA:         -15.121
REMARK INTER:                 -13.331
REMARK INTRA:                  -1.790
REMARK UNBOUND:                -4.649
REMARK SMILES CCCCCCCCCCCCCCCCCCCCCCCCCCCCCC(=O)[O-]
REMARK SMILES IDX 16 1 17 2 18 3 19 4 20 5 21 6 22 7 23 8 24 9 25 10 26 11
REMARK SMILES IDX 27 12 28 13 29 14 30 15 31 16 32 17 15 18 14 19 13 20 12 21
REMARK SMILES IDX 11 22 10 23 9 24 8 25 7 26 6 27 5 28 4 29 3 30 2 31 1 32
REMARK H PARENT
REMARK Flexibility Score: inf
ROOT
ATOM      1  C   UNL     1     129.095 130.941 125.814  1.00  0.00     0.000 C 
ENDROOT
BRANCH   1   2
ATOM      2  C   UNL     1     128.348 130.596 124.510  1.00  0.00     0.000 C 
BRANCH   2   3
ATOM      3  C   UNL     1     129.268 130.189 123.344  1.00  0.00     0.000 C 
BRANCH   3   4
ATOM      4  C   UNL     1     128.686 129.056 122.485  1.00  0.00     0.000 C 
BRANCH   4   5
ATOM      5  C   UNL     1     127.970 127.983 123.335  1.00  0.00     0.000 C 
BRANCH   5   6
ATOM      6  C   UNL     1     127.238 126.916 122.503  1.00  0.00     0.000 C 
BRANCH   6   7
ATOM      7  C   UNL     1     126.504 125.877 123.368  1.00  0.00     0.000 C 
BRANCH   7   8
ATOM      8  C   UNL     1     127.422 125.217 124.407  1.00  0.00     0.000 C 
BRANCH   8   9
ATOM      9  C   UNL     1     126.665 124.769 125.670  1.00  0.00     0.000 C 
BRANCH   9  10
ATOM     10  C   UNL     1     127.609 124.218 126.758  1.00  0.00     0.000 C 
BRANCH  10  11
ATOM     11  C   UNL     1     126.947 124.061 128.138  1.00  0.00     0.000 C 
BRANCH  11  12
ATOM     12  C   UNL     1     125.544 123.446 128.064  1.00  0.00     0.000 C 
BRANCH  12  13
ATOM     13  C   UNL     1     125.336 122.410 129.175  1.00  0.00     0.006 C 
BRANCH  13  14
ATOM     14  C   UNL     1     124.213 122.839 130.124  1.00  0.00     0.053 C 
BRANCH  14  15
ATOM     15  C   UNL     1     124.062 121.854 131.239  1.00  0.00     0.041 C 
ATOM     16  O   UNL     1     123.329 120.839 131.093  1.00  0.00    -0.550 OA
ATOM     17  O   UNL     1     124.682 122.086 132.460  1.00  0.00    -0.550 OA
ENDBRANCH  14  15
ENDBRANCH  13  14
ENDBRANCH  12  13
ENDBRANCH  11  12
ENDBRANCH  10  11
ENDBRANCH   9  10
ENDBRANCH   8   9
ENDBRANCH   7   8
ENDBRANCH   6   7
ENDBRANCH   5   6
ENDBRANCH   4   5
ENDBRANCH   3   4
ENDBRANCH   2   3
ENDBRANCH   1   2
BRANCH   1  18
ATOM     18  C   UNL     1     128.233 131.731 126.816  1.00  0.00     0.000 C 
BRANCH  18  19
ATOM     19  C   UNL     1     128.667 131.472 128.268  1.00  0.00     0.000 C 
BRANCH  19  20
ATOM     20  C   UNL     1     130.178 131.163 128.392  1.00  0.00     0.000 C 
BRANCH  20  21
ATOM     21  C   UNL     1     130.923 132.148 129.309  1.00  0.00     0.000 C 
BRANCH  21  22
ATOM     22  C   UNL     1     130.948 133.571 128.723  1.00  0.00     0.000 C 
BRANCH  22  23
ATOM     23  C   UNL     1     130.247 134.607 129.618  1.00  0.00     0.000 C 
BRANCH  23  24
ATOM     24  C   UNL     1     130.789 134.704 131.060  1.00  0.00    -0.000 C 
BRANCH  24  25
ATOM     25  C   UNL     1     132.286 135.047 131.177  1.00  0.00    -0.000 C 
BRANCH  25  26
ATOM     26  C   UNL     1     132.971 134.363 132.369  1.00  0.00    -0.000 C 
BRANCH  26  27
ATOM     27  C   UNL     1     132.039 133.325 133.012  1.00  0.00    -0.000 C 
BRANCH  27  28
ATOM     28  C   UNL     1     131.954 133.461 134.540  1.00  0.00    -0.000 C 
BRANCH  28  29
ATOM     29  C   UNL     1     130.671 132.843 135.141  1.00  0.00    -0.000 C 
BRANCH  29  30
ATOM     30  C   UNL     1     130.361 133.353 136.565  1.00  0.00    -0.000 C 
BRANCH  30  31
ATOM     31  C   UNL     1     131.588 133.944 137.282  1.00  0.00    -0.003 C 
ATOM     32  C   UNL     1     132.110 133.053 138.408  1.00  0.00     0.004 C 
ENDBRANCH  30  31
ENDBRANCH  29  30
ENDBRANCH  28  29
ENDBRANCH  27  28
ENDBRANCH  26  27
ENDBRANCH  25  26
ENDBRANCH  24  25
ENDBRANCH  23  24
ENDBRANCH  22  23
ENDBRANCH  21  22
ENDBRANCH  20  21
ENDBRANCH  19  20
ENDBRANCH  18  19
ENDBRANCH   1  18
TORSDOF 28
ENDMDL
MODEL 3
REMARK VINA RESULT:    -3.954      2.165      4.258
REMARK INTER + INTRA:         -15.077
REMARK INTER:                 -11.211
REMARK INTRA:                  -3.865
REMARK UNBOUND:                -4.649
REMARK SMILES CCCCCCCCCCCCCCCCCCCCCCCCCCCCCC(=O)[O-]
REMARK SMILES IDX 16 1 17 2 18 3 19 4 20 5 21 6 22 7 23 8 24 9 25 10 26 11
REMARK SMILES IDX 27 12 28 13 29 14 30 15 31 16 32 17 15 18 14 19 13 20 12 21
REMARK SMILES IDX 11 22 10 23 9 24 8 25 7 26 6 27 5 28 4 29 3 30 2 31 1 32
REMARK H PARENT
REMARK Flexibility Score: inf
ROOT
ATOM      1  C   UNL     1     128.505 131.554 135.330  1.00  0.00     0.000 C 
ENDROOT
BRANCH   1   2
ATOM      2  C   UNL     1     129.801 132.050 136.002  1.00  0.00     0.000 C 
BRANCH   2   3
ATOM      3  C   UNL     1     131.032 131.165 135.729  1.00  0.00     0.000 C 
BRANCH   3   4
ATOM      4  C   UNL     1     132.244 131.961 135.219  1.00  0.00     0.000 C 
BRANCH   4   5
ATOM      5  C   UNL     1     131.841 133.064 134.216  1.00  0.00     0.000 C 
BRANCH   5   6
ATOM      6  C   UNL     1     133.031 133.875 133.672  1.00  0.00     0.000 C 
BRANCH   6   7
ATOM      7  C   UNL     1     132.965 135.366 134.049  1.00  0.00     0.000 C 
BRANCH   7   8
ATOM      8  C   UNL     1     132.615 136.263 132.852  1.00  0.00     0.000 C 
BRANCH   8   9
ATOM      9  C   UNL     1     132.594 135.494 131.519  1.00  0.00     0.000 C 
BRANCH   9  10
ATOM     10  C   UNL     1     131.298 135.736 130.720  1.00  0.00     0.000 C 
BRANCH  10  11
ATOM     11  C   UNL     1     130.486 134.459 130.444  1.00  0.00     0.000 C 
BRANCH  11  12
ATOM     12  C   UNL     1     131.346 133.189 130.446  1.00  0.00     0.000 C 
BRANCH  12  13
ATOM     13  C   UNL     1     131.305 132.492 129.080  1.00  0.00     0.006 C 
BRANCH  13  14
ATOM     14  C   UNL     1     130.053 132.893 128.296  1.00  0.00     0.053 C 
BRANCH  14  15
ATOM     15  C   UNL     1     129.261 131.682 127.915  1.00  0.00     0.041 C 
ATOM     16  O   UNL     1     129.478 130.579 128.485  1.00  0.00    -0.550 OA
ATOM     17  O   UNL     1     128.327 131.756 126.890  1.00  0.00    -0.550 OA
ENDBRANCH  14  15
ENDBRANCH  13  14
ENDBRANCH  12  13
ENDBRANCH  11  12
ENDBRANCH  10  11
ENDBRANCH   9  10
ENDBRANCH   8   9
ENDBRANCH   7   8
ENDBRANCH   6   7
ENDBRANCH   5   6
ENDBRANCH   4   5
ENDBRANCH   3   4
ENDBRANCH   2   3
ENDBRANCH   1   2
BRANCH   1  18
ATOM     18  C   UNL     1     127.888 130.330 136.033  1.00  0.00     0.000 C 
BRANCH  18  19
ATOM     19  C   UNL     1     128.072 129.046 135.207  1.00  0.00     0.000 C 
BRANCH  19  20
ATOM     20  C   UNL     1     128.887 127.966 135.959  1.00  0.00     0.000 C 
BRANCH  20  21
ATOM     21  C   UNL     1     129.101 128.297 137.446  1.00  0.00     0.000 C 
BRANCH  21  22
ATOM     22  C   UNL     1     128.868 127.071 138.346  1.00  0.00     0.000 C 
BRANCH  22  23
ATOM     23  C   UNL     1     127.534 126.359 138.066  1.00  0.00     0.000 C 
BRANCH  23  24
ATOM     24  C   UNL     1     127.565 124.824 138.209  1.00  0.00    -0.000 C 
BRANCH  24  25
ATOM     25  C   UNL     1     126.962 124.041 137.028  1.00  0.00    -0.000 C 
BRANCH  25  26
ATOM     26  C   UNL     1     127.537 124.461 135.667  1.00  0.00    -0.000 C 
BRANCH  26  27
ATOM     27  C   UNL     1     126.420 124.589 134.620  1.00  0.00    -0.000 C 
BRANCH  27  28
ATOM     28  C   UNL     1     126.154 126.044 134.204  1.00  0.00    -0.000 C 
BRANCH  28  29
ATOM     29  C   UNL     1     125.185 126.786 135.153  1.00  0.00    -0.000 C 
BRANCH  29  30
ATOM     30  C   UNL     1     123.928 125.961 135.504  1.00  0.00    -0.000 C 
BRANCH  30  31
ATOM     31  C   UNL     1     123.772 125.697 137.012  1.00  0.00    -0.003 C 
ATOM     32  C   UNL     1     123.499 124.231 137.337  1.00  0.00     0.004 C 
ENDBRANCH  30  31
ENDBRANCH  29  30
ENDBRANCH  28  29
ENDBRANCH  27  28
ENDBRANCH  26  27
ENDBRANCH  25  26
ENDBRANCH  24  25
ENDBRANCH  23  24
ENDBRANCH  22  23
ENDBRANCH  21  22
ENDBRANCH  20  21
ENDBRANCH  19  20
ENDBRANCH  18  19
ENDBRANCH   1  18
TORSDOF 28
ENDMDL
MODEL 4
REMARK VINA RESULT:    -3.935      6.466     10.637
REMARK INTER + INTRA:         -15.026
REMARK INTER:                 -10.616
REMARK INTRA:                  -4.410
REMARK UNBOUND:                -4.649
REMARK SMILES CCCCCCCCCCCCCCCCCCCCCCCCCCCCCC(=O)[O-]
REMARK SMILES IDX 16 1 17 2 18 3 19 4 20 5 21 6 22 7 23 8 24 9 25 10 26 11
REMARK SMILES IDX 27 12 28 13 29 14 30 15 31 16 32 17 15 18 14 19 13 20 12 21
REMARK SMILES IDX 11 22 10 23 9 24 8 25 7 26 6 27 5 28 4 29 3 30 2 31 1 32
REMARK H PARENT
REMARK Flexibility Score: inf
ROOT
ATOM      1  C   UNL     1     128.018 124.602 135.749  1.00  0.00     0.000 C 
ENDROOT
BRANCH   1   2
ATOM      2  C   UNL     1     126.787 123.905 135.138  1.00  0.00     0.000 C 
BRANCH   2   3
ATOM      3  C   UNL     1     125.979 123.059 136.139  1.00  0.00     0.000 C 
BRANCH   3   4
ATOM      4  C   UNL     1     124.664 122.521 135.550  1.00  0.00     0.000 C 
BRANCH   4   5
ATOM      5  C   UNL     1     124.559 122.767 134.030  1.00  0.00     0.000 C 
BRANCH   5   6
ATOM      6  C   UNL     1     123.230 122.297 133.413  1.00  0.00     0.000 C 
BRANCH   6   7
ATOM      7  C   UNL     1     123.191 120.781 133.150  1.00  0.00     0.000 C 
BRANCH   7   8
ATOM      8  C   UNL     1     123.148 120.441 131.653  1.00  0.00     0.000 C 
BRANCH   8   9
ATOM      9  C   UNL     1     124.397 119.674 131.184  1.00  0.00     0.000 C 
BRANCH   9  10
ATOM     10  C   UNL     1     125.313 120.533 130.286  1.00  0.00     0.000 C 
BRANCH  10  11
ATOM     11  C   UNL     1     124.728 121.911 129.935  1.00  0.00     0.000 C 
BRANCH  11  12
ATOM     12  C   UNL     1     125.310 122.499 128.643  1.00  0.00     0.000 C 
BRANCH  12  13
ATOM     13  C   UNL     1     125.118 124.019 128.592  1.00  0.00     0.006 C 
BRANCH  13  14
ATOM     14  C   UNL     1     126.466 124.745 128.634  1.00  0.00     0.053 C 
BRANCH  14  15
ATOM     15  C   UNL     1     127.408 124.161 127.630  1.00  0.00     0.041 C 
ATOM     16  O   UNL     1     127.257 124.406 126.402  1.00  0.00    -0.550 OA
ATOM     17  O   UNL     1     128.416 123.298 128.041  1.00  0.00    -0.550 OA
ENDBRANCH  14  15
ENDBRANCH  13  14
ENDBRANCH  12  13
ENDBRANCH  11  12
ENDBRANCH  10  11
ENDBRANCH   9  10
ENDBRANCH   8   9
ENDBRANCH   7   8
ENDBRANCH   6   7
ENDBRANCH   5   6
ENDBRANCH   4   5
ENDBRANCH   3   4
ENDBRANCH   2   3
ENDBRANCH   1   2
BRANCH   1  18
ATOM     18  C   UNL     1     127.681 125.452 136.988  1.00  0.00     0.000 C 
BRANCH  18  19
ATOM     19  C   UNL     1     128.355 126.833 136.931  1.00  0.00     0.000 C 
BRANCH  19  20
ATOM     20  C   UNL     1     127.345 127.996 137.087  1.00  0.00     0.000 C 
BRANCH  20  21
ATOM     21  C   UNL     1     127.378 128.987 135.912  1.00  0.00     0.000 C 
BRANCH  21  22
ATOM     22  C   UNL     1     127.888 128.327 134.619  1.00  0.00     0.000 C 
BRANCH  22  23
ATOM     23  C   UNL     1     126.788 127.582 133.845  1.00  0.00     0.000 C 
BRANCH  23  24
ATOM     24  C   UNL     1     125.346 127.866 134.314  1.00  0.00    -0.000 C 
BRANCH  24  25
ATOM     25  C   UNL     1     124.495 126.618 134.616  1.00  0.00    -0.000 C 
BRANCH  25  26
ATOM     26  C   UNL     1     124.307 126.364 136.119  1.00  0.00    -0.000 C 
BRANCH  26  27
ATOM     27  C   UNL     1     122.936 125.731 136.398  1.00  0.00    -0.000 C 
BRANCH  27  28
ATOM     28  C   UNL     1     122.934 124.828 137.641  1.00  0.00    -0.000 C 
BRANCH  28  29
ATOM     29  C   UNL     1     123.858 125.337 138.771  1.00  0.00    -0.000 C 
BRANCH  29  30
ATOM     30  C   UNL     1     124.291 124.223 139.749  1.00  0.00    -0.000 C 
BRANCH  30  31
ATOM     31  C   UNL     1     125.792 123.894 139.674  1.00  0.00    -0.003 C 
ATOM     32  C   UNL     1     126.099 122.428 139.970  1.00  0.00     0.004 C 
ENDBRANCH  30  31
ENDBRANCH  29  30
ENDBRANCH  28  29
ENDBRANCH  27  28
ENDBRANCH  26  27
ENDBRANCH  25  26
ENDBRANCH  24  25
ENDBRANCH  23  24
ENDBRANCH  22  23
ENDBRANCH  21  22
ENDBRANCH  20  21
ENDBRANCH  19  20
ENDBRANCH  18  19
ENDBRANCH   1  18
TORSDOF 28
ENDMDL
MODEL 5
REMARK VINA RESULT:    -3.934      8.163     12.359
REMARK INTER + INTRA:         -15.022
REMARK INTER:                 -10.498
REMARK INTRA:                  -4.524
REMARK UNBOUND:                -4.649
REMARK SMILES CCCCCCCCCCCCCCCCCCCCCCCCCCCCCC(=O)[O-]
REMARK SMILES IDX 16 1 17 2 18 3 19 4 20 5 21 6 22 7 23 8 24 9 25 10 26 11
REMARK SMILES IDX 27 12 28 13 29 14 30 15 31 16 32 17 15 18 14 19 13 20 12 21
REMARK SMILES IDX 11 22 10 23 9 24 8 25 7 26 6 27 5 28 4 29 3 30 2 31 1 32
REMARK H PARENT
REMARK Flexibility Score: inf
ROOT
ATOM      1  C   UNL     1     124.100 122.703 133.865  1.00  0.00     0.000 C 
ENDROOT
BRANCH   1   2
ATOM      2  C   UNL     1     123.570 121.258 133.791  1.00  0.00     0.000 C 
BRANCH   2   3
ATOM      3  C   UNL     1     122.190 121.124 133.120  1.00  0.00     0.000 C 
BRANCH   3   4
ATOM      4  C   UNL     1     121.921 119.714 132.571  1.00  0.00     0.000 C 
BRANCH   4   5
ATOM      5  C   UNL     1     123.075 118.735 132.879  1.00  0.00     0.000 C 
BRANCH   5   6
ATOM      6  C   UNL     1     123.553 117.932 131.657  1.00  0.00     0.000 C 
BRANCH   6   7
ATOM      7  C   UNL     1     125.064 118.071 131.399  1.00  0.00     0.000 C 
BRANCH   7   8
ATOM      8  C   UNL     1     125.378 118.967 130.192  1.00  0.00     0.000 C 
BRANCH   8   9
ATOM      9  C   UNL     1     125.577 120.442 130.585  1.00  0.00     0.000 C 
BRANCH   9  10
ATOM     10  C   UNL     1     124.362 121.318 130.217  1.00  0.00     0.000 C 
BRANCH  10  11
ATOM     11  C   UNL     1     124.614 122.828 130.363  1.00  0.00     0.000 C 
BRANCH  11  12
ATOM     12  C   UNL     1     124.455 123.594 129.044  1.00  0.00     0.000 C 
BRANCH  12  13
ATOM     13  C   UNL     1     125.785 124.220 128.604  1.00  0.00     0.006 C 
BRANCH  13  14
ATOM     14  C   UNL     1     126.476 123.355 127.547  1.00  0.00     0.053 C 
BRANCH  14  15
ATOM     15  C   UNL     1     127.890 123.070 127.944  1.00  0.00     0.041 C 
ATOM     16  O   UNL     1     128.597 123.975 128.464  1.00  0.00    -0.550 OA
ATOM     17  O   UNL     1     128.447 121.824 127.686  1.00  0.00    -0.550 OA
ENDBRANCH  14  15
ENDBRANCH  13  14
ENDBRANCH  12  13
ENDBRANCH  11  12
ENDBRANCH  10  11
ENDBRANCH   9  10
ENDBRANCH   8   9
ENDBRANCH   7   8
ENDBRANCH   6   7
ENDBRANCH   5   6
ENDBRANCH   4   5
ENDBRANCH   3   4
ENDBRANCH   2   3
ENDBRANCH   1   2
BRANCH   1  18
ATOM     18  C   UNL     1     125.323 122.855 134.788  1.00  0.00     0.000 C 
BRANCH  18  19
ATOM     19  C   UNL     1     125.968 124.244 134.655  1.00  0.00     0.000 C 
BRANCH  19  20
ATOM     20  C   UNL     1     127.264 124.382 135.490  1.00  0.00     0.000 C 
BRANCH  20  21
ATOM     21  C   UNL     1     127.722 125.840 135.658  1.00  0.00     0.000 C 
BRANCH  21  22
ATOM     22  C   UNL     1     128.259 126.113 137.074  1.00  0.00     0.000 C 
BRANCH  22  23
ATOM     23  C   UNL     1     127.408 125.466 138.180  1.00  0.00     0.000 C 
BRANCH  23  24
ATOM     24  C   UNL     1     126.092 126.200 138.511  1.00  0.00    -0.000 C 
BRANCH  24  25
ATOM     25  C   UNL     1     125.094 125.402 139.372  1.00  0.00    -0.000 C 
BRANCH  25  26
ATOM     26  C   UNL     1     124.389 124.280 138.597  1.00  0.00    -0.000 C 
BRANCH  26  27
ATOM     27  C   UNL     1     123.728 124.830 137.324  1.00  0.00    -0.000 C 
BRANCH  27  28
ATOM     28  C   UNL     1     122.384 124.155 137.007  1.00  0.00    -0.000 C 
BRANCH  28  29
ATOM     29  C   UNL     1     122.088 122.928 137.899  1.00  0.00    -0.000 C 
BRANCH  29  30
ATOM     30  C   UNL     1     122.109 121.593 137.122  1.00  0.00    -0.000 C 
BRANCH  30  31
ATOM     31  C   UNL     1     123.330 120.715 137.449  1.00  0.00    -0.003 C 
ATOM     32  C   UNL     1     123.201 119.290 136.916  1.00  0.00     0.004 C 
ENDBRANCH  30  31
ENDBRANCH  29  30
ENDBRANCH  28  29
ENDBRANCH  27  28
ENDBRANCH  26  27
ENDBRANCH  25  26
ENDBRANCH  24  25
ENDBRANCH  23  24
ENDBRANCH  22  23
ENDBRANCH  21  22
ENDBRANCH  20  21
ENDBRANCH  19  20
ENDBRANCH  18  19
ENDBRANCH   1  18
TORSDOF 28
ENDMDL
MODEL 6
REMARK VINA RESULT:    -3.891      2.713      8.633
REMARK INTER + INTRA:         -14.909
REMARK INTER:                 -10.828
REMARK INTRA:                  -4.081
REMARK UNBOUND:                -4.649
REMARK SMILES CCCCCCCCCCCCCCCCCCCCCCCCCCCCCC(=O)[O-]
REMARK SMILES IDX 16 1 17 2 18 3 19 4 20 5 21 6 22 7 23 8 24 9 25 10 26 11
REMARK SMILES IDX 27 12 28 13 29 14 30 15 31 16 32 17 15 18 14 19 13 20 12 21
REMARK SMILES IDX 11 22 10 23 9 24 8 25 7 26 6 27 5 28 4 29 3 30 2 31 1 32
REMARK H PARENT
REMARK Flexibility Score: inf
ROOT
ATOM      1  C   UNL     1     132.804 133.747 133.878  1.00  0.00     0.000 C 
ENDROOT
BRANCH   1   2
ATOM      2  C   UNL     1     133.254 132.742 134.956  1.00  0.00     0.000 C 
BRANCH   2   3
ATOM      3  C   UNL     1     132.716 133.048 136.367  1.00  0.00     0.000 C 
BRANCH   3   4
ATOM      4  C   UNL     1     131.885 134.339 136.428  1.00  0.00     0.000 C 
BRANCH   4   5
ATOM      5  C   UNL     1     132.108 135.118 137.742  1.00  0.00     0.000 C 
BRANCH   5   6
ATOM      6  C   UNL     1     132.104 134.231 139.000  1.00  0.00     0.000 C 
BRANCH   6   7
ATOM      7  C   UNL     1     130.690 133.968 139.547  1.00  0.00     0.000 C 
BRANCH   7   8
ATOM      8  C   UNL     1     130.397 132.473 139.738  1.00  0.00     0.000 C 
BRANCH   8   9
ATOM      9  C   UNL     1     128.902 132.137 139.593  1.00  0.00     0.000 C 
BRANCH   9  10
ATOM     10  C   UNL     1     128.617 131.233 138.376  1.00  0.00     0.000 C 
BRANCH  10  11
ATOM     11  C   UNL     1     129.528 131.505 137.168  1.00  0.00     0.000 C 
BRANCH  11  12
ATOM     12  C   UNL     1     130.359 130.283 136.755  1.00  0.00     0.000 C 
BRANCH  12  13
ATOM     13  C   UNL     1     130.540 130.228 135.233  1.00  0.00     0.006 C 
BRANCH  13  14
ATOM     14  C   UNL     1     129.185 130.205 134.519  1.00  0.00     0.053 C 
BRANCH  14  15
ATOM     15  C   UNL     1     128.435 128.955 134.855  1.00  0.00     0.041 C 
ATOM     16  O   UNL     1     127.298 129.024 135.394  1.00  0.00    -0.550 OA
ATOM     17  O   UNL     1     129.016 127.714 134.630  1.00  0.00    -0.550 OA
ENDBRANCH  14  15
ENDBRANCH  13  14
ENDBRANCH  12  13
ENDBRANCH  11  12
ENDBRANCH  10  11
ENDBRANCH   9  10
ENDBRANCH   8   9
ENDBRANCH   7   8
ENDBRANCH   6   7
ENDBRANCH   5   6
ENDBRANCH   4   5
ENDBRANCH   3   4
ENDBRANCH   2   3
ENDBRANCH   1   2
BRANCH   1  18
ATOM     18  C   UNL     1     133.906 134.068 132.850  1.00  0.00     0.000 C 
BRANCH  18  19
ATOM     19  C   UNL     1     134.141 135.582 132.723  1.00  0.00     0.000 C 
BRANCH  19  20
ATOM     20  C   UNL     1     133.610 136.372 133.943  1.00  0.00     0.000 C 
BRANCH  20  21
ATOM     21  C   UNL     1     132.913 137.687 133.555  1.00  0.00     0.000 C 
BRANCH  21  22
ATOM     22  C   UNL     1     132.680 137.786 132.037  1.00  0.00     0.000 C 
BRANCH  22  23
ATOM     23  C   UNL     1     131.197 137.946 131.662  1.00  0.00     0.000 C 
BRANCH  23  24
ATOM     24  C   UNL     1     130.685 136.974 130.578  1.00  0.00    -0.000 C 
BRANCH  24  25
ATOM     25  C   UNL     1     131.442 135.636 130.486  1.00  0.00    -0.000 C 
BRANCH  25  26
ATOM     26  C   UNL     1     130.511 134.415 130.470  1.00  0.00    -0.000 C 
BRANCH  26  27
ATOM     27  C   UNL     1     131.321 133.110 130.518  1.00  0.00    -0.000 C 
BRANCH  27  28
ATOM     28  C   UNL     1     131.112 132.229 129.277  1.00  0.00    -0.000 C 
BRANCH  28  29
ATOM     29  C   UNL     1     130.366 132.949 128.130  1.00  0.00    -0.000 C 
BRANCH  29  30
ATOM     30  C   UNL     1     129.273 132.077 127.474  1.00  0.00    -0.000 C 
BRANCH  30  31
ATOM     31  C   UNL     1     127.865 132.338 128.037  1.00  0.00    -0.003 C 
ATOM     32  C   UNL     1     127.570 133.821 128.249  1.00  0.00     0.004 C 
ENDBRANCH  30  31
ENDBRANCH  29  30
ENDBRANCH  28  29
ENDBRANCH  27  28
ENDBRANCH  26  27
ENDBRANCH  25  26
ENDBRANCH  24  25
ENDBRANCH  23  24
ENDBRANCH  22  23
ENDBRANCH  21  22
ENDBRANCH  20  21
ENDBRANCH  19  20
ENDBRANCH  18  19
ENDBRANCH   1  18
TORSDOF 28
ENDMDL
MODEL 7
REMARK VINA RESULT:    -3.842      2.536      8.438
REMARK INTER + INTRA:         -14.779
REMARK INTER:                  -9.102
REMARK INTRA:                  -5.677
REMARK UNBOUND:                -4.649
REMARK SMILES CCCCCCCCCCCCCCCCCCCCCCCCCCCCCC(=O)[O-]
REMARK SMILES IDX 16 1 17 2 18 3 19 4 20 5 21 6 22 7 23 8 24 9 25 10 26 11
REMARK SMILES IDX 27 12 28 13 29 14 30 15 31 16 32 17 15 18 14 19 13 20 12 21
REMARK SMILES IDX 11 22 10 23 9 24 8 25 7 26 6 27 5 28 4 29 3 30 2 31 1 32
REMARK H PARENT
REMARK Flexibility Score: inf
ROOT
ATOM      1  C   UNL     1     132.374 132.045 137.473  1.00  0.00     0.000 C 
ENDROOT
BRANCH   1   2
ATOM      2  C   UNL     1     132.165 130.615 136.937  1.00  0.00     0.000 C 
BRANCH   2   3
ATOM      3  C   UNL     1     131.894 130.541 135.423  1.00  0.00     0.000 C 
BRANCH   3   4
ATOM      4  C   UNL     1     130.955 129.388 135.034  1.00  0.00     0.000 C 
BRANCH   4   5
ATOM      5  C   UNL     1     129.722 129.877 134.243  1.00  0.00     0.000 C 
BRANCH   5   6
ATOM      6  C   UNL     1     129.148 131.212 134.749  1.00  0.00     0.000 C 
BRANCH   6   7
ATOM      7  C   UNL     1     128.002 131.031 135.759  1.00  0.00     0.000 C 
BRANCH   7   8
ATOM      8  C   UNL     1     128.461 131.212 137.214  1.00  0.00     0.000 C 
BRANCH   8   9
ATOM      9  C   UNL     1     128.056 130.031 138.115  1.00  0.00     0.000 C 
BRANCH   9  10
ATOM     10  C   UNL     1     129.084 128.882 138.077  1.00  0.00     0.000 C 
BRANCH  10  11
ATOM     11  C   UNL     1     128.556 127.592 137.430  1.00  0.00     0.000 C 
BRANCH  11  12
ATOM     12  C   UNL     1     127.026 127.484 137.465  1.00  0.00     0.000 C 
BRANCH  12  13
ATOM     13  C   UNL     1     126.486 126.845 136.180  1.00  0.00     0.006 C 
BRANCH  13  14
ATOM     14  C   UNL     1     127.347 127.228 134.973  1.00  0.00     0.053 C 
BRANCH  14  15
ATOM     15  C   UNL     1     126.487 127.505 133.781  1.00  0.00     0.041 C 
ATOM     16  O   UNL     1     126.931 127.305 132.618  1.00  0.00    -0.550 OA
ATOM     17  O   UNL     1     125.217 128.040 133.950  1.00  0.00    -0.550 OA
ENDBRANCH  14  15
ENDBRANCH  13  14
ENDBRANCH  12  13
ENDBRANCH  11  12
ENDBRANCH  10  11
ENDBRANCH   9  10
ENDBRANCH   8   9
ENDBRANCH   7   8
ENDBRANCH   6   7
ENDBRANCH   5   6
ENDBRANCH   4   5
ENDBRANCH   3   4
ENDBRANCH   2   3
ENDBRANCH   1   2
BRANCH   1  18
ATOM     18  C   UNL     1     131.659 133.119 136.632  1.00  0.00     0.000 C 
BRANCH  18  19
ATOM     19  C   UNL     1     132.660 134.033 135.907  1.00  0.00     0.000 C 
BRANCH  19  20
ATOM     20  C   UNL     1     134.109 133.857 136.421  1.00  0.00     0.000 C 
BRANCH  20  21
ATOM     21  C   UNL     1     135.061 133.280 135.359  1.00  0.00     0.000 C 
BRANCH  21  22
ATOM     22  C   UNL     1     134.388 133.181 133.979  1.00  0.00     0.000 C 
BRANCH  22  23
ATOM     23  C   UNL     1     135.235 133.789 132.848  1.00  0.00     0.000 C 
BRANCH  23  24
ATOM     24  C   UNL     1     134.761 135.166 132.339  1.00  0.00    -0.000 C 
BRANCH  24  25
ATOM     25  C   UNL     1     134.250 136.128 133.428  1.00  0.00    -0.000 C 
BRANCH  25  26
ATOM     26  C   UNL     1     132.861 136.706 133.121  1.00  0.00    -0.000 C 
BRANCH  26  27
ATOM     27  C   UNL     1     132.593 136.707 131.608  1.00  0.00    -0.000 C 
BRANCH  27  28
ATOM     28  C   UNL     1     131.096 136.749 131.265  1.00  0.00    -0.000 C 
BRANCH  28  29
ATOM     29  C   UNL     1     130.579 135.447 130.612  1.00  0.00    -0.000 C 
BRANCH  29  30
ATOM     30  C   UNL     1     131.698 134.417 130.343  1.00  0.00    -0.000 C 
BRANCH  30  31
ATOM     31  C   UNL     1     131.506 133.094 131.105  1.00  0.00    -0.003 C 
ATOM     32  C   UNL     1     131.280 133.293 132.601  1.00  0.00     0.004 C 
ENDBRANCH  30  31
ENDBRANCH  29  30
ENDBRANCH  28  29
ENDBRANCH  27  28
ENDBRANCH  26  27
ENDBRANCH  25  26
ENDBRANCH  24  25
ENDBRANCH  23  24
ENDBRANCH  22  23
ENDBRANCH  21  22
ENDBRANCH  20  21
ENDBRANCH  19  20
ENDBRANCH  18  19
ENDBRANCH   1  18
TORSDOF 28
ENDMDL
MODEL 8
REMARK VINA RESULT:    -3.836      6.230     11.422
REMARK INTER + INTRA:         -14.765
REMARK INTER:                 -11.354
REMARK INTRA:                  -3.411
REMARK UNBOUND:                -4.649
REMARK SMILES CCCCCCCCCCCCCCCCCCCCCCCCCCCCCC(=O)[O-]
REMARK SMILES IDX 16 1 17 2 18 3 19 4 20 5 21 6 22 7 23 8 24 9 25 10 26 11
REMARK SMILES IDX 27 12 28 13 29 14 30 15 31 16 32 17 15 18 14 19 13 20 12 21
REMARK SMILES IDX 11 22 10 23 9 24 8 25 7 26 6 27 5 28 4 29 3 30 2 31 1 32
REMARK H PARENT
REMARK Flexibility Score: inf
ROOT
ATOM      1  C   UNL     1     125.321 122.369 136.961  1.00  0.00     0.000 C 
ENDROOT
BRANCH   1   2
ATOM      2  C   UNL     1     124.316 121.979 135.859  1.00  0.00     0.000 C 
BRANCH   2   3
ATOM      3  C   UNL     1     124.562 122.673 134.507  1.00  0.00     0.000 C 
BRANCH   3   4
ATOM      4  C   UNL     1     123.972 121.900 133.317  1.00  0.00     0.000 C 
BRANCH   4   5
ATOM      5  C   UNL     1     122.733 121.068 133.715  1.00  0.00     0.000 C 
BRANCH   5   6
ATOM      6  C   UNL     1     122.896 119.556 133.478  1.00  0.00     0.000 C 
BRANCH   6   7
ATOM      7  C   UNL     1     122.987 119.187 131.987  1.00  0.00     0.000 C 
BRANCH   7   8
ATOM      8  C   UNL     1     124.211 118.318 131.666  1.00  0.00     0.000 C 
BRANCH   8   9
ATOM      9  C   UNL     1     124.922 118.749 130.371  1.00  0.00     0.000 C 
BRANCH   9  10
ATOM     10  C   UNL     1     126.044 119.777 130.629  1.00  0.00     0.000 C 
BRANCH  10  11
ATOM     11  C   UNL     1     125.959 121.030 129.742  1.00  0.00     0.000 C 
BRANCH  11  12
ATOM     12  C   UNL     1     124.631 121.783 129.890  1.00  0.00     0.000 C 
BRANCH  12  13
ATOM     13  C   UNL     1     124.718 123.184 129.273  1.00  0.00     0.006 C 
BRANCH  13  14
ATOM     14  C   UNL     1     125.422 123.143 127.914  1.00  0.00     0.053 C 
BRANCH  14  15
ATOM     15  C   UNL     1     126.524 124.153 127.862  1.00  0.00     0.041 C 
ATOM     16  O   UNL     1     126.383 125.274 128.423  1.00  0.00    -0.550 OA
ATOM     17  O   UNL     1     127.683 123.883 127.146  1.00  0.00    -0.550 OA
ENDBRANCH  14  15
ENDBRANCH  13  14
ENDBRANCH  12  13
ENDBRANCH  11  12
ENDBRANCH  10  11
ENDBRANCH   9  10
ENDBRANCH   8   9
ENDBRANCH   7   8
ENDBRANCH   6   7
ENDBRANCH   5   6
ENDBRANCH   4   5
ENDBRANCH   3   4
ENDBRANCH   2   3
ENDBRANCH   1   2
BRANCH   1  18
ATOM     18  C   UNL     1     124.649 122.702 138.306  1.00  0.00     0.000 C 
BRANCH  18  19
ATOM     19  C   UNL     1     125.530 123.616 139.172  1.00  0.00     0.000 C 
BRANCH  19  20
ATOM     20  C   UNL     1     126.905 123.908 138.523  1.00  0.00     0.000 C 
BRANCH  20  21
ATOM     21  C   UNL     1     127.217 125.410 138.419  1.00  0.00     0.000 C 
BRANCH  21  22
ATOM     22  C   UNL     1     128.059 125.736 137.173  1.00  0.00     0.000 C 
BRANCH  22  23
ATOM     23  C   UNL     1     127.621 124.952 135.924  1.00  0.00     0.000 C 
BRANCH  23  24
ATOM     24  C   UNL     1     126.314 125.441 135.266  1.00  0.00    -0.000 C 
BRANCH  24  25
ATOM     25  C   UNL     1     126.485 126.129 133.898  1.00  0.00    -0.000 C 
BRANCH  25  26
ATOM     26  C   UNL     1     125.955 127.570 133.875  1.00  0.00    -0.000 C 
BRANCH  26  27
ATOM     27  C   UNL     1     126.550 128.388 135.031  1.00  0.00    -0.000 C 
BRANCH  27  28
ATOM     28  C   UNL     1     128.062 128.620 134.885  1.00  0.00    -0.000 C 
BRANCH  28  29
ATOM     29  C   UNL     1     128.647 129.558 135.965  1.00  0.00    -0.000 C 
BRANCH  29  30
ATOM     30  C   UNL     1     127.619 129.951 137.048  1.00  0.00    -0.000 C 
BRANCH  30  31
ATOM     31  C   UNL     1     127.936 129.361 138.434  1.00  0.00    -0.003 C 
ATOM     32  C   UNL     1     127.259 130.117 139.575  1.00  0.00     0.004 C 
ENDBRANCH  30  31
ENDBRANCH  29  30
ENDBRANCH  28  29
ENDBRANCH  27  28
ENDBRANCH  26  27
ENDBRANCH  25  26
ENDBRANCH  24  25
ENDBRANCH  23  24
ENDBRANCH  22  23
ENDBRANCH  21  22
ENDBRANCH  20  21
ENDBRANCH  19  20
ENDBRANCH  18  19
ENDBRANCH   1  18
TORSDOF 28
ENDMDL
MODEL 9
REMARK VINA RESULT:    -3.787      2.518      9.176
REMARK INTER + INTRA:         -14.634
REMARK INTER:                 -10.273
REMARK INTRA:                  -4.361
REMARK UNBOUND:                -4.649
REMARK SMILES CCCCCCCCCCCCCCCCCCCCCCCCCCCCCC(=O)[O-]
REMARK SMILES IDX 16 1 17 2 18 3 19 4 20 5 21 6 22 7 23 8 24 9 25 10 26 11
REMARK SMILES IDX 27 12 28 13 29 14 30 15 31 16 32 17 15 18 14 19 13 20 12 21
REMARK SMILES IDX 11 22 10 23 9 24 8 25 7 26 6 27 5 28 4 29 3 30 2 31 1 32
REMARK H PARENT
REMARK Flexibility Score: inf
ROOT
ATOM      1  C   UNL     1     128.322 130.990 137.016  1.00  0.00     0.000 C 
ENDROOT
BRANCH   1   2
ATOM      2  C   UNL     1     128.210 130.459 138.459  1.00  0.00     0.000 C 
BRANCH   2   3
ATOM      3  C   UNL     1     127.884 128.958 138.556  1.00  0.00     0.000 C 
BRANCH   3   4
ATOM      4  C   UNL     1     129.092 128.058 138.253  1.00  0.00     0.000 C 
BRANCH   4   5
ATOM      5  C   UNL     1     128.704 126.566 138.164  1.00  0.00     0.000 C 
BRANCH   5   6
ATOM      6  C   UNL     1     127.193 126.324 138.000  1.00  0.00     0.000 C 
BRANCH   6   7
ATOM      7  C   UNL     1     126.863 124.931 137.438  1.00  0.00     0.000 C 
BRANCH   7   8
ATOM      8  C   UNL     1     127.626 124.619 136.142  1.00  0.00     0.000 C 
BRANCH   8   9
ATOM      9  C   UNL     1     126.697 124.169 135.000  1.00  0.00     0.000 C 
BRANCH   9  10
ATOM     10  C   UNL     1     125.674 125.255 134.611  1.00  0.00     0.000 C 
BRANCH  10  11
ATOM     11  C   UNL     1     126.298 126.492 133.943  1.00  0.00     0.000 C 
BRANCH  11  12
ATOM     12  C   UNL     1     126.110 127.776 134.760  1.00  0.00     0.000 C 
BRANCH  12  13
ATOM     13  C   UNL     1     127.421 128.566 134.859  1.00  0.00     0.006 C 
BRANCH  13  14
ATOM     14  C   UNL     1     128.631 127.650 134.654  1.00  0.00     0.053 C 
BRANCH  14  15
ATOM     15  C   UNL     1     129.747 128.394 133.993  1.00  0.00     0.041 C 
ATOM     16  O   UNL     1     129.540 129.533 133.492  1.00  0.00    -0.550 OA
ATOM     17  O   UNL     1     131.000 127.808 133.875  1.00  0.00    -0.550 OA
ENDBRANCH  14  15
ENDBRANCH  13  14
ENDBRANCH  12  13
ENDBRANCH  11  12
ENDBRANCH  10  11
ENDBRANCH   9  10
ENDBRANCH   8   9
ENDBRANCH   7   8
ENDBRANCH   6   7
ENDBRANCH   5   6
ENDBRANCH   4   5
ENDBRANCH   3   4
ENDBRANCH   2   3
ENDBRANCH   1   2
BRANCH   1  18
ATOM     18  C   UNL     1     129.503 131.958 136.814  1.00  0.00     0.000 C 
BRANCH  18  19
ATOM     19  C   UNL     1     130.796 131.418 137.447  1.00  0.00     0.000 C 
BRANCH  19  20
ATOM     20  C   UNL     1     131.554 130.444 136.513  1.00  0.00     0.000 C 
BRANCH  20  21
ATOM     21  C   UNL     1     133.067 130.715 136.457  1.00  0.00     0.000 C 
BRANCH  21  22
ATOM     22  C   UNL     1     133.451 131.576 135.241  1.00  0.00     0.000 C 
BRANCH  22  23
ATOM     23  C   UNL     1     133.674 133.057 135.594  1.00  0.00     0.000 C 
BRANCH  23  24
ATOM     24  C   UNL     1     132.833 134.061 134.778  1.00  0.00    -0.000 C 
BRANCH  24  25
ATOM     25  C   UNL     1     131.489 133.519 134.256  1.00  0.00    -0.000 C 
BRANCH  25  26
ATOM     26  C   UNL     1     131.510 133.194 132.755  1.00  0.00    -0.000 C 
BRANCH  26  27
ATOM     27  C   UNL     1     132.460 134.141 132.005  1.00  0.00    -0.000 C 
BRANCH  27  28
ATOM     28  C   UNL     1     131.718 135.199 131.175  1.00  0.00    -0.000 C 
BRANCH  28  29
ATOM     29  C   UNL     1     130.547 134.620 130.347  1.00  0.00    -0.000 C 
BRANCH  29  30
ATOM     30  C   UNL     1     131.000 134.001 129.007  1.00  0.00    -0.000 C 
BRANCH  30  31
ATOM     31  C   UNL     1     131.147 132.470 129.060  1.00  0.00    -0.003 C 
ATOM     32  C   UNL     1     129.884 131.732 128.625  1.00  0.00     0.004 C 
ENDBRANCH  30  31
ENDBRANCH  29  30
ENDBRANCH  28  29
ENDBRANCH  27  28
ENDBRANCH  26  27
ENDBRANCH  25  26
ENDBRANCH  24  25
ENDBRANCH  23  24
ENDBRANCH  22  23
ENDBRANCH  21  22
ENDBRANCH  20  21
ENDBRANCH  19  20
ENDBRANCH  18  19
ENDBRANCH   1  18
TORSDOF 28
ENDMDL
