MODEL 1
REMARK VINA RESULT:    -5.705      0.000      0.000
REMARK INTER + INTRA:          -6.039
REMARK INTER:                  -6.039
REMARK INTRA:                   0.000
REMARK UNBOUND:                 0.000
REMARK SMILES O=c1ccc2cc(O)c(O)cc2o1
REMARK SMILES IDX 4 1 3 2 2 3 1 4 13 5 12 6 11 7 9 8 7 9 6 10 5 11 8 12 10 14
REMARK H PARENT 8 13 10 15
REMARK Flexibility Score: inf
ROOT
ATOM      1  C   UNL     1     -33.417  -3.124 -11.607  1.00  0.00     0.019 A 
ATOM      2  C   UNL     1     -33.898  -3.936 -12.635  1.00  0.00     0.094 A 
ATOM      3  C   UNL     1     -35.182  -4.481 -12.522  1.00  0.00     0.336 A 
ATOM      4  O   UNL     1     -35.634  -5.217 -13.438  1.00  0.00    -0.246 OA
ATOM      5  O   UNL     1     -35.931  -4.226 -11.452  1.00  0.00    -0.423 OA
ATOM      6  C   UNL     1     -35.510  -3.456 -10.451  1.00  0.00     0.142 A 
ATOM      7  C   UNL     1     -36.341  -3.224  -9.351  1.00  0.00     0.098 A 
ATOM      8  C   UNL     1     -35.905  -2.413  -8.293  1.00  0.00     0.161 A 
ATOM      9  C   UNL     1     -34.623  -1.832  -8.338  1.00  0.00     0.158 A 
ATOM     10  C   UNL     1     -33.789  -2.063  -9.437  1.00  0.00     0.062 A 
ATOM     11  C   UNL     1     -34.226  -2.873 -10.495  1.00  0.00     0.022 A 
ENDROOT
BRANCH   9  12
ATOM     12  O   UNL     1     -34.164  -1.022  -7.299  1.00  0.00    -0.504 OA
ATOM     13  H   UNL     1     -33.202  -0.712  -7.243  1.00  0.00     0.293 HD
ENDBRANCH   9  12
BRANCH   8  14
ATOM     14  O   UNL     1     -36.737  -2.183  -7.199  1.00  0.00    -0.504 OA
ATOM     15  H   UNL     1     -36.852  -2.874  -6.465  1.00  0.00     0.293 HD
ENDBRANCH   8  14
TORSDOF 2
ENDMDL
MODEL 2
REMARK VINA RESULT:    -5.482      1.227      4.444
REMARK INTER + INTRA:          -5.802
REMARK INTER:                  -5.802
REMARK INTRA:                   0.000
REMARK UNBOUND:                 0.000
REMARK SMILES O=c1ccc2cc(O)c(O)cc2o1
REMARK SMILES IDX 4 1 3 2 2 3 1 4 13 5 12 6 11 7 9 8 7 9 6 10 5 11 8 12 10 14
REMARK H PARENT 8 13 10 15
REMARK Flexibility Score: inf
ROOT
ATOM      1  C   UNL     1     -33.151  -2.747 -10.683  1.00  0.00     0.019 A 
ATOM      2  C   UNL     1     -33.111  -2.017  -9.495  1.00  0.00     0.094 A 
ATOM      3  C   UNL     1     -34.282  -1.889  -8.740  1.00  0.00     0.336 A 
ATOM      4  O   UNL     1     -34.268  -1.233  -7.665  1.00  0.00    -0.246 OA
ATOM      5  O   UNL     1     -35.414  -2.455  -9.151  1.00  0.00    -0.423 OA
ATOM      6  C   UNL     1     -35.494  -3.160 -10.277  1.00  0.00     0.142 A 
ATOM      7  C   UNL     1     -36.711  -3.733 -10.658  1.00  0.00     0.098 A 
ATOM      8  C   UNL     1     -36.803  -4.478 -11.843  1.00  0.00     0.161 A 
ATOM      9  C   UNL     1     -35.665  -4.648 -12.654  1.00  0.00     0.158 A 
ATOM     10  C   UNL     1     -34.445  -4.075 -12.275  1.00  0.00     0.062 A 
ATOM     11  C   UNL     1     -34.353  -3.332 -11.090  1.00  0.00     0.022 A 
ENDROOT
BRANCH   9  12
ATOM     12  O   UNL     1     -35.728  -5.383 -13.837  1.00  0.00    -0.504 OA
ATOM     13  H   UNL     1     -36.448  -6.075 -14.003  1.00  0.00     0.293 HD
ENDBRANCH   9  12
BRANCH   8  14
ATOM     14  O   UNL     1     -38.018  -5.047 -12.219  1.00  0.00    -0.504 OA
ATOM     15  H   UNL     1     -38.448  -4.839 -13.113  1.00  0.00     0.293 HD
ENDBRANCH   8  14
TORSDOF 2
ENDMDL
MODEL 3
REMARK VINA RESULT:    -5.444      1.066      5.029
REMARK INTER + INTRA:          -5.762
REMARK INTER:                  -5.762
REMARK INTRA:                   0.000
REMARK UNBOUND:                 0.000
REMARK SMILES O=c1ccc2cc(O)c(O)cc2o1
REMARK SMILES IDX 4 1 3 2 2 3 1 4 13 5 12 6 11 7 9 8 7 9 6 10 5 11 8 12 10 14
REMARK H PARENT 8 13 10 15
REMARK Flexibility Score: inf
ROOT
ATOM      1  C   UNL     1     -36.555  -3.129  -8.962  1.00  0.00     0.019 A 
ATOM      2  C   UNL     1     -36.041  -2.330  -7.942  1.00  0.00     0.094 A 
ATOM      3  C   UNL     1     -34.763  -1.780  -8.092  1.00  0.00     0.336 A 
ATOM      4  O   UNL     1     -34.279  -1.057  -7.182  1.00  0.00    -0.246 OA
ATOM      5  O   UNL     1     -34.052  -2.016  -9.192  1.00  0.00    -0.423 OA
ATOM      6  C   UNL     1     -34.507  -2.772 -10.189  1.00  0.00     0.142 A 
ATOM      7  C   UNL     1     -33.715  -2.985 -11.321  1.00  0.00     0.098 A 
ATOM      8  C   UNL     1     -34.188  -3.780 -12.376  1.00  0.00     0.161 A 
ATOM      9  C   UNL     1     -35.465  -4.367 -12.294  1.00  0.00     0.158 A 
ATOM     10  C   UNL     1     -36.260  -4.155 -11.161  1.00  0.00     0.062 A 
ATOM     11  C   UNL     1     -35.787  -3.360 -10.107  1.00  0.00     0.022 A 
ENDROOT
BRANCH   9  12
ATOM     12  O   UNL     1     -35.960  -5.162 -13.327  1.00  0.00    -0.504 OA
ATOM     13  H   UNL     1     -36.859  -5.623 -13.269  1.00  0.00     0.293 HD
ENDBRANCH   9  12
BRANCH   8  14
ATOM     14  O   UNL     1     -33.396  -3.990 -13.503  1.00  0.00    -0.504 OA
ATOM     15  H   UNL     1     -33.624  -4.704 -14.186  1.00  0.00     0.293 HD
ENDBRANCH   8  14
TORSDOF 2
ENDMDL
MODEL 4
REMARK VINA RESULT:    -5.290      1.087      2.243
REMARK INTER + INTRA:          -5.599
REMARK INTER:                  -5.599
REMARK INTRA:                   0.000
REMARK UNBOUND:                 0.000
REMARK SMILES O=c1ccc2cc(O)c(O)cc2o1
REMARK SMILES IDX 4 1 3 2 2 3 1 4 13 5 12 6 11 7 9 8 7 9 6 10 5 11 8 12 10 14
REMARK H PARENT 8 13 10 15
REMARK Flexibility Score: inf
ROOT
ATOM      1  C   UNL     1     -36.105  -4.390 -11.325  1.00  0.00     0.019 A 
ATOM      2  C   UNL     1     -35.348  -4.513 -12.489  1.00  0.00     0.094 A 
ATOM      3  C   UNL     1     -34.157  -3.786 -12.602  1.00  0.00     0.336 A 
ATOM      4  O   UNL     1     -33.459  -3.882 -13.646  1.00  0.00    -0.246 OA
ATOM      5  O   UNL     1     -33.756  -2.992 -11.612  1.00  0.00    -0.423 OA
ATOM      6  C   UNL     1     -34.449  -2.847 -10.485  1.00  0.00     0.142 A 
ATOM      7  C   UNL     1     -33.978  -1.998  -9.480  1.00  0.00     0.098 A 
ATOM      8  C   UNL     1     -34.703  -1.842  -8.288  1.00  0.00     0.161 A 
ATOM      9  C   UNL     1     -35.910  -2.542  -8.106  1.00  0.00     0.158 A 
ATOM     10  C   UNL     1     -36.384  -3.392  -9.111  1.00  0.00     0.062 A 
ATOM     11  C   UNL     1     -35.660  -3.549 -10.301  1.00  0.00     0.022 A 
ENDROOT
BRANCH   9  12
ATOM     12  O   UNL     1     -36.651  -2.404  -6.932  1.00  0.00    -0.504 OA
ATOM     13  H   UNL     1     -36.285  -2.680  -6.029  1.00  0.00     0.293 HD
ENDBRANCH   9  12
BRANCH   8  14
ATOM     14  O   UNL     1     -34.230  -0.995  -7.288  1.00  0.00    -0.504 OA
ATOM     15  H   UNL     1     -33.956  -0.039  -7.487  1.00  0.00     0.293 HD
ENDBRANCH   8  14
TORSDOF 2
ENDMDL
MODEL 5
REMARK VINA RESULT:    -5.131      1.569      2.824
REMARK INTER + INTRA:          -5.431
REMARK INTER:                  -5.431
REMARK INTRA:                   0.000
REMARK UNBOUND:                 0.000
REMARK SMILES O=c1ccc2cc(O)c(O)cc2o1
REMARK SMILES IDX 4 1 3 2 2 3 1 4 13 5 12 6 11 7 9 8 7 9 6 10 5 11 8 12 10 14
REMARK H PARENT 8 13 10 15
REMARK Flexibility Score: inf
ROOT
ATOM      1  C   UNL     1     -37.074  -4.134 -11.279  1.00  0.00     0.019 A 
ATOM      2  C   UNL     1     -37.261  -4.832 -12.471  1.00  0.00     0.094 A 
ATOM      3  C   UNL     1     -36.178  -4.984 -13.344  1.00  0.00     0.336 A 
ATOM      4  O   UNL     1     -36.326  -5.610 -14.426  1.00  0.00    -0.246 OA
ATOM      5  O   UNL     1     -34.989  -4.469 -13.038  1.00  0.00    -0.423 OA
ATOM      6  C   UNL     1     -34.769  -3.796 -11.911  1.00  0.00     0.142 A 
ATOM      7  C   UNL     1     -33.499  -3.278 -11.644  1.00  0.00     0.098 A 
ATOM      8  C   UNL     1     -33.259  -2.568 -10.457  1.00  0.00     0.161 A 
ATOM      9  C   UNL     1     -34.303  -2.377  -9.532  1.00  0.00     0.158 A 
ATOM     10  C   UNL     1     -35.576  -2.895  -9.798  1.00  0.00     0.062 A 
ATOM     11  C   UNL     1     -35.815  -3.604 -10.983  1.00  0.00     0.022 A 
ENDROOT
BRANCH   9  12
ATOM     12  O   UNL     1     -34.093  -1.675  -8.345  1.00  0.00    -0.504 OA
ATOM     13  H   UNL     1     -34.301  -2.076  -7.439  1.00  0.00     0.293 HD
ENDBRANCH   9  12
BRANCH   8  14
ATOM     14  O   UNL     1     -31.991  -2.054 -10.194  1.00  0.00    -0.504 OA
ATOM     15  H   UNL     1     -31.342  -1.834 -10.940  1.00  0.00     0.293 HD
ENDBRANCH   8  14
TORSDOF 2
ENDMDL
MODEL 6
REMARK VINA RESULT:    -5.118     13.384     14.599
REMARK INTER + INTRA:          -5.417
REMARK INTER:                  -5.417
REMARK INTRA:                   0.000
REMARK UNBOUND:                 0.000
REMARK SMILES O=c1ccc2cc(O)c(O)cc2o1
REMARK SMILES IDX 4 1 3 2 2 3 1 4 13 5 12 6 11 7 9 8 7 9 6 10 5 11 8 12 10 14
REMARK H PARENT 8 13 10 15
REMARK Flexibility Score: inf
ROOT
ATOM      1  C   UNL     1     -20.163  -7.629  -8.756  1.00  0.00     0.019 A 
ATOM      2  C   UNL     1     -19.529  -8.275  -7.695  1.00  0.00     0.094 A 
ATOM      3  C   UNL     1     -19.811  -7.865  -6.387  1.00  0.00     0.336 A 
ATOM      4  O   UNL     1     -19.249  -8.435  -5.415  1.00  0.00    -0.246 OA
ATOM      5  O   UNL     1     -20.670  -6.874  -6.162  1.00  0.00    -0.423 OA
ATOM      6  C   UNL     1     -21.296  -6.232  -7.146  1.00  0.00     0.142 A 
ATOM      7  C   UNL     1     -22.189  -5.198  -6.848  1.00  0.00     0.098 A 
ATOM      8  C   UNL     1     -22.852  -4.518  -7.880  1.00  0.00     0.161 A 
ATOM      9  C   UNL     1     -22.617  -4.876  -9.221  1.00  0.00     0.158 A 
ATOM     10  C   UNL     1     -21.724  -5.911  -9.521  1.00  0.00     0.062 A 
ATOM     11  C   UNL     1     -21.061  -6.591  -8.490  1.00  0.00     0.022 A 
ENDROOT
BRANCH   9  12
ATOM     12  O   UNL     1     -23.263  -4.216 -10.266  1.00  0.00    -0.504 OA
ATOM     13  H   UNL     1     -24.143  -3.732 -10.134  1.00  0.00     0.293 HD
ENDBRANCH   9  12
BRANCH   8  14
ATOM     14  O   UNL     1     -23.742  -3.488  -7.579  1.00  0.00    -0.504 OA
ATOM     15  H   UNL     1     -23.842  -2.680  -8.183  1.00  0.00     0.293 HD
ENDBRANCH   8  14
TORSDOF 2
ENDMDL
MODEL 7
REMARK VINA RESULT:    -5.095      1.611      3.055
REMARK INTER + INTRA:          -5.393
REMARK INTER:                  -5.393
REMARK INTRA:                   0.000
REMARK UNBOUND:                 0.000
REMARK SMILES O=c1ccc2cc(O)c(O)cc2o1
REMARK SMILES IDX 4 1 3 2 2 3 1 4 13 5 12 6 11 7 9 8 7 9 6 10 5 11 8 12 10 14
REMARK H PARENT 8 13 10 15
REMARK Flexibility Score: inf
ROOT
ATOM      1  C   UNL     1     -37.879  -3.365  -9.075  1.00  0.00     0.019 A 
ATOM      2  C   UNL     1     -38.482  -4.217 -10.000  1.00  0.00     0.094 A 
ATOM      3  C   UNL     1     -37.729  -4.682 -11.084  1.00  0.00     0.336 A 
ATOM      4  O   UNL     1     -38.255  -5.450 -11.930  1.00  0.00    -0.246 OA
ATOM      5  O   UNL     1     -36.457  -4.316 -11.227  1.00  0.00    -0.423 OA
ATOM      6  C   UNL     1     -35.844  -3.505 -10.366  1.00  0.00     0.142 A 
ATOM      7  C   UNL     1     -34.506  -3.156 -10.569  1.00  0.00     0.098 A 
ATOM      8  C   UNL     1     -33.854  -2.303  -9.666  1.00  0.00     0.161 A 
ATOM      9  C   UNL     1     -34.550  -1.796  -8.552  1.00  0.00     0.158 A 
ATOM     10  C   UNL     1     -35.890  -2.145  -8.348  1.00  0.00     0.062 A 
ATOM     11  C   UNL     1     -36.542  -2.997  -9.250  1.00  0.00     0.022 A 
ENDROOT
BRANCH   9  12
ATOM     12  O   UNL     1     -33.926  -0.946  -7.639  1.00  0.00    -0.504 OA
ATOM     13  H   UNL     1     -32.967  -0.642  -7.755  1.00  0.00     0.293 HD
ENDBRANCH   9  12
BRANCH   8  14
ATOM     14  O   UNL     1     -32.520  -1.956  -9.870  1.00  0.00    -0.504 OA
ATOM     15  H   UNL     1     -31.976  -1.491  -9.152  1.00  0.00     0.293 HD
ENDBRANCH   8  14
TORSDOF 2
ENDMDL
MODEL 8
REMARK VINA RESULT:    -4.974     13.165     14.039
REMARK INTER + INTRA:          -5.265
REMARK INTER:                  -5.265
REMARK INTRA:                   0.000
REMARK UNBOUND:                 0.000
REMARK SMILES O=c1ccc2cc(O)c(O)cc2o1
REMARK SMILES IDX 4 1 3 2 2 3 1 4 13 5 12 6 11 7 9 8 7 9 6 10 5 11 8 12 10 14
REMARK H PARENT 8 13 10 15
REMARK Flexibility Score: inf
ROOT
ATOM      1  C   UNL     1     -22.221  -6.108  -7.015  1.00  0.00     0.019 A 
ATOM      2  C   UNL     1     -22.148  -5.615  -5.712  1.00  0.00     0.094 A 
ATOM      3  C   UNL     1     -21.974  -4.240  -5.518  1.00  0.00     0.336 A 
ATOM      4  O   UNL     1     -21.905  -3.775  -4.350  1.00  0.00    -0.246 OA
ATOM      5  O   UNL     1     -21.881  -3.419  -6.561  1.00  0.00    -0.423 OA
ATOM      6  C   UNL     1     -21.946  -3.849  -7.819  1.00  0.00     0.142 A 
ATOM      7  C   UNL     1     -21.841  -2.938  -8.875  1.00  0.00     0.098 A 
ATOM      8  C   UNL     1     -21.910  -3.385 -10.203  1.00  0.00     0.161 A 
ATOM      9  C   UNL     1     -22.084  -4.755 -10.474  1.00  0.00     0.158 A 
ATOM     10  C   UNL     1     -22.188  -5.668  -9.419  1.00  0.00     0.062 A 
ATOM     11  C   UNL     1     -22.120  -5.222  -8.091  1.00  0.00     0.022 A 
ENDROOT
BRANCH   9  12
ATOM     12  O   UNL     1     -22.154  -5.226 -11.785  1.00  0.00    -0.504 OA
ATOM     13  H   UNL     1     -21.836  -6.152 -12.043  1.00  0.00     0.293 HD
ENDBRANCH   9  12
BRANCH   8  14
ATOM     14  O   UNL     1     -21.806  -2.474 -11.253  1.00  0.00    -0.504 OA
ATOM     15  H   UNL     1     -22.455  -1.702 -11.352  1.00  0.00     0.293 HD
ENDBRANCH   8  14
TORSDOF 2
ENDMDL
MODEL 9
REMARK VINA RESULT:    -4.938     13.183     13.843
REMARK INTER + INTRA:          -5.227
REMARK INTER:                  -5.227
REMARK INTRA:                   0.000
REMARK UNBOUND:                 0.000
REMARK SMILES O=c1ccc2cc(O)c(O)cc2o1
REMARK SMILES IDX 4 1 3 2 2 3 1 4 13 5 12 6 11 7 9 8 7 9 6 10 5 11 8 12 10 14
REMARK H PARENT 8 13 10 15
REMARK Flexibility Score: inf
ROOT
ATOM      1  C   UNL     1     -22.042  -3.496  -6.420  1.00  0.00     0.019 A 
ATOM      2  C   UNL     1     -22.156  -4.450  -5.409  1.00  0.00     0.094 A 
ATOM      3  C   UNL     1     -22.284  -5.799  -5.762  1.00  0.00     0.336 A 
ATOM      4  O   UNL     1     -22.389  -6.675  -4.865  1.00  0.00    -0.246 OA
ATOM      5  O   UNL     1     -22.295  -6.162  -7.042  1.00  0.00    -0.423 OA
ATOM      6  C   UNL     1     -22.189  -5.283  -8.037  1.00  0.00     0.142 A 
ATOM      7  C   UNL     1     -22.207  -5.723  -9.363  1.00  0.00     0.098 A 
ATOM      8  C   UNL     1     -22.095  -4.803 -10.416  1.00  0.00     0.161 A 
ATOM      9  C   UNL     1     -21.964  -3.429 -10.135  1.00  0.00     0.158 A 
ATOM     10  C   UNL     1     -21.945  -2.986  -8.808  1.00  0.00     0.062 A 
ATOM     11  C   UNL     1     -22.057  -3.906  -7.756  1.00  0.00     0.022 A 
ENDROOT
BRANCH   9  12
ATOM     12  O   UNL     1     -21.851  -2.493 -11.163  1.00  0.00    -0.504 OA
ATOM     13  H   UNL     1     -21.058  -2.478 -11.792  1.00  0.00     0.293 HD
ENDBRANCH   9  12
BRANCH   8  14
ATOM     14  O   UNL     1     -22.113  -5.246 -11.737  1.00  0.00    -0.504 OA
ATOM     15  H   UNL     1     -21.789  -4.659 -12.498  1.00  0.00     0.293 HD
ENDBRANCH   8  14
TORSDOF 2
ENDMDL
