MODEL 1
REMARK VINA RESULT:    -6.096      0.000      0.000
REMARK INTER + INTRA:          -7.438
REMARK INTER:                  -7.165
REMARK INTRA:                  -0.273
REMARK UNBOUND:                -0.273
REMARK SMILES O=c1cc(-c2ccc(O)c(O)c2)oc2cc(O)cc(O)c12
REMARK SMILES IDX 4 1 3 2 2 3 1 4 21 5 19 6 18 7 16 8 15 9 14 10 13 11 5 12
REMARK SMILES IDX 6 13 7 14 8 15 12 16 10 17 9 18 11 20 20 22 17 24
REMARK H PARENT 9 19 11 21 20 23 17 25
REMARK Flexibility Score: inf
ROOT
ATOM      1  C   UNL     1       1.398  -3.741  22.839  1.00  0.00     0.138 A 
ATOM      2  C   UNL     1       2.419  -3.546  23.780  1.00  0.00     0.100 A 
ATOM      3  C   UNL     1       2.090  -3.274  25.109  1.00  0.00     0.197 A 
ATOM      4  O   UNL     1       3.026  -3.166  25.942  1.00  0.00    -0.289 OA
ATOM      5  C   UNL     1       0.731  -3.167  25.490  1.00  0.00     0.107 A 
ATOM      6  C   UNL     1       0.279  -2.854  26.806  1.00  0.00     0.134 A 
ATOM      7  C   UNL     1      -1.092  -2.889  27.091  1.00  0.00     0.093 A 
ATOM      8  C   UNL     1      -2.029  -3.168  26.092  1.00  0.00     0.123 A 
ATOM      9  C   UNL     1      -1.600  -3.421  24.792  1.00  0.00     0.094 A 
ATOM     10  C   UNL     1      -0.238  -3.427  24.484  1.00  0.00     0.146 A 
ATOM     11  O   UNL     1       0.130  -3.688  23.234  1.00  0.00    -0.456 OA
ENDROOT
BRANCH   1  12
ATOM     12  C   UNL     1       1.691  -4.031  21.413  1.00  0.00     0.021 A 
ATOM     13  C   UNL     1       2.340  -5.231  21.072  1.00  0.00     0.016 A 
ATOM     14  C   UNL     1       2.620  -5.532  19.736  1.00  0.00     0.051 A 
ATOM     15  C   UNL     1       2.251  -4.648  18.719  1.00  0.00     0.157 A 
ATOM     16  C   UNL     1       1.309  -3.149  20.383  1.00  0.00     0.062 A 
ATOM     17  C   UNL     1       1.589  -3.452  19.042  1.00  0.00     0.158 A 
BRANCH  15  18
ATOM     18  O   UNL     1       2.546  -4.974  17.396  1.00  0.00    -0.504 OA
ATOM     19  H   UNL     1       2.004  -5.655  16.876  1.00  0.00     0.293 HD
ENDBRANCH  15  18
BRANCH  17  20
ATOM     20  O   UNL     1       1.207  -2.571  18.031  1.00  0.00    -0.504 OA
ATOM     21  H   UNL     1       1.082  -1.581  18.208  1.00  0.00     0.293 HD
ENDBRANCH  17  20
ENDBRANCH   1  12
BRANCH   6  22
ATOM     22  O   UNL     1       1.125  -2.480  27.855  1.00  0.00    -0.507 OA
ATOM     23  H   UNL     1       2.132  -2.480  27.810  1.00  0.00     0.293 HD
ENDBRANCH   6  22
BRANCH   8  24
ATOM     24  O   UNL     1      -3.392  -3.186  26.383  1.00  0.00    -0.508 OA
ATOM     25  H   UNL     1      -4.086  -3.333  25.660  1.00  0.00     0.293 HD
ENDBRANCH   8  24
TORSDOF 5
ENDMDL
MODEL 2
REMARK VINA RESULT:    -5.987      4.837      7.577
REMARK INTER + INTRA:          -7.309
REMARK INTER:                  -7.044
REMARK INTRA:                  -0.265
REMARK UNBOUND:                -0.273
REMARK SMILES O=c1cc(-c2ccc(O)c(O)c2)oc2cc(O)cc(O)c12
REMARK SMILES IDX 4 1 3 2 2 3 1 4 21 5 19 6 18 7 16 8 15 9 14 10 13 11 5 12
REMARK SMILES IDX 6 13 7 14 8 15 12 16 10 17 9 18 11 20 20 22 17 24
REMARK H PARENT 9 19 11 21 20 23 17 25
REMARK Flexibility Score: inf
ROOT
ATOM      1  C   UNL     1      -1.951  -0.962  20.091  1.00  0.00     0.138 A 
ATOM      2  C   UNL     1      -1.208  -0.871  21.276  1.00  0.00     0.100 A 
ATOM      3  C   UNL     1      -0.012  -1.580  21.398  1.00  0.00     0.197 A 
ATOM      4  O   UNL     1       0.664  -1.430  22.448  1.00  0.00    -0.289 OA
ATOM      5  C   UNL     1       0.425  -2.409  20.337  1.00  0.00     0.107 A 
ATOM      6  C   UNL     1       1.606  -3.210  20.365  1.00  0.00     0.134 A 
ATOM      7  C   UNL     1       1.999  -3.900  19.211  1.00  0.00     0.093 A 
ATOM      8  C   UNL     1       1.221  -3.866  18.051  1.00  0.00     0.123 A 
ATOM      9  C   UNL     1       0.038  -3.132  18.032  1.00  0.00     0.094 A 
ATOM     10  C   UNL     1      -0.363  -2.405  19.155  1.00  0.00     0.146 A 
ATOM     11  O   UNL     1      -1.491  -1.705  19.089  1.00  0.00    -0.456 OA
ENDROOT
BRANCH   1  12
ATOM     12  C   UNL     1      -3.230  -0.230  19.909  1.00  0.00     0.021 A 
ATOM     13  C   UNL     1      -3.205   1.101  19.457  1.00  0.00     0.016 A 
ATOM     14  C   UNL     1      -4.395   1.809  19.270  1.00  0.00     0.051 A 
ATOM     15  C   UNL     1      -5.628   1.201  19.521  1.00  0.00     0.157 A 
ATOM     16  C   UNL     1      -4.475  -0.843  20.148  1.00  0.00     0.062 A 
ATOM     17  C   UNL     1      -5.670  -0.133  19.959  1.00  0.00     0.158 A 
BRANCH  15  18
ATOM     18  O   UNL     1      -6.798   1.934  19.327  1.00  0.00    -0.504 OA
ATOM     19  H   UNL     1      -6.789   2.939  19.198  1.00  0.00     0.293 HD
ENDBRANCH  15  18
BRANCH  17  20
ATOM     20  O   UNL     1      -6.897  -0.749  20.200  1.00  0.00    -0.504 OA
ATOM     21  H   UNL     1      -6.981  -1.757  20.274  1.00  0.00     0.293 HD
ENDBRANCH  17  20
ENDBRANCH   1  12
BRANCH   6  22
ATOM     22  O   UNL     1       2.408  -3.379  21.498  1.00  0.00    -0.507 OA
ATOM     23  H   UNL     1       2.744  -2.631  22.084  1.00  0.00     0.293 HD
ENDBRANCH   6  22
BRANCH   8  24
ATOM     24  O   UNL     1       1.613  -4.569  16.913  1.00  0.00    -0.508 OA
ATOM     25  H   UNL     1       2.256  -5.350  16.968  1.00  0.00     0.293 HD
ENDBRANCH   8  24
TORSDOF 5
ENDMDL
MODEL 3
REMARK VINA RESULT:    -5.960      4.641      6.273
REMARK INTER + INTRA:          -7.277
REMARK INTER:                  -6.982
REMARK INTRA:                  -0.296
REMARK UNBOUND:                -0.273
REMARK SMILES O=c1cc(-c2ccc(O)c(O)c2)oc2cc(O)cc(O)c12
REMARK SMILES IDX 4 1 3 2 2 3 1 4 21 5 19 6 18 7 16 8 15 9 14 10 13 11 5 12
REMARK SMILES IDX 6 13 7 14 8 15 12 16 10 17 9 18 11 20 20 22 17 24
REMARK H PARENT 9 19 11 21 20 23 17 25
REMARK Flexibility Score: inf
ROOT
ATOM      1  C   UNL     1      -1.989  -1.111  20.780  1.00  0.00     0.138 A 
ATOM      2  C   UNL     1      -0.923  -1.552  19.982  1.00  0.00     0.100 A 
ATOM      3  C   UNL     1       0.244  -2.021  20.587  1.00  0.00     0.197 A 
ATOM      4  O   UNL     1       1.158  -2.468  19.847  1.00  0.00    -0.289 OA
ATOM      5  C   UNL     1       0.354  -2.021  21.998  1.00  0.00     0.107 A 
ATOM      6  C   UNL     1       1.510  -2.438  22.723  1.00  0.00     0.134 A 
ATOM      7  C   UNL     1       1.461  -2.504  24.121  1.00  0.00     0.093 A 
ATOM      8  C   UNL     1       0.319  -2.109  24.822  1.00  0.00     0.123 A 
ATOM      9  C   UNL     1      -0.795  -1.648  24.126  1.00  0.00     0.094 A 
ATOM     10  C   UNL     1      -0.790  -1.604  22.730  1.00  0.00     0.146 A 
ATOM     11  O   UNL     1      -1.880  -1.172  22.103  1.00  0.00    -0.456 OA
ENDROOT
BRANCH   1  12
ATOM     12  C   UNL     1      -3.252  -0.601  20.189  1.00  0.00     0.021 A 
ATOM     13  C   UNL     1      -3.197   0.239  19.063  1.00  0.00     0.016 A 
ATOM     14  C   UNL     1      -4.372   0.725  18.482  1.00  0.00     0.051 A 
ATOM     15  C   UNL     1      -5.618   0.375  19.008  1.00  0.00     0.157 A 
ATOM     16  C   UNL     1      -4.511  -0.962  20.707  1.00  0.00     0.062 A 
ATOM     17  C   UNL     1      -5.690  -0.475  20.123  1.00  0.00     0.158 A 
BRANCH  15  18
ATOM     18  O   UNL     1      -6.773   0.878  18.408  1.00  0.00    -0.504 OA
ATOM     19  H   UNL     1      -7.699   0.608  18.715  1.00  0.00     0.293 HD
ENDBRANCH  15  18
BRANCH  17  20
ATOM     20  O   UNL     1      -6.931  -0.837  20.646  1.00  0.00    -0.504 OA
ATOM     21  H   UNL     1      -7.395  -1.694  20.367  1.00  0.00     0.293 HD
ENDBRANCH  17  20
ENDBRANCH   1  12
BRANCH   6  22
ATOM     22  O   UNL     1       2.729  -2.772  22.125  1.00  0.00    -0.507 OA
ATOM     23  H   UNL     1       2.939  -2.662  21.144  1.00  0.00     0.293 HD
ENDBRANCH   6  22
BRANCH   8  24
ATOM     24  O   UNL     1       0.286  -2.163  26.214  1.00  0.00    -0.508 OA
ATOM     25  H   UNL     1       0.569  -2.995  26.719  1.00  0.00     0.293 HD
ENDBRANCH   8  24
TORSDOF 5
ENDMDL
MODEL 4
REMARK VINA RESULT:    -5.674      4.562      6.453
REMARK INTER + INTRA:          -6.942
REMARK INTER:                  -6.654
REMARK INTRA:                  -0.287
REMARK UNBOUND:                -0.273
REMARK SMILES O=c1cc(-c2ccc(O)c(O)c2)oc2cc(O)cc(O)c12
REMARK SMILES IDX 4 1 3 2 2 3 1 4 21 5 19 6 18 7 16 8 15 9 14 10 13 11 5 12
REMARK SMILES IDX 6 13 7 14 8 15 12 16 10 17 9 18 11 20 20 22 17 24
REMARK H PARENT 9 19 11 21 20 23 17 25
REMARK Flexibility Score: inf
ROOT
ATOM      1  C   UNL     1      -2.919  -1.230  22.443  1.00  0.00     0.138 A 
ATOM      2  C   UNL     1      -3.276  -1.750  23.696  1.00  0.00     0.100 A 
ATOM      3  C   UNL     1      -2.288  -2.257  24.540  1.00  0.00     0.197 A 
ATOM      4  O   UNL     1      -2.630  -2.660  25.681  1.00  0.00    -0.289 OA
ATOM      5  C   UNL     1      -0.938  -2.270  24.114  1.00  0.00     0.107 A 
ATOM      6  C   UNL     1       0.149  -2.799  24.873  1.00  0.00     0.134 A 
ATOM      7  C   UNL     1       1.458  -2.651  24.398  1.00  0.00     0.093 A 
ATOM      8  C   UNL     1       1.714  -2.048  23.164  1.00  0.00     0.123 A 
ATOM      9  C   UNL     1       0.656  -1.578  22.391  1.00  0.00     0.094 A 
ATOM     10  C   UNL     1      -0.658  -1.679  22.852  1.00  0.00     0.146 A 
ATOM     11  O   UNL     1      -1.639  -1.204  22.090  1.00  0.00    -0.456 OA
ENDROOT
BRANCH   1  12
ATOM     12  C   UNL     1      -3.931  -0.679  21.507  1.00  0.00     0.021 A 
ATOM     13  C   UNL     1      -3.698  -0.744  20.122  1.00  0.00     0.016 A 
ATOM     14  C   UNL     1      -4.638  -0.241  19.219  1.00  0.00     0.051 A 
ATOM     15  C   UNL     1      -5.829   0.326  19.680  1.00  0.00     0.157 A 
ATOM     16  C   UNL     1      -5.139  -0.119  21.966  1.00  0.00     0.062 A 
ATOM     17  C   UNL     1      -6.084   0.385  21.060  1.00  0.00     0.158 A 
BRANCH  15  18
ATOM     18  O   UNL     1      -6.748   0.822  18.755  1.00  0.00    -0.504 OA
ATOM     19  H   UNL     1      -6.926   1.814  18.653  1.00  0.00     0.293 HD
ENDBRANCH  15  18
BRANCH  17  20
ATOM     20  O   UNL     1      -7.275   0.939  21.527  1.00  0.00    -0.504 OA
ATOM     21  H   UNL     1      -7.282   1.748  22.139  1.00  0.00     0.293 HD
ENDBRANCH  17  20
ENDBRANCH   1  12
BRANCH   6  22
ATOM     22  O   UNL     1      -0.004  -3.494  26.076  1.00  0.00    -0.507 OA
ATOM     23  H   UNL     1      -0.086  -4.496  26.156  1.00  0.00     0.293 HD
ENDBRANCH   6  22
BRANCH   8  24
ATOM     24  O   UNL     1       3.020  -1.919  22.693  1.00  0.00    -0.508 OA
ATOM     25  H   UNL     1       3.748  -1.499  23.258  1.00  0.00     0.293 HD
ENDBRANCH   8  24
TORSDOF 5
ENDMDL
MODEL 5
REMARK VINA RESULT:    -5.651      4.182      6.755
REMARK INTER + INTRA:          -6.915
REMARK INTER:                  -6.632
REMARK INTRA:                  -0.283
REMARK UNBOUND:                -0.273
REMARK SMILES O=c1cc(-c2ccc(O)c(O)c2)oc2cc(O)cc(O)c12
REMARK SMILES IDX 4 1 3 2 2 3 1 4 21 5 19 6 18 7 16 8 15 9 14 10 13 11 5 12
REMARK SMILES IDX 6 13 7 14 8 15 12 16 10 17 9 18 11 20 20 22 17 24
REMARK H PARENT 9 19 11 21 20 23 17 25
REMARK Flexibility Score: inf
ROOT
ATOM      1  C   UNL     1      -3.021  -1.273  23.596  1.00  0.00     0.138 A 
ATOM      2  C   UNL     1      -2.966  -1.665  24.941  1.00  0.00     0.100 A 
ATOM      3  C   UNL     1      -1.825  -2.304  25.428  1.00  0.00     0.197 A 
ATOM      4  O   UNL     1      -1.780  -2.587  26.653  1.00  0.00    -0.289 OA
ATOM      5  C   UNL     1      -0.746  -2.579  24.555  1.00  0.00     0.107 A 
ATOM      6  C   UNL     1       0.451  -3.260  24.930  1.00  0.00     0.134 A 
ATOM      7  C   UNL     1       1.499  -3.372  24.008  1.00  0.00     0.093 A 
ATOM      8  C   UNL     1       1.371  -2.880  22.707  1.00  0.00     0.123 A 
ATOM      9  C   UNL     1       0.186  -2.261  22.315  1.00  0.00     0.094 A 
ATOM     10  C   UNL     1      -0.865  -2.104  23.221  1.00  0.00     0.146 A 
ATOM     11  O   UNL     1      -1.972  -1.494  22.810  1.00  0.00    -0.456 OA
ENDROOT
BRANCH   1  12
ATOM     12  C   UNL     1      -4.211  -0.592  23.026  1.00  0.00     0.021 A 
ATOM     13  C   UNL     1      -4.692   0.581  23.634  1.00  0.00     0.016 A 
ATOM     14  C   UNL     1      -5.805   1.246  23.112  1.00  0.00     0.051 A 
ATOM     15  C   UNL     1      -6.449   0.760  21.972  1.00  0.00     0.157 A 
ATOM     16  C   UNL     1      -4.856  -1.071  21.870  1.00  0.00     0.062 A 
ATOM     17  C   UNL     1      -5.972  -0.403  21.345  1.00  0.00     0.158 A 
BRANCH  15  18
ATOM     18  O   UNL     1      -7.559   1.444  21.476  1.00  0.00    -0.504 OA
ATOM     19  H   UNL     1      -7.484   2.369  21.072  1.00  0.00     0.293 HD
ENDBRANCH  15  18
BRANCH  17  20
ATOM     20  O   UNL     1      -6.604  -0.887  20.200  1.00  0.00    -0.504 OA
ATOM     21  H   UNL     1      -7.601  -1.071  20.181  1.00  0.00     0.293 HD
ENDBRANCH  17  20
ENDBRANCH   1  12
BRANCH   6  22
ATOM     22  O   UNL     1       0.648  -3.862  26.176  1.00  0.00    -0.507 OA
ATOM     23  H   UNL     1       0.326  -4.784  26.428  1.00  0.00     0.293 HD
ENDBRANCH   6  22
BRANCH   8  24
ATOM     24  O   UNL     1       2.414  -3.009  21.792  1.00  0.00    -0.508 OA
ATOM     25  H   UNL     1       3.060  -2.249  21.613  1.00  0.00     0.293 HD
ENDBRANCH   8  24
TORSDOF 5
ENDMDL
MODEL 6
REMARK VINA RESULT:    -5.645      6.249      8.012
REMARK INTER + INTRA:          -6.908
REMARK INTER:                  -6.597
REMARK INTRA:                  -0.311
REMARK UNBOUND:                -0.273
REMARK SMILES O=c1cc(-c2ccc(O)c(O)c2)oc2cc(O)cc(O)c12
REMARK SMILES IDX 4 1 3 2 2 3 1 4 21 5 19 6 18 7 16 8 15 9 14 10 13 11 5 12
REMARK SMILES IDX 6 13 7 14 8 15 12 16 10 17 9 18 11 20 20 22 17 24
REMARK H PARENT 9 19 11 21 20 23 17 25
REMARK Flexibility Score: inf
ROOT
ATOM      1  C   UNL     1      -2.982  -0.538  19.804  1.00  0.00     0.138 A 
ATOM      2  C   UNL     1      -3.675  -0.220  20.981  1.00  0.00     0.100 A 
ATOM      3  C   UNL     1      -4.891   0.460  20.904  1.00  0.00     0.197 A 
ATOM      4  O   UNL     1      -5.519   0.677  21.971  1.00  0.00    -0.289 OA
ATOM      5  C   UNL     1      -5.400   0.851  19.642  1.00  0.00     0.107 A 
ATOM      6  C   UNL     1      -6.608   1.583  19.444  1.00  0.00     0.134 A 
ATOM      7  C   UNL     1      -7.071   1.811  18.142  1.00  0.00     0.093 A 
ATOM      8  C   UNL     1      -6.338   1.386  17.031  1.00  0.00     0.123 A 
ATOM      9  C   UNL     1      -5.130   0.719  17.214  1.00  0.00     0.094 A 
ATOM     10  C   UNL     1      -4.659   0.445  18.499  1.00  0.00     0.146 A 
ATOM     11  O   UNL     1      -3.508  -0.208  18.629  1.00  0.00    -0.456 OA
ENDROOT
BRANCH   1  12
ATOM     12  C   UNL     1      -1.684  -1.259  19.829  1.00  0.00     0.021 A 
ATOM     13  C   UNL     1      -0.899  -1.228  20.995  1.00  0.00     0.016 A 
ATOM     14  C   UNL     1       0.322  -1.905  21.047  1.00  0.00     0.051 A 
ATOM     15  C   UNL     1       0.776  -2.632  19.944  1.00  0.00     0.157 A 
ATOM     16  C   UNL     1      -1.229  -2.004  18.724  1.00  0.00     0.062 A 
ATOM     17  C   UNL     1      -0.004  -2.685  18.777  1.00  0.00     0.158 A 
BRANCH  15  18
ATOM     18  O   UNL     1       1.999  -3.296  20.025  1.00  0.00    -0.504 OA
ATOM     19  H   UNL     1       2.231  -3.904  20.801  1.00  0.00     0.293 HD
ENDBRANCH  15  18
BRANCH  17  20
ATOM     20  O   UNL     1       0.437  -3.418  17.676  1.00  0.00    -0.504 OA
ATOM     21  H   UNL     1       0.303  -4.421  17.616  1.00  0.00     0.293 HD
ENDBRANCH  17  20
ENDBRANCH   1  12
BRANCH   6  22
ATOM     22  O   UNL     1      -7.372   2.125  20.482  1.00  0.00    -0.507 OA
ATOM     23  H   UNL     1      -7.255   1.904  21.459  1.00  0.00     0.293 HD
ENDBRANCH   6  22
BRANCH   8  24
ATOM     24  O   UNL     1      -6.800   1.632  15.739  1.00  0.00    -0.508 OA
ATOM     25  H   UNL     1      -6.180   1.596  14.939  1.00  0.00     0.293 HD
ENDBRANCH   8  24
TORSDOF 5
ENDMDL
MODEL 7
REMARK VINA RESULT:    -5.632      3.951      5.705
REMARK INTER + INTRA:          -6.892
REMARK INTER:                  -6.626
REMARK INTRA:                  -0.266
REMARK UNBOUND:                -0.273
REMARK SMILES O=c1cc(-c2ccc(O)c(O)c2)oc2cc(O)cc(O)c12
REMARK SMILES IDX 4 1 3 2 2 3 1 4 21 5 19 6 18 7 16 8 15 9 14 10 13 11 5 12
REMARK SMILES IDX 6 13 7 14 8 15 12 16 10 17 9 18 11 20 20 22 17 24
REMARK H PARENT 9 19 11 21 20 23 17 25
REMARK Flexibility Score: inf
ROOT
ATOM      1  C   UNL     1      -1.677  -1.563  23.630  1.00  0.00     0.138 A 
ATOM      2  C   UNL     1      -1.921  -0.899  24.841  1.00  0.00     0.100 A 
ATOM      3  C   UNL     1      -3.073  -0.124  24.983  1.00  0.00     0.197 A 
ATOM      4  O   UNL     1      -3.297   0.408  26.100  1.00  0.00    -0.289 OA
ATOM      5  C   UNL     1      -3.969   0.011  23.895  1.00  0.00     0.107 A 
ATOM      6  C   UNL     1      -5.153   0.807  23.912  1.00  0.00     0.134 A 
ATOM      7  C   UNL     1      -6.024   0.771  22.815  1.00  0.00     0.093 A 
ATOM      8  C   UNL     1      -5.722   0.015  21.679  1.00  0.00     0.123 A 
ATOM      9  C   UNL     1      -4.542  -0.722  21.632  1.00  0.00     0.094 A 
ATOM     10  C   UNL     1      -3.670  -0.735  22.723  1.00  0.00     0.146 A 
ATOM     11  O   UNL     1      -2.561  -1.463  22.643  1.00  0.00    -0.456 OA
ENDROOT
BRANCH   1  12
ATOM     12  C   UNL     1      -0.467  -2.399  23.425  1.00  0.00     0.021 A 
ATOM     13  C   UNL     1       0.622  -1.874  22.708  1.00  0.00     0.016 A 
ATOM     14  C   UNL     1       1.775  -2.637  22.509  1.00  0.00     0.051 A 
ATOM     15  C   UNL     1       1.866  -3.931  23.028  1.00  0.00     0.157 A 
ATOM     16  C   UNL     1      -0.366  -3.699  23.958  1.00  0.00     0.062 A 
ATOM     17  C   UNL     1       0.792  -4.465  23.759  1.00  0.00     0.158 A 
BRANCH  15  18
ATOM     18  O   UNL     1       3.029  -4.670  22.811  1.00  0.00    -0.504 OA
ATOM     19  H   UNL     1       3.583  -5.037  23.575  1.00  0.00     0.293 HD
ENDBRANCH  15  18
BRANCH  17  20
ATOM     20  O   UNL     1       0.880  -5.751  24.290  1.00  0.00    -0.504 OA
ATOM     21  H   UNL     1       1.602  -6.399  23.996  1.00  0.00     0.293 HD
ENDBRANCH  17  20
ENDBRANCH   1  12
BRANCH   6  22
ATOM     22  O   UNL     1      -5.505   1.662  24.961  1.00  0.00    -0.507 OA
ATOM     23  H   UNL     1      -6.320   1.552  25.545  1.00  0.00     0.293 HD
ENDBRANCH   6  22
BRANCH   8  24
ATOM     24  O   UNL     1      -6.588  -0.002  20.587  1.00  0.00    -0.508 OA
ATOM     25  H   UNL     1      -7.568  -0.235  20.691  1.00  0.00     0.293 HD
ENDBRANCH   8  24
TORSDOF 5
ENDMDL
MODEL 8
REMARK VINA RESULT:    -5.508      2.186      3.763
REMARK INTER + INTRA:          -6.747
REMARK INTER:                  -6.462
REMARK INTRA:                  -0.285
REMARK UNBOUND:                -0.273
REMARK SMILES O=c1cc(-c2ccc(O)c(O)c2)oc2cc(O)cc(O)c12
REMARK SMILES IDX 4 1 3 2 2 3 1 4 21 5 19 6 18 7 16 8 15 9 14 10 13 11 5 12
REMARK SMILES IDX 6 13 7 14 8 15 12 16 10 17 9 18 11 20 20 22 17 24
REMARK H PARENT 9 19 11 21 20 23 17 25
REMARK Flexibility Score: inf
ROOT
ATOM      1  C   UNL     1       0.958  -3.558  25.364  1.00  0.00     0.138 A 
ATOM      2  C   UNL     1      -0.256  -2.889  25.577  1.00  0.00     0.100 A 
ATOM      3  C   UNL     1      -0.643  -2.557  26.876  1.00  0.00     0.197 A 
ATOM      4  O   UNL     1      -1.705  -1.902  27.030  1.00  0.00    -0.289 OA
ATOM      5  C   UNL     1       0.177  -2.925  27.970  1.00  0.00     0.107 A 
ATOM      6  C   UNL     1      -0.135  -2.675  29.340  1.00  0.00     0.134 A 
ATOM      7  C   UNL     1       0.807  -2.981  30.329  1.00  0.00     0.093 A 
ATOM      8  C   UNL     1       2.025  -3.584  30.003  1.00  0.00     0.123 A 
ATOM      9  C   UNL     1       2.316  -3.881  28.674  1.00  0.00     0.094 A 
ATOM     10  C   UNL     1       1.412  -3.557  27.661  1.00  0.00     0.146 A 
ATOM     11  O   UNL     1       1.734  -3.844  26.404  1.00  0.00    -0.456 OA
ENDROOT
BRANCH   1  12
ATOM     12  C   UNL     1       1.416  -3.936  24.003  1.00  0.00     0.021 A 
ATOM     13  C   UNL     1       2.144  -5.125  23.825  1.00  0.00     0.016 A 
ATOM     14  C   UNL     1       2.580  -5.507  22.553  1.00  0.00     0.051 A 
ATOM     15  C   UNL     1       2.289  -4.716  21.439  1.00  0.00     0.157 A 
ATOM     16  C   UNL     1       1.113  -3.149  22.875  1.00  0.00     0.062 A 
ATOM     17  C   UNL     1       1.549  -3.533  21.598  1.00  0.00     0.158 A 
BRANCH  15  18
ATOM     18  O   UNL     1       2.738  -5.122  20.182  1.00  0.00    -0.504 OA
ATOM     19  H   UNL     1       3.714  -5.321  19.998  1.00  0.00     0.293 HD
ENDBRANCH  15  18
BRANCH  17  20
ATOM     20  O   UNL     1       1.245  -2.746  20.488  1.00  0.00    -0.504 OA
ATOM     21  H   UNL     1       0.288  -2.589  20.193  1.00  0.00     0.293 HD
ENDBRANCH  17  20
ENDBRANCH   1  12
BRANCH   6  22
ATOM     22  O   UNL     1      -1.356  -2.155  29.780  1.00  0.00    -0.507 OA
ATOM     23  H   UNL     1      -1.518  -1.757  30.693  1.00  0.00     0.293 HD
ENDBRANCH   6  22
BRANCH   8  24
ATOM     24  O   UNL     1       2.950  -3.899  30.997  1.00  0.00    -0.508 OA
ATOM     25  H   UNL     1       2.659  -4.262  31.896  1.00  0.00     0.293 HD
ENDBRANCH   8  24
TORSDOF 5
ENDMDL
MODEL 9
REMARK VINA RESULT:    -5.472      1.882      6.786
REMARK INTER + INTRA:          -6.704
REMARK INTER:                  -6.405
REMARK INTRA:                  -0.299
REMARK UNBOUND:                -0.273
REMARK SMILES O=c1cc(-c2ccc(O)c(O)c2)oc2cc(O)cc(O)c12
REMARK SMILES IDX 4 1 3 2 2 3 1 4 21 5 19 6 18 7 16 8 15 9 14 10 13 11 5 12
REMARK SMILES IDX 6 13 7 14 8 15 12 16 10 17 9 18 11 20 20 22 17 24
REMARK H PARENT 9 19 11 21 20 23 17 25
REMARK Flexibility Score: inf
ROOT
ATOM      1  C   UNL     1       1.701  -3.454  23.821  1.00  0.00     0.138 A 
ATOM      2  C   UNL     1       2.284  -4.467  23.045  1.00  0.00     0.100 A 
ATOM      3  C   UNL     1       2.159  -4.431  21.656  1.00  0.00     0.197 A 
ATOM      4  O   UNL     1       2.745  -5.318  20.983  1.00  0.00    -0.289 OA
ATOM      5  C   UNL     1       1.420  -3.391  21.042  1.00  0.00     0.107 A 
ATOM      6  C   UNL     1       1.191  -3.275  19.639  1.00  0.00     0.134 A 
ATOM      7  C   UNL     1       0.543  -2.139  19.137  1.00  0.00     0.093 A 
ATOM      8  C   UNL     1       0.062  -1.146  19.994  1.00  0.00     0.123 A 
ATOM      9  C   UNL     1       0.232  -1.277  21.370  1.00  0.00     0.094 A 
ATOM     10  C   UNL     1       0.905  -2.381  21.899  1.00  0.00     0.146 A 
ATOM     11  O   UNL     1       1.059  -2.460  23.217  1.00  0.00    -0.456 OA
ENDROOT
BRANCH   1  12
ATOM     12  C   UNL     1       1.803  -3.445  25.302  1.00  0.00     0.021 A 
ATOM     13  C   UNL     1       3.001  -3.853  25.914  1.00  0.00     0.016 A 
ATOM     14  C   UNL     1       3.125  -3.846  27.306  1.00  0.00     0.051 A 
ATOM     15  C   UNL     1       2.063  -3.422  28.109  1.00  0.00     0.157 A 
ATOM     16  C   UNL     1       0.740  -3.005  26.115  1.00  0.00     0.062 A 
ATOM     17  C   UNL     1       0.865  -2.996  27.512  1.00  0.00     0.158 A 
BRANCH  15  18
ATOM     18  O   UNL     1       2.216  -3.427  29.495  1.00  0.00    -0.504 OA
ATOM     19  H   UNL     1       3.126  -3.490  29.936  1.00  0.00     0.293 HD
ENDBRANCH  15  18
BRANCH  17  20
ATOM     20  O   UNL     1      -0.194  -2.560  28.307  1.00  0.00    -0.504 OA
ATOM     21  H   UNL     1      -0.622  -3.163  29.000  1.00  0.00     0.293 HD
ENDBRANCH  17  20
ENDBRANCH   1  12
BRANCH   6  22
ATOM     22  O   UNL     1       1.555  -4.250  18.705  1.00  0.00    -0.507 OA
ATOM     23  H   UNL     1       1.223  -4.289  17.754  1.00  0.00     0.293 HD
ENDBRANCH   6  22
BRANCH   8  24
ATOM     24  O   UNL     1      -0.596  -0.027  19.486  1.00  0.00    -0.508 OA
ATOM     25  H   UNL     1      -0.258   0.458  18.663  1.00  0.00     0.293 HD
ENDBRANCH   8  24
TORSDOF 5
ENDMDL
