MODEL 1
REMARK VINA RESULT:    -0.495      0.000      0.000
REMARK INTER + INTRA:          -0.331
REMARK INTER:                  -0.582
REMARK INTRA:                   0.252
REMARK UNBOUND:                 0.252
REMARK SMILES O=c1c(O)c(-c2ccc(O)cc2)oc2cc(O)cc(O)c12
REMARK SMILES IDX 5 1 3 2 2 3 1 4 21 5 19 6 18 7 16 8 15 9 14 10 13 11 6 12
REMARK SMILES IDX 7 13 8 14 9 15 12 16 11 17 10 18 4 20 20 22 17 24
REMARK H PARENT 10 19 4 21 20 23 17 25
REMARK Flexibility Score: inf
ROOT
ATOM      1  C   UNL     1       0.765 -31.590  -5.697  1.00  0.00     0.180 A 
ATOM      2  C   UNL     1       0.576 -31.403  -4.317  1.00  0.00     0.208 A 
ATOM      3  C   UNL     1      -0.727 -31.448  -3.796  1.00  0.00     0.238 A 
ATOM      4  O   UNL     1      -0.896 -31.226  -2.569  1.00  0.00    -0.285 OA
ATOM      5  C   UNL     1      -1.823 -31.694  -4.659  1.00  0.00     0.111 A 
ATOM      6  C   UNL     1      -3.181 -31.800  -4.234  1.00  0.00     0.134 A 
ATOM      7  C   UNL     1      -4.197 -31.915  -5.191  1.00  0.00     0.093 A 
ATOM      8  C   UNL     1      -3.900 -31.995  -6.551  1.00  0.00     0.123 A 
ATOM      9  C   UNL     1      -2.570 -31.952  -6.973  1.00  0.00     0.094 A 
ATOM     10  C   UNL     1      -1.537 -31.800  -6.045  1.00  0.00     0.146 A 
ATOM     11  O   UNL     1      -0.287 -31.753  -6.489  1.00  0.00    -0.452 OA
ENDROOT
BRANCH   1  12
ATOM     12  C   UNL     1       2.111 -31.582  -6.315  1.00  0.00     0.021 A 
ATOM     13  C   UNL     1       2.338 -30.990  -7.572  1.00  0.00     0.016 A 
ATOM     14  C   UNL     1       3.621 -30.973  -8.124  1.00  0.00     0.047 A 
ATOM     15  C   UNL     1       4.697 -31.534  -7.423  1.00  0.00     0.115 A 
ATOM     16  C   UNL     1       3.199 -32.123  -5.611  1.00  0.00     0.016 A 
ATOM     17  C   UNL     1       4.483 -32.106  -6.166  1.00  0.00     0.047 A 
BRANCH  15  18
ATOM     18  O   UNL     1       5.981 -31.524  -7.965  1.00  0.00    -0.508 OA
ATOM     19  H   UNL     1       6.803 -31.436  -7.379  1.00  0.00     0.293 HD
ENDBRANCH  15  18
ENDBRANCH   1  12
BRANCH   2  20
ATOM     20  O   UNL     1       1.668 -31.139  -3.485  1.00  0.00    -0.502 OA
ATOM     21  H   UNL     1       1.971 -30.198  -3.265  1.00  0.00     0.293 HD
ENDBRANCH   2  20
BRANCH   6  22
ATOM     22  O   UNL     1      -3.580 -31.825  -2.895  1.00  0.00    -0.507 OA
ATOM     23  H   UNL     1      -4.354 -32.364  -2.535  1.00  0.00     0.293 HD
ENDBRANCH   6  22
BRANCH   8  24
ATOM     24  O   UNL     1      -4.935 -32.125  -7.474  1.00  0.00    -0.508 OA
ATOM     25  H   UNL     1      -5.679 -31.440  -7.535  1.00  0.00     0.293 HD
ENDBRANCH   8  24
TORSDOF 5
ENDMDL
