MODEL 1
REMARK VINA RESULT:    62.974      0.000      0.000
REMARK INTER + INTRA:          83.144
REMARK INTER:                  83.221
REMARK INTRA:                  -0.078
REMARK UNBOUND:                -0.078
REMARK SMILES CC[C@H](C=C[C@H](C)[C@@H]1CC[C@H]2[C@@H]3CC=C4C[C@@H](O)CC[C@@]4(C)[C@@H]3CC[C@]21C)C(C)C
REMARK SMILES IDX 6 1 7 2 5 3 4 4 3 5 2 6 1 7 28 8 29 9 30 10 8 11 9 12 26 13
REMARK SMILES IDX 10 14 11 15 25 16 27 17 12 18 24 19 23 20 13 21 21 22 14 23
REMARK SMILES IDX 15 24 20 25 22 26 16 27 19 28 17 29 18 30
REMARK H PARENT 18 31
REMARK Flexibility Score: inf
ROOT
ATOM      1  C   UNL     1     -29.433  32.083  -2.028  1.00  0.00     0.012 C 
ATOM      2  C   UNL     1     -30.066  33.279  -1.281  1.00  0.00     0.012 C 
ENDROOT
BRANCH   1   3
ATOM      3  C   UNL     1     -30.423  31.262  -2.840  1.00  0.00    -0.028 C 
ATOM      4  C   UNL     1     -31.669  30.950  -2.427  1.00  0.00    -0.027 C 
BRANCH   4   5
ATOM      5  C   UNL     1     -32.600  30.081  -3.255  1.00  0.00     0.014 C 
BRANCH   5   6
ATOM      6  C   UNL     1     -32.556  28.615  -2.729  1.00  0.00     0.004 C 
ATOM      7  C   UNL     1     -32.360  28.531  -1.213  1.00  0.00     0.004 C 
ENDBRANCH   5   6
BRANCH   5   8
ATOM      8  C   UNL     1     -34.043  30.684  -3.288  1.00  0.00    -0.011 C 
ATOM      9  C   UNL     1     -34.934  30.120  -2.169  1.00  0.00     0.008 C 
ATOM     10  C   UNL     1     -34.728  30.425  -4.643  1.00  0.00     0.008 C 
ENDBRANCH   5   8
ENDBRANCH   4   5
ENDBRANCH   1   3
BRANCH   1  11
ATOM     11  C   UNL     1     -28.136  32.425  -2.858  1.00  0.00     0.002 C 
ATOM     12  C   UNL     1     -28.364  33.676  -3.725  1.00  0.00     0.005 C 
ATOM     13  C   UNL     1     -27.542  31.359  -3.852  1.00  0.00    -0.026 C 
ATOM     14  C   UNL     1     -28.514  33.204  -5.169  1.00  0.00     0.005 C 
ATOM     15  C   UNL     1     -28.260  31.685  -5.191  1.00  0.00    -0.001 C 
ATOM     16  C   UNL     1     -26.006  31.604  -3.984  1.00  0.00     0.007 C 
ATOM     17  C   UNL     1     -27.757  29.900  -3.371  1.00  0.00     0.012 C 
ATOM     18  C   UNL     1     -27.550  31.241  -6.509  1.00  0.00     0.000 C 
ATOM     19  C   UNL     1     -25.375  30.976  -5.235  1.00  0.00     0.005 C 
ATOM     20  C   UNL     1     -26.028  31.532  -6.525  1.00  0.00     0.003 C 
ATOM     21  C   UNL     1     -27.818  29.765  -6.837  1.00  0.00     0.031 C 
ATOM     22  C   UNL     1     -25.351  31.100  -7.906  1.00  0.00    -0.008 C 
ATOM     23  C   UNL     1     -27.220  29.396  -8.153  1.00  0.00    -0.027 C 
ATOM     24  C   UNL     1     -26.081  29.946  -8.619  1.00  0.00    -0.065 C 
ATOM     25  C   UNL     1     -25.407  32.328  -8.873  1.00  0.00     0.014 C 
ATOM     26  C   UNL     1     -23.864  30.702  -7.698  1.00  0.00     0.016 C 
ATOM     27  C   UNL     1     -25.643  29.597 -10.029  1.00  0.00     0.063 C 
ATOM     28  C   UNL     1     -24.967  32.020 -10.321  1.00  0.00     0.033 C 
ATOM     29  C   UNL     1     -25.741  30.839 -10.928  1.00  0.00     0.118 C 
BRANCH  29  30
ATOM     30  O   UNL     1     -27.087  31.204 -11.106  1.00  0.00    -0.393 OA
ATOM     31  H   UNL     1     -27.097  31.953 -11.758  1.00  0.00     0.210 HD
ENDBRANCH  29  30
ENDBRANCH   1  11
TORSDOF 6
ENDMDL
MODEL 2
REMARK VINA RESULT:    63.625      5.450      9.265
REMARK INTER + INTRA:          84.004
REMARK INTER:                  84.472
REMARK INTRA:                  -0.468
REMARK UNBOUND:                -0.078
REMARK SMILES CC[C@H](C=C[C@H](C)[C@@H]1CC[C@H]2[C@@H]3CC=C4C[C@@H](O)CC[C@@]4(C)[C@@H]3CC[C@]21C)C(C)C
REMARK SMILES IDX 6 1 7 2 5 3 4 4 3 5 2 6 1 7 28 8 29 9 30 10 8 11 9 12 26 13
REMARK SMILES IDX 10 14 11 15 25 16 27 17 12 18 24 19 23 20 13 21 21 22 14 23
REMARK SMILES IDX 15 24 20 25 22 26 16 27 19 28 17 29 18 30
REMARK H PARENT 18 31
REMARK Flexibility Score: inf
ROOT
ATOM      1  C   UNL     1     -25.995  29.509  -7.845  1.00  0.00     0.012 C 
ATOM      2  C   UNL     1     -26.269  29.412  -6.326  1.00  0.00     0.012 C 
ENDROOT
BRANCH   1   3
ATOM      3  C   UNL     1     -25.865  30.933  -8.363  1.00  0.00    -0.028 C 
ATOM      4  C   UNL     1     -24.836  31.376  -9.115  1.00  0.00    -0.027 C 
BRANCH   4   5
ATOM      5  C   UNL     1     -24.728  32.824  -9.562  1.00  0.00     0.014 C 
BRANCH   5   6
ATOM      6  C   UNL     1     -25.661  33.714  -8.687  1.00  0.00     0.004 C 
ATOM      7  C   UNL     1     -26.375  34.803  -9.493  1.00  0.00     0.004 C 
ENDBRANCH   5   6
BRANCH   5   8
ATOM      8  C   UNL     1     -23.238  33.298  -9.558  1.00  0.00    -0.011 C 
ATOM      9  C   UNL     1     -22.265  32.159  -9.211  1.00  0.00     0.008 C 
ATOM     10  C   UNL     1     -23.020  34.454  -8.563  1.00  0.00     0.008 C 
ENDBRANCH   5   8
ENDBRANCH   4   5
ENDBRANCH   1   3
BRANCH   1  11
ATOM     11  C   UNL     1     -24.833  28.584  -8.375  1.00  0.00     0.002 C 
ATOM     12  C   UNL     1     -25.319  27.130  -8.511  1.00  0.00     0.005 C 
ATOM     13  C   UNL     1     -23.489  28.476  -7.563  1.00  0.00    -0.026 C 
ATOM     14  C   UNL     1     -24.700  26.337  -7.363  1.00  0.00     0.005 C 
ATOM     15  C   UNL     1     -23.751  27.282  -6.604  1.00  0.00    -0.001 C 
ATOM     16  C   UNL     1     -22.335  28.134  -8.556  1.00  0.00     0.007 C 
ATOM     17  C   UNL     1     -23.120  29.792  -6.831  1.00  0.00     0.012 C 
ATOM     18  C   UNL     1     -22.502  26.521  -6.054  1.00  0.00     0.000 C 
ATOM     19  C   UNL     1     -21.083  27.546  -7.887  1.00  0.00     0.005 C 
ATOM     20  C   UNL     1     -21.422  26.238  -7.129  1.00  0.00     0.003 C 
ATOM     21  C   UNL     1     -21.882  27.232  -4.842  1.00  0.00     0.031 C 
ATOM     22  C   UNL     1     -20.184  25.423  -6.533  1.00  0.00    -0.008 C 
ATOM     23  C   UNL     1     -20.761  26.430  -4.272  1.00  0.00    -0.027 C 
ATOM     24  C   UNL     1     -19.954  25.659  -5.027  1.00  0.00    -0.065 C 
ATOM     25  C   UNL     1     -20.486  23.898  -6.705  1.00  0.00     0.014 C 
ATOM     26  C   UNL     1     -18.875  25.757  -7.299  1.00  0.00     0.016 C 
ATOM     27  C   UNL     1     -18.938  24.781  -4.323  1.00  0.00     0.063 C 
ATOM     28  C   UNL     1     -19.475  22.965  -6.004  1.00  0.00     0.033 C 
ATOM     29  C   UNL     1     -19.305  23.301  -4.514  1.00  0.00     0.118 C 
BRANCH  29  30
ATOM     30  O   UNL     1     -20.496  23.004  -3.828  1.00  0.00    -0.393 OA
ATOM     31  H   UNL     1     -21.104  22.573  -4.484  1.00  0.00     0.210 HD
ENDBRANCH  29  30
ENDBRANCH   1  11
TORSDOF 6
ENDMDL
MODEL 3
REMARK VINA RESULT:    65.400      2.481      8.471
REMARK INTER + INTRA:          86.351
REMARK INTER:                  87.340
REMARK INTRA:                  -0.989
REMARK UNBOUND:                -0.078
REMARK SMILES CC[C@H](C=C[C@H](C)[C@@H]1CC[C@H]2[C@@H]3CC=C4C[C@@H](O)CC[C@@]4(C)[C@@H]3CC[C@]21C)C(C)C
REMARK SMILES IDX 6 1 7 2 5 3 4 4 3 5 2 6 1 7 28 8 29 9 30 10 8 11 9 12 26 13
REMARK SMILES IDX 10 14 11 15 25 16 27 17 12 18 24 19 23 20 13 21 21 22 14 23
REMARK SMILES IDX 15 24 20 25 22 26 16 27 19 28 17 29 18 30
REMARK H PARENT 18 31
REMARK Flexibility Score: inf
ROOT
ATOM      1  C   UNL     1     -27.047  32.095  -3.865  1.00  0.00     0.012 C 
ATOM      2  C   UNL     1     -25.625  32.513  -3.424  1.00  0.00     0.012 C 
ENDROOT
BRANCH   1   3
ATOM      3  C   UNL     1     -27.086  31.297  -5.159  1.00  0.00    -0.028 C 
ATOM      4  C   UNL     1     -26.077  31.250  -6.053  1.00  0.00    -0.027 C 
BRANCH   4   5
ATOM      5  C   UNL     1     -26.189  30.479  -7.357  1.00  0.00     0.014 C 
BRANCH   5   6
ATOM      6  C   UNL     1     -27.614  29.859  -7.480  1.00  0.00     0.004 C 
ATOM      7  C   UNL     1     -27.674  28.404  -7.009  1.00  0.00     0.004 C 
ENDBRANCH   5   6
BRANCH   5   8
ATOM      8  C   UNL     1     -25.800  31.383  -8.574  1.00  0.00    -0.011 C 
ATOM      9  C   UNL     1     -26.291  30.802  -9.910  1.00  0.00     0.008 C 
ATOM     10  C   UNL     1     -24.276  31.589  -8.654  1.00  0.00     0.008 C 
ENDBRANCH   5   8
ENDBRANCH   4   5
ENDBRANCH   1   3
BRANCH   1  11
ATOM     11  C   UNL     1     -27.926  31.427  -2.738  1.00  0.00     0.002 C 
ATOM     12  C   UNL     1     -27.965  29.899  -2.918  1.00  0.00     0.005 C 
ATOM     13  C   UNL     1     -29.435  31.843  -2.576  1.00  0.00    -0.026 C 
ATOM     14  C   UNL     1     -29.347  29.543  -3.460  1.00  0.00     0.005 C 
ATOM     15  C   UNL     1     -30.180  30.838  -3.495  1.00  0.00    -0.001 C 
ATOM     16  C   UNL     1     -29.851  31.633  -1.086  1.00  0.00     0.007 C 
ATOM     17  C   UNL     1     -29.693  33.329  -2.941  1.00  0.00     0.012 C 
ATOM     18  C   UNL     1     -31.685  30.560  -3.179  1.00  0.00     0.000 C 
ATOM     19  C   UNL     1     -31.368  31.544  -0.864  1.00  0.00     0.005 C 
ATOM     20  C   UNL     1     -31.978  30.369  -1.669  1.00  0.00     0.003 C 
ATOM     21  C   UNL     1     -32.605  31.636  -3.774  1.00  0.00     0.031 C 
ATOM     22  C   UNL     1     -33.519  30.048  -1.397  1.00  0.00    -0.008 C 
ATOM     23  C   UNL     1     -34.039  31.291  -3.551  1.00  0.00    -0.027 C 
ATOM     24  C   UNL     1     -34.472  30.629  -2.460  1.00  0.00    -0.065 C 
ATOM     25  C   UNL     1     -33.700  28.495  -1.437  1.00  0.00     0.014 C 
ATOM     26  C   UNL     1     -33.957  30.560   0.003  1.00  0.00     0.016 C 
ATOM     27  C   UNL     1     -35.928  30.211  -2.407  1.00  0.00     0.063 C 
ATOM     28  C   UNL     1     -35.169  28.022  -1.384  1.00  0.00     0.033 C 
ATOM     29  C   UNL     1     -36.034  28.679  -2.472  1.00  0.00     0.118 C 
BRANCH  29  30
ATOM     30  O   UNL     1     -35.628  28.217  -3.736  1.00  0.00    -0.393 OA
ATOM     31  H   UNL     1     -36.123  27.374  -3.906  1.00  0.00     0.210 HD
ENDBRANCH  29  30
ENDBRANCH   1  11
TORSDOF 6
ENDMDL
