MODEL 1
REMARK VINA RESULT:    -4.886      0.000      0.000
REMARK INTER + INTRA:         -13.574
REMARK INTER:                 -11.170
REMARK INTRA:                  -2.405
REMARK UNBOUND:                -2.405
REMARK SMILES CCCCCCCCCCCCCCCCCCCCCCCC(=O)[O-]
REMARK SMILES IDX 13 1 14 2 15 3 16 4 17 5 18 6 19 7 20 8 21 9 22 10 23 11
REMARK SMILES IDX 24 12 25 13 26 14 12 15 11 16 10 17 9 18 8 19 7 20 6 21 5 22
REMARK SMILES IDX 4 23 3 24 2 25 1 26
REMARK H PARENT
REMARK Flexibility Score: inf
ROOT
ATOM      1  C   UNL     1    -131.532 109.391  39.571  1.00  0.00     0.000 C 
ENDROOT
BRANCH   1   2
ATOM      2  C   UNL     1    -130.170 110.109  39.550  1.00  0.00     0.000 C 
BRANCH   2   3
ATOM      3  C   UNL     1    -129.911 111.057  40.736  1.00  0.00     0.000 C 
BRANCH   3   4
ATOM      4  C   UNL     1    -129.797 112.528  40.313  1.00  0.00     0.000 C 
BRANCH   4   5
ATOM      5  C   UNL     1    -129.944 113.461  41.526  1.00  0.00     0.000 C 
BRANCH   5   6
ATOM      6  C   UNL     1    -129.657 112.753  42.861  1.00  0.00     0.000 C 
BRANCH   6   7
ATOM      7  C   UNL     1    -128.987 113.631  43.938  1.00  0.00     0.000 C 
BRANCH   7   8
ATOM      8  C   UNL     1    -129.943 114.227  44.989  1.00  0.00     0.000 C 
BRANCH   8   9
ATOM      9  C   UNL     1    -129.381 115.495  45.655  1.00  0.00     0.000 C 
BRANCH   9  10
ATOM     10  C   UNL     1    -130.136 116.771  45.241  1.00  0.00     0.006 C 
BRANCH  10  11
ATOM     11  C   UNL     1    -129.251 117.860  44.613  1.00  0.00     0.053 C 
BRANCH  11  12
ATOM     12  C   UNL     1    -129.117 117.693  43.130  1.00  0.00     0.041 C 
ATOM     13  O   UNL     1    -128.306 118.407  42.482  1.00  0.00    -0.550 OA
ATOM     14  O   UNL     1    -129.868 116.728  42.470  1.00  0.00    -0.550 OA
ENDBRANCH  11  12
ENDBRANCH  10  11
ENDBRANCH   9  10
ENDBRANCH   8   9
ENDBRANCH   7   8
ENDBRANCH   6   7
ENDBRANCH   5   6
ENDBRANCH   4   5
ENDBRANCH   3   4
ENDBRANCH   2   3
ENDBRANCH   1   2
BRANCH   1  15
ATOM     15  C   UNL     1    -131.544 108.104  38.729  1.00  0.00     0.000 C 
BRANCH  15  16
ATOM     16  C   UNL     1    -130.195 107.363  38.748  1.00  0.00     0.000 C 
BRANCH  16  17
ATOM     17  C   UNL     1    -130.270 105.861  39.091  1.00  0.00     0.000 C 
BRANCH  17  18
ATOM     18  C   UNL     1    -129.661 105.465  40.449  1.00  0.00    -0.000 C 
BRANCH  18  19
ATOM     19  C   UNL     1    -128.190 105.889  40.588  1.00  0.00    -0.000 C 
BRANCH  19  20
ATOM     20  C   UNL     1    -127.957 106.876  41.747  1.00  0.00    -0.000 C 
BRANCH  20  21
ATOM     21  C   UNL     1    -129.192 107.699  42.161  1.00  0.00    -0.000 C 
BRANCH  21  22
ATOM     22  C   UNL     1    -128.895 108.695  43.298  1.00  0.00    -0.000 C 
BRANCH  22  23
ATOM     23  C   UNL     1    -130.172 109.309  43.894  1.00  0.00    -0.000 C 
BRANCH  23  24
ATOM     24  C   UNL     1    -131.259 108.258  44.168  1.00  0.00    -0.000 C 
BRANCH  24  25
ATOM     25  C   UNL     1    -131.931 108.506  45.524  1.00  0.00    -0.003 C 
ATOM     26  C   UNL     1    -130.894 108.697  46.628  1.00  0.00     0.004 C 
ENDBRANCH  24  25
ENDBRANCH  23  24
ENDBRANCH  22  23
ENDBRANCH  21  22
ENDBRANCH  20  21
ENDBRANCH  19  20
ENDBRANCH  18  19
ENDBRANCH  17  18
ENDBRANCH  16  17
ENDBRANCH  15  16
ENDBRANCH   1  15
TORSDOF 22
ENDMDL
MODEL 2
REMARK VINA RESULT:    -4.791      2.283      4.906
REMARK INTER + INTRA:         -13.358
REMARK INTER:                 -11.434
REMARK INTRA:                  -1.923
REMARK UNBOUND:                -2.405
REMARK SMILES CCCCCCCCCCCCCCCCCCCCCCCC(=O)[O-]
REMARK SMILES IDX 13 1 14 2 15 3 16 4 17 5 18 6 19 7 20 8 21 9 22 10 23 11
REMARK SMILES IDX 24 12 25 13 26 14 12 15 11 16 10 17 9 18 8 19 7 20 6 21 5 22
REMARK SMILES IDX 4 23 3 24 2 25 1 26
REMARK H PARENT
REMARK Flexibility Score: inf
ROOT
ATOM      1  C   UNL     1    -127.892 108.207  42.496  1.00  0.00     0.000 C 
ENDROOT
BRANCH   1   2
ATOM      2  C   UNL     1    -129.303 108.758  42.770  1.00  0.00     0.000 C 
BRANCH   2   3
ATOM      3  C   UNL     1    -129.430 110.292  42.705  1.00  0.00     0.000 C 
BRANCH   3   4
ATOM      4  C   UNL     1    -129.378 110.956  44.089  1.00  0.00     0.000 C 
BRANCH   4   5
ATOM      5  C   UNL     1    -129.021 112.446  43.969  1.00  0.00     0.000 C 
BRANCH   5   6
ATOM      6  C   UNL     1    -129.586 113.095  42.694  1.00  0.00     0.000 C 
BRANCH   6   7
ATOM      7  C   UNL     1    -130.342 114.422  42.913  1.00  0.00     0.000 C 
BRANCH   7   8
ATOM      8  C   UNL     1    -129.758 115.641  42.175  1.00  0.00     0.000 C 
BRANCH   8   9
ATOM      9  C   UNL     1    -129.222 116.718  43.134  1.00  0.00     0.000 C 
BRANCH   9  10
ATOM     10  C   UNL     1    -129.713 116.528  44.580  1.00  0.00     0.006 C 
BRANCH  10  11
ATOM     11  C   UNL     1    -130.291 117.797  45.229  1.00  0.00     0.053 C 
BRANCH  11  12
ATOM     12  C   UNL     1    -130.716 117.563  46.646  1.00  0.00     0.041 C 
ATOM     13  O   UNL     1    -130.945 118.539  47.409  1.00  0.00    -0.550 OA
ATOM     14  O   UNL     1    -130.887 116.266  47.115  1.00  0.00    -0.550 OA
ENDBRANCH  11  12
ENDBRANCH  10  11
ENDBRANCH   9  10
ENDBRANCH   8   9
ENDBRANCH   7   8
ENDBRANCH   6   7
ENDBRANCH   5   6
ENDBRANCH   4   5
ENDBRANCH   3   4
ENDBRANCH   2   3
ENDBRANCH   1   2
BRANCH   1  15
ATOM     15  C   UNL     1    -127.906 106.894  41.694  1.00  0.00     0.000 C 
BRANCH  15  16
ATOM     16  C   UNL     1    -129.329 106.386  41.403  1.00  0.00     0.000 C 
BRANCH  16  17
ATOM     17  C   UNL     1    -129.502 105.630  40.070  1.00  0.00     0.000 C 
BRANCH  17  18
ATOM     18  C   UNL     1    -129.896 106.504  38.864  1.00  0.00    -0.000 C 
BRANCH  18  19
ATOM     19  C   UNL     1    -129.545 107.987  39.065  1.00  0.00    -0.000 C 
BRANCH  19  20
ATOM     20  C   UNL     1    -130.790 108.888  39.176  1.00  0.00    -0.000 C 
BRANCH  20  21
ATOM     21  C   UNL     1    -130.517 110.398  39.032  1.00  0.00    -0.000 C 
BRANCH  21  22
ATOM     22  C   UNL     1    -129.101 110.797  39.486  1.00  0.00    -0.000 C 
BRANCH  22  23
ATOM     23  C   UNL     1    -128.219 111.275  38.321  1.00  0.00    -0.000 C 
BRANCH  23  24
ATOM     24  C   UNL     1    -128.380 112.777  38.038  1.00  0.00    -0.000 C 
BRANCH  24  25
ATOM     25  C   UNL     1    -128.015 113.102  36.585  1.00  0.00    -0.003 C 
ATOM     26  C   UNL     1    -129.246 113.529  35.789  1.00  0.00     0.004 C 
ENDBRANCH  24  25
ENDBRANCH  23  24
ENDBRANCH  22  23
ENDBRANCH  21  22
ENDBRANCH  20  21
ENDBRANCH  19  20
ENDBRANCH  18  19
ENDBRANCH  17  18
ENDBRANCH  16  17
ENDBRANCH  15  16
ENDBRANCH   1  15
TORSDOF 22
ENDMDL
MODEL 3
REMARK VINA RESULT:    -4.786      2.666      7.891
REMARK INTER + INTRA:         -13.346
REMARK INTER:                 -10.964
REMARK INTRA:                  -2.382
REMARK UNBOUND:                -2.405
REMARK SMILES CCCCCCCCCCCCCCCCCCCCCCCC(=O)[O-]
REMARK SMILES IDX 13 1 14 2 15 3 16 4 17 5 18 6 19 7 20 8 21 9 22 10 23 11
REMARK SMILES IDX 24 12 25 13 26 14 12 15 11 16 10 17 9 18 8 19 7 20 6 21 5 22
REMARK SMILES IDX 4 23 3 24 2 25 1 26
REMARK H PARENT
REMARK Flexibility Score: inf
ROOT
ATOM      1  C   UNL     1    -129.442 109.968  39.249  1.00  0.00     0.000 C 
ENDROOT
BRANCH   1   2
ATOM      2  C   UNL     1    -130.894 109.467  39.353  1.00  0.00     0.000 C 
BRANCH   2   3
ATOM      3  C   UNL     1    -131.105 107.990  38.973  1.00  0.00     0.000 C 
BRANCH   3   4
ATOM      4  C   UNL     1    -129.787 107.228  38.771  1.00  0.00     0.000 C 
BRANCH   4   5
ATOM      5  C   UNL     1    -129.834 105.856  39.461  1.00  0.00     0.000 C 
BRANCH   5   6
ATOM      6  C   UNL     1    -129.293 105.894  40.901  1.00  0.00     0.000 C 
BRANCH   6   7
ATOM      7  C   UNL     1    -128.228 106.976  41.174  1.00  0.00     0.000 C 
BRANCH   7   8
ATOM      8  C   UNL     1    -128.416 107.769  42.481  1.00  0.00     0.000 C 
BRANCH   8   9
ATOM      9  C   UNL     1    -129.766 108.502  42.545  1.00  0.00     0.000 C 
BRANCH   9  10
ATOM     10  C   UNL     1    -130.062 109.089  43.937  1.00  0.00     0.006 C 
BRANCH  10  11
ATOM     11  C   UNL     1    -131.086 108.291  44.761  1.00  0.00     0.053 C 
BRANCH  11  12
ATOM     12  C   UNL     1    -131.090 108.697  46.203  1.00  0.00     0.041 C 
ATOM     13  O   UNL     1    -131.662 109.760  46.561  1.00  0.00    -0.550 OA
ATOM     14  O   UNL     1    -130.484 107.885  47.155  1.00  0.00    -0.550 OA
ENDBRANCH  11  12
ENDBRANCH  10  11
ENDBRANCH   9  10
ENDBRANCH   8   9
ENDBRANCH   7   8
ENDBRANCH   6   7
ENDBRANCH   5   6
ENDBRANCH   4   5
ENDBRANCH   3   4
ENDBRANCH   2   3
ENDBRANCH   1   2
BRANCH   1  15
ATOM     15  C   UNL     1    -129.313 111.485  39.475  1.00  0.00     0.000 C 
BRANCH  15  16
ATOM     16  C   UNL     1    -129.833 111.931  40.853  1.00  0.00     0.000 C 
BRANCH  16  17
ATOM     17  C   UNL     1    -129.866 113.456  41.085  1.00  0.00     0.000 C 
BRANCH  17  18
ATOM     18  C   UNL     1    -130.262 113.895  42.508  1.00  0.00    -0.000 C 
BRANCH  18  19
ATOM     19  C   UNL     1    -129.207 113.522  43.562  1.00  0.00    -0.000 C 
BRANCH  19  20
ATOM     20  C   UNL     1    -129.666 113.819  45.002  1.00  0.00    -0.000 C 
BRANCH  20  21
ATOM     21  C   UNL     1    -129.237 115.192  45.554  1.00  0.00    -0.000 C 
BRANCH  21  22
ATOM     22  C   UNL     1    -130.430 116.124  45.833  1.00  0.00    -0.000 C 
BRANCH  22  23
ATOM     23  C   UNL     1    -130.197 117.552  45.314  1.00  0.00    -0.000 C 
BRANCH  23  24
ATOM     24  C   UNL     1    -128.780 117.753  44.754  1.00  0.00    -0.000 C 
BRANCH  24  25
ATOM     25  C   UNL     1    -128.775 118.806  43.640  1.00  0.00    -0.003 C 
ATOM     26  C   UNL     1    -128.683 118.153  42.263  1.00  0.00     0.004 C 
ENDBRANCH  24  25
ENDBRANCH  23  24
ENDBRANCH  22  23
ENDBRANCH  21  22
ENDBRANCH  20  21
ENDBRANCH  19  20
ENDBRANCH  18  19
ENDBRANCH  17  18
ENDBRANCH  16  17
ENDBRANCH  15  16
ENDBRANCH   1  15
TORSDOF 22
ENDMDL
MODEL 4
REMARK VINA RESULT:    -4.769      1.685      2.123
REMARK INTER + INTRA:         -13.307
REMARK INTER:                 -11.476
REMARK INTRA:                  -1.832
REMARK UNBOUND:                -2.405
REMARK SMILES CCCCCCCCCCCCCCCCCCCCCCCC(=O)[O-]
REMARK SMILES IDX 13 1 14 2 15 3 16 4 17 5 18 6 19 7 20 8 21 9 22 10 23 11
REMARK SMILES IDX 24 12 25 13 26 14 12 15 11 16 10 17 9 18 8 19 7 20 6 21 5 22
REMARK SMILES IDX 4 23 3 24 2 25 1 26
REMARK H PARENT
REMARK Flexibility Score: inf
ROOT
ATOM      1  C   UNL     1    -131.653 108.727  39.056  1.00  0.00     0.000 C 
ENDROOT
BRANCH   1   2
ATOM      2  C   UNL     1    -131.487 110.143  39.636  1.00  0.00     0.000 C 
BRANCH   2   3
ATOM      3  C   UNL     1    -130.034 110.647  39.726  1.00  0.00     0.000 C 
BRANCH   3   4
ATOM      4  C   UNL     1    -129.724 111.348  41.057  1.00  0.00     0.000 C 
BRANCH   4   5
ATOM      5  C   UNL     1    -129.885 112.870  40.927  1.00  0.00     0.000 C 
BRANCH   5   6
ATOM      6  C   UNL     1    -130.510 113.513  42.177  1.00  0.00     0.000 C 
BRANCH   6   7
ATOM      7  C   UNL     1    -129.652 114.600  42.855  1.00  0.00     0.000 C 
BRANCH   7   8
ATOM      8  C   UNL     1    -129.969 116.047  42.432  1.00  0.00     0.000 C 
BRANCH   8   9
ATOM      9  C   UNL     1    -129.137 117.088  43.200  1.00  0.00     0.000 C 
BRANCH   9  10
ATOM     10  C   UNL     1    -129.837 117.588  44.477  1.00  0.00     0.006 C 
BRANCH  10  11
ATOM     11  C   UNL     1    -129.899 116.556  45.615  1.00  0.00     0.053 C 
BRANCH  11  12
ATOM     12  C   UNL     1    -130.811 116.991  46.722  1.00  0.00     0.041 C 
ATOM     13  O   UNL     1    -130.861 118.202  47.064  1.00  0.00    -0.550 OA
ATOM     14  O   UNL     1    -131.626 116.060  47.356  1.00  0.00    -0.550 OA
ENDBRANCH  11  12
ENDBRANCH  10  11
ENDBRANCH   9  10
ENDBRANCH   8   9
ENDBRANCH   7   8
ENDBRANCH   6   7
ENDBRANCH   5   6
ENDBRANCH   4   5
ENDBRANCH   3   4
ENDBRANCH   2   3
ENDBRANCH   1   2
BRANCH   1  15
ATOM     15  C   UNL     1    -130.311 108.006  38.841  1.00  0.00     0.000 C 
BRANCH  15  16
ATOM     16  C   UNL     1    -130.467 106.481  38.701  1.00  0.00     0.000 C 
BRANCH  16  17
ATOM     17  C   UNL     1    -129.149 105.692  38.556  1.00  0.00     0.000 C 
BRANCH  17  18
ATOM     18  C   UNL     1    -128.607 105.073  39.858  1.00  0.00    -0.000 C 
BRANCH  18  19
ATOM     19  C   UNL     1    -128.980 105.890  41.106  1.00  0.00    -0.000 C 
BRANCH  19  20
ATOM     20  C   UNL     1    -127.906 106.925  41.489  1.00  0.00    -0.000 C 
BRANCH  20  21
ATOM     21  C   UNL     1    -128.446 108.227  42.112  1.00  0.00    -0.000 C 
BRANCH  21  22
ATOM     22  C   UNL     1    -129.841 108.055  42.742  1.00  0.00    -0.000 C 
BRANCH  22  23
ATOM     23  C   UNL     1    -130.103 109.055  43.879  1.00  0.00    -0.000 C 
BRANCH  23  24
ATOM     24  C   UNL     1    -131.180 108.565  44.859  1.00  0.00    -0.000 C 
BRANCH  24  25
ATOM     25  C   UNL     1    -130.985 109.190  46.245  1.00  0.00    -0.003 C 
ATOM     26  C   UNL     1    -130.797 108.117  47.314  1.00  0.00     0.004 C 
ENDBRANCH  24  25
ENDBRANCH  23  24
ENDBRANCH  22  23
ENDBRANCH  21  22
ENDBRANCH  20  21
ENDBRANCH  19  20
ENDBRANCH  18  19
ENDBRANCH  17  18
ENDBRANCH  16  17
ENDBRANCH  15  16
ENDBRANCH   1  15
TORSDOF 22
ENDMDL
MODEL 5
REMARK VINA RESULT:    -4.649      3.417      7.440
REMARK INTER + INTRA:         -13.034
REMARK INTER:                 -10.852
REMARK INTRA:                  -2.182
REMARK UNBOUND:                -2.405
REMARK SMILES CCCCCCCCCCCCCCCCCCCCCCCC(=O)[O-]
REMARK SMILES IDX 13 1 14 2 15 3 16 4 17 5 18 6 19 7 20 8 21 9 22 10 23 11
REMARK SMILES IDX 24 12 25 13 26 14 12 15 11 16 10 17 9 18 8 19 7 20 6 21 5 22
REMARK SMILES IDX 4 23 3 24 2 25 1 26
REMARK H PARENT
REMARK Flexibility Score: inf
ROOT
ATOM      1  C   UNL     1    -131.096 108.317  39.051  1.00  0.00     0.000 C 
ENDROOT
BRANCH   1   2
ATOM      2  C   UNL     1    -129.715 107.637  39.080  1.00  0.00     0.000 C 
BRANCH   2   3
ATOM      3  C   UNL     1    -129.636 106.353  39.928  1.00  0.00     0.000 C 
BRANCH   3   4
ATOM      4  C   UNL     1    -129.407 106.633  41.420  1.00  0.00     0.000 C 
BRANCH   4   5
ATOM      5  C   UNL     1    -128.304 107.684  41.619  1.00  0.00     0.000 C 
BRANCH   5   6
ATOM      6  C   UNL     1    -128.592 108.635  42.794  1.00  0.00     0.000 C 
BRANCH   6   7
ATOM      7  C   UNL     1    -130.013 108.537  43.385  1.00  0.00     0.000 C 
BRANCH   7   8
ATOM      8  C   UNL     1    -130.244 109.338  44.680  1.00  0.00     0.000 C 
BRANCH   8   9
ATOM      9  C   UNL     1    -131.169 108.614  45.672  1.00  0.00     0.000 C 
BRANCH   9  10
ATOM     10  C   UNL     1    -130.715 108.768  47.134  1.00  0.00     0.006 C 
BRANCH  10  11
ATOM     11  C   UNL     1    -130.387 107.443  47.843  1.00  0.00     0.053 C 
BRANCH  11  12
ATOM     12  C   UNL     1    -129.449 107.637  48.995  1.00  0.00     0.041 C 
ATOM     13  O   UNL     1    -129.464 108.712  49.651  1.00  0.00    -0.550 OA
ATOM     14  O   UNL     1    -128.578 106.617  49.360  1.00  0.00    -0.550 OA
ENDBRANCH  11  12
ENDBRANCH  10  11
ENDBRANCH   9  10
ENDBRANCH   8   9
ENDBRANCH   7   8
ENDBRANCH   6   7
ENDBRANCH   5   6
ENDBRANCH   4   5
ENDBRANCH   3   4
ENDBRANCH   2   3
ENDBRANCH   1   2
BRANCH   1  15
ATOM     15  C   UNL     1    -131.085 109.722  39.678  1.00  0.00     0.000 C 
BRANCH  15  16
ATOM     16  C   UNL     1    -129.736 110.442  39.509  1.00  0.00     0.000 C 
BRANCH  16  17
ATOM     17  C   UNL     1    -129.688 111.890  40.039  1.00  0.00     0.000 C 
BRANCH  17  18
ATOM     18  C   UNL     1    -129.955 112.047  41.548  1.00  0.00    -0.000 C 
BRANCH  18  19
ATOM     19  C   UNL     1    -130.401 113.469  41.929  1.00  0.00    -0.000 C 
BRANCH  19  20
ATOM     20  C   UNL     1    -129.383 114.196  42.829  1.00  0.00    -0.000 C 
BRANCH  20  21
ATOM     21  C   UNL     1    -129.207 113.591  44.235  1.00  0.00    -0.000 C 
BRANCH  21  22
ATOM     22  C   UNL     1    -129.907 114.414  45.332  1.00  0.00    -0.000 C 
BRANCH  22  23
ATOM     23  C   UNL     1    -129.260 115.793  45.540  1.00  0.00    -0.000 C 
BRANCH  23  24
ATOM     24  C   UNL     1    -130.286 116.936  45.509  1.00  0.00    -0.000 C 
BRANCH  24  25
ATOM     25  C   UNL     1    -130.867 117.189  46.905  1.00  0.00    -0.003 C 
ATOM     26  C   UNL     1    -131.540 118.557  46.984  1.00  0.00     0.004 C 
ENDBRANCH  24  25
ENDBRANCH  23  24
ENDBRANCH  22  23
ENDBRANCH  21  22
ENDBRANCH  20  21
ENDBRANCH  19  20
ENDBRANCH  18  19
ENDBRANCH  17  18
ENDBRANCH  16  17
ENDBRANCH  15  16
ENDBRANCH   1  15
TORSDOF 22
ENDMDL
MODEL 6
REMARK VINA RESULT:    -4.615      4.489      8.361
REMARK INTER + INTRA:         -12.955
REMARK INTER:                 -11.360
REMARK INTRA:                  -1.595
REMARK UNBOUND:                -2.405
REMARK SMILES CCCCCCCCCCCCCCCCCCCCCCCC(=O)[O-]
REMARK SMILES IDX 13 1 14 2 15 3 16 4 17 5 18 6 19 7 20 8 21 9 22 10 23 11
REMARK SMILES IDX 24 12 25 13 26 14 12 15 11 16 10 17 9 18 8 19 7 20 6 21 5 22
REMARK SMILES IDX 4 23 3 24 2 25 1 26
REMARK H PARENT
REMARK Flexibility Score: inf
ROOT
ATOM      1  C   UNL     1    -129.922 108.925  42.059  1.00  0.00     0.000 C 
ENDROOT
BRANCH   1   2
ATOM      2  C   UNL     1    -129.746 108.772  40.537  1.00  0.00     0.000 C 
BRANCH   2   3
ATOM      3  C   UNL     1    -129.948 110.062  39.722  1.00  0.00     0.000 C 
BRANCH   3   4
ATOM      4  C   UNL     1    -128.720 110.440  38.882  1.00  0.00     0.000 C 
BRANCH   4   5
ATOM      5  C   UNL     1    -128.631 111.962  38.692  1.00  0.00     0.000 C 
BRANCH   5   6
ATOM      6  C   UNL     1    -127.966 112.360  37.362  1.00  0.00     0.000 C 
BRANCH   6   7
ATOM      7  C   UNL     1    -128.560 113.610  36.681  1.00  0.00     0.000 C 
BRANCH   7   8
ATOM      8  C   UNL     1    -128.859 113.460  35.178  1.00  0.00     0.000 C 
BRANCH   8   9
ATOM      9  C   UNL     1    -129.887 114.485  34.669  1.00  0.00     0.000 C 
BRANCH   9  10
ATOM     10  C   UNL     1    -130.965 113.853  33.770  1.00  0.00     0.006 C 
BRANCH  10  11
ATOM     11  C   UNL     1    -132.355 113.745  34.421  1.00  0.00     0.053 C 
BRANCH  11  12
ATOM     12  C   UNL     1    -133.414 113.367  33.431  1.00  0.00     0.041 C 
ATOM     13  O   UNL     1    -134.539 113.932  33.458  1.00  0.00    -0.550 OA
ATOM     14  O   UNL     1    -133.146 112.408  32.461  1.00  0.00    -0.550 OA
ENDBRANCH  11  12
ENDBRANCH  10  11
ENDBRANCH   9  10
ENDBRANCH   8   9
ENDBRANCH   7   8
ENDBRANCH   6   7
ENDBRANCH   5   6
ENDBRANCH   4   5
ENDBRANCH   3   4
ENDBRANCH   2   3
ENDBRANCH   1   2
BRANCH   1  15
ATOM     15  C   UNL     1    -128.848 109.821  42.700  1.00  0.00     0.000 C 
BRANCH  15  16
ATOM     16  C   UNL     1    -129.424 110.789  43.748  1.00  0.00     0.000 C 
BRANCH  16  17
ATOM     17  C   UNL     1    -129.237 112.289  43.436  1.00  0.00     0.000 C 
BRANCH  17  18
ATOM     18  C   UNL     1    -129.891 112.775  42.129  1.00  0.00    -0.000 C 
BRANCH  18  19
ATOM     19  C   UNL     1    -129.915 114.309  42.011  1.00  0.00    -0.000 C 
BRANCH  19  20
ATOM     20  C   UNL     1    -129.971 115.015  43.379  1.00  0.00    -0.000 C 
BRANCH  20  21
ATOM     21  C   UNL     1    -129.902 116.553  43.322  1.00  0.00    -0.000 C 
BRANCH  21  22
ATOM     22  C   UNL     1    -129.722 117.196  44.710  1.00  0.00    -0.000 C 
BRANCH  22  23
ATOM     23  C   UNL     1    -129.810 116.170  45.851  1.00  0.00    -0.000 C 
BRANCH  23  24
ATOM     24  C   UNL     1    -130.876 116.538  46.895  1.00  0.00    -0.000 C 
BRANCH  24  25
ATOM     25  C   UNL     1    -130.980 118.058  47.059  1.00  0.00    -0.003 C 
ATOM     26  C   UNL     1    -132.437 118.508  47.131  1.00  0.00     0.004 C 
ENDBRANCH  24  25
ENDBRANCH  23  24
ENDBRANCH  22  23
ENDBRANCH  21  22
ENDBRANCH  20  21
ENDBRANCH  19  20
ENDBRANCH  18  19
ENDBRANCH  17  18
ENDBRANCH  16  17
ENDBRANCH  15  16
ENDBRANCH   1  15
TORSDOF 22
ENDMDL
MODEL 7
REMARK VINA RESULT:    -4.571      2.899      7.931
REMARK INTER + INTRA:         -12.854
REMARK INTER:                 -10.873
REMARK INTRA:                  -1.982
REMARK UNBOUND:                -2.405
REMARK SMILES CCCCCCCCCCCCCCCCCCCCCCCC(=O)[O-]
REMARK SMILES IDX 13 1 14 2 15 3 16 4 17 5 18 6 19 7 20 8 21 9 22 10 23 11
REMARK SMILES IDX 24 12 25 13 26 14 12 15 11 16 10 17 9 18 8 19 7 20 6 21 5 22
REMARK SMILES IDX 4 23 3 24 2 25 1 26
REMARK H PARENT
REMARK Flexibility Score: inf
ROOT
ATOM      1  C   UNL     1    -130.012 110.529  40.469  1.00  0.00     0.000 C 
ENDROOT
BRANCH   1   2
ATOM      2  C   UNL     1    -130.862 110.049  39.278  1.00  0.00     0.000 C 
BRANCH   2   3
ATOM      3  C   UNL     1    -131.060 108.525  39.187  1.00  0.00     0.000 C 
BRANCH   3   4
ATOM      4  C   UNL     1    -129.805 107.786  38.700  1.00  0.00     0.000 C 
BRANCH   4   5
ATOM      5  C   UNL     1    -129.901 106.282  39.002  1.00  0.00     0.000 C 
BRANCH   5   6
ATOM      6  C   UNL     1    -128.927 105.831  40.103  1.00  0.00     0.000 C 
BRANCH   6   7
ATOM      7  C   UNL     1    -129.118 106.519  41.471  1.00  0.00     0.000 C 
BRANCH   7   8
ATOM      8  C   UNL     1    -127.897 107.299  41.991  1.00  0.00     0.000 C 
BRANCH   8   9
ATOM      9  C   UNL     1    -128.286 108.581  42.746  1.00  0.00     0.000 C 
BRANCH   9  10
ATOM     10  C   UNL     1    -129.745 108.566  43.237  1.00  0.00     0.006 C 
BRANCH  10  11
ATOM     11  C   UNL     1    -129.991 109.362  44.529  1.00  0.00     0.053 C 
BRANCH  11  12
ATOM     12  C   UNL     1    -131.113 108.789  45.340  1.00  0.00     0.041 C 
ATOM     13  O   UNL     1    -131.019 108.723  46.594  1.00  0.00    -0.550 OA
ATOM     14  O   UNL     1    -132.274 108.355  44.710  1.00  0.00    -0.550 OA
ENDBRANCH  11  12
ENDBRANCH  10  11
ENDBRANCH   9  10
ENDBRANCH   8   9
ENDBRANCH   7   8
ENDBRANCH   6   7
ENDBRANCH   5   6
ENDBRANCH   4   5
ENDBRANCH   3   4
ENDBRANCH   2   3
ENDBRANCH   1   2
BRANCH   1  15
ATOM     15  C   UNL     1    -129.697 112.034  40.413  1.00  0.00     0.000 C 
BRANCH  15  16
ATOM     16  C   UNL     1    -130.410 112.835  41.516  1.00  0.00     0.000 C 
BRANCH  16  17
ATOM     17  C   UNL     1    -129.647 112.946  42.852  1.00  0.00     0.000 C 
BRANCH  17  18
ATOM     18  C   UNL     1    -129.337 114.382  43.316  1.00  0.00    -0.000 C 
BRANCH  18  19
ATOM     19  C   UNL     1    -129.374 115.400  42.163  1.00  0.00    -0.000 C 
BRANCH  19  20
ATOM     20  C   UNL     1    -129.936 116.769  42.590  1.00  0.00    -0.000 C 
BRANCH  20  21
ATOM     21  C   UNL     1    -128.892 117.759  43.143  1.00  0.00    -0.000 C 
BRANCH  21  22
ATOM     22  C   UNL     1    -129.056 118.021  44.652  1.00  0.00    -0.000 C 
BRANCH  22  23
ATOM     23  C   UNL     1    -130.481 117.731  45.150  1.00  0.00    -0.000 C 
BRANCH  23  24
ATOM     24  C   UNL     1    -130.570 117.677  46.683  1.00  0.00    -0.000 C 
BRANCH  24  25
ATOM     25  C   UNL     1    -130.953 116.272  47.161  1.00  0.00    -0.003 C 
ATOM     26  C   UNL     1    -130.446 115.203  46.196  1.00  0.00     0.004 C 
ENDBRANCH  24  25
ENDBRANCH  23  24
ENDBRANCH  22  23
ENDBRANCH  21  22
ENDBRANCH  20  21
ENDBRANCH  19  20
ENDBRANCH  18  19
ENDBRANCH  17  18
ENDBRANCH  16  17
ENDBRANCH  15  16
ENDBRANCH   1  15
TORSDOF 22
ENDMDL
MODEL 8
REMARK VINA RESULT:    -4.536      4.107      7.123
REMARK INTER + INTRA:         -12.774
REMARK INTER:                 -11.323
REMARK INTRA:                  -1.451
REMARK UNBOUND:                -2.405
REMARK SMILES CCCCCCCCCCCCCCCCCCCCCCCC(=O)[O-]
REMARK SMILES IDX 13 1 14 2 15 3 16 4 17 5 18 6 19 7 20 8 21 9 22 10 23 11
REMARK SMILES IDX 24 12 25 13 26 14 12 15 11 16 10 17 9 18 8 19 7 20 6 21 5 22
REMARK SMILES IDX 4 23 3 24 2 25 1 26
REMARK H PARENT
REMARK Flexibility Score: inf
ROOT
ATOM      1  C   UNL     1    -130.111 108.977  40.366  1.00  0.00     0.000 C 
ENDROOT
BRANCH   1   2
ATOM      2  C   UNL     1    -129.349 108.038  41.319  1.00  0.00     0.000 C 
BRANCH   2   3
ATOM      3  C   UNL     1    -128.751 108.716  42.566  1.00  0.00     0.000 C 
BRANCH   3   4
ATOM      4  C   UNL     1    -129.794 109.487  43.387  1.00  0.00     0.000 C 
BRANCH   4   5
ATOM      5  C   UNL     1    -129.227 110.828  43.876  1.00  0.00     0.000 C 
BRANCH   5   6
ATOM      6  C   UNL     1    -129.373 111.953  42.836  1.00  0.00     0.000 C 
BRANCH   6   7
ATOM      7  C   UNL     1    -129.358 113.384  43.411  1.00  0.00     0.000 C 
BRANCH   7   8
ATOM      8  C   UNL     1    -130.191 114.416  42.629  1.00  0.00     0.000 C 
BRANCH   8   9
ATOM      9  C   UNL     1    -129.405 115.698  42.308  1.00  0.00     0.000 C 
BRANCH   9  10
ATOM     10  C   UNL     1    -129.952 116.935  43.044  1.00  0.00     0.006 C 
BRANCH  10  11
ATOM     11  C   UNL     1    -129.255 117.243  44.379  1.00  0.00     0.053 C 
BRANCH  11  12
ATOM     12  C   UNL     1    -130.126 116.927  45.556  1.00  0.00     0.041 C 
ATOM     13  O   UNL     1    -130.835 117.827  46.080  1.00  0.00    -0.550 OA
ATOM     14  O   UNL     1    -130.175 115.632  46.057  1.00  0.00    -0.550 OA
ENDBRANCH  11  12
ENDBRANCH  10  11
ENDBRANCH   9  10
ENDBRANCH   8   9
ENDBRANCH   7   8
ENDBRANCH   6   7
ENDBRANCH   5   6
ENDBRANCH   4   5
ENDBRANCH   3   4
ENDBRANCH   2   3
ENDBRANCH   1   2
BRANCH   1  15
ATOM     15  C   UNL     1    -129.244 109.479  39.198  1.00  0.00     0.000 C 
BRANCH  15  16
ATOM     16  C   UNL     1    -129.135 111.013  39.150  1.00  0.00     0.000 C 
BRANCH  16  17
ATOM     17  C   UNL     1    -128.200 111.576  38.060  1.00  0.00     0.000 C 
BRANCH  17  18
ATOM     18  C   UNL     1    -128.234 113.107  37.891  1.00  0.00    -0.000 C 
BRANCH  18  19
ATOM     19  C   UNL     1    -128.105 113.547  36.423  1.00  0.00    -0.000 C 
BRANCH  19  20
ATOM     20  C   UNL     1    -129.370 113.253  35.595  1.00  0.00    -0.000 C 
BRANCH  20  21
ATOM     21  C   UNL     1    -129.728 114.325  34.548  1.00  0.00    -0.000 C 
BRANCH  21  22
ATOM     22  C   UNL     1    -130.905 113.911  33.645  1.00  0.00    -0.000 C 
BRANCH  22  23
ATOM     23  C   UNL     1    -132.141 113.475  34.450  1.00  0.00    -0.000 C 
BRANCH  23  24
ATOM     24  C   UNL     1    -133.181 112.747  33.585  1.00  0.00    -0.000 C 
BRANCH  24  25
ATOM     25  C   UNL     1    -134.304 113.700  33.160  1.00  0.00    -0.003 C 
ATOM     26  C   UNL     1    -134.720 113.454  31.712  1.00  0.00     0.004 C 
ENDBRANCH  24  25
ENDBRANCH  23  24
ENDBRANCH  22  23
ENDBRANCH  21  22
ENDBRANCH  20  21
ENDBRANCH  19  20
ENDBRANCH  18  19
ENDBRANCH  17  18
ENDBRANCH  16  17
ENDBRANCH  15  16
ENDBRANCH   1  15
TORSDOF 22
ENDMDL
MODEL 9
REMARK VINA RESULT:    -4.481      1.877      2.686
REMARK INTER + INTRA:         -12.648
REMARK INTER:                 -10.309
REMARK INTRA:                  -2.339
REMARK UNBOUND:                -2.405
REMARK SMILES CCCCCCCCCCCCCCCCCCCCCCCC(=O)[O-]
REMARK SMILES IDX 13 1 14 2 15 3 16 4 17 5 18 6 19 7 20 8 21 9 22 10 23 11
REMARK SMILES IDX 24 12 25 13 26 14 12 15 11 16 10 17 9 18 8 19 7 20 6 21 5 22
REMARK SMILES IDX 4 23 3 24 2 25 1 26
REMARK H PARENT
REMARK Flexibility Score: inf
ROOT
ATOM      1  C   UNL     1    -130.298 110.822  39.469  1.00  0.00     0.000 C 
ENDROOT
BRANCH   1   2
ATOM      2  C   UNL     1    -129.479 111.282  40.689  1.00  0.00     0.000 C 
BRANCH   2   3
ATOM      3  C   UNL     1    -129.988 112.564  41.373  1.00  0.00     0.000 C 
BRANCH   3   4
ATOM      4  C   UNL     1    -129.689 112.600  42.879  1.00  0.00     0.000 C 
BRANCH   4   5
ATOM      5  C   UNL     1    -129.647 114.045  43.397  1.00  0.00     0.000 C 
BRANCH   5   6
ATOM      6  C   UNL     1    -129.473 115.078  42.270  1.00  0.00     0.000 C 
BRANCH   6   7
ATOM      7  C   UNL     1    -130.032 116.483  42.577  1.00  0.00     0.000 C 
BRANCH   7   8
ATOM      8  C   UNL     1    -128.972 117.578  42.799  1.00  0.00     0.000 C 
BRANCH   8   9
ATOM      9  C   UNL     1    -129.078 118.238  44.184  1.00  0.00     0.000 C 
BRANCH   9  10
ATOM     10  C   UNL     1    -130.002 117.467  45.144  1.00  0.00     0.006 C 
BRANCH  10  11
ATOM     11  C   UNL     1    -130.467 118.275  46.367  1.00  0.00     0.053 C 
BRANCH  11  12
ATOM     12  C   UNL     1    -131.646 117.645  47.044  1.00  0.00     0.041 C 
ATOM     13  O   UNL     1    -132.672 118.329  47.298  1.00  0.00    -0.550 OA
ATOM     14  O   UNL     1    -131.620 116.293  47.369  1.00  0.00    -0.550 OA
ENDBRANCH  11  12
ENDBRANCH  10  11
ENDBRANCH   9  10
ENDBRANCH   8   9
ENDBRANCH   7   8
ENDBRANCH   6   7
ENDBRANCH   5   6
ENDBRANCH   4   5
ENDBRANCH   3   4
ENDBRANCH   2   3
ENDBRANCH   1   2
BRANCH   1  15
ATOM     15  C   UNL     1    -131.332 109.737  39.817  1.00  0.00     0.000 C 
BRANCH  15  16
ATOM     16  C   UNL     1    -131.474 108.671  38.717  1.00  0.00     0.000 C 
BRANCH  16  17
ATOM     17  C   UNL     1    -130.982 107.259  39.096  1.00  0.00     0.000 C 
BRANCH  17  18
ATOM     18  C   UNL     1    -129.483 107.154  39.437  1.00  0.00    -0.000 C 
BRANCH  18  19
ATOM     19  C   UNL     1    -129.229 106.907  40.934  1.00  0.00    -0.000 C 
BRANCH  19  20
ATOM     20  C   UNL     1    -128.431 108.042  41.602  1.00  0.00    -0.000 C 
BRANCH  20  21
ATOM     21  C   UNL     1    -128.839 108.360  43.054  1.00  0.00    -0.000 C 
BRANCH  21  22
ATOM     22  C   UNL     1    -130.331 108.717  43.191  1.00  0.00    -0.000 C 
BRANCH  22  23
ATOM     23  C   UNL     1    -131.068 107.801  44.182  1.00  0.00    -0.000 C 
BRANCH  23  24
ATOM     24  C   UNL     1    -132.073 108.567  45.056  1.00  0.00    -0.000 C 
BRANCH  24  25
ATOM     25  C   UNL     1    -131.370 109.235  46.243  1.00  0.00    -0.003 C 
ATOM     26  C   UNL     1    -130.635 108.207  47.100  1.00  0.00     0.004 C 
ENDBRANCH  24  25
ENDBRANCH  23  24
ENDBRANCH  22  23
ENDBRANCH  21  22
ENDBRANCH  20  21
ENDBRANCH  19  20
ENDBRANCH  18  19
ENDBRANCH  17  18
ENDBRANCH  16  17
ENDBRANCH  15  16
ENDBRANCH   1  15
TORSDOF 22
ENDMDL
