MODEL 1
REMARK VINA RESULT:    -9.729      0.000      0.000
REMARK INTER + INTRA:         -13.502
REMARK INTER:                 -12.857
REMARK INTRA:                  -0.646
REMARK UNBOUND:                -0.646
REMARK SMILES CC[C@H](C=C[C@H](C)[C@@H]1CC[C@@H]2[C@@H]3CC=C4C[C@H](O)CC[C@]4(C)[C@@H]3CC[C@]21C)C(C)C
REMARK SMILES IDX 6 1 7 2 5 3 4 4 3 5 2 6 1 7 28 8 29 9 30 10 8 11 9 12 26 13
REMARK SMILES IDX 10 14 11 15 25 16 27 17 12 18 24 19 23 20 13 21 21 22 14 23
REMARK SMILES IDX 15 24 20 25 22 26 16 27 19 28 17 29 18 30
REMARK H PARENT 18 31
REMARK Flexibility Score: inf
ROOT
ATOM      1  C   UNL     1       7.623  74.339  -2.048  1.00  0.00     0.012 C 
ATOM      2  C   UNL     1       7.067  75.009  -3.312  1.00  0.00     0.012 C 
ENDROOT
BRANCH   1   3
ATOM      3  C   UNL     1       8.808  73.489  -2.456  1.00  0.00    -0.028 C 
ATOM      4  C   UNL     1       9.119  73.279  -3.744  1.00  0.00    -0.027 C 
BRANCH   4   5
ATOM      5  C   UNL     1      10.301  72.426  -4.153  1.00  0.00     0.014 C 
BRANCH   5   6
ATOM      6  C   UNL     1      10.008  71.802  -5.538  1.00  0.00     0.004 C 
ATOM      7  C   UNL     1       8.819  72.447  -6.253  1.00  0.00     0.004 C 
ENDBRANCH   5   6
BRANCH   5   8
ATOM      8  C   UNL     1      11.635  73.232  -4.084  1.00  0.00    -0.011 C 
ATOM      9  C   UNL     1      12.445  73.078  -5.382  1.00  0.00     0.008 C 
ATOM     10  C   UNL     1      12.512  72.874  -2.872  1.00  0.00     0.008 C 
ENDBRANCH   5   8
ENDBRANCH   4   5
ENDBRANCH   1   3
BRANCH   1  11
ATOM     11  C   UNL     1       8.071  75.369  -0.963  1.00  0.00     0.002 C 
ATOM     12  C   UNL     1       6.924  76.347  -0.587  1.00  0.00     0.005 C 
ATOM     13  C   UNL     1       9.277  76.309  -1.278  1.00  0.00    -0.026 C 
ATOM     14  C   UNL     1       7.568  77.686  -0.203  1.00  0.00     0.005 C 
ATOM     15  C   UNL     1       9.058  77.385  -0.201  1.00  0.00    -0.001 C 
ATOM     16  C   UNL     1      10.672  75.703  -1.010  1.00  0.00     0.007 C 
ATOM     17  C   UNL     1       9.191  76.841  -2.738  1.00  0.00     0.012 C 
ATOM     18  C   UNL     1      10.071  78.554  -0.178  1.00  0.00     0.000 C 
ATOM     19  C   UNL     1      11.783  76.778  -1.020  1.00  0.00     0.005 C 
ATOM     20  C   UNL     1      11.532  77.999  -0.068  1.00  0.00     0.003 C 
ATOM     21  C   UNL     1       9.859  79.647  -1.266  1.00  0.00     0.031 C 
ATOM     22  C   UNL     1      12.590  79.164  -0.227  1.00  0.00    -0.008 C 
ATOM     23  C   UNL     1      11.097  80.066  -2.015  1.00  0.00    -0.027 C 
ATOM     24  C   UNL     1      12.352  79.887  -1.553  1.00  0.00    -0.065 C 
ATOM     25  C   UNL     1      14.053  78.610  -0.144  1.00  0.00     0.014 C 
ATOM     26  C   UNL     1      12.410  80.192   0.923  1.00  0.00     0.016 C 
ATOM     27  C   UNL     1      13.468  80.680  -2.210  1.00  0.00     0.063 C 
ATOM     28  C   UNL     1      15.118  79.592  -0.648  1.00  0.00     0.033 C 
ATOM     29  C   UNL     1      14.833  79.997  -2.099  1.00  0.00     0.118 C 
BRANCH  29  30
ATOM     30  O   UNL     1      14.865  78.877  -2.946  1.00  0.00    -0.393 OA
ATOM     31  H   UNL     1      15.820  78.632  -3.061  1.00  0.00     0.210 HD
ENDBRANCH  29  30
ENDBRANCH   1  11
TORSDOF 6
ENDMDL
MODEL 2
REMARK VINA RESULT:    -8.735      1.963      4.363
REMARK INTER + INTRA:         -12.189
REMARK INTER:                 -11.388
REMARK INTRA:                  -0.801
REMARK UNBOUND:                -0.646
REMARK SMILES CC[C@H](C=C[C@H](C)[C@@H]1CC[C@@H]2[C@@H]3CC=C4C[C@H](O)CC[C@]4(C)[C@@H]3CC[C@]21C)C(C)C
REMARK SMILES IDX 6 1 7 2 5 3 4 4 3 5 2 6 1 7 28 8 29 9 30 10 8 11 9 12 26 13
REMARK SMILES IDX 10 14 11 15 25 16 27 17 12 18 24 19 23 20 13 21 21 22 14 23
REMARK SMILES IDX 15 24 20 25 22 26 16 27 19 28 17 29 18 30
REMARK H PARENT 18 31
REMARK Flexibility Score: inf
ROOT
ATOM      1  C   UNL     1      10.227  72.503  -3.025  1.00  0.00     0.012 C 
ATOM      2  C   UNL     1      10.136  71.210  -2.203  1.00  0.00     0.012 C 
ENDROOT
BRANCH   1   3
ATOM      3  C   UNL     1       9.104  73.416  -2.580  1.00  0.00    -0.028 C 
ATOM      4  C   UNL     1       8.181  73.875  -3.440  1.00  0.00    -0.027 C 
BRANCH   4   5
ATOM      5  C   UNL     1       7.060  74.791  -2.996  1.00  0.00     0.014 C 
BRANCH   5   6
ATOM      6  C   UNL     1       6.946  74.725  -1.455  1.00  0.00     0.004 C 
ATOM      7  C   UNL     1       5.501  74.742  -0.953  1.00  0.00     0.004 C 
ENDBRANCH   5   6
BRANCH   5   8
ATOM      8  C   UNL     1       7.246  76.233  -3.562  1.00  0.00    -0.011 C 
ATOM      9  C   UNL     1       7.999  76.212  -4.902  1.00  0.00     0.008 C 
ATOM     10  C   UNL     1       7.940  77.197  -2.584  1.00  0.00     0.008 C 
ENDBRANCH   5   8
ENDBRANCH   4   5
ENDBRANCH   1   3
BRANCH   1  11
ATOM     11  C   UNL     1      11.594  73.237  -2.852  1.00  0.00     0.002 C 
ATOM     12  C   UNL     1      12.606  72.387  -2.035  1.00  0.00     0.005 C 
ATOM     13  C   UNL     1      11.611  74.627  -2.141  1.00  0.00    -0.026 C 
ATOM     14  C   UNL     1      13.510  73.361  -1.267  1.00  0.00     0.005 C 
ATOM     15  C   UNL     1      13.107  74.728  -1.799  1.00  0.00    -0.001 C 
ATOM     16  C   UNL     1      11.290  75.835  -3.048  1.00  0.00     0.007 C 
ATOM     17  C   UNL     1      10.671  74.620  -0.900  1.00  0.00     0.012 C 
ATOM     18  C   UNL     1      13.558  76.002  -1.046  1.00  0.00     0.000 C 
ATOM     19  C   UNL     1      11.649  77.179  -2.373  1.00  0.00     0.005 C 
ATOM     20  C   UNL     1      13.120  77.280  -1.838  1.00  0.00     0.003 C 
ATOM     21  C   UNL     1      13.243  76.027   0.478  1.00  0.00     0.031 C 
ATOM     22  C   UNL     1      13.408  78.589  -0.999  1.00  0.00    -0.008 C 
ATOM     23  C   UNL     1      12.620  77.300   0.990  1.00  0.00    -0.027 C 
ATOM     24  C   UNL     1      12.706  78.488   0.355  1.00  0.00    -0.065 C 
ATOM     25  C   UNL     1      12.948  79.868  -1.777  1.00  0.00     0.014 C 
ATOM     26  C   UNL     1      14.935  78.717  -0.743  1.00  0.00     0.016 C 
ATOM     27  C   UNL     1      12.375  79.740   1.147  1.00  0.00     0.063 C 
ATOM     28  C   UNL     1      12.851  81.125  -0.903  1.00  0.00     0.033 C 
ATOM     29  C   UNL     1      11.887  80.894   0.268  1.00  0.00     0.118 C 
BRANCH  29  30
ATOM     30  O   UNL     1      10.594  80.610  -0.199  1.00  0.00    -0.393 OA
ATOM     31  H   UNL     1      10.684  80.350  -1.153  1.00  0.00     0.210 HD
ENDBRANCH  29  30
ENDBRANCH   1  11
TORSDOF 6
ENDMDL
MODEL 3
REMARK VINA RESULT:    -8.716      2.252      7.574
REMARK INTER + INTRA:         -12.164
REMARK INTER:                 -11.724
REMARK INTRA:                  -0.440
REMARK UNBOUND:                -0.646
REMARK SMILES CC[C@H](C=C[C@H](C)[C@@H]1CC[C@@H]2[C@@H]3CC=C4C[C@H](O)CC[C@]4(C)[C@@H]3CC[C@]21C)C(C)C
REMARK SMILES IDX 6 1 7 2 5 3 4 4 3 5 2 6 1 7 28 8 29 9 30 10 8 11 9 12 26 13
REMARK SMILES IDX 10 14 11 15 25 16 27 17 12 18 24 19 23 20 13 21 21 22 14 23
REMARK SMILES IDX 15 24 20 25 22 26 16 27 19 28 17 29 18 30
REMARK H PARENT 18 31
REMARK Flexibility Score: inf
ROOT
ATOM      1  C   UNL     1      13.595  78.148   0.634  1.00  0.00     0.012 C 
ATOM      2  C   UNL     1      15.094  78.415   0.435  1.00  0.00     0.012 C 
ENDROOT
BRANCH   1   3
ATOM      3  C   UNL     1      12.845  78.879  -0.459  1.00  0.00    -0.028 C 
ATOM      4  C   UNL     1      12.557  80.187  -0.368  1.00  0.00    -0.027 C 
BRANCH   4   5
ATOM      5  C   UNL     1      11.803  80.917  -1.459  1.00  0.00     0.014 C 
BRANCH   5   6
ATOM      6  C   UNL     1      12.166  80.284  -2.823  1.00  0.00     0.004 C 
ATOM      7  C   UNL     1      13.538  80.715  -3.344  1.00  0.00     0.004 C 
ENDBRANCH   5   6
BRANCH   5   8
ATOM      8  C   UNL     1      10.271  80.960  -1.162  1.00  0.00    -0.011 C 
ATOM      9  C   UNL     1      10.001  81.125   0.342  1.00  0.00     0.008 C 
ATOM     10  C   UNL     1       9.501  79.743  -1.704  1.00  0.00     0.008 C 
ENDBRANCH   5   8
ENDBRANCH   4   5
ENDBRANCH   1   3
BRANCH   1  11
ATOM     11  C   UNL     1      13.238  76.629   0.584  1.00  0.00     0.002 C 
ATOM     12  C   UNL     1      14.462  75.736   0.928  1.00  0.00     0.005 C 
ATOM     13  C   UNL     1      12.701  76.031  -0.754  1.00  0.00    -0.026 C 
ATOM     14  C   UNL     1      14.311  74.426   0.143  1.00  0.00     0.005 C 
ATOM     15  C   UNL     1      12.929  74.535  -0.483  1.00  0.00    -0.001 C 
ATOM     16  C   UNL     1      11.185  76.204  -0.992  1.00  0.00     0.007 C 
ATOM     17  C   UNL     1      13.504  76.589  -1.966  1.00  0.00     0.012 C 
ATOM     18  C   UNL     1      12.526  73.559  -1.613  1.00  0.00     0.000 C 
ATOM     19  C   UNL     1      10.674  75.313  -2.147  1.00  0.00     0.005 C 
ATOM     20  C   UNL     1      11.030  73.791  -2.018  1.00  0.00     0.003 C 
ATOM     21  C   UNL     1      13.526  73.460  -2.802  1.00  0.00     0.031 C 
ATOM     22  C   UNL     1      10.652  72.934  -3.292  1.00  0.00    -0.008 C 
ATOM     23  C   UNL     1      12.910  73.536  -4.175  1.00  0.00    -0.027 C 
ATOM     24  C   UNL     1      11.612  73.272  -4.433  1.00  0.00    -0.065 C 
ATOM     25  C   UNL     1       9.165  73.183  -3.716  1.00  0.00     0.014 C 
ATOM     26  C   UNL     1      10.803  71.422  -2.966  1.00  0.00     0.016 C 
ATOM     27  C   UNL     1      11.214  73.015  -5.876  1.00  0.00     0.063 C 
ATOM     28  C   UNL     1       8.831  72.687  -5.129  1.00  0.00     0.033 C 
ATOM     29  C   UNL     1       9.750  73.351  -6.163  1.00  0.00     0.118 C 
BRANCH  29  30
ATOM     30  O   UNL     1       9.581  74.745  -6.159  1.00  0.00    -0.393 OA
ATOM     31  H   UNL     1      10.458  75.139  -5.914  1.00  0.00     0.210 HD
ENDBRANCH  29  30
ENDBRANCH   1  11
TORSDOF 6
ENDMDL
MODEL 4
REMARK VINA RESULT:    -8.695      2.149      7.317
REMARK INTER + INTRA:         -12.136
REMARK INTER:                 -12.199
REMARK INTRA:                   0.063
REMARK UNBOUND:                -0.646
REMARK SMILES CC[C@H](C=C[C@H](C)[C@@H]1CC[C@@H]2[C@@H]3CC=C4C[C@H](O)CC[C@]4(C)[C@@H]3CC[C@]21C)C(C)C
REMARK SMILES IDX 6 1 7 2 5 3 4 4 3 5 2 6 1 7 28 8 29 9 30 10 8 11 9 12 26 13
REMARK SMILES IDX 10 14 11 15 25 16 27 17 12 18 24 19 23 20 13 21 21 22 14 23
REMARK SMILES IDX 15 24 20 25 22 26 16 27 19 28 17 29 18 30
REMARK H PARENT 18 31
REMARK Flexibility Score: inf
ROOT
ATOM      1  C   UNL     1      11.877  79.458  -0.261  1.00  0.00     0.012 C 
ATOM      2  C   UNL     1      12.138  79.780  -1.740  1.00  0.00     0.012 C 
ENDROOT
BRANCH   1   3
ATOM      3  C   UNL     1      10.506  79.992   0.095  1.00  0.00    -0.028 C 
ATOM      4  C   UNL     1       9.407  79.638  -0.590  1.00  0.00    -0.027 C 
BRANCH   4   5
ATOM      5  C   UNL     1       8.036  80.176  -0.237  1.00  0.00     0.014 C 
BRANCH   5   6
ATOM      6  C   UNL     1       7.372  80.723  -1.522  1.00  0.00     0.004 C 
ATOM      7  C   UNL     1       8.380  81.125  -2.601  1.00  0.00     0.004 C 
ENDBRANCH   5   6
BRANCH   5   8
ATOM      8  C   UNL     1       7.184  79.109   0.519  1.00  0.00    -0.011 C 
ATOM      9  C   UNL     1       7.140  77.782  -0.255  1.00  0.00     0.008 C 
ATOM     10  C   UNL     1       5.755  79.577   0.843  1.00  0.00     0.008 C 
ENDBRANCH   5   8
ENDBRANCH   4   5
ENDBRANCH   1   3
BRANCH   1  11
ATOM     11  C   UNL     1      11.934  77.928   0.046  1.00  0.00     0.002 C 
ATOM     12  C   UNL     1      13.297  77.514   0.666  1.00  0.00     0.005 C 
ATOM     13  C   UNL     1      11.736  76.922  -1.131  1.00  0.00    -0.026 C 
ATOM     14  C   UNL     1      13.586  76.074   0.222  1.00  0.00     0.005 C 
ATOM     15  C   UNL     1      12.309  75.649  -0.487  1.00  0.00    -0.001 C 
ATOM     16  C   UNL     1      10.267  76.606  -1.487  1.00  0.00     0.007 C 
ATOM     17  C   UNL     1      12.507  77.399  -2.397  1.00  0.00     0.012 C 
ATOM     18  C   UNL     1      12.312  74.374  -1.362  1.00  0.00     0.000 C 
ATOM     19  C   UNL     1      10.147  75.373  -2.413  1.00  0.00     0.005 C 
ATOM     20  C   UNL     1      10.867  74.080  -1.893  1.00  0.00     0.003 C 
ATOM     21  C   UNL     1      13.439  74.298  -2.433  1.00  0.00     0.031 C 
ATOM     22  C   UNL     1      10.881  72.892  -2.935  1.00  0.00    -0.008 C 
ATOM     23  C   UNL     1      12.995  73.891  -3.815  1.00  0.00    -0.027 C 
ATOM     24  C   UNL     1      11.851  73.223  -4.070  1.00  0.00    -0.065 C 
ATOM     25  C   UNL     1       9.443  72.613  -3.489  1.00  0.00     0.014 C 
ATOM     26  C   UNL     1      11.378  71.594  -2.239  1.00  0.00     0.016 C 
ATOM     27  C   UNL     1      11.711  72.550  -5.425  1.00  0.00     0.063 C 
ATOM     28  C   UNL     1       9.422  71.742  -4.752  1.00  0.00     0.033 C 
ATOM     29  C   UNL     1      10.255  72.390  -5.866  1.00  0.00     0.118 C 
BRANCH  29  30
ATOM     30  O   UNL     1       9.731  73.645  -6.215  1.00  0.00    -0.393 OA
ATOM     31  H   UNL     1      10.482  74.175  -6.590  1.00  0.00     0.210 HD
ENDBRANCH  29  30
ENDBRANCH   1  11
TORSDOF 6
ENDMDL
MODEL 5
REMARK VINA RESULT:    -8.633      1.861      7.090
REMARK INTER + INTRA:         -12.054
REMARK INTER:                 -11.277
REMARK INTRA:                  -0.776
REMARK UNBOUND:                -0.646
REMARK SMILES CC[C@H](C=C[C@H](C)[C@@H]1CC[C@@H]2[C@@H]3CC=C4C[C@H](O)CC[C@]4(C)[C@@H]3CC[C@]21C)C(C)C
REMARK SMILES IDX 6 1 7 2 5 3 4 4 3 5 2 6 1 7 28 8 29 9 30 10 8 11 9 12 26 13
REMARK SMILES IDX 10 14 11 15 25 16 27 17 12 18 24 19 23 20 13 21 21 22 14 23
REMARK SMILES IDX 15 24 20 25 22 26 16 27 19 28 17 29 18 30
REMARK H PARENT 18 31
REMARK Flexibility Score: inf
ROOT
ATOM      1  C   UNL     1       8.181  79.951  -1.734  1.00  0.00     0.012 C 
ATOM      2  C   UNL     1       6.951  80.865  -1.641  1.00  0.00     0.012 C 
ENDROOT
BRANCH   1   3
ATOM      3  C   UNL     1       9.222  80.474  -0.767  1.00  0.00    -0.028 C 
ATOM      4  C   UNL     1      10.515  80.589  -1.111  1.00  0.00    -0.027 C 
BRANCH   4   5
ATOM      5  C   UNL     1      11.557  81.109  -0.143  1.00  0.00     0.014 C 
BRANCH   5   6
ATOM      6  C   UNL     1      10.949  81.125   1.279  1.00  0.00     0.004 C 
ATOM      7  C   UNL     1      11.998  81.020   2.387  1.00  0.00     0.004 C 
ENDBRANCH   5   6
BRANCH   5   8
ATOM      8  C   UNL     1      12.891  80.308  -0.259  1.00  0.00    -0.011 C 
ATOM      9  C   UNL     1      13.624  80.635  -1.570  1.00  0.00     0.008 C 
ATOM     10  C   UNL     1      12.713  78.786  -0.122  1.00  0.00     0.008 C 
ENDBRANCH   5   8
ENDBRANCH   4   5
ENDBRANCH   1   3
BRANCH   1  11
ATOM     11  C   UNL     1       7.858  78.462  -1.393  1.00  0.00     0.002 C 
ATOM     12  C   UNL     1       8.052  78.160   0.118  1.00  0.00     0.005 C 
ATOM     13  C   UNL     1       8.671  77.338  -2.109  1.00  0.00    -0.026 C 
ATOM     14  C   UNL     1       8.489  76.694   0.241  1.00  0.00     0.005 C 
ATOM     15  C   UNL     1       8.361  76.156  -1.175  1.00  0.00    -0.001 C 
ATOM     16  C   UNL     1       8.151  76.937  -3.506  1.00  0.00     0.007 C 
ATOM     17  C   UNL     1      10.180  77.714  -2.183  1.00  0.00     0.012 C 
ATOM     18  C   UNL     1       9.013  74.801  -1.538  1.00  0.00     0.000 C 
ATOM     19  C   UNL     1       8.782  75.615  -4.002  1.00  0.00     0.005 C 
ATOM     20  C   UNL     1       8.655  74.406  -3.011  1.00  0.00     0.003 C 
ATOM     21  C   UNL     1      10.517  74.659  -1.162  1.00  0.00     0.031 C 
ATOM     22  C   UNL     1       9.458  73.121  -3.461  1.00  0.00    -0.008 C 
ATOM     23  C   UNL     1      11.406  74.102  -2.244  1.00  0.00    -0.027 C 
ATOM     24  C   UNL     1      10.956  73.372  -3.285  1.00  0.00    -0.065 C 
ATOM     25  C   UNL     1       9.122  72.738  -4.942  1.00  0.00     0.014 C 
ATOM     26  C   UNL     1       9.061  71.918  -2.562  1.00  0.00     0.016 C 
ATOM     27  C   UNL     1      11.971  72.565  -4.075  1.00  0.00     0.063 C 
ATOM     28  C   UNL     1      10.113  71.747  -5.567  1.00  0.00     0.033 C 
ATOM     29  C   UNL     1      11.539  72.310  -5.521  1.00  0.00     0.118 C 
BRANCH  29  30
ATOM     30  O   UNL     1      11.627  73.505  -6.253  1.00  0.00    -0.393 OA
ATOM     31  H   UNL     1      10.800  74.020  -6.062  1.00  0.00     0.210 HD
ENDBRANCH  29  30
ENDBRANCH   1  11
TORSDOF 6
ENDMDL
MODEL 6
REMARK VINA RESULT:    -8.324      2.058      7.220
REMARK INTER + INTRA:         -11.646
REMARK INTER:                 -11.290
REMARK INTRA:                  -0.356
REMARK UNBOUND:                -0.646
REMARK SMILES CC[C@H](C=C[C@H](C)[C@@H]1CC[C@@H]2[C@@H]3CC=C4C[C@H](O)CC[C@]4(C)[C@@H]3CC[C@]21C)C(C)C
REMARK SMILES IDX 6 1 7 2 5 3 4 4 3 5 2 6 1 7 28 8 29 9 30 10 8 11 9 12 26 13
REMARK SMILES IDX 10 14 11 15 25 16 27 17 12 18 24 19 23 20 13 21 21 22 14 23
REMARK SMILES IDX 15 24 20 25 22 26 16 27 19 28 17 29 18 30
REMARK H PARENT 18 31
REMARK Flexibility Score: inf
ROOT
ATOM      1  C   UNL     1      10.179  79.680  -0.712  1.00  0.00     0.012 C 
ATOM      2  C   UNL     1       9.153  80.439   0.142  1.00  0.00     0.012 C 
ENDROOT
BRANCH   1   3
ATOM      3  C   UNL     1      11.501  80.409  -0.605  1.00  0.00    -0.028 C 
ATOM      4  C   UNL     1      12.580  80.028  -1.308  1.00  0.00    -0.027 C 
BRANCH   4   5
ATOM      5  C   UNL     1      13.904  80.755  -1.199  1.00  0.00     0.014 C 
BRANCH   5   6
ATOM      6  C   UNL     1      14.269  80.897   0.298  1.00  0.00     0.004 C 
ATOM      7  C   UNL     1      14.727  79.584   0.936  1.00  0.00     0.004 C 
ENDBRANCH   5   6
BRANCH   5   8
ATOM      8  C   UNL     1      15.004  80.065  -2.063  1.00  0.00    -0.011 C 
ATOM      9  C   UNL     1      15.125  80.731  -3.444  1.00  0.00     0.008 C 
ATOM     10  C   UNL     1      14.804  78.549  -2.226  1.00  0.00     0.008 C 
ENDBRANCH   5   8
ENDBRANCH   4   5
ENDBRANCH   1   3
BRANCH   1  11
ATOM     11  C   UNL     1      10.365  78.197  -0.260  1.00  0.00     0.002 C 
ATOM     12  C   UNL     1      11.642  78.013   0.606  1.00  0.00     0.005 C 
ATOM     13  C   UNL     1      10.491  77.092  -1.355  1.00  0.00    -0.026 C 
ATOM     14  C   UNL     1      12.172  76.596   0.348  1.00  0.00     0.005 C 
ATOM     15  C   UNL     1      11.094  75.955  -0.513  1.00  0.00    -0.001 C 
ATOM     16  C   UNL     1       9.153  76.559  -1.911  1.00  0.00     0.007 C 
ATOM     17  C   UNL     1      11.404  77.576  -2.520  1.00  0.00     0.012 C 
ATOM     18  C   UNL     1      11.397  74.633  -1.255  1.00  0.00     0.000 C 
ATOM     19  C   UNL     1       9.340  75.259  -2.726  1.00  0.00     0.005 C 
ATOM     20  C   UNL     1      10.110  74.114  -1.981  1.00  0.00     0.003 C 
ATOM     21  C   UNL     1      12.691  74.631  -2.120  1.00  0.00     0.031 C 
ATOM     22  C   UNL     1      10.442  72.866  -2.893  1.00  0.00    -0.008 C 
ATOM     23  C   UNL     1      12.540  74.071  -3.512  1.00  0.00    -0.027 C 
ATOM     24  C   UNL     1      11.544  73.241  -3.884  1.00  0.00    -0.065 C 
ATOM     25  C   UNL     1       9.162  72.360  -3.641  1.00  0.00     0.014 C 
ATOM     26  C   UNL     1      10.963  71.699  -2.009  1.00  0.00     0.016 C 
ATOM     27  C   UNL     1      11.718  72.461  -5.175  1.00  0.00     0.063 C 
ATOM     28  C   UNL     1       9.461  71.406  -4.806  1.00  0.00     0.033 C 
ATOM     29  C   UNL     1      10.388  72.078  -5.827  1.00  0.00     0.118 C 
BRANCH  29  30
ATOM     30  O   UNL     1       9.785  73.224  -6.370  1.00  0.00    -0.393 OA
ATOM     31  H   UNL     1      10.456  73.954  -6.314  1.00  0.00     0.210 HD
ENDBRANCH  29  30
ENDBRANCH   1  11
TORSDOF 6
ENDMDL
MODEL 7
REMARK VINA RESULT:    -8.168      1.437      2.112
REMARK INTER + INTRA:         -11.440
REMARK INTER:                 -10.723
REMARK INTRA:                  -0.717
REMARK UNBOUND:                -0.646
REMARK SMILES CC[C@H](C=C[C@H](C)[C@@H]1CC[C@@H]2[C@@H]3CC=C4C[C@H](O)CC[C@]4(C)[C@@H]3CC[C@]21C)C(C)C
REMARK SMILES IDX 6 1 7 2 5 3 4 4 3 5 2 6 1 7 28 8 29 9 30 10 8 11 9 12 26 13
REMARK SMILES IDX 10 14 11 15 25 16 27 17 12 18 24 19 23 20 13 21 21 22 14 23
REMARK SMILES IDX 15 24 20 25 22 26 16 27 19 28 17 29 18 30
REMARK H PARENT 18 31
REMARK Flexibility Score: inf
ROOT
ATOM      1  C   UNL     1       7.627  74.352  -1.345  1.00  0.00     0.012 C 
ATOM      2  C   UNL     1       6.137  73.987  -1.276  1.00  0.00     0.012 C 
ENDROOT
BRANCH   1   3
ATOM      3  C   UNL     1       8.227  73.630  -2.533  1.00  0.00    -0.028 C 
ATOM      4  C   UNL     1       9.122  72.641  -2.384  1.00  0.00    -0.027 C 
BRANCH   4   5
ATOM      5  C   UNL     1       9.725  71.921  -3.571  1.00  0.00     0.014 C 
BRANCH   5   6
ATOM      6  C   UNL     1       9.092  72.483  -4.866  1.00  0.00     0.004 C 
ATOM      7  C   UNL     1       9.281  71.570  -6.079  1.00  0.00     0.004 C 
ENDBRANCH   5   6
BRANCH   5   8
ATOM      8  C   UNL     1      11.284  71.984  -3.543  1.00  0.00    -0.011 C 
ATOM      9  C   UNL     1      11.811  72.085  -2.103  1.00  0.00     0.008 C 
ATOM     10  C   UNL     1      11.873  73.119  -4.399  1.00  0.00     0.008 C 
ENDBRANCH   5   8
ENDBRANCH   4   5
ENDBRANCH   1   3
BRANCH   1  11
ATOM     11  C   UNL     1       7.869  75.887  -1.493  1.00  0.00     0.002 C 
ATOM     12  C   UNL     1       7.603  76.377  -2.943  1.00  0.00     0.005 C 
ATOM     13  C   UNL     1       9.284  76.457  -1.158  1.00  0.00    -0.026 C 
ATOM     14  C   UNL     1       8.543  77.560  -3.209  1.00  0.00     0.005 C 
ATOM     15  C   UNL     1       9.188  77.823  -1.857  1.00  0.00    -0.001 C 
ATOM     16  C   UNL     1       9.539  76.749   0.337  1.00  0.00     0.007 C 
ATOM     17  C   UNL     1      10.397  75.527  -1.723  1.00  0.00     0.012 C 
ATOM     18  C   UNL     1      10.438  78.730  -1.772  1.00  0.00     0.000 C 
ATOM     19  C   UNL     1      10.806  77.608   0.551  1.00  0.00     0.005 C 
ATOM     20  C   UNL     1      10.852  78.940  -0.276  1.00  0.00     0.003 C 
ATOM     21  C   UNL     1      11.603  78.357  -2.735  1.00  0.00     0.031 C 
ATOM     22  C   UNL     1      12.229  79.710  -0.176  1.00  0.00    -0.008 C 
ATOM     23  C   UNL     1      12.974  78.314  -2.109  1.00  0.00    -0.027 C 
ATOM     24  C   UNL     1      13.296  78.946  -0.961  1.00  0.00    -0.065 C 
ATOM     25  C   UNL     1      12.660  79.899   1.319  1.00  0.00     0.014 C 
ATOM     26  C   UNL     1      12.084  81.122  -0.807  1.00  0.00     0.016 C 
ATOM     27  C   UNL     1      14.769  79.138  -0.647  1.00  0.00     0.063 C 
ATOM     28  C   UNL     1      14.131  80.298   1.495  1.00  0.00     0.033 C 
ATOM     29  C   UNL     1      15.052  79.255   0.851  1.00  0.00     0.118 C 
BRANCH  29  30
ATOM     30  O   UNL     1      14.885  77.999   1.458  1.00  0.00    -0.393 OA
ATOM     31  H   UNL     1      14.014  77.642   1.142  1.00  0.00     0.210 HD
ENDBRANCH  29  30
ENDBRANCH   1  11
TORSDOF 6
ENDMDL
MODEL 8
REMARK VINA RESULT:    -7.937      1.902      6.701
REMARK INTER + INTRA:         -11.135
REMARK INTER:                 -10.965
REMARK INTRA:                  -0.169
REMARK UNBOUND:                -0.646
REMARK SMILES CC[C@H](C=C[C@H](C)[C@@H]1CC[C@@H]2[C@@H]3CC=C4C[C@H](O)CC[C@]4(C)[C@@H]3CC[C@]21C)C(C)C
REMARK SMILES IDX 6 1 7 2 5 3 4 4 3 5 2 6 1 7 28 8 29 9 30 10 8 11 9 12 26 13
REMARK SMILES IDX 10 14 11 15 25 16 27 17 12 18 24 19 23 20 13 21 21 22 14 23
REMARK SMILES IDX 15 24 20 25 22 26 16 27 19 28 17 29 18 30
REMARK H PARENT 18 31
REMARK Flexibility Score: inf
ROOT
ATOM      1  C   UNL     1       6.341  77.533  -0.227  1.00  0.00     0.012 C 
ATOM      2  C   UNL     1       6.045  77.209   1.245  1.00  0.00     0.012 C 
ENDROOT
BRANCH   1   3
ATOM      3  C   UNL     1       7.705  78.186  -0.293  1.00  0.00    -0.028 C 
ATOM      4  C   UNL     1       7.855  79.520  -0.250  1.00  0.00    -0.027 C 
BRANCH   4   5
ATOM      5  C   UNL     1       9.218  80.174  -0.320  1.00  0.00     0.014 C 
BRANCH   5   6
ATOM      6  C   UNL     1      10.302  79.072  -0.251  1.00  0.00     0.004 C 
ATOM      7  C   UNL     1      11.556  79.503   0.512  1.00  0.00     0.004 C 
ENDBRANCH   5   6
BRANCH   5   8
ATOM      8  C   UNL     1       9.337  81.110  -1.562  1.00  0.00    -0.011 C 
ATOM      9  C   UNL     1       8.032  81.125  -2.375  1.00  0.00     0.008 C 
ATOM     10  C   UNL     1      10.525  80.773  -2.480  1.00  0.00     0.008 C 
ENDBRANCH   5   8
ENDBRANCH   4   5
ENDBRANCH   1   3
BRANCH   1  11
ATOM     11  C   UNL     1       6.326  76.267  -1.141  1.00  0.00     0.002 C 
ATOM     12  C   UNL     1       5.734  75.032  -0.408  1.00  0.00     0.005 C 
ATOM     13  C   UNL     1       7.680  75.747  -1.720  1.00  0.00    -0.026 C 
ATOM     14  C   UNL     1       6.428  73.785  -0.972  1.00  0.00     0.005 C 
ATOM     15  C   UNL     1       7.261  74.324  -2.125  1.00  0.00    -0.001 C 
ATOM     16  C   UNL     1       8.156  76.445  -3.012  1.00  0.00     0.007 C 
ATOM     17  C   UNL     1       8.796  75.799  -0.635  1.00  0.00     0.012 C 
ATOM     18  C   UNL     1       8.361  73.434  -2.751  1.00  0.00     0.000 C 
ATOM     19  C   UNL     1       9.302  75.670  -3.701  1.00  0.00     0.005 C 
ATOM     20  C   UNL     1       9.003  74.156  -3.984  1.00  0.00     0.003 C 
ATOM     21  C   UNL     1       9.374  72.813  -1.746  1.00  0.00     0.031 C 
ATOM     22  C   UNL     1      10.249  73.347  -4.524  1.00  0.00    -0.008 C 
ATOM     23  C   UNL     1      10.826  72.936  -2.129  1.00  0.00    -0.027 C 
ATOM     24  C   UNL     1      11.255  73.148  -3.391  1.00  0.00    -0.065 C 
ATOM     25  C   UNL     1      10.910  74.080  -5.741  1.00  0.00     0.014 C 
ATOM     26  C   UNL     1       9.788  71.946  -5.013  1.00  0.00     0.016 C 
ATOM     27  C   UNL     1      12.717  72.874  -3.697  1.00  0.00     0.063 C 
ATOM     28  C   UNL     1      12.315  73.567  -6.085  1.00  0.00     0.033 C 
ATOM     29  C   UNL     1      13.247  73.696  -4.874  1.00  0.00     0.118 C 
BRANCH  29  30
ATOM     30  O   UNL     1      13.377  75.040  -4.484  1.00  0.00    -0.393 OA
ATOM     31  H   UNL     1      12.933  75.585  -5.185  1.00  0.00     0.210 HD
ENDBRANCH  29  30
ENDBRANCH   1  11
TORSDOF 6
ENDMDL
MODEL 9
REMARK VINA RESULT:    -7.856      2.144      6.870
REMARK INTER + INTRA:         -11.028
REMARK INTER:                 -10.542
REMARK INTRA:                  -0.485
REMARK UNBOUND:                -0.646
REMARK SMILES CC[C@H](C=C[C@H](C)[C@@H]1CC[C@@H]2[C@@H]3CC=C4C[C@H](O)CC[C@]4(C)[C@@H]3CC[C@]21C)C(C)C
REMARK SMILES IDX 6 1 7 2 5 3 4 4 3 5 2 6 1 7 28 8 29 9 30 10 8 11 9 12 26 13
REMARK SMILES IDX 10 14 11 15 25 16 27 17 12 18 24 19 23 20 13 21 21 22 14 23
REMARK SMILES IDX 15 24 20 25 22 26 16 27 19 28 17 29 18 30
REMARK H PARENT 18 31
REMARK Flexibility Score: inf
ROOT
ATOM      1  C   UNL     1      11.238  80.340   0.052  1.00  0.00     0.012 C 
ATOM      2  C   UNL     1      10.440  81.052   1.154  1.00  0.00     0.012 C 
ENDROOT
BRANCH   1   3
ATOM      3  C   UNL     1      12.012  79.210   0.696  1.00  0.00    -0.028 C 
ATOM      4  C   UNL     1      13.300  79.345   1.050  1.00  0.00    -0.027 C 
BRANCH   4   5
ATOM      5  C   UNL     1      14.076  78.214   1.691  1.00  0.00     0.014 C 
BRANCH   5   6
ATOM      6  C   UNL     1      13.146  77.472   2.680  1.00  0.00     0.004 C 
ATOM      7  C   UNL     1      13.899  76.562   3.652  1.00  0.00     0.004 C 
ENDBRANCH   5   6
BRANCH   5   8
ATOM      8  C   UNL     1      14.731  77.292   0.615  1.00  0.00    -0.011 C 
ATOM      9  C   UNL     1      15.114  78.090  -0.642  1.00  0.00     0.008 C 
ATOM     10  C   UNL     1      13.864  76.082   0.227  1.00  0.00     0.008 C 
ENDBRANCH   5   8
ENDBRANCH   4   5
ENDBRANCH   1   3
BRANCH   1  11
ATOM     11  C   UNL     1      10.329  79.769  -1.082  1.00  0.00     0.002 C 
ATOM     12  C   UNL     1       8.834  80.127  -0.859  1.00  0.00     0.005 C 
ATOM     13  C   UNL     1      10.314  78.226  -1.321  1.00  0.00    -0.026 C 
ATOM     14  C   UNL     1       7.995  78.985  -1.449  1.00  0.00     0.005 C 
ATOM     15  C   UNL     1       9.020  78.101  -2.142  1.00  0.00    -0.001 C 
ATOM     16  C   UNL     1      11.451  77.687  -2.216  1.00  0.00     0.007 C 
ATOM     17  C   UNL     1      10.287  77.461   0.035  1.00  0.00     0.012 C 
ATOM     18  C   UNL     1       8.620  76.674  -2.585  1.00  0.00     0.000 C 
ATOM     19  C   UNL     1      11.186  76.236  -2.679  1.00  0.00     0.005 C 
ATOM     20  C   UNL     1       9.798  76.002  -3.369  1.00  0.00     0.003 C 
ATOM     21  C   UNL     1       7.967  75.788  -1.484  1.00  0.00     0.031 C 
ATOM     22  C   UNL     1       9.479  74.483  -3.671  1.00  0.00    -0.008 C 
ATOM     23  C   UNL     1       8.513  74.389  -1.369  1.00  0.00    -0.027 C 
ATOM     24  C   UNL     1       9.179  73.758  -2.359  1.00  0.00    -0.065 C 
ATOM     25  C   UNL     1      10.666  73.800  -4.432  1.00  0.00     0.014 C 
ATOM     26  C   UNL     1       8.221  74.385  -4.577  1.00  0.00     0.016 C 
ATOM     27  C   UNL     1       9.336  72.251  -2.259  1.00  0.00     0.063 C 
ATOM     28  C   UNL     1      10.600  72.268  -4.437  1.00  0.00     0.033 C 
ATOM     29  C   UNL     1      10.565  71.726  -3.003  1.00  0.00     0.118 C 
BRANCH  29  30
ATOM     30  O   UNL     1      11.727  72.091  -2.303  1.00  0.00    -0.393 OA
ATOM     31  H   UNL     1      12.474  72.069  -2.956  1.00  0.00     0.210 HD
ENDBRANCH  29  30
ENDBRANCH   1  11
TORSDOF 6
ENDMDL
