MODEL 1
REMARK VINA RESULT:    -2.674      0.000      0.000
REMARK INTER + INTRA:          -5.972
REMARK INTER:                  -4.863
REMARK INTRA:                  -1.109
REMARK UNBOUND:                -1.109
REMARK SMILES CCCCCCCCCCCCCCCC(=O)[O-]
REMARK SMILES IDX 9 1 10 2 11 3 12 4 13 5 14 6 15 7 16 8 17 9 18 10 8 11 7 12
REMARK SMILES IDX 6 13 5 14 4 15 3 16 2 17 1 18
REMARK H PARENT
REMARK Flexibility Score: inf
ROOT
ATOM      1  C   UNL     1       3.352   8.704   4.398  1.00  0.00     0.000 C 
ENDROOT
BRANCH   1   2
ATOM      2  C   UNL     1       1.993   8.731   5.128  1.00  0.00     0.000 C 
BRANCH   2   3
ATOM      3  C   UNL     1       0.867   9.476   4.385  1.00  0.00     0.000 C 
BRANCH   3   4
ATOM      4  C   UNL     1      -0.126   8.568   3.633  1.00  0.00     0.000 C 
BRANCH   4   5
ATOM      5  C   UNL     1       0.509   7.643   2.574  1.00  0.00     0.000 C 
BRANCH   5   6
ATOM      6  C   UNL     1      -0.264   6.341   2.300  1.00  0.00     0.006 C 
BRANCH   6   7
ATOM      7  C   UNL     1      -1.124   5.898   3.489  1.00  0.00     0.053 C 
BRANCH   7   8
ATOM      8  C   UNL     1      -0.409   4.855   4.290  1.00  0.00     0.041 C 
ATOM      9  O   UNL     1       0.845   4.891   4.402  1.00  0.00    -0.550 OA
ATOM     10  O   UNL     1      -1.124   3.816   4.872  1.00  0.00    -0.550 OA
ENDBRANCH   7   8
ENDBRANCH   6   7
ENDBRANCH   5   6
ENDBRANCH   4   5
ENDBRANCH   3   4
ENDBRANCH   2   3
ENDBRANCH   1   2
BRANCH   1  11
ATOM     11  C   UNL     1       3.987  10.085   4.154  1.00  0.00     0.000 C 
BRANCH  11  12
ATOM     12  C   UNL     1       5.129  10.045   3.128  1.00  0.00    -0.000 C 
BRANCH  12  13
ATOM     13  C   UNL     1       5.227   8.663   2.470  1.00  0.00    -0.000 C 
BRANCH  13  14
ATOM     14  C   UNL     1       6.691   8.292   2.192  1.00  0.00    -0.000 C 
BRANCH  14  15
ATOM     15  C   UNL     1       7.017   6.835   2.560  1.00  0.00    -0.000 C 
BRANCH  15  16
ATOM     16  C   UNL     1       5.867   6.064   3.238  1.00  0.00    -0.000 C 
BRANCH  16  17
ATOM     17  C   UNL     1       5.137   5.081   2.298  1.00  0.00    -0.003 C 
ATOM     18  C   UNL     1       5.739   3.676   2.338  1.00  0.00     0.004 C 
ENDBRANCH  16  17
ENDBRANCH  15  16
ENDBRANCH  14  15
ENDBRANCH  13  14
ENDBRANCH  12  13
ENDBRANCH  11  12
ENDBRANCH   1  11
TORSDOF 14
ENDMDL
MODEL 2
REMARK VINA RESULT:    -2.378      2.232      3.468
REMARK INTER + INTRA:          -5.434
REMARK INTER:                  -4.356
REMARK INTRA:                  -1.078
REMARK UNBOUND:                -1.109
REMARK SMILES CCCCCCCCCCCCCCCC(=O)[O-]
REMARK SMILES IDX 9 1 10 2 11 3 12 4 13 5 14 6 15 7 16 8 17 9 18 10 8 11 7 12
REMARK SMILES IDX 6 13 5 14 4 15 3 16 2 17 1 18
REMARK H PARENT
REMARK Flexibility Score: inf
ROOT
ATOM      1  C   UNL     1       4.827   7.582   4.383  1.00  0.00     0.000 C 
ENDROOT
BRANCH   1   2
ATOM      2  C   UNL     1       4.164   8.970   4.271  1.00  0.00     0.000 C 
BRANCH   2   3
ATOM      3  C   UNL     1       3.168   9.312   5.396  1.00  0.00     0.000 C 
BRANCH   3   4
ATOM      4  C   UNL     1       1.734   8.791   5.173  1.00  0.00     0.000 C 
BRANCH   4   5
ATOM      5  C   UNL     1       1.239   8.846   3.713  1.00  0.00     0.000 C 
BRANCH   5   6
ATOM      6  C   UNL     1       0.577   7.554   3.202  1.00  0.00     0.006 C 
BRANCH   6   7
ATOM      7  C   UNL     1       1.010   6.312   3.989  1.00  0.00     0.053 C 
BRANCH   7   8
ATOM      8  C   UNL     1       0.080   5.172   3.717  1.00  0.00     0.041 C 
ATOM      9  O   UNL     1      -0.225   4.370   4.638  1.00  0.00    -0.550 OA
ATOM     10  O   UNL     1      -0.410   4.966   2.433  1.00  0.00    -0.550 OA
ENDBRANCH   7   8
ENDBRANCH   6   7
ENDBRANCH   5   6
ENDBRANCH   4   5
ENDBRANCH   3   4
ENDBRANCH   2   3
ENDBRANCH   1   2
BRANCH   1  11
ATOM     11  C   UNL     1       5.142   6.902   3.038  1.00  0.00     0.000 C 
BRANCH  11  12
ATOM     12  C   UNL     1       5.307   7.904   1.887  1.00  0.00    -0.000 C 
BRANCH  12  13
ATOM     13  C   UNL     1       6.681   8.583   1.942  1.00  0.00    -0.000 C 
BRANCH  13  14
ATOM     14  C   UNL     1       7.808   7.542   1.916  1.00  0.00    -0.000 C 
BRANCH  14  15
ATOM     15  C   UNL     1       9.171   8.128   2.320  1.00  0.00    -0.000 C 
BRANCH  15  16
ATOM     16  C   UNL     1      10.392   7.299   1.875  1.00  0.00    -0.000 C 
BRANCH  16  17
ATOM     17  C   UNL     1      11.731   8.063   1.967  1.00  0.00    -0.003 C 
ATOM     18  C   UNL     1      11.535   9.561   2.201  1.00  0.00     0.004 C 
ENDBRANCH  16  17
ENDBRANCH  15  16
ENDBRANCH  14  15
ENDBRANCH  13  14
ENDBRANCH  12  13
ENDBRANCH  11  12
ENDBRANCH   1  11
TORSDOF 14
ENDMDL
MODEL 3
REMARK VINA RESULT:    -2.351      1.190      4.099
REMARK INTER + INTRA:          -5.385
REMARK INTER:                  -3.653
REMARK INTRA:                  -1.732
REMARK UNBOUND:                -1.109
REMARK SMILES CCCCCCCCCCCCCCCC(=O)[O-]
REMARK SMILES IDX 9 1 10 2 11 3 12 4 13 5 14 6 15 7 16 8 17 9 18 10 8 11 7 12
REMARK SMILES IDX 6 13 5 14 4 15 3 16 2 17 1 18
REMARK H PARENT
REMARK Flexibility Score: inf
ROOT
ATOM      1  C   UNL     1       6.124   6.128   3.427  1.00  0.00     0.000 C 
ENDROOT
BRANCH   1   2
ATOM      2  C   UNL     1       5.172   4.949   3.138  1.00  0.00     0.000 C 
BRANCH   2   3
ATOM      3  C   UNL     1       3.670   5.294   3.191  1.00  0.00     0.000 C 
BRANCH   3   4
ATOM      4  C   UNL     1       3.165   6.177   2.033  1.00  0.00     0.000 C 
BRANCH   4   5
ATOM      5  C   UNL     1       2.122   7.241   2.430  1.00  0.00     0.000 C 
BRANCH   5   6
ATOM      6  C   UNL     1       0.706   7.002   1.876  1.00  0.00     0.006 C 
BRANCH   6   7
ATOM      7  C   UNL     1       0.156   5.614   2.226  1.00  0.00     0.053 C 
BRANCH   7   8
ATOM      8  C   UNL     1      -0.219   5.551   3.673  1.00  0.00     0.041 C 
ATOM      9  O   UNL     1      -1.125   6.299   4.125  1.00  0.00    -0.550 OA
ATOM     10  O   UNL     1       0.466   4.701   4.532  1.00  0.00    -0.550 OA
ENDBRANCH   7   8
ENDBRANCH   6   7
ENDBRANCH   5   6
ENDBRANCH   4   5
ENDBRANCH   3   4
ENDBRANCH   2   3
ENDBRANCH   1   2
BRANCH   1  11
ATOM     11  C   UNL     1       6.635   6.872   2.180  1.00  0.00     0.000 C 
BRANCH  11  12
ATOM     12  C   UNL     1       6.297   8.369   2.198  1.00  0.00    -0.000 C 
BRANCH  12  13
ATOM     13  C   UNL     1       5.409   8.718   3.398  1.00  0.00    -0.000 C 
BRANCH  13  14
ATOM     14  C   UNL     1       4.743  10.088   3.207  1.00  0.00    -0.000 C 
BRANCH  14  15
ATOM     15  C   UNL     1       3.249  10.080   3.570  1.00  0.00    -0.000 C 
BRANCH  15  16
ATOM     16  C   UNL     1       2.948  10.056   5.082  1.00  0.00    -0.000 C 
BRANCH  16  17
ATOM     17  C   UNL     1       1.795   9.107   5.472  1.00  0.00    -0.003 C 
ATOM     18  C   UNL     1       0.454   9.538   4.875  1.00  0.00     0.004 C 
ENDBRANCH  16  17
ENDBRANCH  15  16
ENDBRANCH  14  15
ENDBRANCH  13  14
ENDBRANCH  12  13
ENDBRANCH  11  12
ENDBRANCH   1  11
TORSDOF 14
ENDMDL
MODEL 4
REMARK VINA RESULT:    -2.302      1.716      5.752
REMARK INTER + INTRA:          -5.295
REMARK INTER:                  -4.188
REMARK INTRA:                  -1.107
REMARK UNBOUND:                -1.109
REMARK SMILES CCCCCCCCCCCCCCCC(=O)[O-]
REMARK SMILES IDX 9 1 10 2 11 3 12 4 13 5 14 6 15 7 16 8 17 9 18 10 8 11 7 12
REMARK SMILES IDX 6 13 5 14 4 15 3 16 2 17 1 18
REMARK H PARENT
REMARK Flexibility Score: inf
ROOT
ATOM      1  C   UNL     1       4.469   9.552   3.327  1.00  0.00     0.000 C 
ENDROOT
BRANCH   1   2
ATOM      2  C   UNL     1       5.076   9.970   1.972  1.00  0.00     0.000 C 
BRANCH   2   3
ATOM      3  C   UNL     1       6.610  10.122   1.961  1.00  0.00     0.000 C 
BRANCH   3   4
ATOM      4  C   UNL     1       7.393   8.798   2.055  1.00  0.00     0.000 C 
BRANCH   4   5
ATOM      5  C   UNL     1       6.545   7.523   1.875  1.00  0.00     0.000 C 
BRANCH   5   6
ATOM      6  C   UNL     1       6.859   6.387   2.866  1.00  0.00     0.006 C 
BRANCH   6   7
ATOM      7  C   UNL     1       5.780   6.220   3.942  1.00  0.00     0.053 C 
BRANCH   7   8
ATOM      8  C   UNL     1       4.706   5.295   3.464  1.00  0.00     0.041 C 
ATOM      9  O   UNL     1       5.004   4.156   3.016  1.00  0.00    -0.550 OA
ATOM     10  O   UNL     1       3.380   5.708   3.469  1.00  0.00    -0.550 OA
ENDBRANCH   7   8
ENDBRANCH   6   7
ENDBRANCH   5   6
ENDBRANCH   4   5
ENDBRANCH   3   4
ENDBRANCH   2   3
ENDBRANCH   1   2
BRANCH   1  11
ATOM     11  C   UNL     1       2.938   9.392   3.331  1.00  0.00     0.000 C 
BRANCH  11  12
ATOM     12  C   UNL     1       2.351   9.299   4.747  1.00  0.00    -0.000 C 
BRANCH  12  13
ATOM     13  C   UNL     1       1.199   8.288   4.798  1.00  0.00    -0.000 C 
BRANCH  13  14
ATOM     14  C   UNL     1       0.004   8.777   3.967  1.00  0.00    -0.000 C 
BRANCH  14  15
ATOM     15  C   UNL     1      -0.933   7.635   3.541  1.00  0.00    -0.000 C 
BRANCH  15  16
ATOM     16  C   UNL     1      -0.460   6.831   2.314  1.00  0.00    -0.000 C 
BRANCH  16  17
ATOM     17  C   UNL     1      -0.372   5.310   2.562  1.00  0.00    -0.003 C 
ATOM     18  C   UNL     1      -0.607   4.941   4.027  1.00  0.00     0.004 C 
ENDBRANCH  16  17
ENDBRANCH  15  16
ENDBRANCH  14  15
ENDBRANCH  13  14
ENDBRANCH  12  13
ENDBRANCH  11  12
ENDBRANCH   1  11
TORSDOF 14
ENDMDL
MODEL 5
REMARK VINA RESULT:    -1.796      2.207      4.350
REMARK INTER + INTRA:          -4.375
REMARK INTER:                  -3.388
REMARK INTRA:                  -0.987
REMARK UNBOUND:                -1.109
REMARK SMILES CCCCCCCCCCCCCCCC(=O)[O-]
REMARK SMILES IDX 9 1 10 2 11 3 12 4 13 5 14 6 15 7 16 8 17 9 18 10 8 11 7 12
REMARK SMILES IDX 6 13 5 14 4 15 3 16 2 17 1 18
REMARK H PARENT
REMARK Flexibility Score: inf
ROOT
ATOM      1  C   UNL     1       3.994   5.430   3.654  1.00  0.00     0.000 C 
ENDROOT
BRANCH   1   2
ATOM      2  C   UNL     1       3.476   6.057   2.343  1.00  0.00     0.000 C 
BRANCH   2   3
ATOM      3  C   UNL     1       3.083   7.544   2.441  1.00  0.00     0.000 C 
BRANCH   3   4
ATOM      4  C   UNL     1       4.012   8.404   3.320  1.00  0.00     0.000 C 
BRANCH   4   5
ATOM      5  C   UNL     1       3.394   8.883   4.649  1.00  0.00     0.000 C 
BRANCH   5   6
ATOM      6  C   UNL     1       1.986   9.494   4.529  1.00  0.00     0.006 C 
BRANCH   6   7
ATOM      7  C   UNL     1       0.872   8.492   4.853  1.00  0.00     0.053 C 
BRANCH   7   8
ATOM      8  C   UNL     1      -0.063   8.358   3.692  1.00  0.00     0.041 C 
ATOM      9  O   UNL     1       0.004   9.166   2.728  1.00  0.00    -0.550 OA
ATOM     10  O   UNL     1      -1.041   7.372   3.698  1.00  0.00    -0.550 OA
ENDBRANCH   7   8
ENDBRANCH   6   7
ENDBRANCH   5   6
ENDBRANCH   4   5
ENDBRANCH   3   4
ENDBRANCH   2   3
ENDBRANCH   1   2
BRANCH   1  11
ATOM     11  C   UNL     1       5.448   4.928   3.604  1.00  0.00     0.000 C 
BRANCH  11  12
ATOM     12  C   UNL     1       5.976   4.767   2.171  1.00  0.00    -0.000 C 
BRANCH  12  13
ATOM     13  C   UNL     1       7.164   5.702   1.915  1.00  0.00    -0.000 C 
BRANCH  13  14
ATOM     14  C   UNL     1       6.719   7.172   1.934  1.00  0.00    -0.000 C 
BRANCH  14  15
ATOM     15  C   UNL     1       7.902   8.152   1.994  1.00  0.00    -0.000 C 
BRANCH  15  16
ATOM     16  C   UNL     1       9.283   7.493   2.177  1.00  0.00    -0.000 C 
BRANCH  16  17
ATOM     17  C   UNL     1      10.396   8.483   2.583  1.00  0.00    -0.003 C 
ATOM     18  C   UNL     1       9.984   9.942   2.385  1.00  0.00     0.004 C 
ENDBRANCH  16  17
ENDBRANCH  15  16
ENDBRANCH  14  15
ENDBRANCH  13  14
ENDBRANCH  12  13
ENDBRANCH  11  12
ENDBRANCH   1  11
TORSDOF 14
ENDMDL
MODEL 6
REMARK VINA RESULT:    -1.791      3.142      4.803
REMARK INTER + INTRA:          -4.366
REMARK INTER:                  -3.723
REMARK INTRA:                  -0.643
REMARK UNBOUND:                -1.109
REMARK SMILES CCCCCCCCCCCCCCCC(=O)[O-]
REMARK SMILES IDX 9 1 10 2 11 3 12 4 13 5 14 6 15 7 16 8 17 9 18 10 8 11 7 12
REMARK SMILES IDX 6 13 5 14 4 15 3 16 2 17 1 18
REMARK H PARENT
REMARK Flexibility Score: inf
ROOT
ATOM      1  C   UNL     1       5.383   5.687   3.632  1.00  0.00     0.000 C 
ENDROOT
BRANCH   1   2
ATOM      2  C   UNL     1       3.987   6.302   3.401  1.00  0.00     0.000 C 
BRANCH   2   3
ATOM      3  C   UNL     1       2.834   5.285   3.292  1.00  0.00     0.000 C 
BRANCH   3   4
ATOM      4  C   UNL     1       1.602   5.604   4.161  1.00  0.00     0.000 C 
BRANCH   4   5
ATOM      5  C   UNL     1       0.542   6.500   3.488  1.00  0.00     0.000 C 
BRANCH   5   6
ATOM      6  C   UNL     1       1.106   7.578   2.545  1.00  0.00     0.006 C 
BRANCH   6   7
ATOM      7  C   UNL     1       0.850   9.003   3.050  1.00  0.00     0.053 C 
BRANCH   7   8
ATOM      8  C   UNL     1       1.939   9.429   3.983  1.00  0.00     0.041 C 
ATOM      9  O   UNL     1       2.945  10.047   3.543  1.00  0.00    -0.550 OA
ATOM     10  O   UNL     1       1.867   9.102   5.331  1.00  0.00    -0.550 OA
ENDBRANCH   7   8
ENDBRANCH   6   7
ENDBRANCH   5   6
ENDBRANCH   4   5
ENDBRANCH   3   4
ENDBRANCH   2   3
ENDBRANCH   1   2
BRANCH   1  11
ATOM     11  C   UNL     1       6.495   6.241   2.723  1.00  0.00     0.000 C 
BRANCH  11  12
ATOM     12  C   UNL     1       6.198   7.659   2.213  1.00  0.00    -0.000 C 
BRANCH  12  13
ATOM     13  C   UNL     1       7.460   8.530   2.247  1.00  0.00    -0.000 C 
BRANCH  13  14
ATOM     14  C   UNL     1       8.721   7.675   2.063  1.00  0.00    -0.000 C 
BRANCH  14  15
ATOM     15  C   UNL     1       9.994   8.520   1.886  1.00  0.00    -0.000 C 
BRANCH  15  16
ATOM     16  C   UNL     1      11.297   7.834   2.339  1.00  0.00    -0.000 C 
BRANCH  16  17
ATOM     17  C   UNL     1      12.575   8.616   1.966  1.00  0.00    -0.003 C 
ATOM     18  C   UNL     1      12.335  10.124   1.880  1.00  0.00     0.004 C 
ENDBRANCH  16  17
ENDBRANCH  15  16
ENDBRANCH  14  15
ENDBRANCH  13  14
ENDBRANCH  12  13
ENDBRANCH  11  12
ENDBRANCH   1  11
TORSDOF 14
ENDMDL
MODEL 7
REMARK VINA RESULT:    -1.124      1.374      3.596
REMARK INTER + INTRA:          -3.153
REMARK INTER:                  -1.957
REMARK INTRA:                  -1.196
REMARK UNBOUND:                -1.109
REMARK SMILES CCCCCCCCCCCCCCCC(=O)[O-]
REMARK SMILES IDX 9 1 10 2 11 3 12 4 13 5 14 6 15 7 16 8 17 9 18 10 8 11 7 12
REMARK SMILES IDX 6 13 5 14 4 15 3 16 2 17 1 18
REMARK H PARENT
REMARK Flexibility Score: inf
ROOT
ATOM      1  C   UNL     1       3.991   5.193   3.367  1.00  0.00     0.000 C 
ENDROOT
BRANCH   1   2
ATOM      2  C   UNL     1       3.251   5.227   2.015  1.00  0.00     0.000 C 
BRANCH   2   3
ATOM      3  C   UNL     1       2.193   6.340   1.876  1.00  0.00     0.000 C 
BRANCH   3   4
ATOM      4  C   UNL     1       2.365   7.523   2.849  1.00  0.00     0.000 C 
BRANCH   4   5
ATOM      5  C   UNL     1       1.050   8.156   3.346  1.00  0.00     0.000 C 
BRANCH   5   6
ATOM      6  C   UNL     1      -0.233   7.517   2.784  1.00  0.00     0.006 C 
BRANCH   6   7
ATOM      7  C   UNL     1      -0.949   6.624   3.803  1.00  0.00     0.053 C 
BRANCH   7   8
ATOM      8  C   UNL     1      -0.927   5.197   3.353  1.00  0.00     0.041 C 
ATOM      9  O   UNL     1      -0.935   4.920   2.124  1.00  0.00    -0.550 OA
ATOM     10  O   UNL     1      -0.947   4.172   4.290  1.00  0.00    -0.550 OA
ENDBRANCH   7   8
ENDBRANCH   6   7
ENDBRANCH   5   6
ENDBRANCH   4   5
ENDBRANCH   3   4
ENDBRANCH   2   3
ENDBRANCH   1   2
BRANCH   1  11
ATOM     11  C   UNL     1       5.427   4.642   3.308  1.00  0.00     0.000 C 
BRANCH  11  12
ATOM     12  C   UNL     1       6.078   4.817   1.928  1.00  0.00    -0.000 C 
BRANCH  12  13
ATOM     13  C   UNL     1       6.949   6.078   1.888  1.00  0.00    -0.000 C 
BRANCH  13  14
ATOM     14  C   UNL     1       6.081   7.344   1.875  1.00  0.00    -0.000 C 
BRANCH  14  15
ATOM     15  C   UNL     1       6.686   8.491   2.702  1.00  0.00    -0.000 C 
BRANCH  15  16
ATOM     16  C   UNL     1       6.015   9.863   2.498  1.00  0.00    -0.000 C 
BRANCH  16  17
ATOM     17  C   UNL     1       4.612   9.971   3.131  1.00  0.00    -0.003 C 
ATOM     18  C   UNL     1       4.579   9.462   4.573  1.00  0.00     0.004 C 
ENDBRANCH  16  17
ENDBRANCH  15  16
ENDBRANCH  14  15
ENDBRANCH  13  14
ENDBRANCH  12  13
ENDBRANCH  11  12
ENDBRANCH   1  11
TORSDOF 14
ENDMDL
MODEL 8
REMARK VINA RESULT:    -0.438     18.627     22.408
REMARK INTER + INTRA:          -1.906
REMARK INTER:                  -1.521
REMARK INTRA:                  -0.385
REMARK UNBOUND:                -1.109
REMARK SMILES CCCCCCCCCCCCCCCC(=O)[O-]
REMARK SMILES IDX 9 1 10 2 11 3 12 4 13 5 14 6 15 7 16 8 17 9 18 10 8 11 7 12
REMARK SMILES IDX 6 13 5 14 4 15 3 16 2 17 1 18
REMARK H PARENT
REMARK Flexibility Score: inf
ROOT
ATOM      1  C   UNL     1      15.682  -9.976  10.399  1.00  0.00     0.000 C 
ENDROOT
BRANCH   1   2
ATOM      2  C   UNL     1      17.044  -9.958   9.676  1.00  0.00     0.000 C 
BRANCH   2   3
ATOM      3  C   UNL     1      18.276  -9.917  10.601  1.00  0.00     0.000 C 
BRANCH   3   4
ATOM      4  C   UNL     1      18.323  -8.715  11.565  1.00  0.00     0.000 C 
BRANCH   4   5
ATOM      5  C   UNL     1      18.071  -9.057  13.048  1.00  0.00     0.000 C 
BRANCH   5   6
ATOM      6  C   UNL     1      16.910 -10.035  13.302  1.00  0.00     0.006 C 
BRANCH   6   7
ATOM      7  C   UNL     1      15.754  -9.398  14.081  1.00  0.00     0.053 C 
BRANCH   7   8
ATOM      8  C   UNL     1      15.954  -9.580  15.553  1.00  0.00     0.041 C 
ATOM      9  O   UNL     1      14.992  -9.936  16.284  1.00  0.00    -0.550 OA
ATOM     10  O   UNL     1      17.190  -9.309  16.125  1.00  0.00    -0.550 OA
ENDBRANCH   7   8
ENDBRANCH   6   7
ENDBRANCH   5   6
ENDBRANCH   4   5
ENDBRANCH   3   4
ENDBRANCH   2   3
ENDBRANCH   1   2
BRANCH   1  11
ATOM     11  C   UNL     1      14.458 -10.125   9.478  1.00  0.00     0.000 C 
BRANCH  11  12
ATOM     12  C   UNL     1      13.503  -8.925   9.556  1.00  0.00    -0.000 C 
BRANCH  12  13
ATOM     13  C   UNL     1      12.124  -9.283   8.989  1.00  0.00    -0.000 C 
BRANCH  13  14
ATOM     14  C   UNL     1      11.042  -8.347   9.546  1.00  0.00    -0.000 C 
BRANCH  14  15
ATOM     15  C   UNL     1      11.520  -6.891   9.669  1.00  0.00    -0.000 C 
BRANCH  15  16
ATOM     16  C   UNL     1      10.476  -5.911  10.240  1.00  0.00    -0.000 C 
BRANCH  16  17
ATOM     17  C   UNL     1       9.529  -6.547  11.280  1.00  0.00    -0.003 C 
ATOM     18  C   UNL     1       8.674  -5.508  12.007  1.00  0.00     0.004 C 
ENDBRANCH  16  17
ENDBRANCH  15  16
ENDBRANCH  14  15
ENDBRANCH  13  14
ENDBRANCH  12  13
ENDBRANCH  11  12
ENDBRANCH   1  11
TORSDOF 14
ENDMDL
