MODEL 1
REMARK VINA RESULT:    -3.310      0.000      0.000
REMARK INTER + INTRA:          -6.325
REMARK INTER:                  -5.245
REMARK INTRA:                  -1.080
REMARK UNBOUND:                -1.080
REMARK SMILES CCCCCCCCCCCC(=O)[O-]
REMARK SMILES IDX 7 1 8 2 9 3 10 4 11 5 12 6 13 7 14 8 6 9 5 10 4 11 3 12 2 13
REMARK SMILES IDX 1 14
REMARK H PARENT
REMARK Flexibility Score: inf
ROOT
ATOM      1  C   UNL     1      57.353  32.998  12.732  1.00  0.00     0.000 C 
ENDROOT
BRANCH   1   2
ATOM      2  C   UNL     1      56.598  34.290  13.067  1.00  0.00     0.000 C 
BRANCH   2   3
ATOM      3  C   UNL     1      57.032  35.437  12.146  1.00  0.00     0.000 C 
BRANCH   3   4
ATOM      4  C   UNL     1      55.902  36.462  11.973  1.00  0.00     0.006 C 
BRANCH   4   5
ATOM      5  C   UNL     1      54.595  36.002  12.634  1.00  0.00     0.053 C 
BRANCH   5   6
ATOM      6  C   UNL     1      54.167  36.933  13.728  1.00  0.00     0.041 C 
ATOM      7  O   UNL     1      53.040  37.491  13.678  1.00  0.00    -0.550 OA
ATOM      8  O   UNL     1      54.999  37.159  14.816  1.00  0.00    -0.550 OA
ENDBRANCH   5   6
ENDBRANCH   4   5
ENDBRANCH   3   4
ENDBRANCH   2   3
ENDBRANCH   1   2
BRANCH   1   9
ATOM      9  C   UNL     1      58.311  33.213  11.551  1.00  0.00     0.000 C 
BRANCH   9  10
ATOM     10  C   UNL     1      59.785  33.036  11.949  1.00  0.00    -0.000 C 
BRANCH  10  11
ATOM     11  C   UNL     1      60.445  34.359  12.375  1.00  0.00    -0.000 C 
BRANCH  11  12
ATOM     12  C   UNL     1      61.390  34.195  13.580  1.00  0.00    -0.000 C 
BRANCH  12  13
ATOM     13  C   UNL     1      60.751  33.527  14.811  1.00  0.00    -0.003 C 
ATOM     14  C   UNL     1      59.651  34.375  15.447  1.00  0.00     0.004 C 
ENDBRANCH  12  13
ENDBRANCH  11  12
ENDBRANCH  10  11
ENDBRANCH   9  10
ENDBRANCH   1   9
TORSDOF 10
ENDMDL
MODEL 2
REMARK VINA RESULT:    -3.269      9.446     10.440
REMARK INTER + INTRA:          -6.260
REMARK INTER:                  -5.345
REMARK INTRA:                  -0.915
REMARK UNBOUND:                -1.080
REMARK SMILES CCCCCCCCCCCC(=O)[O-]
REMARK SMILES IDX 7 1 8 2 9 3 10 4 11 5 12 6 13 7 14 8 6 9 5 10 4 11 3 12 2 13
REMARK SMILES IDX 1 14
REMARK H PARENT
REMARK Flexibility Score: inf
ROOT
ATOM      1  C   UNL     1      63.057  45.193  16.740  1.00  0.00     0.000 C 
ENDROOT
BRANCH   1   2
ATOM      2  C   UNL     1      61.869  44.322  17.167  1.00  0.00     0.000 C 
BRANCH   2   3
ATOM      3  C   UNL     1      60.934  45.091  18.109  1.00  0.00     0.000 C 
BRANCH   3   4
ATOM      4  C   UNL     1      59.685  45.584  17.362  1.00  0.00     0.006 C 
BRANCH   4   5
ATOM      5  C   UNL     1      58.561  44.539  17.357  1.00  0.00     0.053 C 
BRANCH   5   6
ATOM      6  C   UNL     1      57.847  44.498  16.040  1.00  0.00     0.041 C 
ATOM      7  O   UNL     1      57.539  45.568  15.453  1.00  0.00    -0.550 OA
ATOM      8  O   UNL     1      57.550  43.278  15.446  1.00  0.00    -0.550 OA
ENDBRANCH   5   6
ENDBRANCH   4   5
ENDBRANCH   3   4
ENDBRANCH   2   3
ENDBRANCH   1   2
BRANCH   1   9
ATOM      9  C   UNL     1      64.003  44.415  15.812  1.00  0.00     0.000 C 
BRANCH   9  10
ATOM     10  C   UNL     1      63.250  43.481  14.852  1.00  0.00    -0.000 C 
BRANCH  10  11
ATOM     11  C   UNL     1      63.887  42.083  14.765  1.00  0.00    -0.000 C 
BRANCH  11  12
ATOM     12  C   UNL     1      64.616  41.678  16.059  1.00  0.00    -0.000 C 
BRANCH  12  13
ATOM     13  C   UNL     1      63.830  40.713  16.965  1.00  0.00    -0.003 C 
ATOM     14  C   UNL     1      63.669  41.232  18.393  1.00  0.00     0.004 C 
ENDBRANCH  12  13
ENDBRANCH  11  12
ENDBRANCH  10  11
ENDBRANCH   9  10
ENDBRANCH   1   9
TORSDOF 10
ENDMDL
MODEL 3
REMARK VINA RESULT:    -3.212      9.822     10.813
REMARK INTER + INTRA:          -6.170
REMARK INTER:                  -5.452
REMARK INTRA:                  -0.718
REMARK UNBOUND:                -1.080
REMARK SMILES CCCCCCCCCCCC(=O)[O-]
REMARK SMILES IDX 7 1 8 2 9 3 10 4 11 5 12 6 13 7 14 8 6 9 5 10 4 11 3 12 2 13
REMARK SMILES IDX 1 14
REMARK H PARENT
REMARK Flexibility Score: inf
ROOT
ATOM      1  C   UNL     1      62.569  44.177  17.880  1.00  0.00     0.000 C 
ENDROOT
BRANCH   1   2
ATOM      2  C   UNL     1      61.390  44.841  17.158  1.00  0.00     0.000 C 
BRANCH   2   3
ATOM      3  C   UNL     1      60.101  44.718  17.979  1.00  0.00     0.000 C 
BRANCH   3   4
ATOM      4  C   UNL     1      58.863  44.814  17.076  1.00  0.00     0.006 C 
BRANCH   4   5
ATOM      5  C   UNL     1      58.386  46.261  16.895  1.00  0.00     0.053 C 
BRANCH   5   6
ATOM      6  C   UNL     1      57.367  46.379  15.802  1.00  0.00     0.041 C 
ATOM      7  O   UNL     1      57.393  45.585  14.825  1.00  0.00    -0.550 OA
ATOM      8  O   UNL     1      56.370  47.343  15.879  1.00  0.00    -0.550 OA
ENDBRANCH   5   6
ENDBRANCH   4   5
ENDBRANCH   3   4
ENDBRANCH   2   3
ENDBRANCH   1   2
BRANCH   1   9
ATOM      9  C   UNL     1      63.881  44.402  17.113  1.00  0.00     0.000 C 
BRANCH   9  10
ATOM     10  C   UNL     1      63.676  44.425  15.590  1.00  0.00    -0.000 C 
BRANCH  10  11
ATOM     11  C   UNL     1      63.652  43.014  14.975  1.00  0.00    -0.000 C 
BRANCH  11  12
ATOM     12  C   UNL     1      64.624  42.043  15.671  1.00  0.00    -0.000 C 
BRANCH  12  13
ATOM     13  C   UNL     1      63.990  40.717  16.130  1.00  0.00    -0.003 C 
ATOM     14  C   UNL     1      63.869  40.608  17.649  1.00  0.00     0.004 C 
ENDBRANCH  12  13
ENDBRANCH  11  12
ENDBRANCH  10  11
ENDBRANCH   9  10
ENDBRANCH   1   9
TORSDOF 10
ENDMDL
MODEL 4
REMARK VINA RESULT:    -3.202      1.251      2.797
REMARK INTER + INTRA:          -6.153
REMARK INTER:                  -4.720
REMARK INTRA:                  -1.434
REMARK UNBOUND:                -1.080
REMARK SMILES CCCCCCCCCCCC(=O)[O-]
REMARK SMILES IDX 7 1 8 2 9 3 10 4 11 5 12 6 13 7 14 8 6 9 5 10 4 11 3 12 2 13
REMARK SMILES IDX 1 14
REMARK H PARENT
REMARK Flexibility Score: inf
ROOT
ATOM      1  C   UNL     1      60.270  34.414  12.243  1.00  0.00     0.000 C 
ENDROOT
BRANCH   1   2
ATOM      2  C   UNL     1      59.591  33.066  11.969  1.00  0.00     0.000 C 
BRANCH   2   3
ATOM      3  C   UNL     1      58.069  33.174  12.127  1.00  0.00     0.000 C 
BRANCH   3   4
ATOM      4  C   UNL     1      57.640  34.636  12.322  1.00  0.00     0.006 C 
BRANCH   4   5
ATOM      5  C   UNL     1      56.438  34.767  13.268  1.00  0.00     0.053 C 
BRANCH   5   6
ATOM      6  C   UNL     1      55.802  36.120  13.176  1.00  0.00     0.041 C 
ATOM      7  O   UNL     1      55.827  36.900  14.164  1.00  0.00    -0.550 OA
ATOM      8  O   UNL     1      55.211  36.533  11.989  1.00  0.00    -0.550 OA
ENDBRANCH   5   6
ENDBRANCH   4   5
ENDBRANCH   3   4
ENDBRANCH   2   3
ENDBRANCH   1   2
BRANCH   1   9
ATOM      9  C   UNL     1      61.405  34.259  13.266  1.00  0.00     0.000 C 
BRANCH   9  10
ATOM     10  C   UNL     1      61.395  32.885  13.955  1.00  0.00    -0.000 C 
BRANCH  10  11
ATOM     11  C   UNL     1      60.951  32.965  15.426  1.00  0.00    -0.000 C 
BRANCH  11  12
ATOM     12  C   UNL     1      60.263  34.298  15.772  1.00  0.00    -0.000 C 
BRANCH  12  13
ATOM     13  C   UNL     1      58.763  34.182  16.097  1.00  0.00    -0.003 C 
ATOM     14  C   UNL     1      58.206  32.779  15.858  1.00  0.00     0.004 C 
ENDBRANCH  12  13
ENDBRANCH  11  12
ENDBRANCH  10  11
ENDBRANCH   9  10
ENDBRANCH   1   9
TORSDOF 10
ENDMDL
MODEL 5
REMARK VINA RESULT:    -3.137      1.127      2.345
REMARK INTER + INTRA:          -6.050
REMARK INTER:                  -4.805
REMARK INTRA:                  -1.245
REMARK UNBOUND:                -1.080
REMARK SMILES CCCCCCCCCCCC(=O)[O-]
REMARK SMILES IDX 7 1 8 2 9 3 10 4 11 5 12 6 13 7 14 8 6 9 5 10 4 11 3 12 2 13
REMARK SMILES IDX 1 14
REMARK H PARENT
REMARK Flexibility Score: inf
ROOT
ATOM      1  C   UNL     1      57.396  33.224  14.671  1.00  0.00     0.000 C 
ENDROOT
BRANCH   1   2
ATOM      2  C   UNL     1      57.232  34.687  14.241  1.00  0.00     0.000 C 
BRANCH   2   3
ATOM      3  C   UNL     1      56.922  34.789  12.742  1.00  0.00     0.000 C 
BRANCH   3   4
ATOM      4  C   UNL     1      56.128  36.066  12.431  1.00  0.00     0.006 C 
BRANCH   4   5
ATOM      5  C   UNL     1      55.408  36.619  13.668  1.00  0.00     0.053 C 
BRANCH   5   6
ATOM      6  C   UNL     1      53.921  36.646  13.481  1.00  0.00     0.041 C 
ATOM      7  O   UNL     1      53.326  35.645  13.003  1.00  0.00    -0.550 OA
ATOM      8  O   UNL     1      53.191  37.764  13.864  1.00  0.00    -0.550 OA
ENDBRANCH   5   6
ENDBRANCH   4   5
ENDBRANCH   3   4
ENDBRANCH   2   3
ENDBRANCH   1   2
BRANCH   1   9
ATOM      9  C   UNL     1      58.533  33.076  15.694  1.00  0.00     0.000 C 
BRANCH   9  10
ATOM     10  C   UNL     1      59.585  34.189  15.570  1.00  0.00    -0.000 C 
BRANCH  10  11
ATOM     11  C   UNL     1      60.808  33.757  14.742  1.00  0.00    -0.000 C 
BRANCH  11  12
ATOM     12  C   UNL     1      60.982  34.586  13.456  1.00  0.00    -0.000 C 
BRANCH  12  13
ATOM     13  C   UNL     1      60.406  33.933  12.187  1.00  0.00    -0.003 C 
ATOM     14  C   UNL     1      60.224  32.422  12.323  1.00  0.00     0.004 C 
ENDBRANCH  12  13
ENDBRANCH  11  12
ENDBRANCH  10  11
ENDBRANCH   9  10
ENDBRANCH   1   9
TORSDOF 10
ENDMDL
MODEL 6
REMARK VINA RESULT:    -3.110     13.285     14.681
REMARK INTER + INTRA:          -6.008
REMARK INTER:                  -5.492
REMARK INTRA:                  -0.517
REMARK UNBOUND:                -1.080
REMARK SMILES CCCCCCCCCCCC(=O)[O-]
REMARK SMILES IDX 7 1 8 2 9 3 10 4 11 5 12 6 13 7 14 8 6 9 5 10 4 11 3 12 2 13
REMARK SMILES IDX 1 14
REMARK H PARENT
REMARK Flexibility Score: inf
ROOT
ATOM      1  C   UNL     1      50.317  45.060  15.372  1.00  0.00     0.000 C 
ENDROOT
BRANCH   1   2
ATOM      2  C   UNL     1      50.612  45.901  14.124  1.00  0.00     0.000 C 
BRANCH   2   3
ATOM      3  C   UNL     1      51.898  46.717  14.301  1.00  0.00     0.000 C 
BRANCH   3   4
ATOM      4  C   UNL     1      51.730  48.137  13.741  1.00  0.00     0.006 C 
BRANCH   4   5
ATOM      5  C   UNL     1      50.261  48.581  13.715  1.00  0.00     0.053 C 
BRANCH   5   6
ATOM      6  C   UNL     1      50.046  49.740  12.789  1.00  0.00     0.041 C 
ATOM      7  O   UNL     1      50.510  49.710  11.620  1.00  0.00    -0.550 OA
ATOM      8  O   UNL     1      49.306  50.838  13.208  1.00  0.00    -0.550 OA
ENDBRANCH   5   6
ENDBRANCH   4   5
ENDBRANCH   3   4
ENDBRANCH   2   3
ENDBRANCH   1   2
BRANCH   1   9
ATOM      9  C   UNL     1      49.137  44.108  15.127  1.00  0.00     0.000 C 
BRANCH   9  10
ATOM     10  C   UNL     1      47.803  44.679  15.633  1.00  0.00    -0.000 C 
BRANCH  10  11
ATOM     11  C   UNL     1      46.593  44.129  14.859  1.00  0.00    -0.000 C 
BRANCH  11  12
ATOM     12  C   UNL     1      46.784  42.668  14.411  1.00  0.00    -0.000 C 
BRANCH  12  13
ATOM     13  C   UNL     1      45.812  41.665  15.057  1.00  0.00    -0.003 C 
ATOM     14  C   UNL     1      46.518  40.447  15.652  1.00  0.00     0.004 C 
ENDBRANCH  12  13
ENDBRANCH  11  12
ENDBRANCH  10  11
ENDBRANCH   9  10
ENDBRANCH   1   9
TORSDOF 10
ENDMDL
MODEL 7
REMARK VINA RESULT:    -3.058     12.240     13.621
REMARK INTER + INTRA:          -5.926
REMARK INTER:                  -4.775
REMARK INTRA:                  -1.151
REMARK UNBOUND:                -1.080
REMARK SMILES CCCCCCCCCCCC(=O)[O-]
REMARK SMILES IDX 7 1 8 2 9 3 10 4 11 5 12 6 13 7 14 8 6 9 5 10 4 11 3 12 2 13
REMARK SMILES IDX 1 14
REMARK H PARENT
REMARK Flexibility Score: inf
ROOT
ATOM      1  C   UNL     1      46.504  43.928  14.875  1.00  0.00     0.000 C 
ENDROOT
BRANCH   1   2
ATOM      2  C   UNL     1      47.711  44.771  15.305  1.00  0.00     0.000 C 
BRANCH   2   3
ATOM      3  C   UNL     1      49.010  43.962  15.206  1.00  0.00     0.000 C 
BRANCH   3   4
ATOM      4  C   UNL     1      50.237  44.869  15.381  1.00  0.00     0.006 C 
BRANCH   4   5
ATOM      5  C   UNL     1      50.538  45.690  14.120  1.00  0.00     0.053 C 
BRANCH   5   6
ATOM      6  C   UNL     1      51.712  46.601  14.316  1.00  0.00     0.041 C 
ATOM      7  O   UNL     1      52.334  47.054  13.320  1.00  0.00    -0.550 OA
ATOM      8  O   UNL     1      52.098  46.975  15.597  1.00  0.00    -0.550 OA
ENDBRANCH   5   6
ENDBRANCH   4   5
ENDBRANCH   3   4
ENDBRANCH   2   3
ENDBRANCH   1   2
BRANCH   1   9
ATOM      9  C   UNL     1      46.956  42.612  14.226  1.00  0.00     0.000 C 
BRANCH   9  10
ATOM     10  C   UNL     1      46.300  41.381  14.870  1.00  0.00    -0.000 C 
BRANCH  10  11
ATOM     11  C   UNL     1      45.569  41.719  16.181  1.00  0.00    -0.000 C 
BRANCH  11  12
ATOM     12  C   UNL     1      46.247  41.103  17.419  1.00  0.00    -0.000 C 
BRANCH  12  13
ATOM     13  C   UNL     1      47.470  41.882  17.937  1.00  0.00    -0.003 C 
ATOM     14  C   UNL     1      48.795  41.183  17.634  1.00  0.00     0.004 C 
ENDBRANCH  12  13
ENDBRANCH  11  12
ENDBRANCH  10  11
ENDBRANCH   9  10
ENDBRANCH   1   9
TORSDOF 10
ENDMDL
MODEL 8
REMARK VINA RESULT:    -3.053     12.978     15.250
REMARK INTER + INTRA:          -5.918
REMARK INTER:                  -5.248
REMARK INTRA:                  -0.670
REMARK UNBOUND:                -1.080
REMARK SMILES CCCCCCCCCCCC(=O)[O-]
REMARK SMILES IDX 7 1 8 2 9 3 10 4 11 5 12 6 13 7 14 8 6 9 5 10 4 11 3 12 2 13
REMARK SMILES IDX 1 14
REMARK H PARENT
REMARK Flexibility Score: inf
ROOT
ATOM      1  C   UNL     1      51.959  48.104  14.406  1.00  0.00     0.000 C 
ENDROOT
BRANCH   1   2
ATOM      2  C   UNL     1      51.837  48.360  12.899  1.00  0.00     0.000 C 
BRANCH   2   3
ATOM      3  C   UNL     1      50.700  49.345  12.598  1.00  0.00     0.000 C 
BRANCH   3   4
ATOM      4  C   UNL     1      51.255  50.699  12.131  1.00  0.00     0.006 C 
BRANCH   4   5
ATOM      5  C   UNL     1      50.680  51.125  10.773  1.00  0.00     0.053 C 
BRANCH   5   6
ATOM      6  C   UNL     1      51.084  50.184   9.678  1.00  0.00     0.041 C 
ATOM      7  O   UNL     1      52.292  49.863   9.534  1.00  0.00    -0.550 OA
ATOM      8  O   UNL     1      50.122  49.638   8.839  1.00  0.00    -0.550 OA
ENDBRANCH   5   6
ENDBRANCH   4   5
ENDBRANCH   3   4
ENDBRANCH   2   3
ENDBRANCH   1   2
BRANCH   1   9
ATOM      9  C   UNL     1      51.979  46.598  14.708  1.00  0.00     0.000 C 
BRANCH   9  10
ATOM     10  C   UNL     1      50.696  45.887  14.249  1.00  0.00    -0.000 C 
BRANCH  10  11
ATOM     11  C   UNL     1      49.432  46.464  14.911  1.00  0.00    -0.000 C 
BRANCH  11  12
ATOM     12  C   UNL     1      48.590  45.391  15.625  1.00  0.00    -0.000 C 
BRANCH  12  13
ATOM     13  C   UNL     1      48.862  43.947  15.164  1.00  0.00    -0.003 C 
ATOM     14  C   UNL     1      49.346  43.040  16.295  1.00  0.00     0.004 C 
ENDBRANCH  12  13
ENDBRANCH  11  12
ENDBRANCH  10  11
ENDBRANCH   9  10
ENDBRANCH   1   9
TORSDOF 10
ENDMDL
MODEL 9
REMARK VINA RESULT:    -2.971     13.059     15.041
REMARK INTER + INTRA:          -5.787
REMARK INTER:                  -5.329
REMARK INTRA:                  -0.458
REMARK UNBOUND:                -1.080
REMARK SMILES CCCCCCCCCCCC(=O)[O-]
REMARK SMILES IDX 7 1 8 2 9 3 10 4 11 5 12 6 13 7 14 8 6 9 5 10 4 11 3 12 2 13
REMARK SMILES IDX 1 14
REMARK H PARENT
REMARK Flexibility Score: inf
ROOT
ATOM      1  C   UNL     1      50.981  46.321  14.297  1.00  0.00     0.000 C 
ENDROOT
BRANCH   1   2
ATOM      2  C   UNL     1      49.587  46.048  14.874  1.00  0.00     0.000 C 
BRANCH   2   3
ATOM      3  C   UNL     1      49.277  44.546  14.876  1.00  0.00     0.000 C 
BRANCH   3   4
ATOM      4  C   UNL     1      47.813  44.287  15.262  1.00  0.00     0.006 C 
BRANCH   4   5
ATOM      5  C   UNL     1      47.206  43.111  14.486  1.00  0.00     0.053 C 
BRANCH   5   6
ATOM      6  C   UNL     1      46.595  42.095  15.402  1.00  0.00     0.041 C 
ATOM      7  O   UNL     1      47.292  41.550  16.298  1.00  0.00    -0.550 OA
ATOM      8  O   UNL     1      45.248  41.775  15.288  1.00  0.00    -0.550 OA
ENDBRANCH   5   6
ENDBRANCH   4   5
ENDBRANCH   3   4
ENDBRANCH   2   3
ENDBRANCH   1   2
BRANCH   1   9
ATOM      9  C   UNL     1      51.093  47.768  13.792  1.00  0.00     0.000 C 
BRANCH   9  10
ATOM     10  C   UNL     1      49.741  48.500  13.797  1.00  0.00    -0.000 C 
BRANCH  10  11
ATOM     11  C   UNL     1      49.783  49.824  13.014  1.00  0.00    -0.000 C 
BRANCH  11  12
ATOM     12  C   UNL     1      51.000  49.925  12.076  1.00  0.00    -0.000 C 
BRANCH  12  13
ATOM     13  C   UNL     1      50.783  50.809  10.834  1.00  0.00    -0.003 C 
ATOM     14  C   UNL     1      50.502  50.001   9.568  1.00  0.00     0.004 C 
ENDBRANCH  12  13
ENDBRANCH  11  12
ENDBRANCH  10  11
ENDBRANCH   9  10
ENDBRANCH   1   9
TORSDOF 10
ENDMDL
