MODEL 1
REMARK VINA RESULT:    -7.612      0.000      0.000
REMARK INTER + INTRA:         -15.556
REMARK INTER:                 -12.507
REMARK INTRA:                  -3.049
REMARK UNBOUND:                -3.049
REMARK SMILES C[C@@H]1O[C@H](OC[C@H]2O[C@@H](Oc3c(-c4ccc(O)c(O)c4)oc4cc(O)cc(O)c4c3=O)[C@@H](O)[C@@H](O)[C@@H]2O)[C@H](O)[C@@H](O)[C@@H]1O
REMARK SMILES IDX 7 1 36 2 34 3 32 4 9 5 8 6 6 7 5 8 4 9 1 10 2 11 42 12 3 13
REMARK SMILES IDX 40 14 38 15 43 16 41 18 39 20 37 22 35 24 10 26 11 27 12 28
REMARK SMILES IDX 30 29 21 30 29 31 31 32 22 33 27 34 23 35 26 36 24 37 13 38
REMARK SMILES IDX 20 39 14 40 18 41 15 42 16 43 19 44 17 46 28 48 25 50 33 52
REMARK H PARENT 43 17 41 19 39 21 37 23 35 25 19 45 17 47 28 49 25 51 33 53
REMARK Flexibility Score: inf
ROOT
ATOM      1  C   UNL     1     115.609 119.484 137.339  1.00  0.00     0.180 C 
ATOM      2  C   UNL     1     116.434 119.714 138.637  1.00  0.00     0.177 C 
ATOM      3  C   UNL     1     116.490 118.421 139.493  1.00  0.00     0.180 C 
ATOM      4  C   UNL     1     115.249 117.558 139.194  1.00  0.00     0.214 C 
ATOM      5  C   UNL     1     115.204 117.198 137.673  1.00  0.00     0.339 C 
ATOM      6  O   UNL     1     115.868 118.172 136.857  1.00  0.00    -0.332 OA
ENDROOT
BRANCH   1   7
ATOM      7  C   UNL     1     115.890 120.566 136.262  1.00  0.00     0.198 C 
BRANCH   7   8
ATOM      8  O   UNL     1     114.711 121.300 135.917  1.00  0.00    -0.347 OA
BRANCH   8   9
ATOM      9  C   UNL     1     114.736 121.892 134.611  1.00  0.00     0.281 C 
ATOM     10  C   UNL     1     117.599 122.774 132.394  1.00  0.00     0.041 C 
ATOM     11  C   UNL     1     116.193 122.252 132.805  1.00  0.00     0.150 C 
ATOM     12  C   UNL     1     115.743 121.015 131.947  1.00  0.00     0.174 C 
ATOM     13  O   UNL     1     116.115 121.983 134.196  1.00  0.00    -0.344 OA
ATOM     14  C   UNL     1     114.766 120.148 132.749  1.00  0.00     0.179 C 
ATOM     15  C   UNL     1     113.877 121.046 133.617  1.00  0.00     0.202 C 
BRANCH  12  16
ATOM     16  O   UNL     1     116.825 120.215 131.547  1.00  0.00    -0.388 OA
ATOM     17  H   UNL     1     117.016 120.469 130.602  1.00  0.00     0.211 HD
ENDBRANCH  12  16
BRANCH  14  18
ATOM     18  O   UNL     1     113.984 119.376 131.864  1.00  0.00    -0.387 OA
ATOM     19  H   UNL     1     114.551 118.646 131.503  1.00  0.00     0.211 HD
ENDBRANCH  14  18
BRANCH  15  20
ATOM     20  O   UNL     1     112.970 120.225 134.301  1.00  0.00    -0.385 OA
ATOM     21  H   UNL     1     112.094 120.293 133.862  1.00  0.00     0.211 HD
ENDBRANCH  15  20
ENDBRANCH   8   9
ENDBRANCH   7   8
ENDBRANCH   1   7
BRANCH   2  22
ATOM     22  O   UNL     1     115.890 120.772 139.395  1.00  0.00    -0.387 OA
ATOM     23  H   UNL     1     115.163 120.373 139.955  1.00  0.00     0.211 HD
ENDBRANCH   2  22
BRANCH   3  24
ATOM     24  O   UNL     1     117.644 117.713 139.176  1.00  0.00    -0.387 OA
ATOM     25  H   UNL     1     117.975 117.285 140.009  1.00  0.00     0.211 HD
ENDBRANCH   3  24
BRANCH   5  26
ATOM     26  O   UNL     1     115.842 115.940 137.459  1.00  0.00    -0.454 OA
BRANCH  26  27
ATOM     27  C   UNL     1     116.605 115.665 136.305  1.00  0.00     0.214 A 
ATOM     28  C   UNL     1     115.994 115.419 135.068  1.00  0.00     0.180 A 
ATOM     29  C   UNL     1     118.012 115.555 136.403  1.00  0.00     0.239 A 
ATOM     30  O   UNL     1     116.733 115.096 134.013  1.00  0.00    -0.452 OA
ATOM     31  C   UNL     1     118.771 115.201 135.250  1.00  0.00     0.111 A 
ATOM     32  O   UNL     1     118.548 115.743 137.534  1.00  0.00    -0.285 OA
ATOM     33  C   UNL     1     118.052 114.982 134.059  1.00  0.00     0.146 A 
ATOM     34  C   UNL     1     120.196 114.980 135.253  1.00  0.00     0.134 A 
ATOM     35  C   UNL     1     118.723 114.597 132.909  1.00  0.00     0.094 A 
ATOM     36  C   UNL     1     120.821 114.498 134.098  1.00  0.00     0.093 A 
ATOM     37  C   UNL     1     120.098 114.341 132.916  1.00  0.00     0.123 A 
BRANCH  28  38
ATOM     38  C   UNL     1     114.543 115.497 134.876  1.00  0.00     0.025 A 
ATOM     39  C   UNL     1     113.982 116.510 134.091  1.00  0.00     0.062 A 
ATOM     40  C   UNL     1     113.711 114.544 135.488  1.00  0.00     0.016 A 
ATOM     41  C   UNL     1     112.590 116.643 133.993  1.00  0.00     0.158 A 
ATOM     42  C   UNL     1     112.321 114.661 135.382  1.00  0.00     0.051 A 
ATOM     43  C   UNL     1     111.765 115.735 134.675  1.00  0.00     0.157 A 
BRANCH  41  44
ATOM     44  O   UNL     1     112.010 117.672 133.248  1.00  0.00    -0.504 OA
ATOM     45  H   UNL     1     111.771 118.559 133.643  1.00  0.00     0.293 HD
ENDBRANCH  41  44
BRANCH  43  46
ATOM     46  O   UNL     1     110.372 115.900 134.606  1.00  0.00    -0.504 OA
ATOM     47  H   UNL     1     109.864 115.708 133.751  1.00  0.00     0.293 HD
ENDBRANCH  43  46
ENDBRANCH  28  38
BRANCH  34  48
ATOM     48  O   UNL     1     121.019 115.213 136.354  1.00  0.00    -0.507 OA
ATOM     49  H   UNL     1     121.093 114.609 137.165  1.00  0.00     0.293 HD
ENDBRANCH  34  48
BRANCH  37  50
ATOM     50  O   UNL     1     120.733 113.925 131.748  1.00  0.00    -0.508 OA
ATOM     51  H   UNL     1     121.087 114.593 131.073  1.00  0.00     0.293 HD
ENDBRANCH  37  50
ENDBRANCH  26  27
ENDBRANCH   5  26
BRANCH   4  52
ATOM     52  O   UNL     1     115.277 116.381 139.965  1.00  0.00    -0.384 OA
ATOM     53  H   UNL     1     114.836 116.585 140.835  1.00  0.00     0.211 HD
ENDBRANCH   4  52
TORSDOF 16
ENDMDL
MODEL 2
REMARK VINA RESULT:    -7.584      1.475      2.282
REMARK INTER + INTRA:         -15.509
REMARK INTER:                 -12.261
REMARK INTRA:                  -3.249
REMARK UNBOUND:                -3.049
REMARK SMILES C[C@@H]1O[C@H](OC[C@H]2O[C@@H](Oc3c(-c4ccc(O)c(O)c4)oc4cc(O)cc(O)c4c3=O)[C@@H](O)[C@@H](O)[C@@H]2O)[C@H](O)[C@@H](O)[C@@H]1O
REMARK SMILES IDX 7 1 36 2 34 3 32 4 9 5 8 6 6 7 5 8 4 9 1 10 2 11 42 12 3 13
REMARK SMILES IDX 40 14 38 15 43 16 41 18 39 20 37 22 35 24 10 26 11 27 12 28
REMARK SMILES IDX 30 29 21 30 29 31 31 32 22 33 27 34 23 35 26 36 24 37 13 38
REMARK SMILES IDX 20 39 14 40 18 41 15 42 16 43 19 44 17 46 28 48 25 50 33 52
REMARK H PARENT 43 17 41 19 39 21 37 23 35 25 19 45 17 47 28 49 25 51 33 53
REMARK Flexibility Score: inf
ROOT
ATOM      1  C   UNL     1     115.718 119.475 137.398  1.00  0.00     0.180 C 
ATOM      2  C   UNL     1     116.490 119.660 138.735  1.00  0.00     0.177 C 
ATOM      3  C   UNL     1     116.484 118.349 139.564  1.00  0.00     0.180 C 
ATOM      4  C   UNL     1     115.241 117.517 139.193  1.00  0.00     0.214 C 
ATOM      5  C   UNL     1     115.255 117.190 137.663  1.00  0.00     0.339 C 
ATOM      6  O   UNL     1     115.973 118.168 136.899  1.00  0.00    -0.332 OA
ENDROOT
BRANCH   1   7
ATOM      7  C   UNL     1     116.066 120.573 136.358  1.00  0.00     0.198 C 
BRANCH   7   8
ATOM      8  O   UNL     1     115.619 121.868 136.774  1.00  0.00    -0.347 OA
BRANCH   8   9
ATOM      9  C   UNL     1     114.428 122.327 136.121  1.00  0.00     0.281 C 
ATOM     10  C   UNL     1     112.741 121.140 133.017  1.00  0.00     0.041 C 
ATOM     11  C   UNL     1     112.892 121.674 134.470  1.00  0.00     0.150 C 
ATOM     12  C   UNL     1     111.812 121.072 135.441  1.00  0.00     0.174 C 
ATOM     13  O   UNL     1     114.208 121.489 134.968  1.00  0.00    -0.344 OA
ATOM     14  C   UNL     1     112.350 121.053 136.875  1.00  0.00     0.179 C 
ATOM     15  C   UNL     1     113.221 122.293 137.113  1.00  0.00     0.202 C 
BRANCH  12  16
ATOM     16  O   UNL     1     111.439 119.766 135.087  1.00  0.00    -0.388 OA
ATOM     17  H   UNL     1     112.268 119.329 134.744  1.00  0.00     0.211 HD
ENDBRANCH  12  16
BRANCH  14  18
ATOM     18  O   UNL     1     111.270 121.020 137.784  1.00  0.00    -0.387 OA
ATOM     19  H   UNL     1     110.675 121.790 137.588  1.00  0.00     0.211 HD
ENDBRANCH  14  18
BRANCH  15  20
ATOM     20  O   UNL     1     113.658 122.265 138.445  1.00  0.00    -0.385 OA
ATOM     21  H   UNL     1     113.273 121.476 138.884  1.00  0.00     0.211 HD
ENDBRANCH  15  20
ENDBRANCH   8   9
ENDBRANCH   7   8
ENDBRANCH   1   7
BRANCH   2  22
ATOM     22  O   UNL     1     115.934 120.712 139.492  1.00  0.00    -0.387 OA
ATOM     23  H   UNL     1     114.949 120.694 139.320  1.00  0.00     0.211 HD
ENDBRANCH   2  22
BRANCH   3  24
ATOM     24  O   UNL     1     117.637 117.625 139.281  1.00  0.00    -0.387 OA
ATOM     25  H   UNL     1     117.924 117.860 138.359  1.00  0.00     0.211 HD
ENDBRANCH   3  24
BRANCH   5  26
ATOM     26  O   UNL     1     115.878 115.925 137.449  1.00  0.00    -0.454 OA
BRANCH  26  27
ATOM     27  C   UNL     1     116.638 115.641 136.297  1.00  0.00     0.214 A 
ATOM     28  C   UNL     1     116.024 115.387 135.062  1.00  0.00     0.180 A 
ATOM     29  C   UNL     1     118.045 115.530 136.392  1.00  0.00     0.239 A 
ATOM     30  O   UNL     1     116.760 115.055 134.008  1.00  0.00    -0.452 OA
ATOM     31  C   UNL     1     118.801 115.166 135.240  1.00  0.00     0.111 A 
ATOM     32  O   UNL     1     118.583 115.725 137.520  1.00  0.00    -0.285 OA
ATOM     33  C   UNL     1     118.080 114.940 134.052  1.00  0.00     0.146 A 
ATOM     34  C   UNL     1     120.225 114.944 135.242  1.00  0.00     0.134 A 
ATOM     35  C   UNL     1     118.747 114.546 132.904  1.00  0.00     0.094 A 
ATOM     36  C   UNL     1     120.848 114.453 134.089  1.00  0.00     0.093 A 
ATOM     37  C   UNL     1     120.122 114.288 132.910  1.00  0.00     0.123 A 
BRANCH  28  38
ATOM     38  C   UNL     1     114.572 115.465 134.872  1.00  0.00     0.025 A 
ATOM     39  C   UNL     1     114.012 116.470 134.076  1.00  0.00     0.062 A 
ATOM     40  C   UNL     1     113.740 114.521 135.497  1.00  0.00     0.016 A 
ATOM     41  C   UNL     1     112.619 116.604 133.980  1.00  0.00     0.158 A 
ATOM     42  C   UNL     1     112.350 114.639 135.394  1.00  0.00     0.051 A 
ATOM     43  C   UNL     1     111.794 115.706 134.675  1.00  0.00     0.157 A 
BRANCH  41  44
ATOM     44  O   UNL     1     112.040 117.625 133.224  1.00  0.00    -0.504 OA
ATOM     45  H   UNL     1     112.084 117.651 132.225  1.00  0.00     0.293 HD
ENDBRANCH  41  44
BRANCH  43  46
ATOM     46  O   UNL     1     110.401 115.873 134.607  1.00  0.00    -0.504 OA
ATOM     47  H   UNL     1     109.976 116.420 133.868  1.00  0.00     0.293 HD
ENDBRANCH  43  46
ENDBRANCH  28  38
BRANCH  34  48
ATOM     48  O   UNL     1     121.051 115.184 136.339  1.00  0.00    -0.507 OA
ATOM     49  H   UNL     1     121.855 115.801 136.340  1.00  0.00     0.293 HD
ENDBRANCH  34  48
BRANCH  37  50
ATOM     50  O   UNL     1     120.754 113.863 131.744  1.00  0.00    -0.508 OA
ATOM     51  H   UNL     1     120.385 114.094 130.828  1.00  0.00     0.293 HD
ENDBRANCH  37  50
ENDBRANCH  26  27
ENDBRANCH   5  26
BRANCH   4  52
ATOM     52  O   UNL     1     115.213 116.324 139.938  1.00  0.00    -0.384 OA
ATOM     53  H   UNL     1     116.052 116.289 140.474  1.00  0.00     0.211 HD
ENDBRANCH   4  52
TORSDOF 16
ENDMDL
MODEL 3
REMARK VINA RESULT:    -7.526      1.894      3.340
REMARK INTER + INTRA:         -15.415
REMARK INTER:                 -12.408
REMARK INTRA:                  -3.007
REMARK UNBOUND:                -3.049
REMARK SMILES C[C@@H]1O[C@H](OC[C@H]2O[C@@H](Oc3c(-c4ccc(O)c(O)c4)oc4cc(O)cc(O)c4c3=O)[C@@H](O)[C@@H](O)[C@@H]2O)[C@H](O)[C@@H](O)[C@@H]1O
REMARK SMILES IDX 7 1 36 2 34 3 32 4 9 5 8 6 6 7 5 8 4 9 1 10 2 11 42 12 3 13
REMARK SMILES IDX 40 14 38 15 43 16 41 18 39 20 37 22 35 24 10 26 11 27 12 28
REMARK SMILES IDX 30 29 21 30 29 31 31 32 22 33 27 34 23 35 26 36 24 37 13 38
REMARK SMILES IDX 20 39 14 40 18 41 15 42 16 43 19 44 17 46 28 48 25 50 33 52
REMARK H PARENT 43 17 41 19 39 21 37 23 35 25 19 45 17 47 28 49 25 51 33 53
REMARK Flexibility Score: inf
ROOT
ATOM      1  C   UNL     1     115.964 119.543 137.508  1.00  0.00     0.180 C 
ATOM      2  C   UNL     1     116.718 119.660 138.863  1.00  0.00     0.177 C 
ATOM      3  C   UNL     1     116.618 118.338 139.668  1.00  0.00     0.180 C 
ATOM      4  C   UNL     1     115.336 117.588 139.259  1.00  0.00     0.214 C 
ATOM      5  C   UNL     1     115.362 117.285 137.724  1.00  0.00     0.339 C 
ATOM      6  O   UNL     1     116.152 118.231 136.991  1.00  0.00    -0.332 OA
ENDROOT
BRANCH   1   7
ATOM      7  C   UNL     1     116.397 120.635 136.495  1.00  0.00     0.198 C 
BRANCH   7   8
ATOM      8  O   UNL     1     117.387 120.157 135.578  1.00  0.00    -0.347 OA
BRANCH   8   9
ATOM      9  C   UNL     1     118.716 120.631 135.832  1.00  0.00     0.281 C 
ATOM     10  C   UNL     1     120.101 122.574 138.695  1.00  0.00     0.041 C 
ATOM     11  C   UNL     1     120.035 121.504 137.567  1.00  0.00     0.150 C 
ATOM     12  C   UNL     1     120.720 120.154 137.985  1.00  0.00     0.174 C 
ATOM     13  O   UNL     1     118.707 121.301 137.110  1.00  0.00    -0.344 OA
ATOM     14  C   UNL     1     120.090 118.987 137.217  1.00  0.00     0.179 C 
ATOM     15  C   UNL     1     119.729 119.442 135.798  1.00  0.00     0.202 C 
BRANCH  12  16
ATOM     16  O   UNL     1     120.606 119.896 139.360  1.00  0.00    -0.388 OA
ATOM     17  H   UNL     1     120.599 120.789 139.805  1.00  0.00     0.211 HD
ENDBRANCH  12  16
BRANCH  14  18
ATOM     18  O   UNL     1     120.994 117.904 137.179  1.00  0.00    -0.387 OA
ATOM     19  H   UNL     1     121.785 118.177 136.646  1.00  0.00     0.211 HD
ENDBRANCH  14  18
BRANCH  15  20
ATOM     20  O   UNL     1     119.198 118.341 135.112  1.00  0.00    -0.385 OA
ATOM     21  H   UNL     1     118.225 118.332 135.242  1.00  0.00     0.211 HD
ENDBRANCH  15  20
ENDBRANCH   8   9
ENDBRANCH   7   8
ENDBRANCH   1   7
BRANCH   2  22
ATOM     22  O   UNL     1     116.209 120.731 139.627  1.00  0.00    -0.387 OA
ATOM     23  H   UNL     1     115.565 120.331 140.279  1.00  0.00     0.211 HD
ENDBRANCH   2  22
BRANCH   3  24
ATOM     24  O   UNL     1     117.732 117.552 139.395  1.00  0.00    -0.387 OA
ATOM     25  H   UNL     1     118.541 118.104 139.563  1.00  0.00     0.211 HD
ENDBRANCH   3  24
BRANCH   5  26
ATOM     26  O   UNL     1     115.914 115.989 137.500  1.00  0.00    -0.454 OA
BRANCH  26  27
ATOM     27  C   UNL     1     116.662 115.673 136.348  1.00  0.00     0.214 A 
ATOM     28  C   UNL     1     116.035 115.393 135.125  1.00  0.00     0.180 A 
ATOM     29  C   UNL     1     118.069 115.559 136.433  1.00  0.00     0.239 A 
ATOM     30  O   UNL     1     116.760 115.032 134.073  1.00  0.00    -0.452 OA
ATOM     31  C   UNL     1     118.813 115.164 135.283  1.00  0.00     0.111 A 
ATOM     32  O   UNL     1     118.619 115.778 137.551  1.00  0.00    -0.285 OA
ATOM     33  C   UNL     1     118.079 114.912 134.108  1.00  0.00     0.146 A 
ATOM     34  C   UNL     1     120.236 114.934 135.277  1.00  0.00     0.134 A 
ATOM     35  C   UNL     1     118.734 114.488 132.963  1.00  0.00     0.094 A 
ATOM     36  C   UNL     1     120.846 114.413 134.131  1.00  0.00     0.093 A 
ATOM     37  C   UNL     1     120.108 114.223 132.962  1.00  0.00     0.123 A 
BRANCH  28  38
ATOM     38  C   UNL     1     114.583 115.473 134.947  1.00  0.00     0.025 A 
ATOM     39  C   UNL     1     114.018 116.475 134.151  1.00  0.00     0.062 A 
ATOM     40  C   UNL     1     113.754 114.534 135.584  1.00  0.00     0.016 A 
ATOM     41  C   UNL     1     112.624 116.612 134.066  1.00  0.00     0.158 A 
ATOM     42  C   UNL     1     112.363 114.655 135.492  1.00  0.00     0.051 A 
ATOM     43  C   UNL     1     111.803 115.719 134.772  1.00  0.00     0.157 A 
BRANCH  41  44
ATOM     44  O   UNL     1     112.041 117.631 133.310  1.00  0.00    -0.504 OA
ATOM     45  H   UNL     1     112.547 118.440 133.010  1.00  0.00     0.293 HD
ENDBRANCH  41  44
BRANCH  43  46
ATOM     46  O   UNL     1     110.410 115.889 134.715  1.00  0.00    -0.504 OA
ATOM     47  H   UNL     1     109.793 115.347 135.307  1.00  0.00     0.293 HD
ENDBRANCH  43  46
ENDBRANCH  28  38
BRANCH  34  48
ATOM     48  O   UNL     1     121.073 115.197 136.360  1.00  0.00    -0.507 OA
ATOM     49  H   UNL     1     121.498 116.094 136.565  1.00  0.00     0.293 HD
ENDBRANCH  34  48
BRANCH  37  50
ATOM     50  O   UNL     1     120.727 113.767 131.801  1.00  0.00    -0.508 OA
ATOM     51  H   UNL     1     121.700 113.975 131.604  1.00  0.00     0.293 HD
ENDBRANCH  37  50
ENDBRANCH  26  27
ENDBRANCH   5  26
BRANCH   4  52
ATOM     52  O   UNL     1     115.223 116.386 139.982  1.00  0.00    -0.384 OA
ATOM     53  H   UNL     1     115.397 115.639 139.346  1.00  0.00     0.211 HD
ENDBRANCH   4  52
TORSDOF 16
ENDMDL
MODEL 4
REMARK VINA RESULT:    -7.419      3.351      7.591
REMARK INTER + INTRA:         -15.238
REMARK INTER:                 -13.336
REMARK INTRA:                  -1.902
REMARK UNBOUND:                -3.049
REMARK SMILES C[C@@H]1O[C@H](OC[C@H]2O[C@@H](Oc3c(-c4ccc(O)c(O)c4)oc4cc(O)cc(O)c4c3=O)[C@@H](O)[C@@H](O)[C@@H]2O)[C@H](O)[C@@H](O)[C@@H]1O
REMARK SMILES IDX 7 1 36 2 34 3 32 4 9 5 8 6 6 7 5 8 4 9 1 10 2 11 42 12 3 13
REMARK SMILES IDX 40 14 38 15 43 16 41 18 39 20 37 22 35 24 10 26 11 27 12 28
REMARK SMILES IDX 30 29 21 30 29 31 31 32 22 33 27 34 23 35 26 36 24 37 13 38
REMARK SMILES IDX 20 39 14 40 18 41 15 42 16 43 19 44 17 46 28 48 25 50 33 52
REMARK H PARENT 43 17 41 19 39 21 37 23 35 25 19 45 17 47 28 49 25 51 33 53
REMARK Flexibility Score: inf
ROOT
ATOM      1  C   UNL     1     116.997 120.034 140.086  1.00  0.00     0.180 C 
ATOM      2  C   UNL     1     117.929 121.166 139.566  1.00  0.00     0.177 C 
ATOM      3  C   UNL     1     118.492 120.817 138.163  1.00  0.00     0.180 C 
ATOM      4  C   UNL     1     118.529 119.286 137.994  1.00  0.00     0.214 C 
ATOM      5  C   UNL     1     117.090 118.697 138.161  1.00  0.00     0.339 C 
ATOM      6  O   UNL     1     116.254 119.513 138.991  1.00  0.00    -0.332 OA
ENDROOT
BRANCH   1   7
ATOM      7  C   UNL     1     116.076 120.512 141.240  1.00  0.00     0.198 C 
BRANCH   7   8
ATOM      8  O   UNL     1     116.708 121.502 142.058  1.00  0.00    -0.347 OA
BRANCH   8   9
ATOM      9  C   UNL     1     116.001 122.747 142.143  1.00  0.00     0.281 C 
ATOM     10  C   UNL     1     112.426 123.565 141.482  1.00  0.00     0.041 C 
ATOM     11  C   UNL     1     113.813 123.596 142.186  1.00  0.00     0.150 C 
ATOM     12  C   UNL     1     113.686 123.719 143.747  1.00  0.00     0.174 C 
ATOM     13  O   UNL     1     114.621 122.492 141.809  1.00  0.00    -0.344 OA
ATOM     14  C   UNL     1     114.911 123.095 144.423  1.00  0.00     0.179 C 
ATOM     15  C   UNL     1     116.158 123.361 143.571  1.00  0.00     0.202 C 
BRANCH  12  16
ATOM     16  O   UNL     1     112.533 123.092 144.245  1.00  0.00    -0.388 OA
ATOM     17  H   UNL     1     112.043 123.791 144.760  1.00  0.00     0.211 HD
ENDBRANCH  12  16
BRANCH  14  18
ATOM     18  O   UNL     1     115.065 123.639 145.717  1.00  0.00    -0.387 OA
ATOM     19  H   UNL     1     115.849 124.247 145.708  1.00  0.00     0.211 HD
ENDBRANCH  14  18
BRANCH  15  20
ATOM     20  O   UNL     1     117.263 122.815 144.240  1.00  0.00    -0.385 OA
ATOM     21  H   UNL     1     117.938 122.561 143.574  1.00  0.00     0.211 HD
ENDBRANCH  15  20
ENDBRANCH   8   9
ENDBRANCH   7   8
ENDBRANCH   1   7
BRANCH   2  22
ATOM     22  O   UNL     1     118.988 121.394 140.469  1.00  0.00    -0.387 OA
ATOM     23  H   UNL     1     119.585 120.594 140.413  1.00  0.00     0.211 HD
ENDBRANCH   2  22
BRANCH   3  24
ATOM     24  O   UNL     1     117.673 121.380 137.191  1.00  0.00    -0.387 OA
ATOM     25  H   UNL     1     118.254 121.878 136.556  1.00  0.00     0.211 HD
ENDBRANCH   3  24
BRANCH   5  26
ATOM     26  O   UNL     1     116.465 118.590 136.883  1.00  0.00    -0.454 OA
BRANCH  26  27
ATOM     27  C   UNL     1     115.566 117.551 136.564  1.00  0.00     0.214 A 
ATOM     28  C   UNL     1     116.019 116.327 136.049  1.00  0.00     0.180 A 
ATOM     29  C   UNL     1     114.174 117.763 136.688  1.00  0.00     0.239 A 
ATOM     30  O   UNL     1     115.147 115.391 135.694  1.00  0.00    -0.452 OA
ATOM     31  C   UNL     1     113.268 116.736 136.291  1.00  0.00     0.111 A 
ATOM     32  O   UNL     1     113.777 118.885 137.119  1.00  0.00    -0.285 OA
ATOM     33  C   UNL     1     113.834 115.548 135.794  1.00  0.00     0.146 A 
ATOM     34  C   UNL     1     111.833 116.875 136.296  1.00  0.00     0.134 A 
ATOM     35  C   UNL     1     113.012 114.523 135.354  1.00  0.00     0.094 A 
ATOM     36  C   UNL     1     111.041 115.857 135.753  1.00  0.00     0.093 A 
ATOM     37  C   UNL     1     111.621 114.667 135.316  1.00  0.00     0.123 A 
BRANCH  28  38
ATOM     38  C   UNL     1     117.442 116.024 135.873  1.00  0.00     0.025 A 
ATOM     39  C   UNL     1     118.056 116.189 134.627  1.00  0.00     0.062 A 
ATOM     40  C   UNL     1     118.192 115.563 136.968  1.00  0.00     0.016 A 
ATOM     41  C   UNL     1     119.390 115.800 134.437  1.00  0.00     0.158 A 
ATOM     42  C   UNL     1     119.528 115.188 136.790  1.00  0.00     0.051 A 
ATOM     43  C   UNL     1     120.109 115.264 135.517  1.00  0.00     0.157 A 
BRANCH  41  44
ATOM     44  O   UNL     1     120.008 115.918 133.190  1.00  0.00    -0.504 OA
ATOM     45  H   UNL     1     120.298 115.127 132.652  1.00  0.00     0.293 HD
ENDBRANCH  41  44
BRANCH  43  46
ATOM     46  O   UNL     1     121.431 114.839 135.307  1.00  0.00    -0.504 OA
ATOM     47  H   UNL     1     121.924 114.299 136.008  1.00  0.00     0.293 HD
ENDBRANCH  43  46
ENDBRANCH  28  38
BRANCH  34  48
ATOM     48  O   UNL     1     111.157 117.980 136.811  1.00  0.00    -0.507 OA
ATOM     49  H   UNL     1     110.151 118.104 136.802  1.00  0.00     0.293 HD
ENDBRANCH  34  48
BRANCH  37  50
ATOM     50  O   UNL     1     110.828 113.627 134.838  1.00  0.00    -0.508 OA
ATOM     51  H   UNL     1     110.671 112.787 135.384  1.00  0.00     0.293 HD
ENDBRANCH  37  50
ENDBRANCH  26  27
ENDBRANCH   5  26
BRANCH   4  52
ATOM     52  O   UNL     1     119.042 118.949 136.729  1.00  0.00    -0.384 OA
ATOM     53  H   UNL     1     118.398 118.316 136.306  1.00  0.00     0.211 HD
ENDBRANCH   4  52
TORSDOF 16
ENDMDL
MODEL 5
REMARK VINA RESULT:    -7.418      7.756     11.058
REMARK INTER + INTRA:         -15.237
REMARK INTER:                 -12.746
REMARK INTRA:                  -2.491
REMARK UNBOUND:                -3.049
REMARK SMILES C[C@@H]1O[C@H](OC[C@H]2O[C@@H](Oc3c(-c4ccc(O)c(O)c4)oc4cc(O)cc(O)c4c3=O)[C@@H](O)[C@@H](O)[C@@H]2O)[C@H](O)[C@@H](O)[C@@H]1O
REMARK SMILES IDX 7 1 36 2 34 3 32 4 9 5 8 6 6 7 5 8 4 9 1 10 2 11 42 12 3 13
REMARK SMILES IDX 40 14 38 15 43 16 41 18 39 20 37 22 35 24 10 26 11 27 12 28
REMARK SMILES IDX 30 29 21 30 29 31 31 32 22 33 27 34 23 35 26 36 24 37 13 38
REMARK SMILES IDX 20 39 14 40 18 41 15 42 16 43 19 44 17 46 28 48 25 50 33 52
REMARK H PARENT 43 17 41 19 39 21 37 23 35 25 19 45 17 47 28 49 25 51 33 53
REMARK Flexibility Score: inf
ROOT
ATOM      1  C   UNL     1     113.929 126.858 139.209  1.00  0.00     0.180 C 
ATOM      2  C   UNL     1     113.547 128.340 139.489  1.00  0.00     0.177 C 
ATOM      3  C   UNL     1     112.741 128.936 138.305  1.00  0.00     0.180 C 
ATOM      4  C   UNL     1     113.111 128.190 137.009  1.00  0.00     0.214 C 
ATOM      5  C   UNL     1     112.797 126.666 137.163  1.00  0.00     0.339 C 
ATOM      6  O   UNL     1     112.852 126.228 138.527  1.00  0.00    -0.332 OA
ENDROOT
BRANCH   1   7
ATOM      7  C   UNL     1     114.326 126.097 140.501  1.00  0.00     0.198 C 
BRANCH   7   8
ATOM      8  O   UNL     1     114.666 126.988 141.568  1.00  0.00    -0.347 OA
BRANCH   8   9
ATOM      9  C   UNL     1     114.242 126.555 142.868  1.00  0.00     0.281 C 
ATOM     10  C   UNL     1     111.685 124.040 143.880  1.00  0.00     0.041 C 
ATOM     11  C   UNL     1     113.019 124.839 143.903  1.00  0.00     0.150 C 
ATOM     12  C   UNL     1     114.246 123.939 144.294  1.00  0.00     0.174 C 
ATOM     13  O   UNL     1     113.241 125.531 142.685  1.00  0.00    -0.344 OA
ATOM     14  C   UNL     1     115.530 124.511 143.684  1.00  0.00     0.179 C 
ATOM     15  C   UNL     1     115.465 126.043 143.693  1.00  0.00     0.202 C 
BRANCH  12  16
ATOM     16  O   UNL     1     114.099 122.611 143.863  1.00  0.00    -0.388 OA
ATOM     17  H   UNL     1     114.992 122.184 143.989  1.00  0.00     0.211 HD
ENDBRANCH  12  16
BRANCH  14  18
ATOM     18  O   UNL     1     116.646 124.054 144.419  1.00  0.00    -0.387 OA
ATOM     19  H   UNL     1     116.676 124.548 145.279  1.00  0.00     0.211 HD
ENDBRANCH  14  18
BRANCH  15  20
ATOM     20  O   UNL     1     116.671 126.530 143.170  1.00  0.00    -0.385 OA
ATOM     21  H   UNL     1     116.641 126.453 142.192  1.00  0.00     0.211 HD
ENDBRANCH  15  20
ENDBRANCH   8   9
ENDBRANCH   7   8
ENDBRANCH   1   7
BRANCH   2  22
ATOM     22  O   UNL     1     114.699 129.116 139.729  1.00  0.00    -0.387 OA
ATOM     23  H   UNL     1     114.559 129.564 140.612  1.00  0.00     0.211 HD
ENDBRANCH   2  22
BRANCH   3  24
ATOM     24  O   UNL     1     111.382 128.792 138.561  1.00  0.00    -0.387 OA
ATOM     25  H   UNL     1     110.889 129.364 137.913  1.00  0.00     0.211 HD
ENDBRANCH   3  24
BRANCH   5  26
ATOM     26  O   UNL     1     111.487 126.394 136.670  1.00  0.00    -0.454 OA
BRANCH  26  27
ATOM     27  C   UNL     1     111.235 125.414 135.687  1.00  0.00     0.214 A 
ATOM     28  C   UNL     1     110.896 124.100 136.038  1.00  0.00     0.180 A 
ATOM     29  C   UNL     1     111.401 125.732 134.320  1.00  0.00     0.239 A 
ATOM     30  O   UNL     1     110.731 123.180 135.095  1.00  0.00    -0.452 OA
ATOM     31  C   UNL     1     111.220 124.717 133.335  1.00  0.00     0.111 A 
ATOM     32  O   UNL     1     111.744 126.912 134.018  1.00  0.00    -0.285 OA
ATOM     33  C   UNL     1     110.876 123.434 133.802  1.00  0.00     0.146 A 
ATOM     34  C   UNL     1     111.444 124.907 131.924  1.00  0.00     0.134 A 
ATOM     35  C   UNL     1     110.722 122.391 132.903  1.00  0.00     0.094 A 
ATOM     36  C   UNL     1     111.375 123.808 131.061  1.00  0.00     0.093 A 
ATOM     37  C   UNL     1     110.979 122.559 131.538  1.00  0.00     0.123 A 
BRANCH  28  38
ATOM     38  C   UNL     1     110.716 123.676 137.430  1.00  0.00     0.025 A 
ATOM     39  C   UNL     1     111.695 122.911 138.073  1.00  0.00     0.062 A 
ATOM     40  C   UNL     1     109.548 124.043 138.120  1.00  0.00     0.016 A 
ATOM     41  C   UNL     1     111.474 122.421 139.369  1.00  0.00     0.158 A 
ATOM     42  C   UNL     1     109.328 123.571 139.418  1.00  0.00     0.051 A 
ATOM     43  C   UNL     1     110.268 122.725 140.020  1.00  0.00     0.157 A 
BRANCH  41  44
ATOM     44  O   UNL     1     112.421 121.621 140.012  1.00  0.00    -0.504 OA
ATOM     45  H   UNL     1     112.248 120.667 140.256  1.00  0.00     0.293 HD
ENDBRANCH  41  44
BRANCH  43  46
ATOM     46  O   UNL     1     110.038 122.195 141.300  1.00  0.00    -0.504 OA
ATOM     47  H   UNL     1     109.121 121.858 141.570  1.00  0.00     0.293 HD
ENDBRANCH  43  46
ENDBRANCH  28  38
BRANCH  34  48
ATOM     48  O   UNL     1     111.738 126.138 131.339  1.00  0.00    -0.507 OA
ATOM     49  H   UNL     1     112.504 126.745 131.611  1.00  0.00     0.293 HD
ENDBRANCH  34  48
BRANCH  37  50
ATOM     50  O   UNL     1     110.845 121.479 130.668  1.00  0.00    -0.508 OA
ATOM     51  H   UNL     1     111.086 121.558 129.686  1.00  0.00     0.293 HD
ENDBRANCH  37  50
ENDBRANCH  26  27
ENDBRANCH   5  26
BRANCH   4  52
ATOM     52  O   UNL     1     112.394 128.720 135.921  1.00  0.00    -0.384 OA
ATOM     53  H   UNL     1     111.637 128.099 135.733  1.00  0.00     0.211 HD
ENDBRANCH   4  52
TORSDOF 16
ENDMDL
MODEL 6
REMARK VINA RESULT:    -7.368      5.846      9.058
REMARK INTER + INTRA:         -15.156
REMARK INTER:                 -12.983
REMARK INTRA:                  -2.173
REMARK UNBOUND:                -3.049
REMARK SMILES C[C@@H]1O[C@H](OC[C@H]2O[C@@H](Oc3c(-c4ccc(O)c(O)c4)oc4cc(O)cc(O)c4c3=O)[C@@H](O)[C@@H](O)[C@@H]2O)[C@H](O)[C@@H](O)[C@@H]1O
REMARK SMILES IDX 7 1 36 2 34 3 32 4 9 5 8 6 6 7 5 8 4 9 1 10 2 11 42 12 3 13
REMARK SMILES IDX 40 14 38 15 43 16 41 18 39 20 37 22 35 24 10 26 11 27 12 28
REMARK SMILES IDX 30 29 21 30 29 31 31 32 22 33 27 34 23 35 26 36 24 37 13 38
REMARK SMILES IDX 20 39 14 40 18 41 15 42 16 43 19 44 17 46 28 48 25 50 33 52
REMARK H PARENT 43 17 41 19 39 21 37 23 35 25 19 45 17 47 28 49 25 51 33 53
REMARK Flexibility Score: inf
ROOT
ATOM      1  C   UNL     1     113.069 124.735 138.819  1.00  0.00     0.180 C 
ATOM      2  C   UNL     1     111.883 125.194 139.714  1.00  0.00     0.177 C 
ATOM      3  C   UNL     1     111.329 124.010 140.549  1.00  0.00     0.180 C 
ATOM      4  C   UNL     1     111.620 122.688 139.814  1.00  0.00     0.214 C 
ATOM      5  C   UNL     1     113.161 122.524 139.599  1.00  0.00     0.339 C 
ATOM      6  O   UNL     1     113.843 123.784 139.537  1.00  0.00    -0.332 OA
ENDROOT
BRANCH   1   7
ATOM      7  C   UNL     1     113.928 125.927 138.320  1.00  0.00     0.198 C 
BRANCH   7   8
ATOM      8  O   UNL     1     113.578 127.152 138.972  1.00  0.00    -0.347 OA
BRANCH   8   9
ATOM      9  C   UNL     1     114.003 128.338 138.287  1.00  0.00     0.281 C 
ATOM     10  C   UNL     1     116.801 128.889 135.887  1.00  0.00     0.041 C 
ATOM     11  C   UNL     1     115.382 129.016 136.511  1.00  0.00     0.150 C 
ATOM     12  C   UNL     1     114.256 129.106 135.419  1.00  0.00     0.174 C 
ATOM     13  O   UNL     1     115.123 127.983 137.449  1.00  0.00    -0.344 OA
ATOM     14  C   UNL     1     112.937 128.568 135.981  1.00  0.00     0.179 C 
ATOM     15  C   UNL     1     112.820 128.941 137.464  1.00  0.00     0.202 C 
BRANCH  12  16
ATOM     16  O   UNL     1     114.574 128.385 134.257  1.00  0.00    -0.388 OA
ATOM     17  H   UNL     1     115.484 128.006 134.413  1.00  0.00     0.211 HD
ENDBRANCH  12  16
BRANCH  14  18
ATOM     18  O   UNL     1     111.857 129.103 135.245  1.00  0.00    -0.387 OA
ATOM     19  H   UNL     1     111.800 128.620 134.381  1.00  0.00     0.211 HD
ENDBRANCH  14  18
BRANCH  15  20
ATOM     20  O   UNL     1     111.585 128.472 137.932  1.00  0.00    -0.385 OA
ATOM     21  H   UNL     1     111.523 127.510 137.744  1.00  0.00     0.211 HD
ENDBRANCH  15  20
ENDBRANCH   8   9
ENDBRANCH   7   8
ENDBRANCH   1   7
BRANCH   2  22
ATOM     22  O   UNL     1     110.853 125.755 138.930  1.00  0.00    -0.387 OA
ATOM     23  H   UNL     1     110.656 125.092 138.207  1.00  0.00     0.211 HD
ENDBRANCH   2  22
BRANCH   3  24
ATOM     24  O   UNL     1     111.947 124.002 141.795  1.00  0.00    -0.387 OA
ATOM     25  H   UNL     1     111.874 124.918 142.175  1.00  0.00     0.211 HD
ENDBRANCH   3  24
BRANCH   5  26
ATOM     26  O   UNL     1     113.718 121.777 140.678  1.00  0.00    -0.454 OA
BRANCH  26  27
ATOM     27  C   UNL     1     115.094 121.480 140.762  1.00  0.00     0.214 A 
ATOM     28  C   UNL     1     115.963 122.262 141.537  1.00  0.00     0.180 A 
ATOM     29  C   UNL     1     115.634 120.423 139.993  1.00  0.00     0.239 A 
ATOM     30  O   UNL     1     117.265 122.001 141.546  1.00  0.00    -0.452 OA
ATOM     31  C   UNL     1     117.037 120.177 140.023  1.00  0.00     0.111 A 
ATOM     32  O   UNL     1     114.845 119.750 139.269  1.00  0.00    -0.285 OA
ATOM     33  C   UNL     1     117.813 121.021 140.841  1.00  0.00     0.146 A 
ATOM     34  C   UNL     1     117.704 119.184 139.218  1.00  0.00     0.134 A 
ATOM     35  C   UNL     1     119.189 120.863 140.888  1.00  0.00     0.094 A 
ATOM     36  C   UNL     1     119.102 119.121 139.220  1.00  0.00     0.093 A 
ATOM     37  C   UNL     1     119.845 119.930 140.078  1.00  0.00     0.123 A 
BRANCH  28  38
ATOM     38  C   UNL     1     115.496 123.384 142.356  1.00  0.00     0.025 A 
ATOM     39  C   UNL     1     114.925 123.159 143.613  1.00  0.00     0.062 A 
ATOM     40  C   UNL     1     115.623 124.696 141.869  1.00  0.00     0.016 A 
ATOM     41  C   UNL     1     114.386 124.225 144.348  1.00  0.00     0.158 A 
ATOM     42  C   UNL     1     115.101 125.767 142.603  1.00  0.00     0.051 A 
ATOM     43  C   UNL     1     114.444 125.523 143.817  1.00  0.00     0.157 A 
BRANCH  41  44
ATOM     44  O   UNL     1     113.776 124.016 145.587  1.00  0.00    -0.504 OA
ATOM     45  H   UNL     1     113.734 124.720 146.296  1.00  0.00     0.293 HD
ENDBRANCH  41  44
BRANCH  43  46
ATOM     46  O   UNL     1     113.865 126.578 144.540  1.00  0.00    -0.504 OA
ATOM     47  H   UNL     1     114.124 127.541 144.360  1.00  0.00     0.293 HD
ENDBRANCH  43  46
ENDBRANCH  28  38
BRANCH  34  48
ATOM     48  O   UNL     1     117.041 118.260 138.412  1.00  0.00    -0.507 OA
ATOM     49  H   UNL     1     117.018 118.281 137.398  1.00  0.00     0.293 HD
ENDBRANCH  34  48
BRANCH  37  50
ATOM     50  O   UNL     1     121.232 119.821 140.129  1.00  0.00    -0.508 OA
ATOM     51  H   UNL     1     121.697 118.926 140.019  1.00  0.00     0.293 HD
ENDBRANCH  37  50
ENDBRANCH  26  27
ENDBRANCH   5  26
BRANCH   4  52
ATOM     52  O   UNL     1     111.121 121.600 140.553  1.00  0.00    -0.384 OA
ATOM     53  H   UNL     1     110.333 121.927 141.068  1.00  0.00     0.211 HD
ENDBRANCH   4  52
TORSDOF 16
ENDMDL
MODEL 7
REMARK VINA RESULT:    -7.367      1.859      2.749
REMARK INTER + INTRA:         -15.153
REMARK INTER:                 -11.764
REMARK INTRA:                  -3.389
REMARK UNBOUND:                -3.049
REMARK SMILES C[C@@H]1O[C@H](OC[C@H]2O[C@@H](Oc3c(-c4ccc(O)c(O)c4)oc4cc(O)cc(O)c4c3=O)[C@@H](O)[C@@H](O)[C@@H]2O)[C@H](O)[C@@H](O)[C@@H]1O
REMARK SMILES IDX 7 1 36 2 34 3 32 4 9 5 8 6 6 7 5 8 4 9 1 10 2 11 42 12 3 13
REMARK SMILES IDX 40 14 38 15 43 16 41 18 39 20 37 22 35 24 10 26 11 27 12 28
REMARK SMILES IDX 30 29 21 30 29 31 31 32 22 33 27 34 23 35 26 36 24 37 13 38
REMARK SMILES IDX 20 39 14 40 18 41 15 42 16 43 19 44 17 46 28 48 25 50 33 52
REMARK H PARENT 43 17 41 19 39 21 37 23 35 25 19 45 17 47 28 49 25 51 33 53
REMARK Flexibility Score: inf
ROOT
ATOM      1  C   UNL     1     115.969 119.527 137.460  1.00  0.00     0.180 C 
ATOM      2  C   UNL     1     116.726 119.649 138.813  1.00  0.00     0.177 C 
ATOM      3  C   UNL     1     116.618 118.333 139.628  1.00  0.00     0.180 C 
ATOM      4  C   UNL     1     115.332 117.588 139.225  1.00  0.00     0.214 C 
ATOM      5  C   UNL     1     115.355 117.274 137.693  1.00  0.00     0.339 C 
ATOM      6  O   UNL     1     116.149 118.211 136.952  1.00  0.00    -0.332 OA
ENDROOT
BRANCH   1   7
ATOM      7  C   UNL     1     116.408 120.609 136.438  1.00  0.00     0.198 C 
BRANCH   7   8
ATOM      8  O   UNL     1     117.822 120.603 136.221  1.00  0.00    -0.347 OA
BRANCH   8   9
ATOM      9  C   UNL     1     118.248 119.856 135.074  1.00  0.00     0.281 C 
ATOM     10  C   UNL     1     119.770 120.982 131.864  1.00  0.00     0.041 C 
ATOM     11  C   UNL     1     119.525 120.096 133.119  1.00  0.00     0.150 C 
ATOM     12  C   UNL     1     120.857 119.482 133.684  1.00  0.00     0.174 C 
ATOM     13  O   UNL     1     118.799 120.789 134.121  1.00  0.00    -0.344 OA
ATOM     14  C   UNL     1     120.714 119.216 135.186  1.00  0.00     0.179 C 
ATOM     15  C   UNL     1     119.282 118.763 135.494  1.00  0.00     0.202 C 
BRANCH  12  16
ATOM     16  O   UNL     1     121.964 120.321 133.482  1.00  0.00    -0.388 OA
ATOM     17  H   UNL     1     121.636 121.073 132.915  1.00  0.00     0.211 HD
ENDBRANCH  12  16
BRANCH  14  18
ATOM     18  O   UNL     1     121.646 118.230 135.581  1.00  0.00    -0.387 OA
ATOM     19  H   UNL     1     122.180 118.592 136.334  1.00  0.00     0.211 HD
ENDBRANCH  14  18
BRANCH  15  20
ATOM     20  O   UNL     1     119.201 118.486 136.865  1.00  0.00    -0.385 OA
ATOM     21  H   UNL     1     119.029 117.526 136.982  1.00  0.00     0.211 HD
ENDBRANCH  15  20
ENDBRANCH   8   9
ENDBRANCH   7   8
ENDBRANCH   1   7
BRANCH   2  22
ATOM     22  O   UNL     1     116.224 120.728 139.570  1.00  0.00    -0.387 OA
ATOM     23  H   UNL     1     116.776 121.526 139.325  1.00  0.00     0.211 HD
ENDBRANCH   2  22
BRANCH   3  24
ATOM     24  O   UNL     1     117.728 117.539 139.360  1.00  0.00    -0.387 OA
ATOM     25  H   UNL     1     118.535 118.034 139.662  1.00  0.00     0.211 HD
ENDBRANCH   3  24
BRANCH   5  26
ATOM     26  O   UNL     1     115.898 115.974 137.478  1.00  0.00    -0.454 OA
BRANCH  26  27
ATOM     27  C   UNL     1     116.647 115.646 136.328  1.00  0.00     0.214 A 
ATOM     28  C   UNL     1     116.020 115.354 135.108  1.00  0.00     0.180 A 
ATOM     29  C   UNL     1     118.053 115.531 136.415  1.00  0.00     0.239 A 
ATOM     30  O   UNL     1     116.744 114.983 134.059  1.00  0.00    -0.452 OA
ATOM     31  C   UNL     1     118.797 115.125 135.269  1.00  0.00     0.111 A 
ATOM     32  O   UNL     1     118.603 115.761 137.531  1.00  0.00    -0.285 OA
ATOM     33  C   UNL     1     118.064 114.863 134.096  1.00  0.00     0.146 A 
ATOM     34  C   UNL     1     120.220 114.894 135.265  1.00  0.00     0.134 A 
ATOM     35  C   UNL     1     118.718 114.426 132.955  1.00  0.00     0.094 A 
ATOM     36  C   UNL     1     120.829 114.361 134.124  1.00  0.00     0.093 A 
ATOM     37  C   UNL     1     120.092 114.161 132.957  1.00  0.00     0.123 A 
BRANCH  28  38
ATOM     38  C   UNL     1     114.567 115.434 134.929  1.00  0.00     0.025 A 
ATOM     39  C   UNL     1     114.002 116.437 134.134  1.00  0.00     0.062 A 
ATOM     40  C   UNL     1     113.738 114.494 135.565  1.00  0.00     0.016 A 
ATOM     41  C   UNL     1     112.609 116.572 134.047  1.00  0.00     0.158 A 
ATOM     42  C   UNL     1     112.348 114.614 135.472  1.00  0.00     0.051 A 
ATOM     43  C   UNL     1     111.788 115.679 134.752  1.00  0.00     0.157 A 
BRANCH  41  44
ATOM     44  O   UNL     1     112.026 117.592 133.291  1.00  0.00    -0.504 OA
ATOM     45  H   UNL     1     112.089 118.557 133.544  1.00  0.00     0.293 HD
ENDBRANCH  41  44
BRANCH  43  46
ATOM     46  O   UNL     1     110.395 115.848 134.694  1.00  0.00    -0.504 OA
ATOM     47  H   UNL     1     109.819 115.735 135.520  1.00  0.00     0.293 HD
ENDBRANCH  43  46
ENDBRANCH  28  38
BRANCH  34  48
ATOM     48  O   UNL     1     121.057 115.166 136.346  1.00  0.00    -0.507 OA
ATOM     49  H   UNL     1     120.831 114.987 137.318  1.00  0.00     0.293 HD
ENDBRANCH  34  48
BRANCH  37  50
ATOM     50  O   UNL     1     120.711 113.693 131.801  1.00  0.00    -0.508 OA
ATOM     51  H   UNL     1     120.713 114.238 130.945  1.00  0.00     0.293 HD
ENDBRANCH  37  50
ENDBRANCH  26  27
ENDBRANCH   5  26
BRANCH   4  52
ATOM     52  O   UNL     1     115.213 116.392 139.957  1.00  0.00    -0.384 OA
ATOM     53  H   UNL     1     115.858 115.740 139.569  1.00  0.00     0.211 HD
ENDBRANCH   4  52
TORSDOF 16
ENDMDL
MODEL 8
REMARK VINA RESULT:    -7.198      3.962      7.817
REMARK INTER + INTRA:         -14.876
REMARK INTER:                 -12.477
REMARK INTRA:                  -2.399
REMARK UNBOUND:                -3.049
REMARK SMILES C[C@@H]1O[C@H](OC[C@H]2O[C@@H](Oc3c(-c4ccc(O)c(O)c4)oc4cc(O)cc(O)c4c3=O)[C@@H](O)[C@@H](O)[C@@H]2O)[C@H](O)[C@@H](O)[C@@H]1O
REMARK SMILES IDX 7 1 36 2 34 3 32 4 9 5 8 6 6 7 5 8 4 9 1 10 2 11 42 12 3 13
REMARK SMILES IDX 40 14 38 15 43 16 41 18 39 20 37 22 35 24 10 26 11 27 12 28
REMARK SMILES IDX 30 29 21 30 29 31 31 32 22 33 27 34 23 35 26 36 24 37 13 38
REMARK SMILES IDX 20 39 14 40 18 41 15 42 16 43 19 44 17 46 28 48 25 50 33 52
REMARK H PARENT 43 17 41 19 39 21 37 23 35 25 19 45 17 47 28 49 25 51 33 53
REMARK Flexibility Score: inf
ROOT
ATOM      1  C   UNL     1     114.404 123.467 137.945  1.00  0.00     0.180 C 
ATOM      2  C   UNL     1     112.859 123.560 137.799  1.00  0.00     0.177 C 
ATOM      3  C   UNL     1     112.265 122.207 137.326  1.00  0.00     0.180 C 
ATOM      4  C   UNL     1     113.335 121.429 136.535  1.00  0.00     0.214 C 
ATOM      5  C   UNL     1     114.590 121.184 137.436  1.00  0.00     0.339 C 
ATOM      6  O   UNL     1     114.740 122.182 138.454  1.00  0.00    -0.332 OA
ENDROOT
BRANCH   1   7
ATOM      7  C   UNL     1     114.984 124.609 138.820  1.00  0.00     0.198 C 
BRANCH   7   8
ATOM      8  O   UNL     1     115.122 124.220 140.191  1.00  0.00    -0.347 OA
BRANCH   8   9
ATOM      9  C   UNL     1     114.195 124.848 141.087  1.00  0.00     0.281 C 
ATOM     10  C   UNL     1     110.832 123.758 142.267  1.00  0.00     0.041 C 
ATOM     11  C   UNL     1     112.260 124.373 142.328  1.00  0.00     0.150 C 
ATOM     12  C   UNL     1     112.976 124.080 143.695  1.00  0.00     0.174 C 
ATOM     13  O   UNL     1     113.054 123.975 141.222  1.00  0.00    -0.344 OA
ATOM     14  C   UNL     1     114.496 124.077 143.500  1.00  0.00     0.179 C 
ATOM     15  C   UNL     1     114.882 125.136 142.460  1.00  0.00     0.202 C 
BRANCH  12  16
ATOM     16  O   UNL     1     112.595 122.847 144.250  1.00  0.00    -0.388 OA
ATOM     17  H   UNL     1     112.112 122.361 143.525  1.00  0.00     0.211 HD
ENDBRANCH  12  16
BRANCH  14  18
ATOM     18  O   UNL     1     115.131 124.334 144.734  1.00  0.00    -0.387 OA
ATOM     19  H   UNL     1     115.883 123.695 144.836  1.00  0.00     0.211 HD
ENDBRANCH  14  18
BRANCH  15  20
ATOM     20  O   UNL     1     116.278 125.136 142.340  1.00  0.00    -0.385 OA
ATOM     21  H   UNL     1     116.594 126.066 142.351  1.00  0.00     0.211 HD
ENDBRANCH  15  20
ENDBRANCH   8   9
ENDBRANCH   7   8
ENDBRANCH   1   7
BRANCH   2  22
ATOM     22  O   UNL     1     112.503 124.584 136.897  1.00  0.00    -0.387 OA
ATOM     23  H   UNL     1     111.999 124.144 136.154  1.00  0.00     0.211 HD
ENDBRANCH   2  22
BRANCH   3  24
ATOM     24  O   UNL     1     111.871 121.469 138.437  1.00  0.00    -0.387 OA
ATOM     25  H   UNL     1     112.609 121.503 139.102  1.00  0.00     0.211 HD
ENDBRANCH   3  24
BRANCH   5  26
ATOM     26  O   UNL     1     114.478 119.916 138.079  1.00  0.00    -0.454 OA
BRANCH  26  27
ATOM     27  C   UNL     1     115.479 118.927 137.983  1.00  0.00     0.214 A 
ATOM     28  C   UNL     1     116.587 118.925 138.843  1.00  0.00     0.180 A 
ATOM     29  C   UNL     1     115.414 117.960 136.954  1.00  0.00     0.239 A 
ATOM     30  O   UNL     1     117.548 118.022 138.688  1.00  0.00    -0.452 OA
ATOM     31  C   UNL     1     116.468 117.010 136.815  1.00  0.00     0.111 A 
ATOM     32  O   UNL     1     114.429 117.996 136.162  1.00  0.00    -0.285 OA
ATOM     33  C   UNL     1     117.528 117.098 137.738  1.00  0.00     0.146 A 
ATOM     34  C   UNL     1     116.548 116.035 135.756  1.00  0.00     0.134 A 
ATOM     35  C   UNL     1     118.605 116.231 137.638  1.00  0.00     0.094 A 
ATOM     36  C   UNL     1     117.695 115.245 135.631  1.00  0.00     0.093 A 
ATOM     37  C   UNL     1     118.707 115.312 136.588  1.00  0.00     0.123 A 
BRANCH  28  38
ATOM     38  C   UNL     1     116.745 119.897 139.929  1.00  0.00     0.025 A 
ATOM     39  C   UNL     1     117.967 120.549 140.128  1.00  0.00     0.062 A 
ATOM     40  C   UNL     1     115.657 120.173 140.775  1.00  0.00     0.016 A 
ATOM     41  C   UNL     1     118.145 121.400 141.228  1.00  0.00     0.158 A 
ATOM     42  C   UNL     1     115.823 121.032 141.866  1.00  0.00     0.051 A 
ATOM     43  C   UNL     1     117.077 121.606 142.116  1.00  0.00     0.157 A 
BRANCH  41  44
ATOM     44  O   UNL     1     119.369 122.028 141.468  1.00  0.00    -0.504 OA
ATOM     45  H   UNL     1     120.103 121.600 141.995  1.00  0.00     0.293 HD
ENDBRANCH  41  44
BRANCH  43  46
ATOM     46  O   UNL     1     117.277 122.426 143.238  1.00  0.00    -0.504 OA
ATOM     47  H   UNL     1     116.734 123.271 143.372  1.00  0.00     0.293 HD
ENDBRANCH  43  46
ENDBRANCH  28  38
BRANCH  34  48
ATOM     48  O   UNL     1     115.540 115.820 134.817  1.00  0.00    -0.507 OA
ATOM     49  H   UNL     1     115.357 116.408 134.012  1.00  0.00     0.293 HD
ENDBRANCH  34  48
BRANCH  37  50
ATOM     50  O   UNL     1     119.819 114.478 136.501  1.00  0.00    -0.508 OA
ATOM     51  H   UNL     1     119.963 113.718 137.158  1.00  0.00     0.293 HD
ENDBRANCH  37  50
ENDBRANCH  26  27
ENDBRANCH   5  26
BRANCH   4  52
ATOM     52  O   UNL     1     112.815 120.199 136.093  1.00  0.00    -0.384 OA
ATOM     53  H   UNL     1     112.323 119.792 136.858  1.00  0.00     0.211 HD
ENDBRANCH   4  52
TORSDOF 16
ENDMDL
MODEL 9
REMARK VINA RESULT:    -7.138      5.718      9.524
REMARK INTER + INTRA:         -14.777
REMARK INTER:                 -11.954
REMARK INTRA:                  -2.822
REMARK UNBOUND:                -3.049
REMARK SMILES C[C@@H]1O[C@H](OC[C@H]2O[C@@H](Oc3c(-c4ccc(O)c(O)c4)oc4cc(O)cc(O)c4c3=O)[C@@H](O)[C@@H](O)[C@@H]2O)[C@H](O)[C@@H](O)[C@@H]1O
REMARK SMILES IDX 7 1 36 2 34 3 32 4 9 5 8 6 6 7 5 8 4 9 1 10 2 11 42 12 3 13
REMARK SMILES IDX 40 14 38 15 43 16 41 18 39 20 37 22 35 24 10 26 11 27 12 28
REMARK SMILES IDX 30 29 21 30 29 31 31 32 22 33 27 34 23 35 26 36 24 37 13 38
REMARK SMILES IDX 20 39 14 40 18 41 15 42 16 43 19 44 17 46 28 48 25 50 33 52
REMARK H PARENT 43 17 41 19 39 21 37 23 35 25 19 45 17 47 28 49 25 51 33 53
REMARK Flexibility Score: inf
ROOT
ATOM      1  C   UNL     1     111.773 126.077 139.165  1.00  0.00     0.180 C 
ATOM      2  C   UNL     1     112.367 127.276 138.373  1.00  0.00     0.177 C 
ATOM      3  C   UNL     1     113.676 127.782 139.035  1.00  0.00     0.180 C 
ATOM      4  C   UNL     1     113.651 127.446 140.538  1.00  0.00     0.214 C 
ATOM      5  C   UNL     1     113.507 125.901 140.736  1.00  0.00     0.339 C 
ATOM      6  O   UNL     1     112.841 125.265 139.637  1.00  0.00    -0.332 OA
ENDROOT
BRANCH   1   7
ATOM      7  C   UNL     1     110.750 125.265 138.328  1.00  0.00     0.198 C 
BRANCH   7   8
ATOM      8  O   UNL     1     109.982 124.369 139.137  1.00  0.00    -0.347 OA
BRANCH   8   9
ATOM      9  C   UNL     1     109.702 123.102 138.527  1.00  0.00     0.281 C 
ATOM     10  C   UNL     1     109.036 122.207 134.971  1.00  0.00     0.041 C 
ATOM     11  C   UNL     1     109.603 122.083 136.415  1.00  0.00     0.150 C 
ATOM     12  C   UNL     1     111.044 121.456 136.437  1.00  0.00     0.174 C 
ATOM     13  O   UNL     1     109.557 123.320 137.108  1.00  0.00    -0.344 OA
ATOM     14  C   UNL     1     111.807 121.944 137.673  1.00  0.00     0.179 C 
ATOM     15  C   UNL     1     110.839 122.082 138.854  1.00  0.00     0.202 C 
BRANCH  12  16
ATOM     16  O   UNL     1     111.790 121.782 135.294  1.00  0.00    -0.388 OA
ATOM     17  H   UNL     1     112.611 121.216 135.335  1.00  0.00     0.211 HD
ENDBRANCH  12  16
BRANCH  14  18
ATOM     18  O   UNL     1     112.841 121.032 137.979  1.00  0.00    -0.387 OA
ATOM     19  H   UNL     1     112.438 120.243 138.424  1.00  0.00     0.211 HD
ENDBRANCH  14  18
BRANCH  15  20
ATOM     20  O   UNL     1     111.578 122.486 139.974  1.00  0.00    -0.385 OA
ATOM     21  H   UNL     1     111.689 121.714 140.571  1.00  0.00     0.211 HD
ENDBRANCH  15  20
ENDBRANCH   8   9
ENDBRANCH   7   8
ENDBRANCH   1   7
BRANCH   2  22
ATOM     22  O   UNL     1     111.433 128.329 138.284  1.00  0.00    -0.387 OA
ATOM     23  H   UNL     1     110.545 127.904 138.104  1.00  0.00     0.211 HD
ENDBRANCH   2  22
BRANCH   3  24
ATOM     24  O   UNL     1     114.763 127.160 138.430  1.00  0.00    -0.387 OA
ATOM     25  H   UNL     1     114.461 126.809 137.550  1.00  0.00     0.211 HD
ENDBRANCH   3  24
BRANCH   5  26
ATOM     26  O   UNL     1     114.799 125.311 140.863  1.00  0.00    -0.454 OA
BRANCH  26  27
ATOM     27  C   UNL     1     115.017 123.925 140.725  1.00  0.00     0.214 A 
ATOM     28  C   UNL     1     114.683 123.028 141.749  1.00  0.00     0.180 A 
ATOM     29  C   UNL     1     115.655 123.427 139.565  1.00  0.00     0.239 A 
ATOM     30  O   UNL     1     114.960 121.736 141.620  1.00  0.00    -0.452 OA
ATOM     31  C   UNL     1     115.941 122.034 139.464  1.00  0.00     0.111 A 
ATOM     32  O   UNL     1     115.984 124.251 138.664  1.00  0.00    -0.285 OA
ATOM     33  C   UNL     1     115.556 121.226 140.551  1.00  0.00     0.146 A 
ATOM     34  C   UNL     1     116.660 121.431 138.370  1.00  0.00     0.134 A 
ATOM     35  C   UNL     1     115.838 119.869 140.537  1.00  0.00     0.094 A 
ATOM     36  C   UNL     1     117.011 120.078 138.438  1.00  0.00     0.093 A 
ATOM     37  C   UNL     1     116.572 119.286 139.498  1.00  0.00     0.123 A 
BRANCH  28  38
ATOM     38  C   UNL     1     114.032 123.456 142.991  1.00  0.00     0.025 A 
ATOM     39  C   UNL     1     112.641 123.586 143.057  1.00  0.00     0.062 A 
ATOM     40  C   UNL     1     114.816 123.738 144.122  1.00  0.00     0.016 A 
ATOM     41  C   UNL     1     112.030 124.093 144.213  1.00  0.00     0.158 A 
ATOM     42  C   UNL     1     114.213 124.231 145.284  1.00  0.00     0.051 A 
ATOM     43  C   UNL     1     112.829 124.450 145.311  1.00  0.00     0.157 A 
BRANCH  41  44
ATOM     44  O   UNL     1     110.646 124.269 144.284  1.00  0.00    -0.504 OA
ATOM     45  H   UNL     1     110.003 123.730 143.739  1.00  0.00     0.293 HD
ENDBRANCH  41  44
BRANCH  43  46
ATOM     46  O   UNL     1     112.213 124.997 146.448  1.00  0.00    -0.504 OA
ATOM     47  H   UNL     1     111.322 125.474 146.382  1.00  0.00     0.293 HD
ENDBRANCH  43  46
ENDBRANCH  28  38
BRANCH  34  48
ATOM     48  O   UNL     1     117.046 122.116 137.218  1.00  0.00    -0.507 OA
ATOM     49  H   UNL     1     117.976 122.477 137.039  1.00  0.00     0.293 HD
ENDBRANCH  34  48
BRANCH  37  50
ATOM     50  O   UNL     1     116.864 117.925 139.533  1.00  0.00    -0.508 OA
ATOM     51  H   UNL     1     116.737 117.336 138.717  1.00  0.00     0.293 HD
ENDBRANCH  37  50
ENDBRANCH  26  27
ENDBRANCH   5  26
BRANCH   4  52
ATOM     52  O   UNL     1     114.828 127.901 141.158  1.00  0.00    -0.384 OA
ATOM     53  H   UNL     1     115.214 128.613 140.578  1.00  0.00     0.211 HD
ENDBRANCH   4  52
TORSDOF 16
ENDMDL
