MODEL 1
REMARK VINA RESULT:    -3.527      0.000      0.000
REMARK INTER + INTRA:         -11.418
REMARK INTER:                  -7.651
REMARK INTRA:                  -3.767
REMARK UNBOUND:                -3.767
REMARK SMILES CCCCCCCCCCCCCCCCCCCCCC(=O)[O-]
REMARK SMILES IDX 12 1 11 2 10 3 9 4 8 5 7 6 6 7 5 8 4 9 3 10 2 11 1 12 13 13
REMARK SMILES IDX 14 14 15 15 16 16 17 17 18 18 19 19 20 20 21 21 22 22 23 23
REMARK SMILES IDX 24 24
REMARK H PARENT
REMARK Flexibility Score: inf
ROOT
ATOM      1  C   UNL     1     -16.287  44.709  -7.302  1.00  0.00     0.000 C 
ENDROOT
BRANCH   1   2
ATOM      2  C   UNL     1     -15.797  45.271  -5.958  1.00  0.00     0.000 C 
BRANCH   2   3
ATOM      3  C   UNL     1     -14.835  46.462  -6.127  1.00  0.00     0.000 C 
BRANCH   3   4
ATOM      4  C   UNL     1     -14.249  46.542  -7.546  1.00  0.00    -0.000 C 
BRANCH   4   5
ATOM      5  C   UNL     1     -14.205  47.984  -8.083  1.00  0.00    -0.000 C 
BRANCH   5   6
ATOM      6  C   UNL     1     -14.482  48.061  -9.592  1.00  0.00    -0.000 C 
BRANCH   6   7
ATOM      7  C   UNL     1     -15.614  47.119 -10.033  1.00  0.00    -0.000 C 
BRANCH   7   8
ATOM      8  C   UNL     1     -16.984  47.793  -9.887  1.00  0.00    -0.000 C 
BRANCH   8   9
ATOM      9  C   UNL     1     -17.799  47.137  -8.762  1.00  0.00    -0.000 C 
BRANCH   9  10
ATOM     10  C   UNL     1     -17.920  48.033  -7.519  1.00  0.00    -0.000 C 
BRANCH  10  11
ATOM     11  C   UNL     1     -18.838  47.429  -6.445  1.00  0.00    -0.003 C 
ATOM     12  C   UNL     1     -18.271  47.656  -5.047  1.00  0.00     0.004 C 
ENDBRANCH  10  11
ENDBRANCH   9  10
ENDBRANCH   8   9
ENDBRANCH   7   8
ENDBRANCH   6   7
ENDBRANCH   5   6
ENDBRANCH   4   5
ENDBRANCH   3   4
ENDBRANCH   2   3
ENDBRANCH   1   2
BRANCH   1  13
ATOM     13  C   UNL     1     -16.516  43.188  -7.263  1.00  0.00     0.000 C 
BRANCH  13  14
ATOM     14  C   UNL     1     -17.335  42.690  -8.472  1.00  0.00     0.000 C 
BRANCH  14  15
ATOM     15  C   UNL     1     -17.150  43.539  -9.742  1.00  0.00     0.000 C 
BRANCH  15  16
ATOM     16  C   UNL     1     -18.404  43.574 -10.628  1.00  0.00     0.000 C 
BRANCH  16  17
ATOM     17  C   UNL     1     -19.682  43.503  -9.781  1.00  0.00     0.000 C 
BRANCH  17  18
ATOM     18  C   UNL     1     -20.486  44.814  -9.826  1.00  0.00     0.000 C 
BRANCH  18  19
ATOM     19  C   UNL     1     -20.958  45.262  -8.435  1.00  0.00     0.000 C 
BRANCH  19  20
ATOM     20  C   UNL     1     -20.090  44.640  -7.334  1.00  0.00     0.006 C 
BRANCH  20  21
ATOM     21  C   UNL     1     -20.943  44.206  -6.139  1.00  0.00     0.053 C 
BRANCH  21  22
ATOM     22  C   UNL     1     -20.074  43.697  -5.033  1.00  0.00     0.041 C 
ATOM     23  O   UNL     1     -18.828  43.878  -5.071  1.00  0.00    -0.550 OA
ATOM     24  O   UNL     1     -20.647  43.076  -3.930  1.00  0.00    -0.550 OA
ENDBRANCH  21  22
ENDBRANCH  20  21
ENDBRANCH  19  20
ENDBRANCH  18  19
ENDBRANCH  17  18
ENDBRANCH  16  17
ENDBRANCH  15  16
ENDBRANCH  14  15
ENDBRANCH  13  14
ENDBRANCH   1  13
TORSDOF 20
ENDMDL
MODEL 2
REMARK VINA RESULT:    -3.480      3.306      6.241
REMARK INTER + INTRA:         -11.315
REMARK INTER:                  -7.684
REMARK INTRA:                  -3.632
REMARK UNBOUND:                -3.767
REMARK SMILES CCCCCCCCCCCCCCCCCCCCCC(=O)[O-]
REMARK SMILES IDX 12 1 11 2 10 3 9 4 8 5 7 6 6 7 5 8 4 9 3 10 2 11 1 12 13 13
REMARK SMILES IDX 14 14 15 15 16 16 17 17 18 18 19 19 20 20 21 21 22 22 23 23
REMARK SMILES IDX 24 24
REMARK H PARENT
REMARK Flexibility Score: inf
ROOT
ATOM      1  C   UNL     1     -20.222  44.252  -5.924  1.00  0.00     0.000 C 
ENDROOT
BRANCH   1   2
ATOM      2  C   UNL     1     -20.820  44.673  -7.276  1.00  0.00     0.000 C 
BRANCH   2   3
ATOM      3  C   UNL     1     -20.270  46.022  -7.774  1.00  0.00     0.000 C 
BRANCH   3   4
ATOM      4  C   UNL     1     -19.702  45.931  -9.199  1.00  0.00    -0.000 C 
BRANCH   4   5
ATOM      5  C   UNL     1     -18.231  46.376  -9.277  1.00  0.00    -0.000 C 
BRANCH   5   6
ATOM      6  C   UNL     1     -17.742  46.550 -10.723  1.00  0.00    -0.000 C 
BRANCH   6   7
ATOM      7  C   UNL     1     -16.699  45.495 -11.125  1.00  0.00    -0.000 C 
BRANCH   7   8
ATOM      8  C   UNL     1     -16.632  44.362 -10.095  1.00  0.00    -0.000 C 
BRANCH   8   9
ATOM      9  C   UNL     1     -17.580  43.215 -10.480  1.00  0.00    -0.000 C 
BRANCH   9  10
ATOM     10  C   UNL     1     -18.340  42.645  -9.272  1.00  0.00    -0.000 C 
BRANCH  10  11
ATOM     11  C   UNL     1     -19.751  42.159  -9.639  1.00  0.00    -0.003 C 
ATOM     12  C   UNL     1     -20.227  42.788 -10.945  1.00  0.00     0.004 C 
ENDBRANCH  10  11
ENDBRANCH   9  10
ENDBRANCH   8   9
ENDBRANCH   7   8
ENDBRANCH   6   7
ENDBRANCH   5   6
ENDBRANCH   4   5
ENDBRANCH   3   4
ENDBRANCH   2   3
ENDBRANCH   1   2
BRANCH   1  13
ATOM     13  C   UNL     1     -18.849  44.893  -5.655  1.00  0.00     0.000 C 
BRANCH  13  14
ATOM     14  C   UNL     1     -17.686  43.912  -5.914  1.00  0.00     0.000 C 
BRANCH  14  15
ATOM     15  C   UNL     1     -16.465  44.558  -6.591  1.00  0.00     0.000 C 
BRANCH  15  16
ATOM     16  C   UNL     1     -16.266  46.028  -6.194  1.00  0.00     0.000 C 
BRANCH  16  17
ATOM     17  C   UNL     1     -14.782  46.343  -5.965  1.00  0.00     0.000 C 
BRANCH  17  18
ATOM     18  C   UNL     1     -14.220  47.310  -7.021  1.00  0.00     0.000 C 
BRANCH  18  19
ATOM     19  C   UNL     1     -14.726  46.994  -8.436  1.00  0.00     0.000 C 
BRANCH  19  20
ATOM     20  C   UNL     1     -14.578  48.211  -9.356  1.00  0.00     0.006 C 
BRANCH  20  21
ATOM     21  C   UNL     1     -15.796  49.132  -9.253  1.00  0.00     0.053 C 
BRANCH  21  22
ATOM     22  C   UNL     1     -15.486  50.477  -9.828  1.00  0.00     0.041 C 
ATOM     23  O   UNL     1     -15.868  50.773 -10.992  1.00  0.00    -0.550 OA
ATOM     24  O   UNL     1     -14.830  51.428  -9.057  1.00  0.00    -0.550 OA
ENDBRANCH  21  22
ENDBRANCH  20  21
ENDBRANCH  19  20
ENDBRANCH  18  19
ENDBRANCH  17  18
ENDBRANCH  16  17
ENDBRANCH  15  16
ENDBRANCH  14  15
ENDBRANCH  13  14
ENDBRANCH   1  13
TORSDOF 20
ENDMDL
MODEL 3
REMARK VINA RESULT:    -3.435      1.977      5.249
REMARK INTER + INTRA:         -11.218
REMARK INTER:                  -7.423
REMARK INTRA:                  -3.795
REMARK UNBOUND:                -3.767
REMARK SMILES CCCCCCCCCCCCCCCCCCCCCC(=O)[O-]
REMARK SMILES IDX 12 1 11 2 10 3 9 4 8 5 7 6 6 7 5 8 4 9 3 10 2 11 1 12 13 13
REMARK SMILES IDX 14 14 15 15 16 16 17 17 18 18 19 19 20 20 21 21 22 22 23 23
REMARK SMILES IDX 24 24
REMARK H PARENT
REMARK Flexibility Score: inf
ROOT
ATOM      1  C   UNL     1     -16.892  43.821  -8.827  1.00  0.00     0.000 C 
ENDROOT
BRANCH   1   2
ATOM      2  C   UNL     1     -17.347  42.389  -8.501  1.00  0.00     0.000 C 
BRANCH   2   3
ATOM      3  C   UNL     1     -18.842  42.161  -8.793  1.00  0.00     0.000 C 
BRANCH   3   4
ATOM      4  C   UNL     1     -19.236  42.610 -10.209  1.00  0.00    -0.000 C 
BRANCH   4   5
ATOM      5  C   UNL     1     -20.418  43.595 -10.206  1.00  0.00    -0.000 C 
BRANCH   5   6
ATOM      6  C   UNL     1     -20.952  43.873  -8.792  1.00  0.00    -0.000 C 
BRANCH   6   7
ATOM      7  C   UNL     1     -20.905  45.365  -8.426  1.00  0.00    -0.000 C 
BRANCH   7   8
ATOM      8  C   UNL     1     -19.470  45.821  -8.139  1.00  0.00    -0.000 C 
BRANCH   8   9
ATOM      9  C   UNL     1     -19.430  46.782  -6.941  1.00  0.00    -0.000 C 
BRANCH   9  10
ATOM     10  C   UNL     1     -18.992  46.089  -5.641  1.00  0.00    -0.000 C 
BRANCH  10  11
ATOM     11  C   UNL     1     -18.892  44.564  -5.791  1.00  0.00    -0.003 C 
ATOM     12  C   UNL     1     -20.058  43.866  -5.098  1.00  0.00     0.004 C 
ENDBRANCH  10  11
ENDBRANCH   9  10
ENDBRANCH   8   9
ENDBRANCH   7   8
ENDBRANCH   6   7
ENDBRANCH   5   6
ENDBRANCH   4   5
ENDBRANCH   3   4
ENDBRANCH   2   3
ENDBRANCH   1   2
BRANCH   1  13
ATOM     13  C   UNL     1     -15.715  43.860  -9.817  1.00  0.00     0.000 C 
BRANCH  13  14
ATOM     14  C   UNL     1     -15.998  44.778 -11.026  1.00  0.00     0.000 C 
BRANCH  14  15
ATOM     15  C   UNL     1     -17.271  45.629 -10.875  1.00  0.00     0.000 C 
BRANCH  15  16
ATOM     16  C   UNL     1     -16.983  47.058 -10.392  1.00  0.00     0.000 C 
BRANCH  16  17
ATOM     17  C   UNL     1     -15.675  47.592 -10.992  1.00  0.00     0.000 C 
BRANCH  17  18
ATOM     18  C   UNL     1     -14.690  48.073  -9.913  1.00  0.00     0.000 C 
BRANCH  18  19
ATOM     19  C   UNL     1     -15.229  47.865  -8.490  1.00  0.00     0.000 C 
BRANCH  19  20
ATOM     20  C   UNL     1     -14.366  46.860  -7.718  1.00  0.00     0.006 C 
BRANCH  20  21
ATOM     21  C   UNL     1     -15.216  46.031  -6.750  1.00  0.00     0.053 C 
BRANCH  21  22
ATOM     22  C   UNL     1     -14.999  46.486  -5.342  1.00  0.00     0.041 C 
ATOM     23  O   UNL     1     -15.860  47.205  -4.768  1.00  0.00    -0.550 OA
ATOM     24  O   UNL     1     -13.875  46.066  -4.642  1.00  0.00    -0.550 OA
ENDBRANCH  21  22
ENDBRANCH  20  21
ENDBRANCH  19  20
ENDBRANCH  18  19
ENDBRANCH  17  18
ENDBRANCH  16  17
ENDBRANCH  15  16
ENDBRANCH  14  15
ENDBRANCH  13  14
ENDBRANCH   1  13
TORSDOF 20
ENDMDL
MODEL 4
REMARK VINA RESULT:    -3.357      3.384      6.684
REMARK INTER + INTRA:         -11.048
REMARK INTER:                  -7.965
REMARK INTRA:                  -3.082
REMARK UNBOUND:                -3.767
REMARK SMILES CCCCCCCCCCCCCCCCCCCCCC(=O)[O-]
REMARK SMILES IDX 12 1 11 2 10 3 9 4 8 5 7 6 6 7 5 8 4 9 3 10 2 11 1 12 13 13
REMARK SMILES IDX 14 14 15 15 16 16 17 17 18 18 19 19 20 20 21 21 22 22 23 23
REMARK SMILES IDX 24 24
REMARK H PARENT
REMARK Flexibility Score: inf
ROOT
ATOM      1  C   UNL     1     -18.071  46.570  -5.835  1.00  0.00     0.000 C 
ENDROOT
BRANCH   1   2
ATOM      2  C   UNL     1     -18.471  45.089  -5.743  1.00  0.00     0.000 C 
BRANCH   2   3
ATOM      3  C   UNL     1     -19.771  44.776  -6.507  1.00  0.00     0.000 C 
BRANCH   3   4
ATOM      4  C   UNL     1     -19.985  45.715  -7.706  1.00  0.00    -0.000 C 
BRANCH   4   5
ATOM      5  C   UNL     1     -20.951  45.126  -8.749  1.00  0.00    -0.000 C 
BRANCH   5   6
ATOM      6  C   UNL     1     -20.411  45.238 -10.183  1.00  0.00    -0.000 C 
BRANCH   6   7
ATOM      7  C   UNL     1     -20.169  43.866 -10.832  1.00  0.00    -0.000 C 
BRANCH   7   8
ATOM      8  C   UNL     1     -20.377  42.731  -9.822  1.00  0.00    -0.000 C 
BRANCH   8   9
ATOM      9  C   UNL     1     -19.028  42.177  -9.336  1.00  0.00    -0.000 C 
BRANCH   9  10
ATOM     10  C   UNL     1     -17.833  42.998  -9.846  1.00  0.00    -0.000 C 
BRANCH  10  11
ATOM     11  C   UNL     1     -16.966  43.550  -8.704  1.00  0.00    -0.003 C 
ATOM     12  C   UNL     1     -16.829  42.531  -7.577  1.00  0.00     0.004 C 
ENDBRANCH  10  11
ENDBRANCH   9  10
ENDBRANCH   8   9
ENDBRANCH   7   8
ENDBRANCH   6   7
ENDBRANCH   5   6
ENDBRANCH   4   5
ENDBRANCH   3   4
ENDBRANCH   2   3
ENDBRANCH   1   2
BRANCH   1  13
ATOM     13  C   UNL     1     -16.586  46.807  -5.506  1.00  0.00     0.000 C 
BRANCH  13  14
ATOM     14  C   UNL     1     -15.648  46.028  -6.452  1.00  0.00     0.000 C 
BRANCH  14  15
ATOM     15  C   UNL     1     -14.859  46.924  -7.423  1.00  0.00     0.000 C 
BRANCH  15  16
ATOM     16  C   UNL     1     -15.181  46.641  -8.897  1.00  0.00     0.000 C 
BRANCH  16  17
ATOM     17  C   UNL     1     -16.675  46.844  -9.187  1.00  0.00     0.000 C 
BRANCH  17  18
ATOM     18  C   UNL     1     -16.928  48.010 -10.156  1.00  0.00     0.000 C 
BRANCH  18  19
ATOM     19  C   UNL     1     -15.684  48.371 -10.981  1.00  0.00     0.000 C 
BRANCH  19  20
ATOM     20  C   UNL     1     -15.434  49.884 -10.963  1.00  0.00     0.006 C 
BRANCH  20  21
ATOM     21  C   UNL     1     -14.323  50.248  -9.974  1.00  0.00     0.053 C 
BRANCH  21  22
ATOM     22  C   UNL     1     -14.415  51.690  -9.591  1.00  0.00     0.041 C 
ATOM     23  O   UNL     1     -14.541  52.018  -8.381  1.00  0.00    -0.550 OA
ATOM     24  O   UNL     1     -14.298  52.675 -10.564  1.00  0.00    -0.550 OA
ENDBRANCH  21  22
ENDBRANCH  20  21
ENDBRANCH  19  20
ENDBRANCH  18  19
ENDBRANCH  17  18
ENDBRANCH  16  17
ENDBRANCH  15  16
ENDBRANCH  14  15
ENDBRANCH  13  14
ENDBRANCH   1  13
TORSDOF 20
ENDMDL
MODEL 5
REMARK VINA RESULT:    -3.351      1.590      4.495
REMARK INTER + INTRA:         -11.035
REMARK INTER:                  -7.491
REMARK INTRA:                  -3.544
REMARK UNBOUND:                -3.767
REMARK SMILES CCCCCCCCCCCCCCCCCCCCCC(=O)[O-]
REMARK SMILES IDX 12 1 11 2 10 3 9 4 8 5 7 6 6 7 5 8 4 9 3 10 2 11 1 12 13 13
REMARK SMILES IDX 14 14 15 15 16 16 17 17 18 18 19 19 20 20 21 21 22 22 23 23
REMARK SMILES IDX 24 24
REMARK H PARENT
REMARK Flexibility Score: inf
ROOT
ATOM      1  C   UNL     1     -16.483  44.979  -7.048  1.00  0.00     0.000 C 
ENDROOT
BRANCH   1   2
ATOM      2  C   UNL     1     -16.539  43.444  -7.000  1.00  0.00     0.000 C 
BRANCH   2   3
ATOM      3  C   UNL     1     -16.691  42.811  -8.396  1.00  0.00     0.000 C 
BRANCH   3   4
ATOM      4  C   UNL     1     -16.250  43.763  -9.519  1.00  0.00    -0.000 C 
BRANCH   4   5
ATOM      5  C   UNL     1     -17.358  43.993 -10.563  1.00  0.00    -0.000 C 
BRANCH   5   6
ATOM      6  C   UNL     1     -18.691  43.343 -10.163  1.00  0.00    -0.000 C 
BRANCH   6   7
ATOM      7  C   UNL     1     -19.904  44.219 -10.512  1.00  0.00    -0.000 C 
BRANCH   7   8
ATOM      8  C   UNL     1     -20.549  44.801  -9.249  1.00  0.00    -0.000 C 
BRANCH   8   9
ATOM      9  C   UNL     1     -20.213  43.945  -8.018  1.00  0.00    -0.000 C 
BRANCH   9  10
ATOM     10  C   UNL     1     -20.478  44.681  -6.695  1.00  0.00    -0.000 C 
BRANCH  10  11
ATOM     11  C   UNL     1     -19.742  44.043  -5.508  1.00  0.00    -0.003 C 
ATOM     12  C   UNL     1     -20.726  43.451  -4.504  1.00  0.00     0.004 C 
ENDBRANCH  10  11
ENDBRANCH   9  10
ENDBRANCH   8   9
ENDBRANCH   7   8
ENDBRANCH   6   7
ENDBRANCH   5   6
ENDBRANCH   4   5
ENDBRANCH   3   4
ENDBRANCH   2   3
ENDBRANCH   1   2
BRANCH   1  13
ATOM     13  C   UNL     1     -15.236  45.551  -6.350  1.00  0.00     0.000 C 
BRANCH  13  14
ATOM     14  C   UNL     1     -14.727  46.841  -7.028  1.00  0.00     0.000 C 
BRANCH  14  15
ATOM     15  C   UNL     1     -13.967  46.594  -8.342  1.00  0.00     0.000 C 
BRANCH  15  16
ATOM     16  C   UNL     1     -14.730  47.090  -9.579  1.00  0.00     0.000 C 
BRANCH  16  17
ATOM     17  C   UNL     1     -15.797  48.124  -9.192  1.00  0.00     0.000 C 
BRANCH  17  18
ATOM     18  C   UNL     1     -17.205  47.709  -9.652  1.00  0.00     0.000 C 
BRANCH  18  19
ATOM     19  C   UNL     1     -18.045  47.114  -8.513  1.00  0.00     0.000 C 
BRANCH  19  20
ATOM     20  C   UNL     1     -18.106  48.073  -7.318  1.00  0.00     0.006 C 
BRANCH  20  21
ATOM     21  C   UNL     1     -18.943  47.483  -6.179  1.00  0.00     0.053 C 
BRANCH  21  22
ATOM     22  C   UNL     1     -18.316  47.788  -4.856  1.00  0.00     0.041 C 
ATOM     23  O   UNL     1     -17.118  47.468  -4.633  1.00  0.00    -0.550 OA
ATOM     24  O   UNL     1     -19.035  48.480  -3.890  1.00  0.00    -0.550 OA
ENDBRANCH  21  22
ENDBRANCH  20  21
ENDBRANCH  19  20
ENDBRANCH  18  19
ENDBRANCH  17  18
ENDBRANCH  16  17
ENDBRANCH  15  16
ENDBRANCH  14  15
ENDBRANCH  13  14
ENDBRANCH   1  13
TORSDOF 20
ENDMDL
MODEL 6
REMARK VINA RESULT:    -3.326      3.164      6.377
REMARK INTER + INTRA:         -10.981
REMARK INTER:                  -7.660
REMARK INTRA:                  -3.321
REMARK UNBOUND:                -3.767
REMARK SMILES CCCCCCCCCCCCCCCCCCCCCC(=O)[O-]
REMARK SMILES IDX 12 1 11 2 10 3 9 4 8 5 7 6 6 7 5 8 4 9 3 10 2 11 1 12 13 13
REMARK SMILES IDX 14 14 15 15 16 16 17 17 18 18 19 19 20 20 21 21 22 22 23 23
REMARK SMILES IDX 24 24
REMARK H PARENT
REMARK Flexibility Score: inf
ROOT
ATOM      1  C   UNL     1     -19.861  45.636  -5.757  1.00  0.00     0.000 C 
ENDROOT
BRANCH   1   2
ATOM      2  C   UNL     1     -19.906  44.623  -6.912  1.00  0.00     0.000 C 
BRANCH   2   3
ATOM      3  C   UNL     1     -20.854  45.057  -8.045  1.00  0.00     0.000 C 
BRANCH   3   4
ATOM      4  C   UNL     1     -20.533  44.357  -9.375  1.00  0.00    -0.000 C 
BRANCH   4   5
ATOM      5  C   UNL     1     -20.268  42.852  -9.199  1.00  0.00    -0.000 C 
BRANCH   5   6
ATOM      6  C   UNL     1     -18.852  42.446  -9.635  1.00  0.00    -0.000 C 
BRANCH   6   7
ATOM      7  C   UNL     1     -17.939  43.658  -9.882  1.00  0.00    -0.000 C 
BRANCH   7   8
ATOM      8  C   UNL     1     -16.531  43.413  -9.327  1.00  0.00    -0.000 C 
BRANCH   8   9
ATOM      9  C   UNL     1     -16.588  43.026  -7.841  1.00  0.00    -0.000 C 
BRANCH   9  10
ATOM     10  C   UNL     1     -16.563  44.249  -6.911  1.00  0.00    -0.000 C 
BRANCH  10  11
ATOM     11  C   UNL     1     -15.450  45.244  -7.274  1.00  0.00    -0.003 C 
ATOM     12  C   UNL     1     -15.039  46.077  -6.064  1.00  0.00     0.004 C 
ENDBRANCH  10  11
ENDBRANCH   9  10
ENDBRANCH   8   9
ENDBRANCH   7   8
ENDBRANCH   6   7
ENDBRANCH   5   6
ENDBRANCH   4   5
ENDBRANCH   3   4
ENDBRANCH   2   3
ENDBRANCH   1   2
BRANCH   1  13
ATOM     13  C   UNL     1     -18.680  46.617  -5.872  1.00  0.00     0.000 C 
BRANCH  13  14
ATOM     14  C   UNL     1     -18.885  47.648  -7.002  1.00  0.00     0.000 C 
BRANCH  14  15
ATOM     15  C   UNL     1     -17.670  47.801  -7.933  1.00  0.00     0.000 C 
BRANCH  15  16
ATOM     16  C   UNL     1     -17.753  46.907  -9.179  1.00  0.00     0.000 C 
BRANCH  16  17
ATOM     17  C   UNL     1     -17.324  47.672 -10.438  1.00  0.00     0.000 C 
BRANCH  17  18
ATOM     18  C   UNL     1     -16.087  47.049 -11.108  1.00  0.00     0.000 C 
BRANCH  18  19
ATOM     19  C   UNL     1     -14.818  47.203 -10.258  1.00  0.00     0.000 C 
BRANCH  19  20
ATOM     20  C   UNL     1     -14.180  48.581 -10.470  1.00  0.00     0.006 C 
BRANCH  20  21
ATOM     21  C   UNL     1     -14.272  49.434  -9.201  1.00  0.00     0.053 C 
BRANCH  21  22
ATOM     22  C   UNL     1     -14.974  50.723  -9.486  1.00  0.00     0.041 C 
ATOM     23  O   UNL     1     -14.771  51.730  -8.756  1.00  0.00    -0.550 OA
ATOM     24  O   UNL     1     -15.804  50.831 -10.595  1.00  0.00    -0.550 OA
ENDBRANCH  21  22
ENDBRANCH  20  21
ENDBRANCH  19  20
ENDBRANCH  18  19
ENDBRANCH  17  18
ENDBRANCH  16  17
ENDBRANCH  15  16
ENDBRANCH  14  15
ENDBRANCH  13  14
ENDBRANCH   1  13
TORSDOF 20
ENDMDL
MODEL 7
REMARK VINA RESULT:    -3.321      1.742      5.162
REMARK INTER + INTRA:         -10.970
REMARK INTER:                  -7.543
REMARK INTRA:                  -3.427
REMARK UNBOUND:                -3.767
REMARK SMILES CCCCCCCCCCCCCCCCCCCCCC(=O)[O-]
REMARK SMILES IDX 12 1 11 2 10 3 9 4 8 5 7 6 6 7 5 8 4 9 3 10 2 11 1 12 13 13
REMARK SMILES IDX 14 14 15 15 16 16 17 17 18 18 19 19 20 20 21 21 22 22 23 23
REMARK SMILES IDX 24 24
REMARK H PARENT
REMARK Flexibility Score: inf
ROOT
ATOM      1  C   UNL     1     -16.372  43.696  -8.500  1.00  0.00     0.000 C 
ENDROOT
BRANCH   1   2
ATOM      2  C   UNL     1     -17.627  42.921  -8.070  1.00  0.00     0.000 C 
BRANCH   2   3
ATOM      3  C   UNL     1     -18.213  42.062  -9.206  1.00  0.00     0.000 C 
BRANCH   3   4
ATOM      4  C   UNL     1     -19.640  42.487  -9.584  1.00  0.00    -0.000 C 
BRANCH   4   5
ATOM      5  C   UNL     1     -19.668  43.464 -10.773  1.00  0.00    -0.000 C 
BRANCH   5   6
ATOM      6  C   UNL     1     -20.344  44.799 -10.425  1.00  0.00    -0.000 C 
BRANCH   6   7
ATOM      7  C   UNL     1     -19.871  45.368  -9.078  1.00  0.00    -0.000 C 
BRANCH   7   8
ATOM      8  C   UNL     1     -21.037  45.495  -8.090  1.00  0.00    -0.000 C 
BRANCH   8   9
ATOM      9  C   UNL     1     -20.976  44.387  -7.027  1.00  0.00    -0.000 C 
BRANCH   9  10
ATOM     10  C   UNL     1     -20.090  44.765  -5.829  1.00  0.00    -0.000 C 
BRANCH  10  11
ATOM     11  C   UNL     1     -19.700  43.548  -4.977  1.00  0.00    -0.003 C 
ATOM     12  C   UNL     1     -20.852  43.115  -4.075  1.00  0.00     0.004 C 
ENDBRANCH  10  11
ENDBRANCH   9  10
ENDBRANCH   8   9
ENDBRANCH   7   8
ENDBRANCH   6   7
ENDBRANCH   5   6
ENDBRANCH   4   5
ENDBRANCH   3   4
ENDBRANCH   2   3
ENDBRANCH   1   2
BRANCH   1  13
ATOM     13  C   UNL     1     -16.214  43.770 -10.029  1.00  0.00     0.000 C 
BRANCH  13  14
ATOM     14  C   UNL     1     -15.732  45.159 -10.500  1.00  0.00     0.000 C 
BRANCH  14  15
ATOM     15  C   UNL     1     -16.724  46.296 -10.202  1.00  0.00     0.000 C 
BRANCH  15  16
ATOM     16  C   UNL     1     -16.033  47.602  -9.783  1.00  0.00     0.000 C 
BRANCH  16  17
ATOM     17  C   UNL     1     -14.623  47.331  -9.240  1.00  0.00     0.000 C 
BRANCH  17  18
ATOM     18  C   UNL     1     -14.515  47.609  -7.731  1.00  0.00     0.000 C 
BRANCH  18  19
ATOM     19  C   UNL     1     -14.671  46.337  -6.886  1.00  0.00     0.000 C 
BRANCH  19  20
ATOM     20  C   UNL     1     -15.518  46.608  -5.638  1.00  0.00     0.006 C 
BRANCH  20  21
ATOM     21  C   UNL     1     -16.969  46.163  -5.847  1.00  0.00     0.053 C 
BRANCH  21  22
ATOM     22  C   UNL     1     -17.875  47.351  -5.916  1.00  0.00     0.041 C 
ATOM     23  O   UNL     1     -18.302  47.759  -7.030  1.00  0.00    -0.550 OA
ATOM     24  O   UNL     1     -18.298  47.970  -4.747  1.00  0.00    -0.550 OA
ENDBRANCH  21  22
ENDBRANCH  20  21
ENDBRANCH  19  20
ENDBRANCH  18  19
ENDBRANCH  17  18
ENDBRANCH  16  17
ENDBRANCH  15  16
ENDBRANCH  14  15
ENDBRANCH  13  14
ENDBRANCH   1  13
TORSDOF 20
ENDMDL
MODEL 8
REMARK VINA RESULT:    -3.228      3.120      6.596
REMARK INTER + INTRA:         -10.769
REMARK INTER:                  -7.648
REMARK INTRA:                  -3.121
REMARK UNBOUND:                -3.767
REMARK SMILES CCCCCCCCCCCCCCCCCCCCCC(=O)[O-]
REMARK SMILES IDX 12 1 11 2 10 3 9 4 8 5 7 6 6 7 5 8 4 9 3 10 2 11 1 12 13 13
REMARK SMILES IDX 14 14 15 15 16 16 17 17 18 18 19 19 20 20 21 21 22 22 23 23
REMARK SMILES IDX 24 24
REMARK H PARENT
REMARK Flexibility Score: inf
ROOT
ATOM      1  C   UNL     1     -20.338  44.604  -5.953  1.00  0.00     0.000 C 
ENDROOT
BRANCH   1   2
ATOM      2  C   UNL     1     -20.985  44.594  -7.347  1.00  0.00     0.000 C 
BRANCH   2   3
ATOM      3  C   UNL     1     -20.305  45.569  -8.325  1.00  0.00     0.000 C 
BRANCH   3   4
ATOM      4  C   UNL     1     -20.298  45.041  -9.768  1.00  0.00    -0.000 C 
BRANCH   4   5
ATOM      5  C   UNL     1     -20.543  43.524  -9.840  1.00  0.00    -0.000 C 
BRANCH   5   6
ATOM      6  C   UNL     1     -19.277  42.738 -10.214  1.00  0.00    -0.000 C 
BRANCH   6   7
ATOM      7  C   UNL     1     -18.332  42.538  -9.018  1.00  0.00    -0.000 C 
BRANCH   7   8
ATOM      8  C   UNL     1     -16.947  43.132  -9.301  1.00  0.00    -0.000 C 
BRANCH   8   9
ATOM      9  C   UNL     1     -16.881  43.714 -10.721  1.00  0.00    -0.000 C 
BRANCH   9  10
ATOM     10  C   UNL     1     -15.616  44.556 -10.957  1.00  0.00    -0.000 C 
BRANCH  10  11
ATOM     11  C   UNL     1     -15.913  46.062 -11.010  1.00  0.00    -0.003 C 
ATOM     12  C   UNL     1     -17.119  46.416 -10.145  1.00  0.00     0.004 C 
ENDBRANCH  10  11
ENDBRANCH   9  10
ENDBRANCH   8   9
ENDBRANCH   7   8
ENDBRANCH   6   7
ENDBRANCH   5   6
ENDBRANCH   4   5
ENDBRANCH   3   4
ENDBRANCH   2   3
ENDBRANCH   1   2
BRANCH   1  13
ATOM     13  C   UNL     1     -18.913  45.185  -5.963  1.00  0.00     0.000 C 
BRANCH  13  14
ATOM     14  C   UNL     1     -17.833  44.082  -5.971  1.00  0.00     0.000 C 
BRANCH  14  15
ATOM     15  C   UNL     1     -16.393  44.621  -6.021  1.00  0.00     0.000 C 
BRANCH  15  16
ATOM     16  C   UNL     1     -16.312  46.070  -6.522  1.00  0.00     0.000 C 
BRANCH  16  17
ATOM     17  C   UNL     1     -15.362  46.904  -5.651  1.00  0.00     0.000 C 
BRANCH  17  18
ATOM     18  C   UNL     1     -13.954  47.010  -6.260  1.00  0.00     0.000 C 
BRANCH  18  19
ATOM     19  C   UNL     1     -13.982  47.139  -7.790  1.00  0.00     0.000 C 
BRANCH  19  20
ATOM     20  C   UNL     1     -13.875  48.607  -8.218  1.00  0.00     0.006 C 
BRANCH  20  21
ATOM     21  C   UNL     1     -14.161  48.768  -9.714  1.00  0.00     0.053 C 
BRANCH  21  22
ATOM     22  C   UNL     1     -15.090  49.916  -9.949  1.00  0.00     0.041 C 
ATOM     23  O   UNL     1     -16.007  49.825 -10.810  1.00  0.00    -0.550 OA
ATOM     24  O   UNL     1     -14.984  51.065  -9.176  1.00  0.00    -0.550 OA
ENDBRANCH  21  22
ENDBRANCH  20  21
ENDBRANCH  19  20
ENDBRANCH  18  19
ENDBRANCH  17  18
ENDBRANCH  16  17
ENDBRANCH  15  16
ENDBRANCH  14  15
ENDBRANCH  13  14
ENDBRANCH   1  13
TORSDOF 20
ENDMDL
MODEL 9
REMARK VINA RESULT:    -3.189      2.650      5.705
REMARK INTER + INTRA:         -10.684
REMARK INTER:                  -7.549
REMARK INTRA:                  -3.135
REMARK UNBOUND:                -3.767
REMARK SMILES CCCCCCCCCCCCCCCCCCCCCC(=O)[O-]
REMARK SMILES IDX 12 1 11 2 10 3 9 4 8 5 7 6 6 7 5 8 4 9 3 10 2 11 1 12 13 13
REMARK SMILES IDX 14 14 15 15 16 16 17 17 18 18 19 19 20 20 21 21 22 22 23 23
REMARK SMILES IDX 24 24
REMARK H PARENT
REMARK Flexibility Score: inf
ROOT
ATOM      1  C   UNL     1     -16.563  43.978  -6.912  1.00  0.00     0.000 C 
ENDROOT
BRANCH   1   2
ATOM      2  C   UNL     1     -16.485  43.140  -8.199  1.00  0.00     0.000 C 
BRANCH   2   3
ATOM      3  C   UNL     1     -16.139  43.987  -9.438  1.00  0.00     0.000 C 
BRANCH   3   4
ATOM      4  C   UNL     1     -16.869  43.500 -10.700  1.00  0.00    -0.000 C 
BRANCH   4   5
ATOM      5  C   UNL     1     -18.226  44.197 -10.901  1.00  0.00    -0.000 C 
BRANCH   5   6
ATOM      6  C   UNL     1     -19.384  43.201 -11.060  1.00  0.00    -0.000 C 
BRANCH   6   7
ATOM      7  C   UNL     1     -19.789  42.549  -9.728  1.00  0.00    -0.000 C 
BRANCH   7   8
ATOM      8  C   UNL     1     -20.626  43.509  -8.874  1.00  0.00    -0.000 C 
BRANCH   8   9
ATOM      9  C   UNL     1     -19.815  44.023  -7.674  1.00  0.00    -0.000 C 
BRANCH   9  10
ATOM     10  C   UNL     1     -20.707  44.459  -6.501  1.00  0.00    -0.000 C 
BRANCH  10  11
ATOM     11  C   UNL     1     -20.086  44.131  -5.134  1.00  0.00    -0.003 C 
ATOM     12  C   UNL     1     -20.940  43.125  -4.369  1.00  0.00     0.004 C 
ENDBRANCH  10  11
ENDBRANCH   9  10
ENDBRANCH   8   9
ENDBRANCH   7   8
ENDBRANCH   6   7
ENDBRANCH   5   6
ENDBRANCH   4   5
ENDBRANCH   3   4
ENDBRANCH   2   3
ENDBRANCH   1   2
BRANCH   1  13
ATOM     13  C   UNL     1     -15.625  45.198  -6.939  1.00  0.00     0.000 C 
BRANCH  13  14
ATOM     14  C   UNL     1     -15.994  46.241  -5.862  1.00  0.00     0.000 C 
BRANCH  14  15
ATOM     15  C   UNL     1     -17.489  46.258  -5.499  1.00  0.00     0.000 C 
BRANCH  15  16
ATOM     16  C   UNL     1     -18.151  47.621  -5.749  1.00  0.00     0.000 C 
BRANCH  16  17
ATOM     17  C   UNL     1     -19.035  47.585  -7.003  1.00  0.00     0.000 C 
BRANCH  17  18
ATOM     18  C   UNL     1     -18.292  47.024  -8.226  1.00  0.00     0.000 C 
BRANCH  18  19
ATOM     19  C   UNL     1     -17.250  48.005  -8.782  1.00  0.00     0.000 C 
BRANCH  19  20
ATOM     20  C   UNL     1     -16.600  47.452 -10.056  1.00  0.00     0.006 C 
BRANCH  20  21
ATOM     21  C   UNL     1     -15.551  48.423 -10.607  1.00  0.00     0.053 C 
BRANCH  21  22
ATOM     22  C   UNL     1     -14.511  48.712  -9.572  1.00  0.00     0.041 C 
ATOM     23  O   UNL     1     -14.178  49.901  -9.322  1.00  0.00    -0.550 OA
ATOM     24  O   UNL     1     -13.953  47.672  -8.840  1.00  0.00    -0.550 OA
ENDBRANCH  21  22
ENDBRANCH  20  21
ENDBRANCH  19  20
ENDBRANCH  18  19
ENDBRANCH  17  18
ENDBRANCH  16  17
ENDBRANCH  15  16
ENDBRANCH  14  15
ENDBRANCH  13  14
ENDBRANCH   1  13
TORSDOF 20
ENDMDL
