MODEL 1
REMARK VINA RESULT:    -5.908      0.000      0.000
REMARK INTER + INTRA:         -17.264
REMARK INTER:                 -14.888
REMARK INTRA:                  -2.376
REMARK UNBOUND:                -2.376
REMARK SMILES CCCCCCCCCCCCCCCCCCCCCCCCCCCC(=O)[O-]
REMARK SMILES IDX 15 1 16 2 17 3 18 4 19 5 20 6 21 7 22 8 23 9 24 10 25 11
REMARK SMILES IDX 26 12 27 13 28 14 29 15 30 16 14 17 13 18 12 19 11 20 10 21
REMARK SMILES IDX 9 22 8 23 7 24 6 25 5 26 4 27 3 28 2 29 1 30
REMARK H PARENT
REMARK Flexibility Score: inf
ROOT
ATOM      1  C   UNL     1     -26.871  -0.667  24.186  1.00  0.00     0.000 C 
ENDROOT
BRANCH   1   2
ATOM      2  C   UNL     1     -27.995  -1.134  25.120  1.00  0.00     0.000 C 
BRANCH   2   3
ATOM      3  C   UNL     1     -28.232  -0.154  26.281  1.00  0.00     0.000 C 
BRANCH   3   4
ATOM      4  C   UNL     1     -29.709  -0.087  26.706  1.00  0.00     0.000 C 
BRANCH   4   5
ATOM      5  C   UNL     1     -29.959   0.991  27.782  1.00  0.00     0.000 C 
BRANCH   5   6
ATOM      6  C   UNL     1     -28.988   0.920  28.973  1.00  0.00     0.000 C 
BRANCH   6   7
ATOM      7  C   UNL     1     -29.690   1.083  30.329  1.00  0.00     0.000 C 
BRANCH   7   8
ATOM      8  C   UNL     1     -28.810   1.861  31.316  1.00  0.00     0.000 C 
BRANCH   8   9
ATOM      9  C   UNL     1     -28.443   0.991  32.528  1.00  0.00     0.000 C 
BRANCH   9  10
ATOM     10  C   UNL     1     -28.824   1.657  33.859  1.00  0.00     0.000 C 
BRANCH  10  11
ATOM     11  C   UNL     1     -28.935   3.187  33.736  1.00  0.00     0.000 C 
BRANCH  11  12
ATOM     12  C   UNL     1     -30.366   3.701  34.000  1.00  0.00     0.006 C 
BRANCH  12  13
ATOM     13  C   UNL     1     -31.424   2.587  34.025  1.00  0.00     0.053 C 
BRANCH  13  14
ATOM     14  C   UNL     1     -32.156   2.468  32.725  1.00  0.00     0.041 C 
ATOM     15  O   UNL     1     -32.944   1.506  32.529  1.00  0.00    -0.550 OA
ATOM     16  O   UNL     1     -31.955   3.411  31.724  1.00  0.00    -0.550 OA
ENDBRANCH  13  14
ENDBRANCH  12  13
ENDBRANCH  11  12
ENDBRANCH  10  11
ENDBRANCH   9  10
ENDBRANCH   8   9
ENDBRANCH   7   8
ENDBRANCH   6   7
ENDBRANCH   5   6
ENDBRANCH   4   5
ENDBRANCH   3   4
ENDBRANCH   2   3
ENDBRANCH   1   2
BRANCH   1  17
ATOM     17  C   UNL     1     -27.100   0.777  23.711  1.00  0.00     0.000 C 
BRANCH  17  18
ATOM     18  C   UNL     1     -28.134   0.856  22.577  1.00  0.00     0.000 C 
BRANCH  18  19
ATOM     19  C   UNL     1     -29.465   1.479  23.035  1.00  0.00     0.000 C 
BRANCH  19  20
ATOM     20  C   UNL     1     -30.595   0.443  23.172  1.00  0.00     0.000 C 
BRANCH  20  21
ATOM     21  C   UNL     1     -30.771  -0.493  21.957  1.00  0.00     0.000 C 
BRANCH  21  22
ATOM     22  C   UNL     1     -30.154  -1.899  22.115  1.00  0.00    -0.000 C 
BRANCH  22  23
ATOM     23  C   UNL     1     -28.832  -2.115  21.352  1.00  0.00    -0.000 C 
BRANCH  23  24
ATOM     24  C   UNL     1     -28.995  -2.392  19.844  1.00  0.00    -0.000 C 
BRANCH  24  25
ATOM     25  C   UNL     1     -27.897  -1.786  18.948  1.00  0.00    -0.000 C 
BRANCH  25  26
ATOM     26  C   UNL     1     -28.208  -1.790  17.437  1.00  0.00    -0.000 C 
BRANCH  26  27
ATOM     27  C   UNL     1     -28.840  -3.091  16.907  1.00  0.00    -0.000 C 
BRANCH  27  28
ATOM     28  C   UNL     1     -28.114  -3.723  15.703  1.00  0.00    -0.000 C 
BRANCH  28  29
ATOM     29  C   UNL     1     -28.324  -2.960  14.378  1.00  0.00    -0.003 C 
ATOM     30  C   UNL     1     -27.130  -2.081  14.005  1.00  0.00     0.004 C 
ENDBRANCH  28  29
ENDBRANCH  27  28
ENDBRANCH  26  27
ENDBRANCH  25  26
ENDBRANCH  24  25
ENDBRANCH  23  24
ENDBRANCH  22  23
ENDBRANCH  21  22
ENDBRANCH  20  21
ENDBRANCH  19  20
ENDBRANCH  18  19
ENDBRANCH  17  18
ENDBRANCH   1  17
TORSDOF 26
ENDMDL
MODEL 2
REMARK VINA RESULT:    -5.870      5.270     14.029
REMARK INTER + INTRA:         -17.169
REMARK INTER:                 -14.861
REMARK INTRA:                  -2.308
REMARK UNBOUND:                -2.376
REMARK SMILES CCCCCCCCCCCCCCCCCCCCCCCCCCCC(=O)[O-]
REMARK SMILES IDX 15 1 16 2 17 3 18 4 19 5 20 6 21 7 22 8 23 9 24 10 25 11
REMARK SMILES IDX 26 12 27 13 28 14 29 15 30 16 14 17 13 18 12 19 11 20 10 21
REMARK SMILES IDX 9 22 8 23 7 24 6 25 5 26 4 27 3 28 2 29 1 30
REMARK H PARENT
REMARK Flexibility Score: inf
ROOT
ATOM      1  C   UNL     1     -30.337  -1.250  24.057  1.00  0.00     0.000 C 
ENDROOT
BRANCH   1   2
ATOM      2  C   UNL     1     -29.051  -1.915  24.568  1.00  0.00     0.000 C 
BRANCH   2   3
ATOM      3  C   UNL     1     -27.794  -1.113  24.193  1.00  0.00     0.000 C 
BRANCH   3   4
ATOM      4  C   UNL     1     -27.309  -1.409  22.762  1.00  0.00     0.000 C 
BRANCH   4   5
ATOM      5  C   UNL     1     -27.646  -0.264  21.783  1.00  0.00     0.000 C 
BRANCH   5   6
ATOM      6  C   UNL     1     -28.695  -0.640  20.723  1.00  0.00     0.000 C 
BRANCH   6   7
ATOM      7  C   UNL     1     -28.931  -2.154  20.624  1.00  0.00     0.000 C 
BRANCH   7   8
ATOM      8  C   UNL     1     -28.978  -2.611  19.161  1.00  0.00     0.000 C 
BRANCH   8   9
ATOM      9  C   UNL     1     -28.160  -1.669  18.263  1.00  0.00     0.000 C 
BRANCH   9  10
ATOM     10  C   UNL     1     -28.148  -2.127  16.797  1.00  0.00     0.000 C 
BRANCH  10  11
ATOM     11  C   UNL     1     -28.837  -3.490  16.606  1.00  0.00     0.000 C 
BRANCH  11  12
ATOM     12  C   UNL     1     -28.675  -4.041  15.173  1.00  0.00     0.006 C 
BRANCH  12  13
ATOM     13  C   UNL     1     -27.960  -3.071  14.219  1.00  0.00     0.053 C 
BRANCH  13  14
ATOM     14  C   UNL     1     -26.496  -3.362  14.103  1.00  0.00     0.041 C 
ATOM     15  O   UNL     1     -26.101  -4.535  13.875  1.00  0.00    -0.550 OA
ATOM     16  O   UNL     1     -25.568  -2.340  14.265  1.00  0.00    -0.550 OA
ENDBRANCH  13  14
ENDBRANCH  12  13
ENDBRANCH  11  12
ENDBRANCH  10  11
ENDBRANCH   9  10
ENDBRANCH   8   9
ENDBRANCH   7   8
ENDBRANCH   6   7
ENDBRANCH   5   6
ENDBRANCH   4   5
ENDBRANCH   3   4
ENDBRANCH   2   3
ENDBRANCH   1   2
BRANCH   1  17
ATOM     17  C   UNL     1     -30.739  -0.056  24.937  1.00  0.00     0.000 C 
BRANCH  17  18
ATOM     18  C   UNL     1     -30.658  -0.390  26.436  1.00  0.00     0.000 C 
BRANCH  18  19
ATOM     19  C   UNL     1     -29.526   0.373  27.149  1.00  0.00     0.000 C 
BRANCH  19  20
ATOM     20  C   UNL     1     -30.048   1.452  28.115  1.00  0.00     0.000 C 
BRANCH  20  21
ATOM     21  C   UNL     1     -29.670   1.238  29.596  1.00  0.00     0.000 C 
BRANCH  21  22
ATOM     22  C   UNL     1     -30.571   1.964  30.617  1.00  0.00    -0.000 C 
BRANCH  22  23
ATOM     23  C   UNL     1     -31.096   1.076  31.764  1.00  0.00    -0.000 C 
BRANCH  23  24
ATOM     24  C   UNL     1     -32.193   1.724  32.631  1.00  0.00    -0.000 C 
BRANCH  24  25
ATOM     25  C   UNL     1     -31.716   2.257  33.996  1.00  0.00    -0.000 C 
BRANCH  25  26
ATOM     26  C   UNL     1     -30.945   3.593  33.945  1.00  0.00    -0.000 C 
BRANCH  26  27
ATOM     27  C   UNL     1     -29.418   3.468  34.104  1.00  0.00    -0.000 C 
BRANCH  27  28
ATOM     28  C   UNL     1     -28.608   3.732  32.820  1.00  0.00    -0.000 C 
BRANCH  28  29
ATOM     29  C   UNL     1     -27.364   2.830  32.672  1.00  0.00    -0.003 C 
ATOM     30  C   UNL     1     -27.646   1.369  33.025  1.00  0.00     0.004 C 
ENDBRANCH  28  29
ENDBRANCH  27  28
ENDBRANCH  26  27
ENDBRANCH  25  26
ENDBRANCH  24  25
ENDBRANCH  23  24
ENDBRANCH  22  23
ENDBRANCH  21  22
ENDBRANCH  20  21
ENDBRANCH  19  20
ENDBRANCH  18  19
ENDBRANCH  17  18
ENDBRANCH   1  17
TORSDOF 26
ENDMDL
MODEL 3
REMARK VINA RESULT:    -5.865      4.974     14.092
REMARK INTER + INTRA:         -17.156
REMARK INTER:                 -14.908
REMARK INTRA:                  -2.247
REMARK UNBOUND:                -2.376
REMARK SMILES CCCCCCCCCCCCCCCCCCCCCCCCCCCC(=O)[O-]
REMARK SMILES IDX 15 1 16 2 17 3 18 4 19 5 20 6 21 7 22 8 23 9 24 10 25 11
REMARK SMILES IDX 26 12 27 13 28 14 29 15 30 16 14 17 13 18 12 19 11 20 10 21
REMARK SMILES IDX 9 22 8 23 7 24 6 25 5 26 4 27 3 28 2 29 1 30
REMARK H PARENT
REMARK Flexibility Score: inf
ROOT
ATOM      1  C   UNL     1     -27.860   0.109  24.072  1.00  0.00     0.000 C 
ENDROOT
BRANCH   1   2
ATOM      2  C   UNL     1     -29.245   0.747  23.893  1.00  0.00     0.000 C 
BRANCH   2   3
ATOM      3  C   UNL     1     -30.026   0.123  22.725  1.00  0.00     0.000 C 
BRANCH   3   4
ATOM      4  C   UNL     1     -29.916  -1.412  22.694  1.00  0.00     0.000 C 
BRANCH   4   5
ATOM      5  C   UNL     1     -29.237  -1.922  21.406  1.00  0.00     0.000 C 
BRANCH   5   6
ATOM      6  C   UNL     1     -28.967  -0.822  20.366  1.00  0.00     0.000 C 
BRANCH   6   7
ATOM      7  C   UNL     1     -28.237  -1.341  19.119  1.00  0.00     0.000 C 
BRANCH   7   8
ATOM      8  C   UNL     1     -28.978  -2.533  18.501  1.00  0.00     0.000 C 
BRANCH   8   9
ATOM      9  C   UNL     1     -28.316  -2.970  17.184  1.00  0.00     0.000 C 
BRANCH   9  10
ATOM     10  C   UNL     1     -28.224  -1.820  16.170  1.00  0.00     0.000 C 
BRANCH  10  11
ATOM     11  C   UNL     1     -27.411  -2.207  14.921  1.00  0.00     0.000 C 
BRANCH  11  12
ATOM     12  C   UNL     1     -28.112  -3.283  14.066  1.00  0.00     0.006 C 
BRANCH  12  13
ATOM     13  C   UNL     1     -29.627  -3.066  13.926  1.00  0.00     0.053 C 
BRANCH  13  14
ATOM     14  C   UNL     1     -30.419  -4.196  14.505  1.00  0.00     0.041 C 
ATOM     15  O   UNL     1     -31.665  -4.088  14.648  1.00  0.00    -0.550 OA
ATOM     16  O   UNL     1     -29.778  -5.364  14.902  1.00  0.00    -0.550 OA
ENDBRANCH  13  14
ENDBRANCH  12  13
ENDBRANCH  11  12
ENDBRANCH  10  11
ENDBRANCH   9  10
ENDBRANCH   8   9
ENDBRANCH   7   8
ENDBRANCH   6   7
ENDBRANCH   5   6
ENDBRANCH   4   5
ENDBRANCH   3   4
ENDBRANCH   2   3
ENDBRANCH   1   2
BRANCH   1  17
ATOM     17  C   UNL     1     -27.639  -0.355  25.521  1.00  0.00     0.000 C 
BRANCH  17  18
ATOM     18  C   UNL     1     -28.024   0.730  26.540  1.00  0.00     0.000 C 
BRANCH  18  19
ATOM     19  C   UNL     1     -28.893   0.180  27.685  1.00  0.00     0.000 C 
BRANCH  19  20
ATOM     20  C   UNL     1     -30.066   1.110  28.046  1.00  0.00     0.000 C 
BRANCH  20  21
ATOM     21  C   UNL     1     -30.156   1.497  29.537  1.00  0.00     0.000 C 
BRANCH  21  22
ATOM     22  C   UNL     1     -29.071   0.879  30.444  1.00  0.00    -0.000 C 
BRANCH  22  23
ATOM     23  C   UNL     1     -28.485   1.838  31.500  1.00  0.00    -0.000 C 
BRANCH  23  24
ATOM     24  C   UNL     1     -28.041   1.161  32.812  1.00  0.00    -0.000 C 
BRANCH  24  25
ATOM     25  C   UNL     1     -28.705   1.714  34.087  1.00  0.00    -0.000 C 
BRANCH  25  26
ATOM     26  C   UNL     1     -29.127   3.196  34.017  1.00  0.00    -0.000 C 
BRANCH  26  27
ATOM     27  C   UNL     1     -30.648   3.440  34.023  1.00  0.00    -0.000 C 
BRANCH  27  28
ATOM     28  C   UNL     1     -31.325   3.353  32.641  1.00  0.00    -0.000 C 
BRANCH  28  29
ATOM     29  C   UNL     1     -32.425   2.275  32.554  1.00  0.00    -0.003 C 
ATOM     30  C   UNL     1     -32.098   1.027  33.373  1.00  0.00     0.004 C 
ENDBRANCH  28  29
ENDBRANCH  27  28
ENDBRANCH  26  27
ENDBRANCH  25  26
ENDBRANCH  24  25
ENDBRANCH  23  24
ENDBRANCH  22  23
ENDBRANCH  21  22
ENDBRANCH  20  21
ENDBRANCH  19  20
ENDBRANCH  18  19
ENDBRANCH  17  18
ENDBRANCH   1  17
TORSDOF 26
ENDMDL
MODEL 4
REMARK VINA RESULT:    -5.763      5.057     13.305
REMARK INTER + INTRA:         -16.899
REMARK INTER:                 -13.862
REMARK INTRA:                  -3.037
REMARK UNBOUND:                -2.376
REMARK SMILES CCCCCCCCCCCCCCCCCCCCCCCCCCCC(=O)[O-]
REMARK SMILES IDX 15 1 16 2 17 3 18 4 19 5 20 6 21 7 22 8 23 9 24 10 25 11
REMARK SMILES IDX 26 12 27 13 28 14 29 15 30 16 14 17 13 18 12 19 11 20 10 21
REMARK SMILES IDX 9 22 8 23 7 24 6 25 5 26 4 27 3 28 2 29 1 30
REMARK H PARENT
REMARK Flexibility Score: inf
ROOT
ATOM      1  C   UNL     1     -30.854   0.049  25.186  1.00  0.00     0.000 C 
ENDROOT
BRANCH   1   2
ATOM      2  C   UNL     1     -30.834   0.231  23.662  1.00  0.00     0.000 C 
BRANCH   2   3
ATOM      3  C   UNL     1     -30.785  -1.114  22.917  1.00  0.00     0.000 C 
BRANCH   3   4
ATOM      4  C   UNL     1     -30.040  -2.202  23.710  1.00  0.00     0.000 C 
BRANCH   4   5
ATOM      5  C   UNL     1     -28.601  -2.418  23.196  1.00  0.00     0.000 C 
BRANCH   5   6
ATOM      6  C   UNL     1     -27.703  -1.175  23.317  1.00  0.00     0.000 C 
BRANCH   6   7
ATOM      7  C   UNL     1     -27.127  -0.719  21.969  1.00  0.00     0.000 C 
BRANCH   7   8
ATOM      8  C   UNL     1     -27.588  -1.638  20.831  1.00  0.00     0.000 C 
BRANCH   8   9
ATOM      9  C   UNL     1     -28.630  -0.936  19.945  1.00  0.00     0.000 C 
BRANCH   9  10
ATOM     10  C   UNL     1     -29.634  -1.924  19.334  1.00  0.00     0.000 C 
BRANCH  10  11
ATOM     11  C   UNL     1     -28.946  -2.998  18.473  1.00  0.00     0.000 C 
BRANCH  11  12
ATOM     12  C   UNL     1     -28.490  -2.458  17.102  1.00  0.00     0.006 C 
BRANCH  12  13
ATOM     13  C   UNL     1     -29.343  -2.963  15.927  1.00  0.00     0.053 C 
BRANCH  13  14
ATOM     14  C   UNL     1     -28.710  -4.121  15.221  1.00  0.00     0.041 C 
ATOM     15  O   UNL     1     -29.329  -5.211  15.113  1.00  0.00    -0.550 OA
ATOM     16  O   UNL     1     -27.428  -4.000  14.698  1.00  0.00    -0.550 OA
ENDBRANCH  13  14
ENDBRANCH  12  13
ENDBRANCH  11  12
ENDBRANCH  10  11
ENDBRANCH   9  10
ENDBRANCH   8   9
ENDBRANCH   7   8
ENDBRANCH   6   7
ENDBRANCH   5   6
ENDBRANCH   4   5
ENDBRANCH   3   4
ENDBRANCH   2   3
ENDBRANCH   1   2
BRANCH   1  17
ATOM     17  C   UNL     1     -29.656   0.747  25.849  1.00  0.00     0.000 C 
BRANCH  17  18
ATOM     18  C   UNL     1     -28.830  -0.219  26.714  1.00  0.00     0.000 C 
BRANCH  18  19
ATOM     19  C   UNL     1     -28.632   0.297  28.150  1.00  0.00     0.000 C 
BRANCH  19  20
ATOM     20  C   UNL     1     -29.832   1.114  28.663  1.00  0.00     0.000 C 
BRANCH  20  21
ATOM     21  C   UNL     1     -29.756   1.520  30.150  1.00  0.00     0.000 C 
BRANCH  21  22
ATOM     22  C   UNL     1     -28.804   0.669  31.016  1.00  0.00    -0.000 C 
BRANCH  22  23
ATOM     23  C   UNL     1     -28.249   1.385  32.264  1.00  0.00    -0.000 C 
BRANCH  23  24
ATOM     24  C   UNL     1     -28.509   2.904  32.306  1.00  0.00    -0.000 C 
BRANCH  24  25
ATOM     25  C   UNL     1     -29.045   3.437  33.649  1.00  0.00    -0.000 C 
BRANCH  25  26
ATOM     26  C   UNL     1     -30.568   3.677  33.698  1.00  0.00    -0.000 C 
BRANCH  26  27
ATOM     27  C   UNL     1     -31.305   3.447  32.366  1.00  0.00    -0.000 C 
BRANCH  27  28
ATOM     28  C   UNL     1     -32.507   2.486  32.446  1.00  0.00    -0.000 C 
BRANCH  28  29
ATOM     29  C   UNL     1     -32.421   1.476  33.610  1.00  0.00    -0.003 C 
ATOM     30  C   UNL     1     -31.614   0.227  33.252  1.00  0.00     0.004 C 
ENDBRANCH  28  29
ENDBRANCH  27  28
ENDBRANCH  26  27
ENDBRANCH  25  26
ENDBRANCH  24  25
ENDBRANCH  23  24
ENDBRANCH  22  23
ENDBRANCH  21  22
ENDBRANCH  20  21
ENDBRANCH  19  20
ENDBRANCH  18  19
ENDBRANCH  17  18
ENDBRANCH   1  17
TORSDOF 26
ENDMDL
MODEL 5
REMARK VINA RESULT:    -5.754      4.921     13.373
REMARK INTER + INTRA:         -16.876
REMARK INTER:                 -14.426
REMARK INTRA:                  -2.449
REMARK UNBOUND:                -2.376
REMARK SMILES CCCCCCCCCCCCCCCCCCCCCCCCCCCC(=O)[O-]
REMARK SMILES IDX 15 1 16 2 17 3 18 4 19 5 20 6 21 7 22 8 23 9 24 10 25 11
REMARK SMILES IDX 26 12 27 13 28 14 29 15 30 16 14 17 13 18 12 19 11 20 10 21
REMARK SMILES IDX 9 22 8 23 7 24 6 25 5 26 4 27 3 28 2 29 1 30
REMARK H PARENT
REMARK Flexibility Score: inf
ROOT
ATOM      1  C   UNL     1     -27.799   0.068  25.739  1.00  0.00     0.000 C 
ENDROOT
BRANCH   1   2
ATOM      2  C   UNL     1     -27.210  -1.104  24.943  1.00  0.00     0.000 C 
BRANCH   2   3
ATOM      3  C   UNL     1     -26.504  -0.639  23.659  1.00  0.00     0.000 C 
BRANCH   3   4
ATOM      4  C   UNL     1     -26.984   0.746  23.190  1.00  0.00     0.000 C 
BRANCH   4   5
ATOM      5  C   UNL     1     -27.993   0.651  22.026  1.00  0.00     0.000 C 
BRANCH   5   6
ATOM      6  C   UNL     1     -29.431   0.337  22.472  1.00  0.00     0.000 C 
BRANCH   6   7
ATOM      7  C   UNL     1     -30.058  -0.829  21.696  1.00  0.00     0.000 C 
BRANCH   7   8
ATOM      8  C   UNL     1     -29.108  -2.032  21.643  1.00  0.00     0.000 C 
BRANCH   8   9
ATOM      9  C   UNL     1     -28.928  -2.527  20.199  1.00  0.00     0.000 C 
BRANCH   9  10
ATOM     10  C   UNL     1     -27.989  -1.623  19.386  1.00  0.00     0.000 C 
BRANCH  10  11
ATOM     11  C   UNL     1     -28.292  -1.671  17.878  1.00  0.00     0.000 C 
BRANCH  11  12
ATOM     12  C   UNL     1     -28.734  -3.072  17.406  1.00  0.00     0.006 C 
BRANCH  12  13
ATOM     13  C   UNL     1     -28.276  -3.411  15.978  1.00  0.00     0.053 C 
BRANCH  13  14
ATOM     14  C   UNL     1     -29.394  -3.936  15.132  1.00  0.00     0.041 C 
ATOM     15  O   UNL     1     -29.594  -5.175  15.046  1.00  0.00    -0.550 OA
ATOM     16  O   UNL     1     -30.204  -3.055  14.424  1.00  0.00    -0.550 OA
ENDBRANCH  13  14
ENDBRANCH  12  13
ENDBRANCH  11  12
ENDBRANCH  10  11
ENDBRANCH   9  10
ENDBRANCH   8   9
ENDBRANCH   7   8
ENDBRANCH   6   7
ENDBRANCH   5   6
ENDBRANCH   4   5
ENDBRANCH   3   4
ENDBRANCH   2   3
ENDBRANCH   1   2
BRANCH   1  17
ATOM     17  C   UNL     1     -29.042  -0.363  26.535  1.00  0.00     0.000 C 
BRANCH  17  18
ATOM     18  C   UNL     1     -30.055   0.783  26.691  1.00  0.00     0.000 C 
BRANCH  18  19
ATOM     19  C   UNL     1     -30.299   1.158  28.164  1.00  0.00     0.000 C 
BRANCH  19  20
ATOM     20  C   UNL     1     -29.098   0.832  29.071  1.00  0.00     0.000 C 
BRANCH  20  21
ATOM     21  C   UNL     1     -29.310   1.139  30.568  1.00  0.00     0.000 C 
BRANCH  21  22
ATOM     22  C   UNL     1     -28.469   0.286  31.541  1.00  0.00    -0.000 C 
BRANCH  22  23
ATOM     23  C   UNL     1     -28.061   1.002  32.844  1.00  0.00    -0.000 C 
BRANCH  23  24
ATOM     24  C   UNL     1     -26.891   1.995  32.695  1.00  0.00    -0.000 C 
BRANCH  24  25
ATOM     25  C   UNL     1     -27.072   3.331  33.441  1.00  0.00    -0.000 C 
BRANCH  25  26
ATOM     26  C   UNL     1     -28.351   4.115  33.081  1.00  0.00    -0.000 C 
BRANCH  26  27
ATOM     27  C   UNL     1     -29.605   3.714  33.881  1.00  0.00    -0.000 C 
BRANCH  27  28
ATOM     28  C   UNL     1     -30.849   3.404  33.026  1.00  0.00    -0.000 C 
BRANCH  28  29
ATOM     29  C   UNL     1     -31.915   2.563  33.760  1.00  0.00    -0.003 C 
ATOM     30  C   UNL     1     -31.837   1.076  33.416  1.00  0.00     0.004 C 
ENDBRANCH  28  29
ENDBRANCH  27  28
ENDBRANCH  26  27
ENDBRANCH  25  26
ENDBRANCH  24  25
ENDBRANCH  23  24
ENDBRANCH  22  23
ENDBRANCH  21  22
ENDBRANCH  20  21
ENDBRANCH  19  20
ENDBRANCH  18  19
ENDBRANCH  17  18
ENDBRANCH   1  17
TORSDOF 26
ENDMDL
MODEL 6
REMARK VINA RESULT:    -5.577      1.924      2.903
REMARK INTER + INTRA:         -16.430
REMARK INTER:                 -14.599
REMARK INTRA:                  -1.831
REMARK UNBOUND:                -2.376
REMARK SMILES CCCCCCCCCCCCCCCCCCCCCCCCCCCC(=O)[O-]
REMARK SMILES IDX 15 1 16 2 17 3 18 4 19 5 20 6 21 7 22 8 23 9 24 10 25 11
REMARK SMILES IDX 26 12 27 13 28 14 29 15 30 16 14 17 13 18 12 19 11 20 10 21
REMARK SMILES IDX 9 22 8 23 7 24 6 25 5 26 4 27 3 28 2 29 1 30
REMARK H PARENT
REMARK Flexibility Score: inf
ROOT
ATOM      1  C   UNL     1     -28.267  -0.876  25.622  1.00  0.00     0.000 C 
ENDROOT
BRANCH   1   2
ATOM      2  C   UNL     1     -28.456   0.015  26.858  1.00  0.00     0.000 C 
BRANCH   2   3
ATOM      3  C   UNL     1     -29.931   0.384  27.089  1.00  0.00     0.000 C 
BRANCH   3   4
ATOM      4  C   UNL     1     -30.135   1.246  28.347  1.00  0.00     0.000 C 
BRANCH   4   5
ATOM      5  C   UNL     1     -29.005   1.047  29.380  1.00  0.00     0.000 C 
BRANCH   5   6
ATOM      6  C   UNL     1     -29.478   1.127  30.842  1.00  0.00     0.000 C 
BRANCH   6   7
ATOM      7  C   UNL     1     -30.830   1.836  30.997  1.00  0.00     0.000 C 
BRANCH   7   8
ATOM      8  C   UNL     1     -31.791   1.012  31.863  1.00  0.00     0.000 C 
BRANCH   8   9
ATOM      9  C   UNL     1     -32.346   1.854  33.023  1.00  0.00     0.000 C 
BRANCH   9  10
ATOM     10  C   UNL     1     -31.287   2.130  34.101  1.00  0.00     0.000 C 
BRANCH  10  11
ATOM     11  C   UNL     1     -30.846   3.605  34.124  1.00  0.00     0.000 C 
BRANCH  11  12
ATOM     12  C   UNL     1     -29.369   3.789  33.720  1.00  0.00     0.006 C 
BRANCH  12  13
ATOM     13  C   UNL     1     -28.474   2.598  34.100  1.00  0.00     0.053 C 
BRANCH  13  14
ATOM     14  C   UNL     1     -27.164   2.617  33.377  1.00  0.00     0.041 C 
ATOM     15  O   UNL     1     -26.460   3.660  33.371  1.00  0.00    -0.550 OA
ATOM     16  O   UNL     1     -26.730   1.487  32.693  1.00  0.00    -0.550 OA
ENDBRANCH  13  14
ENDBRANCH  12  13
ENDBRANCH  11  12
ENDBRANCH  10  11
ENDBRANCH   9  10
ENDBRANCH   8   9
ENDBRANCH   7   8
ENDBRANCH   6   7
ENDBRANCH   5   6
ENDBRANCH   4   5
ENDBRANCH   3   4
ENDBRANCH   2   3
ENDBRANCH   1   2
BRANCH   1  17
ATOM     17  C   UNL     1     -27.864  -0.049  24.391  1.00  0.00     0.000 C 
BRANCH  17  18
ATOM     18  C   UNL     1     -29.044   0.754  23.821  1.00  0.00     0.000 C 
BRANCH  18  19
ATOM     19  C   UNL     1     -30.153  -0.150  23.254  1.00  0.00     0.000 C 
BRANCH  19  20
ATOM     20  C   UNL     1     -29.671  -1.026  22.083  1.00  0.00     0.000 C 
BRANCH  20  21
ATOM     21  C   UNL     1     -28.657  -0.348  21.137  1.00  0.00     0.000 C 
BRANCH  21  22
ATOM     22  C   UNL     1     -28.631  -0.899  19.696  1.00  0.00    -0.000 C 
BRANCH  22  23
ATOM     23  C   UNL     1     -29.232  -2.310  19.531  1.00  0.00    -0.000 C 
BRANCH  23  24
ATOM     24  C   UNL     1     -28.947  -2.978  18.172  1.00  0.00    -0.000 C 
BRANCH  24  25
ATOM     25  C   UNL     1     -28.027  -2.176  17.231  1.00  0.00    -0.000 C 
BRANCH  25  26
ATOM     26  C   UNL     1     -28.132  -2.548  15.738  1.00  0.00    -0.000 C 
BRANCH  26  27
ATOM     27  C   UNL     1     -28.417  -4.035  15.457  1.00  0.00    -0.000 C 
BRANCH  27  28
ATOM     28  C   UNL     1     -28.839  -4.354  14.009  1.00  0.00    -0.000 C 
BRANCH  28  29
ATOM     29  C   UNL     1     -30.309  -4.807  13.875  1.00  0.00    -0.003 C 
ATOM     30  C   UNL     1     -31.243  -4.083  14.845  1.00  0.00     0.004 C 
ENDBRANCH  28  29
ENDBRANCH  27  28
ENDBRANCH  26  27
ENDBRANCH  25  26
ENDBRANCH  24  25
ENDBRANCH  23  24
ENDBRANCH  22  23
ENDBRANCH  21  22
ENDBRANCH  20  21
ENDBRANCH  19  20
ENDBRANCH  18  19
ENDBRANCH  17  18
ENDBRANCH   1  17
TORSDOF 26
ENDMDL
MODEL 7
REMARK VINA RESULT:    -5.574      1.837      2.808
REMARK INTER + INTRA:         -16.422
REMARK INTER:                 -14.026
REMARK INTRA:                  -2.396
REMARK UNBOUND:                -2.376
REMARK SMILES CCCCCCCCCCCCCCCCCCCCCCCCCCCC(=O)[O-]
REMARK SMILES IDX 15 1 16 2 17 3 18 4 19 5 20 6 21 7 22 8 23 9 24 10 25 11
REMARK SMILES IDX 26 12 27 13 28 14 29 15 30 16 14 17 13 18 12 19 11 20 10 21
REMARK SMILES IDX 9 22 8 23 7 24 6 25 5 26 4 27 3 28 2 29 1 30
REMARK H PARENT
REMARK Flexibility Score: inf
ROOT
ATOM      1  C   UNL     1     -27.928  -1.668  24.154  1.00  0.00     0.000 C 
ENDROOT
BRANCH   1   2
ATOM      2  C   UNL     1     -27.532  -0.989  25.472  1.00  0.00     0.000 C 
BRANCH   2   3
ATOM      3  C   UNL     1     -27.762   0.531  25.434  1.00  0.00     0.000 C 
BRANCH   3   4
ATOM      4  C   UNL     1     -29.252   0.900  25.318  1.00  0.00     0.000 C 
BRANCH   4   5
ATOM      5  C   UNL     1     -30.108   0.223  26.409  1.00  0.00     0.000 C 
BRANCH   5   6
ATOM      6  C   UNL     1     -30.123   0.981  27.748  1.00  0.00     0.000 C 
BRANCH   6   7
ATOM      7  C   UNL     1     -28.988   0.555  28.690  1.00  0.00     0.000 C 
BRANCH   7   8
ATOM      8  C   UNL     1     -29.183   1.144  30.092  1.00  0.00     0.000 C 
BRANCH   8   9
ATOM      9  C   UNL     1     -30.598   1.721  30.254  1.00  0.00     0.000 C 
BRANCH   9  10
ATOM     10  C   UNL     1     -30.610   3.005  31.097  1.00  0.00     0.000 C 
BRANCH  10  11
ATOM     11  C   UNL     1     -31.120   2.760  32.528  1.00  0.00     0.000 C 
BRANCH  11  12
ATOM     12  C   UNL     1     -30.065   3.103  33.601  1.00  0.00     0.006 C 
BRANCH  12  13
ATOM     13  C   UNL     1     -28.703   3.508  33.015  1.00  0.00     0.053 C 
BRANCH  13  14
ATOM     14  C   UNL     1     -27.701   2.398  33.088  1.00  0.00     0.041 C 
ATOM     15  O   UNL     1     -28.066   1.234  33.395  1.00  0.00    -0.550 OA
ATOM     16  O   UNL     1     -26.358   2.655  32.833  1.00  0.00    -0.550 OA
ENDBRANCH  13  14
ENDBRANCH  12  13
ENDBRANCH  11  12
ENDBRANCH  10  11
ENDBRANCH   9  10
ENDBRANCH   8   9
ENDBRANCH   7   8
ENDBRANCH   6   7
ENDBRANCH   5   6
ENDBRANCH   4   5
ENDBRANCH   3   4
ENDBRANCH   2   3
ENDBRANCH   1   2
BRANCH   1  17
ATOM     17  C   UNL     1     -29.061  -2.685  24.366  1.00  0.00     0.000 C 
BRANCH  17  18
ATOM     18  C   UNL     1     -30.356  -2.266  23.651  1.00  0.00     0.000 C 
BRANCH  18  19
ATOM     19  C   UNL     1     -30.151  -2.047  22.142  1.00  0.00     0.000 C 
BRANCH  19  20
ATOM     20  C   UNL     1     -30.176  -0.559  21.745  1.00  0.00     0.000 C 
BRANCH  20  21
ATOM     21  C   UNL     1     -28.809   0.030  21.339  1.00  0.00     0.000 C 
BRANCH  21  22
ATOM     22  C   UNL     1     -27.881  -0.931  20.567  1.00  0.00    -0.000 C 
BRANCH  22  23
ATOM     23  C   UNL     1     -28.300  -1.202  19.108  1.00  0.00    -0.000 C 
BRANCH  23  24
ATOM     24  C   UNL     1     -28.814  -2.631  18.839  1.00  0.00    -0.000 C 
BRANCH  24  25
ATOM     25  C   UNL     1     -29.016  -2.981  17.352  1.00  0.00    -0.000 C 
BRANCH  25  26
ATOM     26  C   UNL     1     -28.061  -2.266  16.375  1.00  0.00    -0.000 C 
BRANCH  26  27
ATOM     27  C   UNL     1     -27.394  -3.182  15.332  1.00  0.00    -0.000 C 
BRANCH  27  28
ATOM     28  C   UNL     1     -28.357  -4.124  14.584  1.00  0.00    -0.000 C 
BRANCH  28  29
ATOM     29  C   UNL     1     -29.520  -3.395  13.879  1.00  0.00    -0.003 C 
ATOM     30  C   UNL     1     -30.888  -3.972  14.242  1.00  0.00     0.004 C 
ENDBRANCH  28  29
ENDBRANCH  27  28
ENDBRANCH  26  27
ENDBRANCH  25  26
ENDBRANCH  24  25
ENDBRANCH  23  24
ENDBRANCH  22  23
ENDBRANCH  21  22
ENDBRANCH  20  21
ENDBRANCH  19  20
ENDBRANCH  18  19
ENDBRANCH  17  18
ENDBRANCH   1  17
TORSDOF 26
ENDMDL
MODEL 8
REMARK VINA RESULT:    -5.541      5.047     13.693
REMARK INTER + INTRA:         -16.338
REMARK INTER:                 -13.922
REMARK INTRA:                  -2.416
REMARK UNBOUND:                -2.376
REMARK SMILES CCCCCCCCCCCCCCCCCCCCCCCCCCCC(=O)[O-]
REMARK SMILES IDX 15 1 16 2 17 3 18 4 19 5 20 6 21 7 22 8 23 9 24 10 25 11
REMARK SMILES IDX 26 12 27 13 28 14 29 15 30 16 14 17 13 18 12 19 11 20 10 21
REMARK SMILES IDX 9 22 8 23 7 24 6 25 5 26 4 27 3 28 2 29 1 30
REMARK H PARENT
REMARK Flexibility Score: inf
ROOT
ATOM      1  C   UNL     1     -30.922   0.298  23.797  1.00  0.00     0.000 C 
ENDROOT
BRANCH   1   2
ATOM      2  C   UNL     1     -31.588  -0.325  22.563  1.00  0.00     0.000 C 
BRANCH   2   3
ATOM      3  C   UNL     1     -30.563  -0.722  21.487  1.00  0.00     0.000 C 
BRANCH   3   4
ATOM      4  C   UNL     1     -29.897  -2.078  21.778  1.00  0.00     0.000 C 
BRANCH   4   5
ATOM      5  C   UNL     1     -28.413  -1.927  22.173  1.00  0.00     0.000 C 
BRANCH   5   6
ATOM      6  C   UNL     1     -27.620  -0.975  21.261  1.00  0.00     0.000 C 
BRANCH   6   7
ATOM      7  C   UNL     1     -27.263  -1.602  19.906  1.00  0.00     0.000 C 
BRANCH   7   8
ATOM      8  C   UNL     1     -28.271  -1.193  18.825  1.00  0.00     0.000 C 
BRANCH   8   9
ATOM      9  C   UNL     1     -28.748  -2.417  18.027  1.00  0.00     0.000 C 
BRANCH   9  10
ATOM     10  C   UNL     1     -27.777  -2.789  16.896  1.00  0.00     0.000 C 
BRANCH  10  11
ATOM     11  C   UNL     1     -28.004  -1.943  15.630  1.00  0.00     0.000 C 
BRANCH  11  12
ATOM     12  C   UNL     1     -28.825  -2.689  14.557  1.00  0.00     0.006 C 
BRANCH  12  13
ATOM     13  C   UNL     1     -28.549  -4.200  14.512  1.00  0.00     0.053 C 
BRANCH  13  14
ATOM     14  C   UNL     1     -29.772  -5.011  14.809  1.00  0.00     0.041 C 
ATOM     15  O   UNL     1     -29.757  -5.861  15.736  1.00  0.00    -0.550 OA
ATOM     16  O   UNL     1     -30.922  -4.839  14.047  1.00  0.00    -0.550 OA
ENDBRANCH  13  14
ENDBRANCH  12  13
ENDBRANCH  11  12
ENDBRANCH  10  11
ENDBRANCH   9  10
ENDBRANCH   8   9
ENDBRANCH   7   8
ENDBRANCH   6   7
ENDBRANCH   5   6
ENDBRANCH   4   5
ENDBRANCH   3   4
ENDBRANCH   2   3
ENDBRANCH   1   2
BRANCH   1  17
ATOM     17  C   UNL     1     -30.852  -0.703  24.962  1.00  0.00     0.000 C 
BRANCH  17  18
ATOM     18  C   UNL     1     -29.405  -0.972  25.407  1.00  0.00     0.000 C 
BRANCH  18  19
ATOM     19  C   UNL     1     -28.564   0.315  25.488  1.00  0.00     0.000 C 
BRANCH  19  20
ATOM     20  C   UNL     1     -27.874   0.494  26.852  1.00  0.00     0.000 C 
BRANCH  20  21
ATOM     21  C   UNL     1     -28.752   0.155  28.076  1.00  0.00     0.000 C 
BRANCH  21  22
ATOM     22  C   UNL     1     -29.830   1.203  28.423  1.00  0.00    -0.000 C 
BRANCH  22  23
ATOM     23  C   UNL     1     -29.968   1.516  29.927  1.00  0.00    -0.000 C 
BRANCH  23  24
ATOM     24  C   UNL     1     -28.934   0.815  30.830  1.00  0.00    -0.000 C 
BRANCH  24  25
ATOM     25  C   UNL     1     -28.578   1.573  32.123  1.00  0.00    -0.000 C 
BRANCH  25  26
ATOM     26  C   UNL     1     -28.936   3.074  32.123  1.00  0.00    -0.000 C 
BRANCH  26  27
ATOM     27  C   UNL     1     -29.395   3.633  33.483  1.00  0.00    -0.000 C 
BRANCH  27  28
ATOM     28  C   UNL     1     -30.895   3.451  33.788  1.00  0.00    -0.000 C 
BRANCH  28  29
ATOM     29  C   UNL     1     -31.728   3.001  32.569  1.00  0.00    -0.003 C 
ATOM     30  C   UNL     1     -32.678   1.848  32.893  1.00  0.00     0.004 C 
ENDBRANCH  28  29
ENDBRANCH  27  28
ENDBRANCH  26  27
ENDBRANCH  25  26
ENDBRANCH  24  25
ENDBRANCH  23  24
ENDBRANCH  22  23
ENDBRANCH  21  22
ENDBRANCH  20  21
ENDBRANCH  19  20
ENDBRANCH  18  19
ENDBRANCH  17  18
ENDBRANCH   1  17
TORSDOF 26
ENDMDL
MODEL 9
REMARK VINA RESULT:    -5.498      1.238      2.319
REMARK INTER + INTRA:         -16.231
REMARK INTER:                 -14.231
REMARK INTRA:                  -2.000
REMARK UNBOUND:                -2.376
REMARK SMILES CCCCCCCCCCCCCCCCCCCCCCCCCCCC(=O)[O-]
REMARK SMILES IDX 15 1 16 2 17 3 18 4 19 5 20 6 21 7 22 8 23 9 24 10 25 11
REMARK SMILES IDX 26 12 27 13 28 14 29 15 30 16 14 17 13 18 12 19 11 20 10 21
REMARK SMILES IDX 9 22 8 23 7 24 6 25 5 26 4 27 3 28 2 29 1 30
REMARK H PARENT
REMARK Flexibility Score: inf
ROOT
ATOM      1  C   UNL     1     -29.122  -1.085  25.207  1.00  0.00     0.000 C 
ENDROOT
BRANCH   1   2
ATOM      2  C   UNL     1     -29.019  -0.401  26.577  1.00  0.00     0.000 C 
BRANCH   2   3
ATOM      3  C   UNL     1     -30.330   0.294  26.980  1.00  0.00     0.000 C 
BRANCH   3   4
ATOM      4  C   UNL     1     -30.128   1.332  28.098  1.00  0.00     0.000 C 
BRANCH   4   5
ATOM      5  C   UNL     1     -29.114   0.858  29.160  1.00  0.00     0.000 C 
BRANCH   5   6
ATOM      6  C   UNL     1     -29.357   1.447  30.560  1.00  0.00     0.000 C 
BRANCH   6   7
ATOM      7  C   UNL     1     -28.978   0.481  31.691  1.00  0.00     0.000 C 
BRANCH   7   8
ATOM      8  C   UNL     1     -28.105   1.176  32.742  1.00  0.00     0.000 C 
BRANCH   8   9
ATOM      9  C   UNL     1     -27.409   2.412  32.150  1.00  0.00     0.000 C 
BRANCH   9  10
ATOM     10  C   UNL     1     -27.927   3.721  32.763  1.00  0.00     0.000 C 
BRANCH  10  11
ATOM     11  C   UNL     1     -28.791   3.479  34.014  1.00  0.00     0.000 C 
BRANCH  11  12
ATOM     12  C   UNL     1     -30.282   3.798  33.777  1.00  0.00     0.006 C 
BRANCH  12  13
ATOM     13  C   UNL     1     -31.215   2.605  34.041  1.00  0.00     0.053 C 
BRANCH  13  14
ATOM     14  C   UNL     1     -32.158   2.358  32.905  1.00  0.00     0.041 C 
ATOM     15  O   UNL     1     -32.081   3.051  31.857  1.00  0.00    -0.550 OA
ATOM     16  O   UNL     1     -33.133   1.373  33.011  1.00  0.00    -0.550 OA
ENDBRANCH  13  14
ENDBRANCH  12  13
ENDBRANCH  11  12
ENDBRANCH  10  11
ENDBRANCH   9  10
ENDBRANCH   8   9
ENDBRANCH   7   8
ENDBRANCH   6   7
ENDBRANCH   5   6
ENDBRANCH   4   5
ENDBRANCH   3   4
ENDBRANCH   2   3
ENDBRANCH   1   2
BRANCH   1  17
ATOM     17  C   UNL     1     -30.526  -0.919  24.602  1.00  0.00     0.000 C 
BRANCH  17  18
ATOM     18  C   UNL     1     -30.515  -0.022  23.354  1.00  0.00     0.000 C 
BRANCH  18  19
ATOM     19  C   UNL     1     -31.470  -0.526  22.257  1.00  0.00     0.000 C 
BRANCH  19  20
ATOM     20  C   UNL     1     -30.729  -1.122  21.046  1.00  0.00     0.000 C 
BRANCH  20  21
ATOM     21  C   UNL     1     -29.198  -1.229  21.207  1.00  0.00     0.000 C 
BRANCH  21  22
ATOM     22  C   UNL     1     -28.535  -2.395  20.445  1.00  0.00    -0.000 C 
BRANCH  22  23
ATOM     23  C   UNL     1     -29.052  -2.605  19.007  1.00  0.00    -0.000 C 
BRANCH  23  24
ATOM     24  C   UNL     1     -28.237  -1.884  17.916  1.00  0.00    -0.000 C 
BRANCH  24  25
ATOM     25  C   UNL     1     -28.512  -2.358  16.476  1.00  0.00    -0.000 C 
BRANCH  25  26
ATOM     26  C   UNL     1     -27.343  -3.100  15.795  1.00  0.00    -0.000 C 
BRANCH  26  27
ATOM     27  C   UNL     1     -27.697  -3.786  14.462  1.00  0.00    -0.000 C 
BRANCH  27  28
ATOM     28  C   UNL     1     -29.070  -3.400  13.878  1.00  0.00    -0.000 C 
BRANCH  28  29
ATOM     29  C   UNL     1     -30.093  -4.555  13.875  1.00  0.00    -0.003 C 
ATOM     30  C   UNL     1     -31.184  -4.383  14.933  1.00  0.00     0.004 C 
ENDBRANCH  28  29
ENDBRANCH  27  28
ENDBRANCH  26  27
ENDBRANCH  25  26
ENDBRANCH  24  25
ENDBRANCH  23  24
ENDBRANCH  22  23
ENDBRANCH  21  22
ENDBRANCH  20  21
ENDBRANCH  19  20
ENDBRANCH  18  19
ENDBRANCH  17  18
ENDBRANCH   1  17
TORSDOF 26
ENDMDL
