MODEL 1
REMARK VINA RESULT:    -3.261      0.000      0.000
REMARK INTER + INTRA:          -7.658
REMARK INTER:                  -6.312
REMARK INTRA:                  -1.346
REMARK UNBOUND:                -1.346
REMARK SMILES CCCCCCCCCCCCCCCCCC(=O)[O-]
REMARK SMILES IDX 10 1 11 2 12 3 13 4 14 5 15 6 16 7 17 8 18 9 19 10 20 11
REMARK SMILES IDX 9 12 8 13 7 14 6 15 5 16 4 17 3 18 2 19 1 20
REMARK H PARENT
REMARK Flexibility Score: inf
ROOT
ATOM      1  C   UNL     1      35.658  28.896  19.748  1.00  0.00     0.000 C 
ENDROOT
BRANCH   1   2
ATOM      2  C   UNL     1      34.950  28.599  18.418  1.00  0.00     0.000 C 
BRANCH   2   3
ATOM      3  C   UNL     1      35.223  27.159  17.961  1.00  0.00     0.000 C 
BRANCH   3   4
ATOM      4  C   UNL     1      36.296  27.071  16.859  1.00  0.00     0.000 C 
BRANCH   4   5
ATOM      5  C   UNL     1      36.234  28.187  15.801  1.00  0.00     0.000 C 
BRANCH   5   6
ATOM      6  C   UNL     1      36.188  27.647  14.364  1.00  0.00     0.000 C 
BRANCH   6   7
ATOM      7  C   UNL     1      34.861  26.922  14.093  1.00  0.00     0.006 C 
BRANCH   7   8
ATOM      8  C   UNL     1      33.739  27.891  13.696  1.00  0.00     0.053 C 
BRANCH   8   9
ATOM      9  C   UNL     1      33.907  28.389  12.293  1.00  0.00     0.041 C 
ATOM     10  O   UNL     1      33.888  27.582  11.326  1.00  0.00    -0.550 OA
ATOM     11  O   UNL     1      34.120  29.741  12.056  1.00  0.00    -0.550 OA
ENDBRANCH   8   9
ENDBRANCH   7   8
ENDBRANCH   6   7
ENDBRANCH   5   6
ENDBRANCH   4   5
ENDBRANCH   3   4
ENDBRANCH   2   3
ENDBRANCH   1   2
BRANCH   1  12
ATOM     12  C   UNL     1      36.769  27.881  20.077  1.00  0.00     0.000 C 
BRANCH  12  13
ATOM     13  C   UNL     1      36.490  26.979  21.294  1.00  0.00    -0.000 C 
BRANCH  13  14
ATOM     14  C   UNL     1      35.744  27.711  22.423  1.00  0.00    -0.000 C 
BRANCH  14  15
ATOM     15  C   UNL     1      36.075  27.142  23.813  1.00  0.00    -0.000 C 
BRANCH  15  16
ATOM     16  C   UNL     1      35.669  28.094  24.951  1.00  0.00    -0.000 C 
BRANCH  16  17
ATOM     17  C   UNL     1      34.875  29.312  24.450  1.00  0.00    -0.000 C 
BRANCH  17  18
ATOM     18  C   UNL     1      35.447  30.644  24.965  1.00  0.00    -0.000 C 
BRANCH  18  19
ATOM     19  C   UNL     1      36.762  31.028  24.267  1.00  0.00    -0.003 C 
ATOM     20  C   UNL     1      36.588  31.277  22.768  1.00  0.00     0.004 C 
ENDBRANCH  18  19
ENDBRANCH  17  18
ENDBRANCH  16  17
ENDBRANCH  15  16
ENDBRANCH  14  15
ENDBRANCH  13  14
ENDBRANCH  12  13
ENDBRANCH   1  12
TORSDOF 16
ENDMDL
MODEL 2
REMARK VINA RESULT:    -3.171      1.417      2.561
REMARK INTER + INTRA:          -7.483
REMARK INTER:                  -6.594
REMARK INTRA:                  -0.890
REMARK UNBOUND:                -1.346
REMARK SMILES CCCCCCCCCCCCCCCCCC(=O)[O-]
REMARK SMILES IDX 10 1 11 2 12 3 13 4 14 5 15 6 16 7 17 8 18 9 19 10 20 11
REMARK SMILES IDX 9 12 8 13 7 14 6 15 5 16 4 17 3 18 2 19 1 20
REMARK H PARENT
REMARK Flexibility Score: inf
ROOT
ATOM      1  C   UNL     1      34.421  28.898  17.288  1.00  0.00     0.000 C 
ENDROOT
BRANCH   1   2
ATOM      2  C   UNL     1      35.572  28.580  16.322  1.00  0.00     0.000 C 
BRANCH   2   3
ATOM      3  C   UNL     1      35.547  27.101  15.908  1.00  0.00     0.000 C 
BRANCH   3   4
ATOM      4  C   UNL     1      34.925  26.877  14.517  1.00  0.00     0.000 C 
BRANCH   4   5
ATOM      5  C   UNL     1      35.883  27.097  13.333  1.00  0.00     0.000 C 
BRANCH   5   6
ATOM      6  C   UNL     1      35.210  26.879  11.970  1.00  0.00     0.000 C 
BRANCH   6   7
ATOM      7  C   UNL     1      33.880  27.644  11.887  1.00  0.00     0.006 C 
BRANCH   7   8
ATOM      8  C   UNL     1      34.039  29.127  12.248  1.00  0.00     0.053 C 
BRANCH   8   9
ATOM      9  C   UNL     1      32.868  29.635  13.034  1.00  0.00     0.041 C 
ATOM     10  O   UNL     1      32.420  30.793  12.828  1.00  0.00    -0.550 OA
ATOM     11  O   UNL     1      32.295  28.840  14.018  1.00  0.00    -0.550 OA
ENDBRANCH   8   9
ENDBRANCH   7   8
ENDBRANCH   6   7
ENDBRANCH   5   6
ENDBRANCH   4   5
ENDBRANCH   3   4
ENDBRANCH   2   3
ENDBRANCH   1   2
BRANCH   1  12
ATOM     12  C   UNL     1      34.855  28.878  18.767  1.00  0.00     0.000 C 
BRANCH  12  13
ATOM     13  C   UNL     1      35.046  27.475  19.372  1.00  0.00    -0.000 C 
BRANCH  13  14
ATOM     14  C   UNL     1      36.524  27.127  19.623  1.00  0.00    -0.000 C 
BRANCH  14  15
ATOM     15  C   UNL     1      37.021  27.626  20.990  1.00  0.00    -0.000 C 
BRANCH  15  16
ATOM     16  C   UNL     1      35.902  27.667  22.045  1.00  0.00    -0.000 C 
BRANCH  16  17
ATOM     17  C   UNL     1      36.356  28.313  23.365  1.00  0.00    -0.000 C 
BRANCH  17  18
ATOM     18  C   UNL     1      37.006  29.692  23.155  1.00  0.00    -0.000 C 
BRANCH  18  19
ATOM     19  C   UNL     1      36.998  30.546  24.433  1.00  0.00    -0.003 C 
ATOM     20  C   UNL     1      35.592  30.761  24.996  1.00  0.00     0.004 C 
ENDBRANCH  18  19
ENDBRANCH  17  18
ENDBRANCH  16  17
ENDBRANCH  15  16
ENDBRANCH  14  15
ENDBRANCH  13  14
ENDBRANCH  12  13
ENDBRANCH   1  12
TORSDOF 16
ENDMDL
MODEL 3
REMARK VINA RESULT:    -3.119      1.219      1.489
REMARK INTER + INTRA:          -7.383
REMARK INTER:                  -6.113
REMARK INTRA:                  -1.270
REMARK UNBOUND:                -1.346
REMARK SMILES CCCCCCCCCCCCCCCCCC(=O)[O-]
REMARK SMILES IDX 10 1 11 2 12 3 13 4 14 5 15 6 16 7 17 8 18 9 19 10 20 11
REMARK SMILES IDX 9 12 8 13 7 14 6 15 5 16 4 17 3 18 2 19 1 20
REMARK H PARENT
REMARK Flexibility Score: inf
ROOT
ATOM      1  C   UNL     1      34.841  29.474  19.071  1.00  0.00     0.000 C 
ENDROOT
BRANCH   1   2
ATOM      2  C   UNL     1      34.376  28.478  17.999  1.00  0.00     0.000 C 
BRANCH   2   3
ATOM      3  C   UNL     1      35.211  28.622  16.718  1.00  0.00     0.000 C 
BRANCH   3   4
ATOM      4  C   UNL     1      35.276  27.323  15.893  1.00  0.00     0.000 C 
BRANCH   4   5
ATOM      5  C   UNL     1      36.472  27.224  14.929  1.00  0.00     0.000 C 
BRANCH   5   6
ATOM      6  C   UNL     1      36.049  27.180  13.454  1.00  0.00     0.000 C 
BRANCH   6   7
ATOM      7  C   UNL     1      34.519  27.232  13.320  1.00  0.00     0.006 C 
BRANCH   7   8
ATOM      8  C   UNL     1      34.050  28.414  12.460  1.00  0.00     0.053 C 
BRANCH   8   9
ATOM      9  C   UNL     1      32.976  29.205  13.142  1.00  0.00     0.041 C 
ATOM     10  O   UNL     1      32.235  28.659  14.002  1.00  0.00    -0.550 OA
ATOM     11  O   UNL     1      32.771  30.535  12.802  1.00  0.00    -0.550 OA
ENDBRANCH   8   9
ENDBRANCH   7   8
ENDBRANCH   6   7
ENDBRANCH   5   6
ENDBRANCH   4   5
ENDBRANCH   3   4
ENDBRANCH   2   3
ENDBRANCH   1   2
BRANCH   1  12
ATOM     12  C   UNL     1      35.110  28.808  20.434  1.00  0.00     0.000 C 
BRANCH  12  13
ATOM     13  C   UNL     1      35.529  27.328  20.365  1.00  0.00    -0.000 C 
BRANCH  13  14
ATOM     14  C   UNL     1      36.346  26.879  21.589  1.00  0.00    -0.000 C 
BRANCH  14  15
ATOM     15  C   UNL     1      36.538  28.008  22.615  1.00  0.00    -0.000 C 
BRANCH  15  16
ATOM     16  C   UNL     1      36.338  27.527  24.064  1.00  0.00    -0.000 C 
BRANCH  16  17
ATOM     17  C   UNL     1      36.024  28.680  25.032  1.00  0.00    -0.000 C 
BRANCH  17  18
ATOM     18  C   UNL     1      35.373  29.883  24.327  1.00  0.00    -0.000 C 
BRANCH  18  19
ATOM     19  C   UNL     1      36.266  31.134  24.353  1.00  0.00    -0.003 C 
ATOM     20  C   UNL     1      36.611  31.647  22.954  1.00  0.00     0.004 C 
ENDBRANCH  18  19
ENDBRANCH  17  18
ENDBRANCH  16  17
ENDBRANCH  15  16
ENDBRANCH  14  15
ENDBRANCH  13  14
ENDBRANCH  12  13
ENDBRANCH   1  12
TORSDOF 16
ENDMDL
MODEL 4
REMARK VINA RESULT:    -2.881      4.110      9.336
REMARK INTER + INTRA:          -6.921
REMARK INTER:                  -5.631
REMARK INTRA:                  -1.290
REMARK UNBOUND:                -1.346
REMARK SMILES CCCCCCCCCCCCCCCCCC(=O)[O-]
REMARK SMILES IDX 10 1 11 2 12 3 13 4 14 5 15 6 16 7 17 8 18 9 19 10 20 11
REMARK SMILES IDX 9 12 8 13 7 14 6 15 5 16 4 17 3 18 2 19 1 20
REMARK H PARENT
REMARK Flexibility Score: inf
ROOT
ATOM      1  C   UNL     1      34.741  28.187  15.650  1.00  0.00     0.000 C 
ENDROOT
BRANCH   1   2
ATOM      2  C   UNL     1      36.084  28.841  16.008  1.00  0.00     0.000 C 
BRANCH   2   3
ATOM      3  C   UNL     1      36.176  29.114  17.516  1.00  0.00     0.000 C 
BRANCH   3   4
ATOM      4  C   UNL     1      35.026  28.473  18.315  1.00  0.00     0.000 C 
BRANCH   4   5
ATOM      5  C   UNL     1      35.363  27.121  18.969  1.00  0.00     0.000 C 
BRANCH   5   6
ATOM      6  C   UNL     1      35.984  27.271  20.365  1.00  0.00     0.000 C 
BRANCH   6   7
ATOM      7  C   UNL     1      35.994  28.743  20.806  1.00  0.00     0.006 C 
BRANCH   7   8
ATOM      8  C   UNL     1      36.618  28.929  22.196  1.00  0.00     0.053 C 
BRANCH   8   9
ATOM      9  C   UNL     1      35.693  28.479  23.285  1.00  0.00     0.041 C 
ATOM     10  O   UNL     1      35.956  27.446  23.955  1.00  0.00    -0.550 OA
ATOM     11  O   UNL     1      34.522  29.182  23.536  1.00  0.00    -0.550 OA
ENDBRANCH   8   9
ENDBRANCH   7   8
ENDBRANCH   6   7
ENDBRANCH   5   6
ENDBRANCH   4   5
ENDBRANCH   3   4
ENDBRANCH   2   3
ENDBRANCH   1   2
BRANCH   1  12
ATOM     12  C   UNL     1      34.899  26.926  14.779  1.00  0.00     0.000 C 
BRANCH  12  13
ATOM     13  C   UNL     1      36.179  26.880  13.924  1.00  0.00    -0.000 C 
BRANCH  13  14
ATOM     14  C   UNL     1      35.892  26.877  12.413  1.00  0.00    -0.000 C 
BRANCH  14  15
ATOM     15  C   UNL     1      34.386  26.894  12.101  1.00  0.00    -0.000 C 
BRANCH  15  16
ATOM     16  C   UNL     1      33.981  28.090  11.220  1.00  0.00    -0.000 C 
BRANCH  16  17
ATOM     17  C   UNL     1      33.934  29.412  12.003  1.00  0.00    -0.000 C 
BRANCH  17  18
ATOM     18  C   UNL     1      32.596  29.620  12.733  1.00  0.00    -0.000 C 
BRANCH  18  19
ATOM     19  C   UNL     1      32.348  31.093  13.097  1.00  0.00    -0.003 C 
ATOM     20  C   UNL     1      30.888  31.511  12.914  1.00  0.00     0.004 C 
ENDBRANCH  18  19
ENDBRANCH  17  18
ENDBRANCH  16  17
ENDBRANCH  15  16
ENDBRANCH  14  15
ENDBRANCH  13  14
ENDBRANCH  12  13
ENDBRANCH   1  12
TORSDOF 16
ENDMDL
MODEL 5
REMARK VINA RESULT:    -2.574      4.402      9.668
REMARK INTER + INTRA:          -6.328
REMARK INTER:                  -5.888
REMARK INTRA:                  -0.441
REMARK UNBOUND:                -1.346
REMARK SMILES CCCCCCCCCCCCCCCCCC(=O)[O-]
REMARK SMILES IDX 10 1 11 2 12 3 13 4 14 5 15 6 16 7 17 8 18 9 19 10 20 11
REMARK SMILES IDX 9 12 8 13 7 14 6 15 5 16 4 17 3 18 2 19 1 20
REMARK H PARENT
REMARK Flexibility Score: inf
ROOT
ATOM      1  C   UNL     1      35.486  28.745  18.519  1.00  0.00     0.000 C 
ENDROOT
BRANCH   1   2
ATOM      2  C   UNL     1      35.652  28.394  20.005  1.00  0.00     0.000 C 
BRANCH   2   3
ATOM      3  C   UNL     1      35.499  29.645  20.883  1.00  0.00     0.000 C 
BRANCH   3   4
ATOM      4  C   UNL     1      36.848  30.210  21.365  1.00  0.00     0.000 C 
BRANCH   4   5
ATOM      5  C   UNL     1      36.760  31.548  22.121  1.00  0.00     0.000 C 
BRANCH   5   6
ATOM      6  C   UNL     1      36.778  31.375  23.647  1.00  0.00     0.000 C 
BRANCH   6   7
ATOM      7  C   UNL     1      36.153  30.031  24.054  1.00  0.00     0.006 C 
BRANCH   7   8
ATOM      8  C   UNL     1      35.029  30.201  25.085  1.00  0.00     0.053 C 
BRANCH   8   9
ATOM      9  C   UNL     1      34.091  29.033  25.081  1.00  0.00     0.041 C 
ATOM     10  O   UNL     1      34.541  27.859  25.007  1.00  0.00    -0.550 OA
ATOM     11  O   UNL     1      32.719  29.243  25.124  1.00  0.00    -0.550 OA
ENDBRANCH   8   9
ENDBRANCH   7   8
ENDBRANCH   6   7
ENDBRANCH   5   6
ENDBRANCH   4   5
ENDBRANCH   3   4
ENDBRANCH   2   3
ENDBRANCH   1   2
BRANCH   1  12
ATOM     12  C   UNL     1      35.108  27.528  17.653  1.00  0.00     0.000 C 
BRANCH  12  13
ATOM     13  C   UNL     1      36.199  27.062  16.670  1.00  0.00    -0.000 C 
BRANCH  13  14
ATOM     14  C   UNL     1      36.488  28.091  15.564  1.00  0.00    -0.000 C 
BRANCH  14  15
ATOM     15  C   UNL     1      36.134  27.564  14.163  1.00  0.00    -0.000 C 
BRANCH  15  16
ATOM     16  C   UNL     1      34.664  27.120  14.055  1.00  0.00    -0.000 C 
BRANCH  16  17
ATOM     17  C   UNL     1      33.681  28.299  14.148  1.00  0.00    -0.000 C 
BRANCH  17  18
ATOM     18  C   UNL     1      33.046  28.648  12.791  1.00  0.00    -0.000 C 
BRANCH  18  19
ATOM     19  C   UNL     1      34.065  28.620  11.640  1.00  0.00    -0.003 C 
ATOM     20  C   UNL     1      34.011  27.324  10.830  1.00  0.00     0.004 C 
ENDBRANCH  18  19
ENDBRANCH  17  18
ENDBRANCH  16  17
ENDBRANCH  15  16
ENDBRANCH  14  15
ENDBRANCH  13  14
ENDBRANCH  12  13
ENDBRANCH   1  12
TORSDOF 16
ENDMDL
MODEL 6
REMARK VINA RESULT:    -1.707      1.917      3.852
REMARK INTER + INTRA:          -4.651
REMARK INTER:                  -3.553
REMARK INTRA:                  -1.098
REMARK UNBOUND:                -1.346
REMARK SMILES CCCCCCCCCCCCCCCCCC(=O)[O-]
REMARK SMILES IDX 10 1 11 2 12 3 13 4 14 5 15 6 16 7 17 8 18 9 19 10 20 11
REMARK SMILES IDX 9 12 8 13 7 14 6 15 5 16 4 17 3 18 2 19 1 20
REMARK H PARENT
REMARK Flexibility Score: inf
ROOT
ATOM      1  C   UNL     1      35.238  27.921  16.050  1.00  0.00     0.000 C 
ENDROOT
BRANCH   1   2
ATOM      2  C   UNL     1      35.521  26.889  14.948  1.00  0.00     0.000 C 
BRANCH   2   3
ATOM      3  C   UNL     1      36.133  27.563  13.710  1.00  0.00     0.000 C 
BRANCH   3   4
ATOM      4  C   UNL     1      35.721  26.884  12.391  1.00  0.00     0.000 C 
BRANCH   4   5
ATOM      5  C   UNL     1      34.473  27.481  11.715  1.00  0.00     0.000 C 
BRANCH   5   6
ATOM      6  C   UNL     1      33.425  27.973  12.723  1.00  0.00     0.000 C 
BRANCH   6   7
ATOM      7  C   UNL     1      33.262  29.499  12.645  1.00  0.00     0.006 C 
BRANCH   7   8
ATOM      8  C   UNL     1      32.133  30.010  13.550  1.00  0.00     0.053 C 
BRANCH   8   9
ATOM      9  C   UNL     1      31.650  31.363  13.123  1.00  0.00     0.041 C 
ATOM     10  O   UNL     1      32.281  32.398  13.462  1.00  0.00    -0.550 OA
ATOM     11  O   UNL     1      30.483  31.481  12.380  1.00  0.00    -0.550 OA
ENDBRANCH   8   9
ENDBRANCH   7   8
ENDBRANCH   6   7
ENDBRANCH   5   6
ENDBRANCH   4   5
ENDBRANCH   3   4
ENDBRANCH   2   3
ENDBRANCH   1   2
BRANCH   1  12
ATOM     12  C   UNL     1      36.512  28.627  16.553  1.00  0.00     0.000 C 
BRANCH  12  13
ATOM     13  C   UNL     1      36.574  28.853  18.075  1.00  0.00    -0.000 C 
BRANCH  13  14
ATOM     14  C   UNL     1      35.234  29.324  18.667  1.00  0.00    -0.000 C 
BRANCH  14  15
ATOM     15  C   UNL     1      34.874  28.588  19.968  1.00  0.00    -0.000 C 
BRANCH  15  16
ATOM     16  C   UNL     1      35.987  27.630  20.430  1.00  0.00    -0.000 C 
BRANCH  16  17
ATOM     17  C   UNL     1      36.395  27.859  21.895  1.00  0.00    -0.000 C 
BRANCH  17  18
ATOM     18  C   UNL     1      36.886  29.294  22.154  1.00  0.00    -0.000 C 
BRANCH  18  19
ATOM     19  C   UNL     1      35.994  30.049  23.153  1.00  0.00    -0.003 C 
ATOM     20  C   UNL     1      35.114  29.117  23.986  1.00  0.00     0.004 C 
ENDBRANCH  18  19
ENDBRANCH  17  18
ENDBRANCH  16  17
ENDBRANCH  15  16
ENDBRANCH  14  15
ENDBRANCH  13  14
ENDBRANCH  12  13
ENDBRANCH   1  12
TORSDOF 16
ENDMDL
