MODEL 1
REMARK VINA RESULT:    -3.944      0.000      0.000
REMARK INTER + INTRA:         -10.853
REMARK INTER:                  -9.016
REMARK INTRA:                  -1.838
REMARK UNBOUND:                -1.838
REMARK SMILES CCCCCCCCCCCCCCCCCCCCCCCC(=O)[O-]
REMARK SMILES IDX 13 1 14 2 15 3 16 4 17 5 18 6 19 7 20 8 21 9 22 10 23 11
REMARK SMILES IDX 24 12 25 13 26 14 12 15 11 16 10 17 9 18 8 19 7 20 6 21 5 22
REMARK SMILES IDX 4 23 3 24 2 25 1 26
REMARK H PARENT
REMARK Flexibility Score: inf
ROOT
ATOM      1  C   UNL     1      -7.905  -9.127  -0.431  1.00  0.00     0.000 C 
ENDROOT
BRANCH   1   2
ATOM      2  C   UNL     1      -7.678  -7.617  -0.246  1.00  0.00     0.000 C 
BRANCH   2   3
ATOM      3  C   UNL     1      -7.376  -7.241   1.214  1.00  0.00     0.000 C 
BRANCH   3   4
ATOM      4  C   UNL     1      -5.872  -7.094   1.489  1.00  0.00     0.000 C 
BRANCH   4   5
ATOM      5  C   UNL     1      -5.620  -6.686   2.949  1.00  0.00     0.000 C 
BRANCH   5   6
ATOM      6  C   UNL     1      -4.976  -5.296   3.072  1.00  0.00     0.000 C 
BRANCH   6   7
ATOM      7  C   UNL     1      -4.929  -4.542   1.730  1.00  0.00     0.000 C 
BRANCH   7   8
ATOM      8  C   UNL     1      -5.979  -3.414   1.658  1.00  0.00     0.000 C 
BRANCH   8   9
ATOM      9  C   UNL     1      -6.825  -3.275   2.935  1.00  0.00     0.000 C 
BRANCH   9  10
ATOM     10  C   UNL     1      -8.298  -2.946   2.643  1.00  0.00     0.006 C 
BRANCH  10  11
ATOM     11  C   UNL     1      -9.143  -4.207   2.423  1.00  0.00     0.053 C 
BRANCH  11  12
ATOM     12  C   UNL     1     -10.612  -3.910   2.471  1.00  0.00     0.041 C 
ATOM     13  O   UNL     1     -11.447  -4.850   2.535  1.00  0.00    -0.550 OA
ATOM     14  O   UNL     1     -11.055  -2.593   2.470  1.00  0.00    -0.550 OA
ENDBRANCH  11  12
ENDBRANCH  10  11
ENDBRANCH   9  10
ENDBRANCH   8   9
ENDBRANCH   7   8
ENDBRANCH   6   7
ENDBRANCH   5   6
ENDBRANCH   4   5
ENDBRANCH   3   4
ENDBRANCH   2   3
ENDBRANCH   1   2
BRANCH   1  15
ATOM     15  C   UNL     1      -6.590  -9.916  -0.518  1.00  0.00     0.000 C 
BRANCH  15  16
ATOM     16  C   UNL     1      -6.575 -11.154   0.396  1.00  0.00     0.000 C 
BRANCH  16  17
ATOM     17  C   UNL     1      -6.266 -10.803   1.859  1.00  0.00     0.000 C 
BRANCH  17  18
ATOM     18  C   UNL     1      -6.399 -12.014   2.799  1.00  0.00    -0.000 C 
BRANCH  18  19
ATOM     19  C   UNL     1      -5.684 -13.268   2.263  1.00  0.00    -0.000 C 
BRANCH  19  20
ATOM     20  C   UNL     1      -6.606 -14.457   1.938  1.00  0.00    -0.000 C 
BRANCH  20  21
ATOM     21  C   UNL     1      -6.059 -15.351   0.812  1.00  0.00    -0.000 C 
BRANCH  21  22
ATOM     22  C   UNL     1      -5.840 -16.803   1.266  1.00  0.00    -0.000 C 
BRANCH  22  23
ATOM     23  C   UNL     1      -6.727 -17.804   0.502  1.00  0.00    -0.000 C 
BRANCH  23  24
ATOM     24  C   UNL     1      -6.045 -19.167   0.307  1.00  0.00    -0.000 C 
BRANCH  24  25
ATOM     25  C   UNL     1      -7.051 -20.324   0.236  1.00  0.00    -0.003 C 
ATOM     26  C   UNL     1      -7.371 -20.685  -1.212  1.00  0.00     0.004 C 
ENDBRANCH  24  25
ENDBRANCH  23  24
ENDBRANCH  22  23
ENDBRANCH  21  22
ENDBRANCH  20  21
ENDBRANCH  19  20
ENDBRANCH  18  19
ENDBRANCH  17  18
ENDBRANCH  16  17
ENDBRANCH  15  16
ENDBRANCH   1  15
TORSDOF 22
ENDMDL
MODEL 2
REMARK VINA RESULT:    -3.217      1.206      2.447
REMARK INTER + INTRA:          -9.193
REMARK INTER:                  -7.752
REMARK INTRA:                  -1.441
REMARK UNBOUND:                -1.838
REMARK SMILES CCCCCCCCCCCCCCCCCCCCCCCC(=O)[O-]
REMARK SMILES IDX 13 1 14 2 15 3 16 4 17 5 18 6 19 7 20 8 21 9 22 10 23 11
REMARK SMILES IDX 24 12 25 13 26 14 12 15 11 16 10 17 9 18 8 19 7 20 6 21 5 22
REMARK SMILES IDX 4 23 3 24 2 25 1 26
REMARK H PARENT
REMARK Flexibility Score: inf
ROOT
ATOM      1  C   UNL     1      -7.720  -7.251   1.089  1.00  0.00     0.000 C 
ENDROOT
BRANCH   1   2
ATOM      2  C   UNL     1      -6.451  -7.221   1.960  1.00  0.00     0.000 C 
BRANCH   2   3
ATOM      3  C   UNL     1      -5.522  -6.047   1.604  1.00  0.00     0.000 C 
BRANCH   3   4
ATOM      4  C   UNL     1      -5.727  -4.831   2.518  1.00  0.00     0.000 C 
BRANCH   4   5
ATOM      5  C   UNL     1      -5.999  -3.565   1.690  1.00  0.00     0.000 C 
BRANCH   5   6
ATOM      6  C   UNL     1      -5.226  -2.341   2.209  1.00  0.00     0.000 C 
BRANCH   6   7
ATOM      7  C   UNL     1      -6.147  -1.284   2.845  1.00  0.00     0.000 C 
BRANCH   7   8
ATOM      8  C   UNL     1      -7.475  -1.129   2.076  1.00  0.00     0.000 C 
BRANCH   8   9
ATOM      9  C   UNL     1      -8.717  -1.111   2.985  1.00  0.00     0.000 C 
BRANCH   9  10
ATOM     10  C   UNL     1      -9.413  -2.479   3.072  1.00  0.00     0.006 C 
BRANCH  10  11
ATOM     11  C   UNL     1     -10.865  -2.425   2.581  1.00  0.00     0.053 C 
BRANCH  11  12
ATOM     12  C   UNL     1     -11.442  -3.796   2.393  1.00  0.00     0.041 C 
ATOM     13  O   UNL     1     -12.443  -4.161   3.064  1.00  0.00    -0.550 OA
ATOM     14  O   UNL     1     -10.887  -4.661   1.458  1.00  0.00    -0.550 OA
ENDBRANCH  11  12
ENDBRANCH  10  11
ENDBRANCH   9  10
ENDBRANCH   8   9
ENDBRANCH   7   8
ENDBRANCH   6   7
ENDBRANCH   5   6
ENDBRANCH   4   5
ENDBRANCH   3   4
ENDBRANCH   2   3
ENDBRANCH   1   2
BRANCH   1  15
ATOM     15  C   UNL     1      -7.526  -8.047  -0.211  1.00  0.00     0.000 C 
BRANCH  15  16
ATOM     16  C   UNL     1      -7.527  -9.569   0.016  1.00  0.00     0.000 C 
BRANCH  16  17
ATOM     17  C   UNL     1      -6.324 -10.264  -0.640  1.00  0.00     0.000 C 
BRANCH  17  18
ATOM     18  C   UNL     1      -5.498 -11.088   0.362  1.00  0.00    -0.000 C 
BRANCH  18  19
ATOM     19  C   UNL     1      -6.305 -12.228   1.009  1.00  0.00    -0.000 C 
BRANCH  19  20
ATOM     20  C   UNL     1      -6.065 -12.424   2.517  1.00  0.00    -0.000 C 
BRANCH  20  21
ATOM     21  C   UNL     1      -5.132 -13.607   2.827  1.00  0.00    -0.000 C 
BRANCH  21  22
ATOM     22  C   UNL     1      -5.141 -14.672   1.719  1.00  0.00    -0.000 C 
BRANCH  22  23
ATOM     23  C   UNL     1      -5.764 -16.003   2.179  1.00  0.00    -0.000 C 
BRANCH  23  24
ATOM     24  C   UNL     1      -6.288 -16.845   1.006  1.00  0.00    -0.000 C 
BRANCH  24  25
ATOM     25  C   UNL     1      -6.184 -18.354   1.271  1.00  0.00    -0.003 C 
ATOM     26  C   UNL     1      -6.812 -19.156   0.135  1.00  0.00     0.004 C 
ENDBRANCH  24  25
ENDBRANCH  23  24
ENDBRANCH  22  23
ENDBRANCH  21  22
ENDBRANCH  20  21
ENDBRANCH  19  20
ENDBRANCH  18  19
ENDBRANCH  17  18
ENDBRANCH  16  17
ENDBRANCH  15  16
ENDBRANCH   1  15
TORSDOF 22
ENDMDL
MODEL 3
REMARK VINA RESULT:    -2.963      5.232     12.834
REMARK INTER + INTRA:          -8.612
REMARK INTER:                  -7.747
REMARK INTRA:                  -0.864
REMARK UNBOUND:                -1.838
REMARK SMILES CCCCCCCCCCCCCCCCCCCCCCCC(=O)[O-]
REMARK SMILES IDX 13 1 14 2 15 3 16 4 17 5 18 6 19 7 20 8 21 9 22 10 23 11
REMARK SMILES IDX 24 12 25 13 26 14 12 15 11 16 10 17 9 18 8 19 7 20 6 21 5 22
REMARK SMILES IDX 4 23 3 24 2 25 1 26
REMARK H PARENT
REMARK Flexibility Score: inf
ROOT
ATOM      1  C   UNL     1      -5.524 -10.168   2.009  1.00  0.00     0.000 C 
ENDROOT
BRANCH   1   2
ATOM      2  C   UNL     1      -5.222 -11.675   1.937  1.00  0.00     0.000 C 
BRANCH   2   3
ATOM      3  C   UNL     1      -6.120 -12.407   0.924  1.00  0.00     0.000 C 
BRANCH   3   4
ATOM      4  C   UNL     1      -5.581 -13.795   0.550  1.00  0.00     0.000 C 
BRANCH   4   5
ATOM      5  C   UNL     1      -6.561 -14.897   0.983  1.00  0.00     0.000 C 
BRANCH   5   6
ATOM      6  C   UNL     1      -5.920 -16.295   0.975  1.00  0.00     0.000 C 
BRANCH   6   7
ATOM      7  C   UNL     1      -5.662 -16.836   2.394  1.00  0.00     0.000 C 
BRANCH   7   8
ATOM      8  C   UNL     1      -6.061 -18.320   2.532  1.00  0.00     0.000 C 
BRANCH   8   9
ATOM      9  C   UNL     1      -5.242 -19.267   1.637  1.00  0.00     0.000 C 
BRANCH   9  10
ATOM     10  C   UNL     1      -5.444 -18.994   0.138  1.00  0.00     0.006 C 
BRANCH  10  11
ATOM     11  C   UNL     1      -6.787 -19.530  -0.375  1.00  0.00     0.053 C 
BRANCH  11  12
ATOM     12  C   UNL     1      -6.602 -20.631  -1.377  1.00  0.00     0.041 C 
ATOM     13  O   UNL     1      -5.461 -21.125  -1.572  1.00  0.00    -0.550 OA
ATOM     14  O   UNL     1      -7.697 -21.125  -2.075  1.00  0.00    -0.550 OA
ENDBRANCH  11  12
ENDBRANCH  10  11
ENDBRANCH   9  10
ENDBRANCH   8   9
ENDBRANCH   7   8
ENDBRANCH   6   7
ENDBRANCH   5   6
ENDBRANCH   4   5
ENDBRANCH   3   4
ENDBRANCH   2   3
ENDBRANCH   1   2
BRANCH   1  15
ATOM     15  C   UNL     1      -6.695  -9.755   1.104  1.00  0.00     0.000 C 
BRANCH  15  16
ATOM     16  C   UNL     1      -7.280  -8.381   1.477  1.00  0.00     0.000 C 
BRANCH  16  17
ATOM     17  C   UNL     1      -7.229  -7.383   0.310  1.00  0.00     0.000 C 
BRANCH  17  18
ATOM     18  C   UNL     1      -7.028  -5.932   0.781  1.00  0.00    -0.000 C 
BRANCH  18  19
ATOM     19  C   UNL     1      -6.471  -5.840   2.213  1.00  0.00    -0.000 C 
BRANCH  19  20
ATOM     20  C   UNL     1      -6.021  -4.434   2.650  1.00  0.00    -0.000 C 
BRANCH  20  21
ATOM     21  C   UNL     1      -6.099  -3.399   1.514  1.00  0.00    -0.000 C 
BRANCH  21  22
ATOM     22  C   UNL     1      -6.737  -2.075   1.965  1.00  0.00    -0.000 C 
BRANCH  22  23
ATOM     23  C   UNL     1      -7.795  -2.271   3.067  1.00  0.00    -0.000 C 
BRANCH  23  24
ATOM     24  C   UNL     1      -9.072  -1.455   2.810  1.00  0.00    -0.000 C 
BRANCH  24  25
ATOM     25  C   UNL     1     -10.322  -2.339   2.698  1.00  0.00    -0.003 C 
ATOM     26  C   UNL     1      -9.947  -3.816   2.625  1.00  0.00     0.004 C 
ENDBRANCH  24  25
ENDBRANCH  23  24
ENDBRANCH  22  23
ENDBRANCH  21  22
ENDBRANCH  20  21
ENDBRANCH  19  20
ENDBRANCH  18  19
ENDBRANCH  17  18
ENDBRANCH  16  17
ENDBRANCH  15  16
ENDBRANCH   1  15
TORSDOF 22
ENDMDL
MODEL 4
REMARK VINA RESULT:    -2.882      5.233     12.861
REMARK INTER + INTRA:          -8.426
REMARK INTER:                  -7.096
REMARK INTRA:                  -1.331
REMARK UNBOUND:                -1.838
REMARK SMILES CCCCCCCCCCCCCCCCCCCCCCCC(=O)[O-]
REMARK SMILES IDX 13 1 14 2 15 3 16 4 17 5 18 6 19 7 20 8 21 9 22 10 23 11
REMARK SMILES IDX 24 12 25 13 26 14 12 15 11 16 10 17 9 18 8 19 7 20 6 21 5 22
REMARK SMILES IDX 4 23 3 24 2 25 1 26
REMARK H PARENT
REMARK Flexibility Score: inf
ROOT
ATOM      1  C   UNL     1      -5.175 -10.858   1.988  1.00  0.00     0.000 C 
ENDROOT
BRANCH   1   2
ATOM      2  C   UNL     1      -4.919 -12.351   2.260  1.00  0.00     0.000 C 
BRANCH   2   3
ATOM      3  C   UNL     1      -5.587 -13.262   1.216  1.00  0.00     0.000 C 
BRANCH   3   4
ATOM      4  C   UNL     1      -5.105 -14.718   1.305  1.00  0.00     0.000 C 
BRANCH   4   5
ATOM      5  C   UNL     1      -6.281 -15.667   1.587  1.00  0.00     0.000 C 
BRANCH   5   6
ATOM      6  C   UNL     1      -5.951 -17.131   1.256  1.00  0.00     0.000 C 
BRANCH   6   7
ATOM      7  C   UNL     1      -5.369 -17.895   2.460  1.00  0.00     0.000 C 
BRANCH   7   8
ATOM      8  C   UNL     1      -6.056 -19.260   2.672  1.00  0.00     0.000 C 
BRANCH   8   9
ATOM      9  C   UNL     1      -6.992 -19.666   1.520  1.00  0.00     0.000 C 
BRANCH   9  10
ATOM     10  C   UNL     1      -6.728 -21.092   1.010  1.00  0.00     0.006 C 
BRANCH  10  11
ATOM     11  C   UNL     1      -5.673 -21.125  -0.104  1.00  0.00     0.053 C 
BRANCH  11  12
ATOM     12  C   UNL     1      -6.271 -20.832  -1.448  1.00  0.00     0.041 C 
ATOM     13  O   UNL     1      -7.489 -21.066  -1.664  1.00  0.00    -0.550 OA
ATOM     14  O   UNL     1      -5.487 -20.277  -2.451  1.00  0.00    -0.550 OA
ENDBRANCH  11  12
ENDBRANCH  10  11
ENDBRANCH   9  10
ENDBRANCH   8   9
ENDBRANCH   7   8
ENDBRANCH   6   7
ENDBRANCH   5   6
ENDBRANCH   4   5
ENDBRANCH   3   4
ENDBRANCH   2   3
ENDBRANCH   1   2
BRANCH   1  15
ATOM     15  C   UNL     1      -5.867 -10.613   0.639  1.00  0.00     0.000 C 
BRANCH  15  16
ATOM     16  C   UNL     1      -7.089  -9.684   0.756  1.00  0.00     0.000 C 
BRANCH  16  17
ATOM     17  C   UNL     1      -7.054  -8.534  -0.263  1.00  0.00     0.000 C 
BRANCH  17  18
ATOM     18  C   UNL     1      -6.893  -7.157   0.407  1.00  0.00    -0.000 C 
BRANCH  18  19
ATOM     19  C   UNL     1      -8.090  -6.783   1.300  1.00  0.00    -0.000 C 
BRANCH  19  20
ATOM     20  C   UNL     1      -8.362  -5.273   1.428  1.00  0.00    -0.000 C 
BRANCH  20  21
ATOM     21  C   UNL     1      -7.958  -4.704   2.799  1.00  0.00    -0.000 C 
BRANCH  21  22
ATOM     22  C   UNL     1      -7.913  -3.168   2.810  1.00  0.00    -0.000 C 
BRANCH  22  23
ATOM     23  C   UNL     1      -6.721  -2.603   2.017  1.00  0.00    -0.000 C 
BRANCH  23  24
ATOM     24  C   UNL     1      -5.526  -3.568   1.982  1.00  0.00    -0.000 C 
BRANCH  24  25
ATOM     25  C   UNL     1      -4.875  -3.651   0.593  1.00  0.00    -0.003 C 
ATOM     26  C   UNL     1      -5.193  -2.410  -0.237  1.00  0.00     0.004 C 
ENDBRANCH  24  25
ENDBRANCH  23  24
ENDBRANCH  22  23
ENDBRANCH  21  22
ENDBRANCH  20  21
ENDBRANCH  19  20
ENDBRANCH  18  19
ENDBRANCH  17  18
ENDBRANCH  16  17
ENDBRANCH  15  16
ENDBRANCH   1  15
TORSDOF 22
ENDMDL
MODEL 5
REMARK VINA RESULT:    -2.357     20.767     24.543
REMARK INTER + INTRA:          -7.225
REMARK INTER:                  -3.664
REMARK INTRA:                  -3.561
REMARK UNBOUND:                -1.838
REMARK SMILES CCCCCCCCCCCCCCCCCCCCCCCC(=O)[O-]
REMARK SMILES IDX 13 1 14 2 15 3 16 4 17 5 18 6 19 7 20 8 21 9 22 10 23 11
REMARK SMILES IDX 24 12 25 13 26 14 12 15 11 16 10 17 9 18 8 19 7 20 6 21 5 22
REMARK SMILES IDX 4 23 3 24 2 25 1 26
REMARK H PARENT
REMARK Flexibility Score: inf
ROOT
ATOM      1  C   UNL     1     -19.966  -5.682 -14.807  1.00  0.00     0.000 C 
ENDROOT
BRANCH   1   2
ATOM      2  C   UNL     1     -21.215  -5.680 -15.705  1.00  0.00     0.000 C 
BRANCH   2   3
ATOM      3  C   UNL     1     -22.522  -5.725 -14.895  1.00  0.00     0.000 C 
BRANCH   3   4
ATOM      4  C   UNL     1     -23.772  -5.733 -15.788  1.00  0.00     0.000 C 
BRANCH   4   5
ATOM      5  C   UNL     1     -23.637  -6.775 -16.909  1.00  0.00     0.000 C 
BRANCH   5   6
ATOM      6  C   UNL     1     -24.905  -7.626 -17.081  1.00  0.00     0.000 C 
BRANCH   6   7
ATOM      7  C   UNL     1     -24.634  -9.134 -16.919  1.00  0.00     0.000 C 
BRANCH   7   8
ATOM      8  C   UNL     1     -23.165  -9.425 -16.549  1.00  0.00     0.000 C 
BRANCH   8   9
ATOM      9  C   UNL     1     -22.981 -10.697 -15.702  1.00  0.00     0.000 C 
BRANCH   9  10
ATOM     10  C   UNL     1     -21.834 -10.578 -14.687  1.00  0.00     0.006 C 
BRANCH  10  11
ATOM     11  C   UNL     1     -21.452  -9.118 -14.410  1.00  0.00     0.053 C 
BRANCH  11  12
ATOM     12  C   UNL     1     -20.502  -8.999 -13.256  1.00  0.00     0.041 C 
ATOM     13  O   UNL     1     -19.369  -9.547 -13.308  1.00  0.00    -0.550 OA
ATOM     14  O   UNL     1     -20.860  -8.262 -12.134  1.00  0.00    -0.550 OA
ENDBRANCH  11  12
ENDBRANCH  10  11
ENDBRANCH   9  10
ENDBRANCH   8   9
ENDBRANCH   7   8
ENDBRANCH   6   7
ENDBRANCH   5   6
ENDBRANCH   4   5
ENDBRANCH   3   4
ENDBRANCH   2   3
ENDBRANCH   1   2
BRANCH   1  15
ATOM     15  C   UNL     1     -19.503  -4.265 -14.435  1.00  0.00     0.000 C 
BRANCH  15  16
ATOM     16  C   UNL     1     -19.589  -3.282 -15.615  1.00  0.00     0.000 C 
BRANCH  16  17
ATOM     17  C   UNL     1     -20.313  -1.978 -15.244  1.00  0.00     0.000 C 
BRANCH  17  18
ATOM     18  C   UNL     1     -20.684  -1.136 -16.477  1.00  0.00    -0.000 C 
BRANCH  18  19
ATOM     19  C   UNL     1     -22.205  -0.990 -16.666  1.00  0.00    -0.000 C 
BRANCH  19  20
ATOM     20  C   UNL     1     -23.024  -2.263 -16.382  1.00  0.00    -0.000 C 
BRANCH  20  21
ATOM     21  C   UNL     1     -24.262  -1.998 -15.509  1.00  0.00    -0.000 C 
BRANCH  21  22
ATOM     22  C   UNL     1     -23.924  -1.220 -14.227  1.00  0.00    -0.000 C 
BRANCH  22  23
ATOM     23  C   UNL     1     -24.462  -1.905 -12.958  1.00  0.00    -0.000 C 
BRANCH  23  24
ATOM     24  C   UNL     1     -23.755  -3.237 -12.662  1.00  0.00    -0.000 C 
BRANCH  24  25
ATOM     25  C   UNL     1     -22.277  -3.050 -12.294  1.00  0.00    -0.003 C 
ATOM     26  C   UNL     1     -22.115  -2.037 -11.164  1.00  0.00     0.004 C 
ENDBRANCH  24  25
ENDBRANCH  23  24
ENDBRANCH  22  23
ENDBRANCH  21  22
ENDBRANCH  20  21
ENDBRANCH  19  20
ENDBRANCH  18  19
ENDBRANCH  17  18
ENDBRANCH  16  17
ENDBRANCH  15  16
ENDBRANCH   1  15
TORSDOF 22
ENDMDL
MODEL 6
REMARK VINA RESULT:    -2.286     21.465     25.233
REMARK INTER + INTRA:          -7.063
REMARK INTER:                  -4.961
REMARK INTRA:                  -2.102
REMARK UNBOUND:                -1.838
REMARK SMILES CCCCCCCCCCCCCCCCCCCCCCCC(=O)[O-]
REMARK SMILES IDX 13 1 14 2 15 3 16 4 17 5 18 6 19 7 20 8 21 9 22 10 23 11
REMARK SMILES IDX 24 12 25 13 26 14 12 15 11 16 10 17 9 18 8 19 7 20 6 21 5 22
REMARK SMILES IDX 4 23 3 24 2 25 1 26
REMARK H PARENT
REMARK Flexibility Score: inf
ROOT
ATOM      1  C   UNL     1     -19.727  -5.133 -14.312  1.00  0.00     0.000 C 
ENDROOT
BRANCH   1   2
ATOM      2  C   UNL     1     -21.053  -5.325 -13.556  1.00  0.00     0.000 C 
BRANCH   2   3
ATOM      3  C   UNL     1     -22.159  -5.915 -14.448  1.00  0.00     0.000 C 
BRANCH   3   4
ATOM      4  C   UNL     1     -23.187  -4.864 -14.891  1.00  0.00     0.000 C 
BRANCH   4   5
ATOM      5  C   UNL     1     -24.584  -5.488 -15.029  1.00  0.00     0.000 C 
BRANCH   5   6
ATOM      6  C   UNL     1     -25.059  -5.559 -16.489  1.00  0.00     0.000 C 
BRANCH   6   7
ATOM      7  C   UNL     1     -25.115  -7.001 -17.026  1.00  0.00     0.000 C 
BRANCH   7   8
ATOM      8  C   UNL     1     -23.718  -7.650 -17.098  1.00  0.00     0.000 C 
BRANCH   8   9
ATOM      9  C   UNL     1     -23.752  -9.189 -17.125  1.00  0.00     0.000 C 
BRANCH   9  10
ATOM     10  C   UNL     1     -25.087  -9.765 -16.626  1.00  0.00     0.006 C 
BRANCH  10  11
ATOM     11  C   UNL     1     -24.900 -11.075 -15.849  1.00  0.00     0.053 C 
BRANCH  11  12
ATOM     12  C   UNL     1     -23.493 -11.584 -15.943  1.00  0.00     0.041 C 
ATOM     13  O   UNL     1     -23.171 -12.393 -16.852  1.00  0.00    -0.550 OA
ATOM     14  O   UNL     1     -22.533 -11.145 -15.039  1.00  0.00    -0.550 OA
ENDBRANCH  11  12
ENDBRANCH  10  11
ENDBRANCH   9  10
ENDBRANCH   8   9
ENDBRANCH   7   8
ENDBRANCH   6   7
ENDBRANCH   5   6
ENDBRANCH   4   5
ENDBRANCH   3   4
ENDBRANCH   2   3
ENDBRANCH   1   2
BRANCH   1  15
ATOM     15  C   UNL     1     -19.929  -4.571 -15.727  1.00  0.00     0.000 C 
BRANCH  15  16
ATOM     16  C   UNL     1     -19.068  -3.325 -16.002  1.00  0.00     0.000 C 
BRANCH  16  17
ATOM     17  C   UNL     1     -19.878  -2.021 -15.930  1.00  0.00     0.000 C 
BRANCH  17  18
ATOM     18  C   UNL     1     -21.261  -2.148 -16.592  1.00  0.00    -0.000 C 
BRANCH  18  19
ATOM     19  C   UNL     1     -22.331  -1.274 -15.913  1.00  0.00    -0.000 C 
BRANCH  19  20
ATOM     20  C   UNL     1     -23.786  -1.624 -16.276  1.00  0.00    -0.000 C 
BRANCH  20  21
ATOM     21  C   UNL     1     -24.779  -1.311 -15.144  1.00  0.00    -0.000 C 
BRANCH  21  22
ATOM     22  C   UNL     1     -24.077  -0.989 -13.815  1.00  0.00    -0.000 C 
BRANCH  22  23
ATOM     23  C   UNL     1     -23.681  -2.254 -13.031  1.00  0.00    -0.000 C 
BRANCH  23  24
ATOM     24  C   UNL     1     -22.428  -2.044 -12.167  1.00  0.00    -0.000 C 
BRANCH  24  25
ATOM     25  C   UNL     1     -22.657  -1.034 -11.034  1.00  0.00    -0.003 C 
ATOM     26  C   UNL     1     -21.508  -1.065 -10.030  1.00  0.00     0.004 C 
ENDBRANCH  24  25
ENDBRANCH  23  24
ENDBRANCH  22  23
ENDBRANCH  21  22
ENDBRANCH  20  21
ENDBRANCH  19  20
ENDBRANCH  18  19
ENDBRANCH  17  18
ENDBRANCH  16  17
ENDBRANCH  15  16
ENDBRANCH   1  15
TORSDOF 22
ENDMDL
MODEL 7
REMARK VINA RESULT:    -2.260     20.394     24.236
REMARK INTER + INTRA:          -7.004
REMARK INTER:                  -4.240
REMARK INTRA:                  -2.763
REMARK UNBOUND:                -1.838
REMARK SMILES CCCCCCCCCCCCCCCCCCCCCCCC(=O)[O-]
REMARK SMILES IDX 13 1 14 2 15 3 16 4 17 5 18 6 19 7 20 8 21 9 22 10 23 11
REMARK SMILES IDX 24 12 25 13 26 14 12 15 11 16 10 17 9 18 8 19 7 20 6 21 5 22
REMARK SMILES IDX 4 23 3 24 2 25 1 26
REMARK H PARENT
REMARK Flexibility Score: inf
ROOT
ATOM      1  C   UNL     1     -19.418  -4.640 -14.005  1.00  0.00     0.000 C 
ENDROOT
BRANCH   1   2
ATOM      2  C   UNL     1     -20.162  -4.733 -12.661  1.00  0.00     0.000 C 
BRANCH   2   3
ATOM      3  C   UNL     1     -21.567  -5.342 -12.808  1.00  0.00     0.000 C 
BRANCH   3   4
ATOM      4  C   UNL     1     -22.622  -4.305 -13.219  1.00  0.00     0.000 C 
BRANCH   4   5
ATOM      5  C   UNL     1     -23.944  -4.990 -13.600  1.00  0.00     0.000 C 
BRANCH   5   6
ATOM      6  C   UNL     1     -24.342  -4.738 -15.063  1.00  0.00     0.000 C 
BRANCH   6   7
ATOM      7  C   UNL     1     -24.262  -6.010 -15.927  1.00  0.00     0.000 C 
BRANCH   7   8
ATOM      8  C   UNL     1     -22.934  -6.103 -16.707  1.00  0.00     0.000 C 
BRANCH   8   9
ATOM      9  C   UNL     1     -22.236  -7.468 -16.578  1.00  0.00     0.000 C 
BRANCH   9  10
ATOM     10  C   UNL     1     -21.948  -7.856 -15.119  1.00  0.00     0.006 C 
BRANCH  10  11
ATOM     11  C   UNL     1     -20.449  -7.821 -14.793  1.00  0.00     0.053 C 
BRANCH  11  12
ATOM     12  C   UNL     1     -20.141  -8.523 -13.504  1.00  0.00     0.041 C 
ATOM     13  O   UNL     1     -20.934  -8.437 -12.530  1.00  0.00    -0.550 OA
ATOM     14  O   UNL     1     -18.990  -9.293 -13.390  1.00  0.00    -0.550 OA
ENDBRANCH  11  12
ENDBRANCH  10  11
ENDBRANCH   9  10
ENDBRANCH   8   9
ENDBRANCH   7   8
ENDBRANCH   6   7
ENDBRANCH   5   6
ENDBRANCH   4   5
ENDBRANCH   3   4
ENDBRANCH   2   3
ENDBRANCH   1   2
BRANCH   1  15
ATOM     15  C   UNL     1     -20.259  -3.967 -15.101  1.00  0.00     0.000 C 
BRANCH  15  16
ATOM     16  C   UNL     1     -19.628  -2.662 -15.620  1.00  0.00     0.000 C 
BRANCH  16  17
ATOM     17  C   UNL     1     -20.464  -1.422 -15.268  1.00  0.00     0.000 C 
BRANCH  17  18
ATOM     18  C   UNL     1     -21.539  -1.115 -16.325  1.00  0.00    -0.000 C 
BRANCH  18  19
ATOM     19  C   UNL     1     -22.742  -2.073 -16.252  1.00  0.00    -0.000 C 
BRANCH  19  20
ATOM     20  C   UNL     1     -24.099  -1.446 -16.623  1.00  0.00    -0.000 C 
BRANCH  20  21
ATOM     21  C   UNL     1     -25.023  -1.254 -15.408  1.00  0.00    -0.000 C 
BRANCH  21  22
ATOM     22  C   UNL     1     -24.251  -0.875 -14.134  1.00  0.00    -0.000 C 
BRANCH  22  23
ATOM     23  C   UNL     1     -24.684  -1.702 -12.909  1.00  0.00    -0.000 C 
BRANCH  23  24
ATOM     24  C   UNL     1     -24.093  -1.165 -11.596  1.00  0.00    -0.000 C 
BRANCH  24  25
ATOM     25  C   UNL     1     -22.565  -1.029 -11.650  1.00  0.00    -0.003 C 
ATOM     26  C   UNL     1     -21.894  -1.952 -10.637  1.00  0.00     0.004 C 
ENDBRANCH  24  25
ENDBRANCH  23  24
ENDBRANCH  22  23
ENDBRANCH  21  22
ENDBRANCH  20  21
ENDBRANCH  19  20
ENDBRANCH  18  19
ENDBRANCH  17  18
ENDBRANCH  16  17
ENDBRANCH  15  16
ENDBRANCH   1  15
TORSDOF 22
ENDMDL
MODEL 8
REMARK VINA RESULT:    -1.609      2.354      3.817
REMARK INTER + INTRA:          -5.517
REMARK INTER:                  -3.927
REMARK INTRA:                  -1.589
REMARK UNBOUND:                -1.838
REMARK SMILES CCCCCCCCCCCCCCCCCCCCCCCC(=O)[O-]
REMARK SMILES IDX 13 1 14 2 15 3 16 4 17 5 18 6 19 7 20 8 21 9 22 10 23 11
REMARK SMILES IDX 24 12 25 13 26 14 12 15 11 16 10 17 9 18 8 19 7 20 6 21 5 22
REMARK SMILES IDX 4 23 3 24 2 25 1 26
REMARK H PARENT
REMARK Flexibility Score: inf
ROOT
ATOM      1  C   UNL     1      -8.122  -7.807   1.710  1.00  0.00     0.000 C 
ENDROOT
BRANCH   1   2
ATOM      2  C   UNL     1      -7.460  -6.996   2.838  1.00  0.00     0.000 C 
BRANCH   2   3
ATOM      3  C   UNL     1      -7.951  -5.539   2.882  1.00  0.00     0.000 C 
BRANCH   3   4
ATOM      4  C   UNL     1      -9.476  -5.423   2.747  1.00  0.00     0.000 C 
BRANCH   4   5
ATOM      5  C   UNL     1      -9.867  -4.085   2.099  1.00  0.00     0.000 C 
BRANCH   5   6
ATOM      6  C   UNL     1     -10.011  -2.950   3.125  1.00  0.00     0.000 C 
BRANCH   6   7
ATOM      7  C   UNL     1      -9.365  -1.635   2.649  1.00  0.00     0.000 C 
BRANCH   7   8
ATOM      8  C   UNL     1      -7.894  -1.513   3.097  1.00  0.00     0.000 C 
BRANCH   8   9
ATOM      9  C   UNL     1      -6.902  -1.374   1.928  1.00  0.00     0.000 C 
BRANCH   9  10
ATOM     10  C   UNL     1      -6.163  -2.684   1.613  1.00  0.00     0.006 C 
BRANCH  10  11
ATOM     11  C   UNL     1      -4.958  -2.463   0.689  1.00  0.00     0.053 C 
BRANCH  11  12
ATOM     12  C   UNL     1      -5.240  -2.913  -0.713  1.00  0.00     0.041 C 
ATOM     13  O   UNL     1      -5.204  -4.137  -1.006  1.00  0.00    -0.550 OA
ATOM     14  O   UNL     1      -5.566  -1.980  -1.689  1.00  0.00    -0.550 OA
ENDBRANCH  11  12
ENDBRANCH  10  11
ENDBRANCH   9  10
ENDBRANCH   8   9
ENDBRANCH   7   8
ENDBRANCH   6   7
ENDBRANCH   5   6
ENDBRANCH   4   5
ENDBRANCH   3   4
ENDBRANCH   2   3
ENDBRANCH   1   2
BRANCH   1  15
ATOM     15  C   UNL     1      -7.160  -8.097   0.548  1.00  0.00     0.000 C 
BRANCH  15  16
ATOM     16  C   UNL     1      -7.479  -9.418  -0.175  1.00  0.00     0.000 C 
BRANCH  16  17
ATOM     17  C   UNL     1      -6.217 -10.130  -0.686  1.00  0.00     0.000 C 
BRANCH  17  18
ATOM     18  C   UNL     1      -5.982 -11.485   0.005  1.00  0.00    -0.000 C 
BRANCH  18  19
ATOM     19  C   UNL     1      -6.672 -11.583   1.379  1.00  0.00    -0.000 C 
BRANCH  19  20
ATOM     20  C   UNL     1      -5.793 -12.143   2.512  1.00  0.00    -0.000 C 
BRANCH  20  21
ATOM     21  C   UNL     1      -5.081 -13.452   2.129  1.00  0.00    -0.000 C 
BRANCH  21  22
ATOM     22  C   UNL     1      -6.049 -14.643   2.033  1.00  0.00    -0.000 C 
BRANCH  22  23
ATOM     23  C   UNL     1      -5.327 -15.974   1.754  1.00  0.00    -0.000 C 
BRANCH  23  24
ATOM     24  C   UNL     1      -6.132 -16.899   0.828  1.00  0.00    -0.000 C 
BRANCH  24  25
ATOM     25  C   UNL     1      -5.621 -18.346   0.852  1.00  0.00    -0.003 C 
ATOM     26  C   UNL     1      -6.755 -19.334   0.595  1.00  0.00     0.004 C 
ENDBRANCH  24  25
ENDBRANCH  23  24
ENDBRANCH  22  23
ENDBRANCH  21  22
ENDBRANCH  20  21
ENDBRANCH  19  20
ENDBRANCH  18  19
ENDBRANCH  17  18
ENDBRANCH  16  17
ENDBRANCH  15  16
ENDBRANCH   1  15
TORSDOF 22
ENDMDL
