MODEL 1
REMARK VINA RESULT:    -0.835      0.000      0.000
REMARK INTER + INTRA:          -6.051
REMARK INTER:                  -1.811
REMARK INTRA:                  -4.240
REMARK UNBOUND:                -4.240
REMARK SMILES CCCCCCCCCCCCCCCCCCCCCC(=O)[O-]
REMARK SMILES IDX 12 1 11 2 10 3 9 4 8 5 7 6 6 7 5 8 4 9 3 10 2 11 1 12 13 13
REMARK SMILES IDX 14 14 15 15 16 16 17 17 18 18 19 19 20 20 21 21 22 22 23 23
REMARK SMILES IDX 24 24
REMARK H PARENT
REMARK Flexibility Score: inf
ROOT
ATOM      1  C   UNL     1     -17.710 -21.935  82.536  1.00  0.00     0.000 C 
ENDROOT
BRANCH   1   2
ATOM      2  C   UNL     1     -18.081 -20.910  81.453  1.00  0.00     0.000 C 
BRANCH   2   3
ATOM      3  C   UNL     1     -18.572 -21.565  80.150  1.00  0.00     0.000 C 
BRANCH   3   4
ATOM      4  C   UNL     1     -17.784 -21.172  78.887  1.00  0.00    -0.000 C 
BRANCH   4   5
ATOM      5  C   UNL     1     -16.311 -20.848  79.176  1.00  0.00    -0.000 C 
BRANCH   5   6
ATOM      6  C   UNL     1     -15.397 -21.986  78.702  1.00  0.00    -0.000 C 
BRANCH   6   7
ATOM      7  C   UNL     1     -16.090 -22.940  77.714  1.00  0.00    -0.000 C 
BRANCH   7   8
ATOM      8  C   UNL     1     -15.732 -24.424  77.941  1.00  0.00    -0.000 C 
BRANCH   8   9
ATOM      9  C   UNL     1     -16.973 -25.332  77.894  1.00  0.00    -0.000 C 
BRANCH   9  10
ATOM     10  C   UNL     1     -17.553 -25.622  79.288  1.00  0.00    -0.000 C 
BRANCH  10  11
ATOM     11  C   UNL     1     -19.006 -25.150  79.437  1.00  0.00    -0.003 C 
ATOM     12  C   UNL     1     -19.823 -25.481  78.190  1.00  0.00     0.004 C 
ENDBRANCH  10  11
ENDBRANCH   9  10
ENDBRANCH   8   9
ENDBRANCH   7   8
ENDBRANCH   6   7
ENDBRANCH   5   6
ENDBRANCH   4   5
ENDBRANCH   3   4
ENDBRANCH   2   3
ENDBRANCH   1   2
BRANCH   1  13
ATOM     13  C   UNL     1     -17.103 -23.201  81.915  1.00  0.00     0.000 C 
BRANCH  13  14
ATOM     14  C   UNL     1     -16.790 -24.285  82.958  1.00  0.00     0.000 C 
BRANCH  14  15
ATOM     15  C   UNL     1     -15.476 -25.026  82.672  1.00  0.00     0.000 C 
BRANCH  15  16
ATOM     16  C   UNL     1     -14.750 -24.414  81.468  1.00  0.00     0.000 C 
BRANCH  16  17
ATOM     17  C   UNL     1     -13.388 -23.835  81.881  1.00  0.00     0.000 C 
BRANCH  17  18
ATOM     18  C   UNL     1     -13.303 -22.312  81.639  1.00  0.00     0.000 C 
BRANCH  18  19
ATOM     19  C   UNL     1     -13.915 -21.471  82.773  1.00  0.00     0.000 C 
BRANCH  19  20
ATOM     20  C   UNL     1     -13.348 -21.831  84.156  1.00  0.00     0.006 C 
BRANCH  20  21
ATOM     21  C   UNL     1     -14.440 -22.287  85.133  1.00  0.00     0.053 C 
BRANCH  21  22
ATOM     22  C   UNL     1     -14.083 -23.569  85.822  1.00  0.00     0.041 C 
ATOM     23  O   UNL     1     -12.885 -23.815  86.125  1.00  0.00    -0.550 OA
ATOM     24  O   UNL     1     -15.074 -24.496  86.124  1.00  0.00    -0.550 OA
ENDBRANCH  21  22
ENDBRANCH  20  21
ENDBRANCH  19  20
ENDBRANCH  18  19
ENDBRANCH  17  18
ENDBRANCH  16  17
ENDBRANCH  15  16
ENDBRANCH  14  15
ENDBRANCH  13  14
ENDBRANCH   1  13
TORSDOF 20
ENDMDL
MODEL 2
REMARK VINA RESULT:    -0.766      7.380     10.338
REMARK INTER + INTRA:          -5.902
REMARK INTER:                  -1.778
REMARK INTRA:                  -4.124
REMARK UNBOUND:                -4.240
REMARK SMILES CCCCCCCCCCCCCCCCCCCCCC(=O)[O-]
REMARK SMILES IDX 12 1 11 2 10 3 9 4 8 5 7 6 6 7 5 8 4 9 3 10 2 11 1 12 13 13
REMARK SMILES IDX 14 14 15 15 16 16 17 17 18 18 19 19 20 20 21 21 22 22 23 23
REMARK SMILES IDX 24 24
REMARK H PARENT
REMARK Flexibility Score: inf
ROOT
ATOM      1  C   UNL     1     -17.668 -15.332  84.293  1.00  0.00     0.000 C 
ENDROOT
BRANCH   1   2
ATOM      2  C   UNL     1     -17.541 -13.801  84.292  1.00  0.00     0.000 C 
BRANCH   2   3
ATOM      3  C   UNL     1     -16.677 -13.270  85.449  1.00  0.00     0.000 C 
BRANCH   3   4
ATOM      4  C   UNL     1     -15.303 -12.713  85.033  1.00  0.00    -0.000 C 
BRANCH   4   5
ATOM      5  C   UNL     1     -14.150 -13.686  85.320  1.00  0.00    -0.000 C 
BRANCH   5   6
ATOM      6  C   UNL     1     -13.848 -14.553  84.090  1.00  0.00    -0.000 C 
BRANCH   6   7
ATOM      7  C   UNL     1     -13.953 -13.775  82.767  1.00  0.00    -0.000 C 
BRANCH   7   8
ATOM      8  C   UNL     1     -14.852 -14.465  81.719  1.00  0.00    -0.000 C 
BRANCH   8   9
ATOM      9  C   UNL     1     -15.572 -13.449  80.815  1.00  0.00    -0.000 C 
BRANCH   9  10
ATOM     10  C   UNL     1     -15.426 -12.002  81.313  1.00  0.00    -0.000 C 
BRANCH  10  11
ATOM     11  C   UNL     1     -16.777 -11.339  81.616  1.00  0.00    -0.003 C 
ATOM     12  C   UNL     1     -17.933 -12.161  81.051  1.00  0.00     0.004 C 
ENDBRANCH  10  11
ENDBRANCH   9  10
ENDBRANCH   8   9
ENDBRANCH   7   8
ENDBRANCH   6   7
ENDBRANCH   5   6
ENDBRANCH   4   5
ENDBRANCH   3   4
ENDBRANCH   2   3
ENDBRANCH   1   2
BRANCH   1  13
ATOM     13  C   UNL     1     -18.153 -15.845  85.656  1.00  0.00     0.000 C 
BRANCH  13  14
ATOM     14  C   UNL     1     -18.862 -17.206  85.562  1.00  0.00     0.000 C 
BRANCH  14  15
ATOM     15  C   UNL     1     -20.222 -17.121  84.853  1.00  0.00     0.000 C 
BRANCH  15  16
ATOM     16  C   UNL     1     -21.031 -15.920  85.356  1.00  0.00     0.000 C 
BRANCH  16  17
ATOM     17  C   UNL     1     -21.455 -15.014  84.190  1.00  0.00     0.000 C 
BRANCH  17  18
ATOM     18  C   UNL     1     -21.263 -15.697  82.819  1.00  0.00     0.000 C 
BRANCH  18  19
ATOM     19  C   UNL     1     -20.393 -14.888  81.841  1.00  0.00     0.000 C 
BRANCH  19  20
ATOM     20  C   UNL     1     -19.856 -15.737  80.678  1.00  0.00     0.006 C 
BRANCH  20  21
ATOM     21  C   UNL     1     -18.328 -15.875  80.714  1.00  0.00     0.053 C 
BRANCH  21  22
ATOM     22  C   UNL     1     -17.894 -17.279  81.009  1.00  0.00     0.041 C 
ATOM     23  O   UNL     1     -18.454 -17.936  81.927  1.00  0.00    -0.550 OA
ATOM     24  O   UNL     1     -16.868 -17.860  80.273  1.00  0.00    -0.550 OA
ENDBRANCH  21  22
ENDBRANCH  20  21
ENDBRANCH  19  20
ENDBRANCH  18  19
ENDBRANCH  17  18
ENDBRANCH  16  17
ENDBRANCH  15  16
ENDBRANCH  14  15
ENDBRANCH  13  14
ENDBRANCH   1  13
TORSDOF 20
ENDMDL
MODEL 3
REMARK VINA RESULT:    -0.743      9.372     11.870
REMARK INTER + INTRA:          -5.853
REMARK INTER:                  -1.439
REMARK INTRA:                  -4.413
REMARK UNBOUND:                -4.240
REMARK SMILES CCCCCCCCCCCCCCCCCCCCCC(=O)[O-]
REMARK SMILES IDX 12 1 11 2 10 3 9 4 8 5 7 6 6 7 5 8 4 9 3 10 2 11 1 12 13 13
REMARK SMILES IDX 14 14 15 15 16 16 17 17 18 18 19 19 20 20 21 21 22 22 23 23
REMARK SMILES IDX 24 24
REMARK H PARENT
REMARK Flexibility Score: inf
ROOT
ATOM      1  C   UNL     1     -15.120 -14.021  85.732  1.00  0.00     0.000 C 
ENDROOT
BRANCH   1   2
ATOM      2  C   UNL     1     -15.593 -12.613  86.125  1.00  0.00     0.000 C 
BRANCH   2   3
ATOM      3  C   UNL     1     -14.506 -11.540  85.939  1.00  0.00     0.000 C 
BRANCH   3   4
ATOM      4  C   UNL     1     -14.938 -10.311  85.118  1.00  0.00    -0.000 C 
BRANCH   4   5
ATOM      5  C   UNL     1     -16.463 -10.194  84.971  1.00  0.00    -0.000 C 
BRANCH   5   6
ATOM      6  C   UNL     1     -16.830  -9.307  83.774  1.00  0.00    -0.000 C 
BRANCH   6   7
ATOM      7  C   UNL     1     -18.307  -9.432  83.364  1.00  0.00    -0.000 C 
BRANCH   7   8
ATOM      8  C   UNL     1     -18.572  -9.041  81.895  1.00  0.00    -0.000 C 
BRANCH   8   9
ATOM      9  C   UNL     1     -17.547  -9.672  80.936  1.00  0.00    -0.000 C 
BRANCH   9  10
ATOM     10  C   UNL     1     -18.182 -10.679  79.963  1.00  0.00    -0.000 C 
BRANCH  10  11
ATOM     11  C   UNL     1     -19.701 -10.801  80.142  1.00  0.00    -0.003 C 
ATOM     12  C   UNL     1     -20.107 -12.244  80.432  1.00  0.00     0.004 C 
ENDBRANCH  10  11
ENDBRANCH   9  10
ENDBRANCH   8   9
ENDBRANCH   7   8
ENDBRANCH   6   7
ENDBRANCH   5   6
ENDBRANCH   4   5
ENDBRANCH   3   4
ENDBRANCH   2   3
ENDBRANCH   1   2
BRANCH   1  13
ATOM     13  C   UNL     1     -13.592 -14.070  85.591  1.00  0.00     0.000 C 
BRANCH  13  14
ATOM     14  C   UNL     1     -13.137 -14.601  84.222  1.00  0.00     0.000 C 
BRANCH  14  15
ATOM     15  C   UNL     1     -14.180 -14.373  83.118  1.00  0.00     0.000 C 
BRANCH  15  16
ATOM     16  C   UNL     1     -13.983 -13.007  82.449  1.00  0.00     0.000 C 
BRANCH  16  17
ATOM     17  C   UNL     1     -15.333 -12.372  82.084  1.00  0.00     0.000 C 
BRANCH  17  18
ATOM     18  C   UNL     1     -16.490 -13.394  82.124  1.00  0.00     0.000 C 
BRANCH  18  19
ATOM     19  C   UNL     1     -17.688 -12.939  82.975  1.00  0.00     0.000 C 
BRANCH  19  20
ATOM     20  C   UNL     1     -18.227 -14.052  83.889  1.00  0.00     0.006 C 
BRANCH  20  21
ATOM     21  C   UNL     1     -17.745 -15.444  83.459  1.00  0.00     0.053 C 
BRANCH  21  22
ATOM     22  C   UNL     1     -18.854 -16.275  82.889  1.00  0.00     0.041 C 
ATOM     23  O   UNL     1     -18.892 -17.516  83.103  1.00  0.00    -0.550 OA
ATOM     24  O   UNL     1     -19.845 -15.678  82.116  1.00  0.00    -0.550 OA
ENDBRANCH  21  22
ENDBRANCH  20  21
ENDBRANCH  19  20
ENDBRANCH  18  19
ENDBRANCH  17  18
ENDBRANCH  16  17
ENDBRANCH  15  16
ENDBRANCH  14  15
ENDBRANCH  13  14
ENDBRANCH   1  13
TORSDOF 20
ENDMDL
MODEL 4
REMARK VINA RESULT:    -0.729      2.967      5.350
REMARK INTER + INTRA:          -5.821
REMARK INTER:                  -1.766
REMARK INTRA:                  -4.055
REMARK UNBOUND:                -4.240
REMARK SMILES CCCCCCCCCCCCCCCCCCCCCC(=O)[O-]
REMARK SMILES IDX 12 1 11 2 10 3 9 4 8 5 7 6 6 7 5 8 4 9 3 10 2 11 1 12 13 13
REMARK SMILES IDX 14 14 15 15 16 16 17 17 18 18 19 19 20 20 21 21 22 22 23 23
REMARK SMILES IDX 24 24
REMARK H PARENT
REMARK Flexibility Score: inf
ROOT
ATOM      1  C   UNL     1     -14.745 -22.455  85.445  1.00  0.00     0.000 C 
ENDROOT
BRANCH   1   2
ATOM      2  C   UNL     1     -15.544 -23.513  84.669  1.00  0.00     0.000 C 
BRANCH   2   3
ATOM      3  C   UNL     1     -16.820 -22.947  84.021  1.00  0.00     0.000 C 
BRANCH   3   4
ATOM      4  C   UNL     1     -18.119 -23.687  84.389  1.00  0.00    -0.000 C 
BRANCH   4   5
ATOM      5  C   UNL     1     -19.379 -22.841  84.150  1.00  0.00    -0.000 C 
BRANCH   5   6
ATOM      6  C   UNL     1     -20.102 -23.287  82.872  1.00  0.00    -0.000 C 
BRANCH   6   7
ATOM      7  C   UNL     1     -20.020 -24.805  82.634  1.00  0.00    -0.000 C 
BRANCH   7   8
ATOM      8  C   UNL     1     -19.456 -25.178  81.246  1.00  0.00    -0.000 C 
BRANCH   8   9
ATOM      9  C   UNL     1     -18.860 -23.961  80.519  1.00  0.00    -0.000 C 
BRANCH   9  10
ATOM     10  C   UNL     1     -17.325 -24.002  80.447  1.00  0.00    -0.000 C 
BRANCH  10  11
ATOM     11  C   UNL     1     -16.741 -25.324  80.966  1.00  0.00    -0.003 C 
ATOM     12  C   UNL     1     -15.281 -25.155  81.382  1.00  0.00     0.004 C 
ENDBRANCH  10  11
ENDBRANCH   9  10
ENDBRANCH   8   9
ENDBRANCH   7   8
ENDBRANCH   6   7
ENDBRANCH   5   6
ENDBRANCH   4   5
ENDBRANCH   3   4
ENDBRANCH   2   3
ENDBRANCH   1   2
BRANCH   1  13
ATOM     13  C   UNL     1     -13.497 -22.022  84.664  1.00  0.00     0.000 C 
BRANCH  13  14
ATOM     14  C   UNL     1     -13.102 -23.026  83.569  1.00  0.00     0.000 C 
BRANCH  14  15
ATOM     15  C   UNL     1     -13.006 -22.383  82.178  1.00  0.00     0.000 C 
BRANCH  15  16
ATOM     16  C   UNL     1     -13.958 -21.186  82.057  1.00  0.00     0.000 C 
BRANCH  16  17
ATOM     17  C   UNL     1     -14.880 -21.336  80.838  1.00  0.00     0.000 C 
BRANCH  17  18
ATOM     18  C   UNL     1     -15.661 -20.040  80.533  1.00  0.00     0.000 C 
BRANCH  18  19
ATOM     19  C   UNL     1     -17.158 -20.269  80.260  1.00  0.00     0.000 C 
BRANCH  19  20
ATOM     20  C   UNL     1     -17.979 -20.442  81.548  1.00  0.00     0.006 C 
BRANCH  20  21
ATOM     21  C   UNL     1     -19.450 -20.045  81.359  1.00  0.00     0.053 C 
BRANCH  21  22
ATOM     22  C   UNL     1     -20.044 -19.466  82.608  1.00  0.00     0.041 C 
ATOM     23  O   UNL     1     -19.380 -18.660  83.312  1.00  0.00    -0.550 OA
ATOM     24  O   UNL     1     -21.330 -19.823  82.996  1.00  0.00    -0.550 OA
ENDBRANCH  21  22
ENDBRANCH  20  21
ENDBRANCH  19  20
ENDBRANCH  18  19
ENDBRANCH  17  18
ENDBRANCH  16  17
ENDBRANCH  15  16
ENDBRANCH  14  15
ENDBRANCH  13  14
ENDBRANCH   1  13
TORSDOF 20
ENDMDL
MODEL 5
REMARK VINA RESULT:    -0.724      2.684      5.150
REMARK INTER + INTRA:          -5.812
REMARK INTER:                  -1.733
REMARK INTRA:                  -4.079
REMARK UNBOUND:                -4.240
REMARK SMILES CCCCCCCCCCCCCCCCCCCCCC(=O)[O-]
REMARK SMILES IDX 12 1 11 2 10 3 9 4 8 5 7 6 6 7 5 8 4 9 3 10 2 11 1 12 13 13
REMARK SMILES IDX 14 14 15 15 16 16 17 17 18 18 19 19 20 20 21 21 22 22 23 23
REMARK SMILES IDX 24 24
REMARK H PARENT
REMARK Flexibility Score: inf
ROOT
ATOM      1  C   UNL     1     -15.630 -24.861  84.975  1.00  0.00     0.000 C 
ENDROOT
BRANCH   1   2
ATOM      2  C   UNL     1     -15.977 -23.766  85.996  1.00  0.00     0.000 C 
BRANCH   2   3
ATOM      3  C   UNL     1     -15.180 -22.468  85.779  1.00  0.00     0.000 C 
BRANCH   3   4
ATOM      4  C   UNL     1     -13.768 -22.661  85.195  1.00  0.00    -0.000 C 
BRANCH   4   5
ATOM      5  C   UNL     1     -13.355 -21.533  84.239  1.00  0.00    -0.000 C 
BRANCH   5   6
ATOM      6  C   UNL     1     -13.818 -21.832  82.807  1.00  0.00    -0.000 C 
BRANCH   6   7
ATOM      7  C   UNL     1     -13.460 -23.255  82.345  1.00  0.00    -0.000 C 
BRANCH   7   8
ATOM      8  C   UNL     1     -13.364 -23.396  80.811  1.00  0.00    -0.000 C 
BRANCH   8   9
ATOM      9  C   UNL     1     -14.572 -22.765  80.096  1.00  0.00    -0.000 C 
BRANCH   9  10
ATOM     10  C   UNL     1     -14.634 -23.122  78.602  1.00  0.00    -0.000 C 
BRANCH  10  11
ATOM     11  C   UNL     1     -15.987 -23.717  78.189  1.00  0.00    -0.003 C 
ATOM     12  C   UNL     1     -15.932 -25.243  78.163  1.00  0.00     0.004 C 
ENDBRANCH  10  11
ENDBRANCH   9  10
ENDBRANCH   8   9
ENDBRANCH   7   8
ENDBRANCH   6   7
ENDBRANCH   5   6
ENDBRANCH   4   5
ENDBRANCH   3   4
ENDBRANCH   2   3
ENDBRANCH   1   2
BRANCH   1  13
ATOM     13  C   UNL     1     -16.857 -25.727  84.657  1.00  0.00     0.000 C 
BRANCH  13  14
ATOM     14  C   UNL     1     -16.863 -26.242  83.209  1.00  0.00     0.000 C 
BRANCH  14  15
ATOM     15  C   UNL     1     -16.548 -25.142  82.184  1.00  0.00     0.000 C 
BRANCH  15  16
ATOM     16  C   UNL     1     -17.773 -24.831  81.316  1.00  0.00     0.000 C 
BRANCH  16  17
ATOM     17  C   UNL     1     -18.105 -23.331  81.348  1.00  0.00     0.000 C 
BRANCH  17  18
ATOM     18  C   UNL     1     -17.343 -22.588  82.466  1.00  0.00     0.000 C 
BRANCH  18  19
ATOM     19  C   UNL     1     -18.238 -22.141  83.634  1.00  0.00     0.000 C 
BRANCH  19  20
ATOM     20  C   UNL     1     -19.641 -22.768  83.583  1.00  0.00     0.006 C 
BRANCH  20  21
ATOM     21  C   UNL     1     -19.929 -23.653  84.804  1.00  0.00     0.053 C 
BRANCH  21  22
ATOM     22  C   UNL     1     -20.946 -23.041  85.718  1.00  0.00     0.041 C 
ATOM     23  O   UNL     1     -20.804 -21.857  86.125  1.00  0.00    -0.550 OA
ATOM     24  O   UNL     1     -22.051 -23.781  86.125  1.00  0.00    -0.550 OA
ENDBRANCH  21  22
ENDBRANCH  20  21
ENDBRANCH  19  20
ENDBRANCH  18  19
ENDBRANCH  17  18
ENDBRANCH  16  17
ENDBRANCH  15  16
ENDBRANCH  14  15
ENDBRANCH  13  14
ENDBRANCH   1  13
TORSDOF 20
ENDMDL
MODEL 6
REMARK VINA RESULT:    -0.702      2.916      5.473
REMARK INTER + INTRA:          -5.763
REMARK INTER:                  -1.836
REMARK INTRA:                  -3.927
REMARK UNBOUND:                -4.240
REMARK SMILES CCCCCCCCCCCCCCCCCCCCCC(=O)[O-]
REMARK SMILES IDX 12 1 11 2 10 3 9 4 8 5 7 6 6 7 5 8 4 9 3 10 2 11 1 12 13 13
REMARK SMILES IDX 14 14 15 15 16 16 17 17 18 18 19 19 20 20 21 21 22 22 23 23
REMARK SMILES IDX 24 24
REMARK H PARENT
REMARK Flexibility Score: inf
ROOT
ATOM      1  C   UNL     1     -14.910 -22.285  81.290  1.00  0.00     0.000 C 
ENDROOT
BRANCH   1   2
ATOM      2  C   UNL     1     -15.915 -23.379  81.682  1.00  0.00     0.000 C 
BRANCH   2   3
ATOM      3  C   UNL     1     -16.802 -22.981  82.875  1.00  0.00     0.000 C 
BRANCH   3   4
ATOM      4  C   UNL     1     -17.649 -24.123  83.465  1.00  0.00    -0.000 C 
BRANCH   4   5
ATOM      5  C   UNL     1     -18.015 -23.897  84.940  1.00  0.00    -0.000 C 
BRANCH   5   6
ATOM      6  C   UNL     1     -18.082 -22.399  85.263  1.00  0.00    -0.000 C 
BRANCH   6   7
ATOM      7  C   UNL     1     -19.506 -21.826  85.164  1.00  0.00    -0.000 C 
BRANCH   7   8
ATOM      8  C   UNL     1     -19.563 -20.434  84.499  1.00  0.00    -0.000 C 
BRANCH   8   9
ATOM      9  C   UNL     1     -19.541 -20.526  82.963  1.00  0.00    -0.000 C 
BRANCH   9  10
ATOM     10  C   UNL     1     -20.499 -21.597  82.417  1.00  0.00    -0.000 C 
BRANCH  10  11
ATOM     11  C   UNL     1     -19.958 -22.292  81.160  1.00  0.00    -0.003 C 
ATOM     12  C   UNL     1     -20.260 -21.474  79.906  1.00  0.00     0.004 C 
ENDBRANCH  10  11
ENDBRANCH   9  10
ENDBRANCH   8   9
ENDBRANCH   7   8
ENDBRANCH   6   7
ENDBRANCH   5   6
ENDBRANCH   4   5
ENDBRANCH   3   4
ENDBRANCH   2   3
ENDBRANCH   1   2
BRANCH   1  13
ATOM     13  C   UNL     1     -13.580 -22.463  82.036  1.00  0.00     0.000 C 
BRANCH  13  14
ATOM     14  C   UNL     1     -13.377 -21.422  83.148  1.00  0.00     0.000 C 
BRANCH  14  15
ATOM     15  C   UNL     1     -13.105 -22.059  84.518  1.00  0.00     0.000 C 
BRANCH  15  16
ATOM     16  C   UNL     1     -14.409 -22.267  85.298  1.00  0.00     0.000 C 
BRANCH  16  17
ATOM     17  C   UNL     1     -14.432 -23.644  85.977  1.00  0.00     0.000 C 
BRANCH  17  18
ATOM     18  C   UNL     1     -13.591 -24.688  85.212  1.00  0.00     0.000 C 
BRANCH  18  19
ATOM     19  C   UNL     1     -14.434 -25.695  84.412  1.00  0.00     0.000 C 
BRANCH  19  20
ATOM     20  C   UNL     1     -13.830 -26.018  83.035  1.00  0.00     0.006 C 
BRANCH  20  21
ATOM     21  C   UNL     1     -14.381 -27.325  82.448  1.00  0.00     0.053 C 
BRANCH  21  22
ATOM     22  C   UNL     1     -15.486 -27.082  81.466  1.00  0.00     0.041 C 
ATOM     23  O   UNL     1     -16.684 -27.044  81.854  1.00  0.00    -0.550 OA
ATOM     24  O   UNL     1     -15.192 -26.902  80.119  1.00  0.00    -0.550 OA
ENDBRANCH  21  22
ENDBRANCH  20  21
ENDBRANCH  19  20
ENDBRANCH  18  19
ENDBRANCH  17  18
ENDBRANCH  16  17
ENDBRANCH  15  16
ENDBRANCH  14  15
ENDBRANCH  13  14
ENDBRANCH   1  13
TORSDOF 20
ENDMDL
MODEL 7
REMARK VINA RESULT:    -0.688      2.218      3.786
REMARK INTER + INTRA:          -5.732
REMARK INTER:                  -1.438
REMARK INTRA:                  -4.294
REMARK UNBOUND:                -4.240
REMARK SMILES CCCCCCCCCCCCCCCCCCCCCC(=O)[O-]
REMARK SMILES IDX 12 1 11 2 10 3 9 4 8 5 7 6 6 7 5 8 4 9 3 10 2 11 1 12 13 13
REMARK SMILES IDX 14 14 15 15 16 16 17 17 18 18 19 19 20 20 21 21 22 22 23 23
REMARK SMILES IDX 24 24
REMARK H PARENT
REMARK Flexibility Score: inf
ROOT
ATOM      1  C   UNL     1     -17.179 -22.561  83.450  1.00  0.00     0.000 C 
ENDROOT
BRANCH   1   2
ATOM      2  C   UNL     1     -17.252 -22.900  81.953  1.00  0.00     0.000 C 
BRANCH   2   3
ATOM      3  C   UNL     1     -17.336 -24.412  81.683  1.00  0.00     0.000 C 
BRANCH   3   4
ATOM      4  C   UNL     1     -17.157 -24.821  80.210  1.00  0.00    -0.000 C 
BRANCH   4   5
ATOM      5  C   UNL     1     -16.532 -23.711  79.351  1.00  0.00    -0.000 C 
BRANCH   5   6
ATOM      6  C   UNL     1     -17.503 -23.258  78.252  1.00  0.00    -0.000 C 
BRANCH   6   7
ATOM      7  C   UNL     1     -18.953 -23.700  78.513  1.00  0.00    -0.000 C 
BRANCH   7   8
ATOM      8  C   UNL     1     -19.823 -22.601  79.160  1.00  0.00    -0.000 C 
BRANCH   8   9
ATOM      9  C   UNL     1     -20.662 -23.142  80.330  1.00  0.00    -0.000 C 
BRANCH   9  10
ATOM     10  C   UNL     1     -20.840 -22.116  81.460  1.00  0.00    -0.000 C 
BRANCH  10  11
ATOM     11  C   UNL     1     -20.887 -22.764  82.851  1.00  0.00    -0.003 C 
ATOM     12  C   UNL     1     -20.871 -24.288  82.748  1.00  0.00     0.004 C 
ENDBRANCH  10  11
ENDBRANCH   9  10
ENDBRANCH   8   9
ENDBRANCH   7   8
ENDBRANCH   6   7
ENDBRANCH   5   6
ENDBRANCH   4   5
ENDBRANCH   3   4
ENDBRANCH   2   3
ENDBRANCH   1   2
BRANCH   1  13
ATOM     13  C   UNL     1     -17.444 -23.804  84.311  1.00  0.00     0.000 C 
BRANCH  13  14
ATOM     14  C   UNL     1     -16.616 -23.818  85.606  1.00  0.00     0.000 C 
BRANCH  14  15
ATOM     15  C   UNL     1     -15.800 -22.533  85.806  1.00  0.00     0.000 C 
BRANCH  15  16
ATOM     16  C   UNL     1     -14.295 -22.824  85.767  1.00  0.00     0.000 C 
BRANCH  16  17
ATOM     17  C   UNL     1     -13.619 -22.081  84.605  1.00  0.00     0.000 C 
BRANCH  17  18
ATOM     18  C   UNL     1     -12.878 -23.041  83.649  1.00  0.00     0.000 C 
BRANCH  18  19
ATOM     19  C   UNL     1     -13.774 -23.627  82.545  1.00  0.00     0.000 C 
BRANCH  19  20
ATOM     20  C   UNL     1     -13.656 -25.156  82.430  1.00  0.00     0.006 C 
BRANCH  20  21
ATOM     21  C   UNL     1     -14.179 -25.876  83.680  1.00  0.00     0.053 C 
BRANCH  21  22
ATOM     22  C   UNL     1     -15.265 -26.856  83.355  1.00  0.00     0.041 C 
ATOM     23  O   UNL     1     -16.076 -27.223  84.247  1.00  0.00    -0.550 OA
ATOM     24  O   UNL     1     -15.377 -27.369  82.068  1.00  0.00    -0.550 OA
ENDBRANCH  21  22
ENDBRANCH  20  21
ENDBRANCH  19  20
ENDBRANCH  18  19
ENDBRANCH  17  18
ENDBRANCH  16  17
ENDBRANCH  15  16
ENDBRANCH  14  15
ENDBRANCH  13  14
ENDBRANCH   1  13
TORSDOF 20
ENDMDL
MODEL 8
REMARK VINA RESULT:    -0.668      7.375     10.082
REMARK INTER + INTRA:          -5.688
REMARK INTER:                  -0.887
REMARK INTRA:                  -4.801
REMARK UNBOUND:                -4.240
REMARK SMILES CCCCCCCCCCCCCCCCCCCCCC(=O)[O-]
REMARK SMILES IDX 12 1 11 2 10 3 9 4 8 5 7 6 6 7 5 8 4 9 3 10 2 11 1 12 13 13
REMARK SMILES IDX 14 14 15 15 16 16 17 17 18 18 19 19 20 20 21 21 22 22 23 23
REMARK SMILES IDX 24 24
REMARK H PARENT
REMARK Flexibility Score: inf
ROOT
ATOM      1  C   UNL     1     -19.213 -17.511  78.905  1.00  0.00     0.000 C 
ENDROOT
BRANCH   1   2
ATOM      2  C   UNL     1     -20.141 -16.324  79.209  1.00  0.00     0.000 C 
BRANCH   2   3
ATOM      3  C   UNL     1     -19.621 -15.432  80.349  1.00  0.00     0.000 C 
BRANCH   3   4
ATOM      4  C   UNL     1     -20.672 -14.496  80.974  1.00  0.00    -0.000 C 
BRANCH   4   5
ATOM      5  C   UNL     1     -20.049 -13.297  81.704  1.00  0.00    -0.000 C 
BRANCH   5   6
ATOM      6  C   UNL     1     -18.517 -13.341  81.620  1.00  0.00    -0.000 C 
BRANCH   6   7
ATOM      7  C   UNL     1     -17.840 -13.329  83.001  1.00  0.00    -0.000 C 
BRANCH   7   8
ATOM      8  C   UNL     1     -17.144 -14.661  83.355  1.00  0.00    -0.000 C 
BRANCH   8   9
ATOM      9  C   UNL     1     -18.011 -15.538  84.275  1.00  0.00    -0.000 C 
BRANCH   9  10
ATOM     10  C   UNL     1     -18.719 -16.675  83.520  1.00  0.00    -0.000 C 
BRANCH  10  11
ATOM     11  C   UNL     1     -20.183 -16.852  83.949  1.00  0.00    -0.003 C 
ATOM     12  C   UNL     1     -20.736 -15.568  84.561  1.00  0.00     0.004 C 
ENDBRANCH  10  11
ENDBRANCH   9  10
ENDBRANCH   8   9
ENDBRANCH   7   8
ENDBRANCH   6   7
ENDBRANCH   5   6
ENDBRANCH   4   5
ENDBRANCH   3   4
ENDBRANCH   2   3
ENDBRANCH   1   2
BRANCH   1  13
ATOM     13  C   UNL     1     -18.870 -18.285  80.185  1.00  0.00     0.000 C 
BRANCH  13  14
ATOM     14  C   UNL     1     -17.358 -18.369  80.444  1.00  0.00     0.000 C 
BRANCH  14  15
ATOM     15  C   UNL     1     -16.530 -18.330  79.152  1.00  0.00     0.000 C 
BRANCH  15  16
ATOM     16  C   UNL     1     -15.489 -17.204  79.197  1.00  0.00     0.000 C 
BRANCH  16  17
ATOM     17  C   UNL     1     -15.888 -16.126  80.216  1.00  0.00     0.000 C 
BRANCH  17  18
ATOM     18  C   UNL     1     -15.922 -14.715  79.590  1.00  0.00     0.000 C 
BRANCH  18  19
ATOM     19  C   UNL     1     -16.688 -14.647  78.258  1.00  0.00     0.000 C 
BRANCH  19  20
ATOM     20  C   UNL     1     -17.369 -13.288  78.030  1.00  0.00     0.006 C 
BRANCH  20  21
ATOM     21  C   UNL     1     -18.727 -13.426  77.327  1.00  0.00     0.053 C 
BRANCH  21  22
ATOM     22  C   UNL     1     -19.778 -12.561  77.952  1.00  0.00     0.041 C 
ATOM     23  O   UNL     1     -19.449 -11.543  78.618  1.00  0.00    -0.550 OA
ATOM     24  O   UNL     1     -21.123 -12.881  77.803  1.00  0.00    -0.550 OA
ENDBRANCH  21  22
ENDBRANCH  20  21
ENDBRANCH  19  20
ENDBRANCH  18  19
ENDBRANCH  17  18
ENDBRANCH  16  17
ENDBRANCH  15  16
ENDBRANCH  14  15
ENDBRANCH  13  14
ENDBRANCH   1  13
TORSDOF 20
ENDMDL
MODEL 9
REMARK VINA RESULT:    -0.667      3.086      6.003
REMARK INTER + INTRA:          -5.687
REMARK INTER:                  -1.454
REMARK INTRA:                  -4.233
REMARK UNBOUND:                -4.240
REMARK SMILES CCCCCCCCCCCCCCCCCCCCCC(=O)[O-]
REMARK SMILES IDX 12 1 11 2 10 3 9 4 8 5 7 6 6 7 5 8 4 9 3 10 2 11 1 12 13 13
REMARK SMILES IDX 14 14 15 15 16 16 17 17 18 18 19 19 20 20 21 21 22 22 23 23
REMARK SMILES IDX 24 24
REMARK H PARENT
REMARK Flexibility Score: inf
ROOT
ATOM      1  C   UNL     1     -18.350 -23.026  83.982  1.00  0.00     0.000 C 
ENDROOT
BRANCH   1   2
ATOM      2  C   UNL     1     -16.822 -22.866  83.945  1.00  0.00     0.000 C 
BRANCH   2   3
ATOM      3  C   UNL     1     -16.128 -23.433  85.196  1.00  0.00     0.000 C 
BRANCH   3   4
ATOM      4  C   UNL     1     -14.993 -22.561  85.762  1.00  0.00    -0.000 C 
BRANCH   4   5
ATOM      5  C   UNL     1     -13.625 -23.259  85.727  1.00  0.00    -0.000 C 
BRANCH   5   6
ATOM      6  C   UNL     1     -13.710 -24.588  84.964  1.00  0.00    -0.000 C 
BRANCH   6   7
ATOM      7  C   UNL     1     -12.880 -24.590  83.669  1.00  0.00    -0.000 C 
BRANCH   7   8
ATOM      8  C   UNL     1     -13.115 -23.344  82.788  1.00  0.00    -0.000 C 
BRANCH   8   9
ATOM      9  C   UNL     1     -13.392 -23.717  81.321  1.00  0.00    -0.000 C 
BRANCH   9  10
ATOM     10  C   UNL     1     -14.465 -22.827  80.673  1.00  0.00    -0.000 C 
BRANCH  10  11
ATOM     11  C   UNL     1     -14.434 -21.383  81.193  1.00  0.00    -0.003 C 
ATOM     12  C   UNL     1     -15.775 -20.688  80.969  1.00  0.00     0.004 C 
ENDBRANCH  10  11
ENDBRANCH   9  10
ENDBRANCH   8   9
ENDBRANCH   7   8
ENDBRANCH   6   7
ENDBRANCH   5   6
ENDBRANCH   4   5
ENDBRANCH   3   4
ENDBRANCH   2   3
ENDBRANCH   1   2
BRANCH   1  13
ATOM     13  C   UNL     1     -18.789 -23.855  85.198  1.00  0.00     0.000 C 
BRANCH  13  14
ATOM     14  C   UNL     1     -19.343 -25.235  84.809  1.00  0.00     0.000 C 
BRANCH  14  15
ATOM     15  C   UNL     1     -18.406 -26.385  85.201  1.00  0.00     0.000 C 
BRANCH  15  16
ATOM     16  C   UNL     1     -17.896 -27.129  83.960  1.00  0.00     0.000 C 
BRANCH  16  17
ATOM     17  C   UNL     1     -16.423 -26.792  83.682  1.00  0.00     0.000 C 
BRANCH  17  18
ATOM     18  C   UNL     1     -16.236 -26.047  82.343  1.00  0.00     0.000 C 
BRANCH  18  19
ATOM     19  C   UNL     1     -17.548 -25.815  81.576  1.00  0.00     0.000 C 
BRANCH  19  20
ATOM     20  C   UNL     1     -17.350 -24.999  80.288  1.00  0.00     0.006 C 
BRANCH  20  21
ATOM     21  C   UNL     1     -18.086 -23.652  80.332  1.00  0.00     0.053 C 
BRANCH  21  22
ATOM     22  C   UNL     1     -19.566 -23.811  80.158  1.00  0.00     0.041 C 
ATOM     23  O   UNL     1     -20.363 -23.232  80.943  1.00  0.00    -0.550 OA
ATOM     24  O   UNL     1     -20.065 -24.603  79.130  1.00  0.00    -0.550 OA
ENDBRANCH  21  22
ENDBRANCH  20  21
ENDBRANCH  19  20
ENDBRANCH  18  19
ENDBRANCH  17  18
ENDBRANCH  16  17
ENDBRANCH  15  16
ENDBRANCH  14  15
ENDBRANCH  13  14
ENDBRANCH   1  13
TORSDOF 20
ENDMDL
