MODEL 1
REMARK VINA RESULT:    -5.586      0.000      0.000
REMARK INTER + INTRA:          -5.750
REMARK INTER:                  -5.750
REMARK INTRA:                   0.000
REMARK UNBOUND:                 0.000
REMARK SMILES CC1(C)CC[C@@]2(C)CC[C@]3(C)C(=CC[C@H]4[C@@]5(C)CC[C@@H](O)C(C)(C)[C@H]5CC[C@]43C)[C@H]2C1
REMARK SMILES IDX 1 1 2 2 4 3 5 4 6 5 8 6 9 7 10 8 12 9 13 10 14 11 15 12
REMARK SMILES IDX 28 13 27 14 26 15 25 16 16 17 18 18 19 19 20 20 22 21 23 22
REMARK SMILES IDX 24 23 17 24 29 25 30 26 31 27 11 28 7 29 3 30 21 31
REMARK H PARENT 21 32
REMARK Flexibility Score: inf
ROOT
ATOM      1  C   UNL     1      12.291  51.945   6.992  1.00  0.00     0.011 C 
ATOM      2  C   UNL     1      13.085  51.223   8.105  1.00  0.00    -0.035 C 
ATOM      3  C   UNL     1      12.122  50.857   9.263  1.00  0.00     0.007 C 
ATOM      4  C   UNL     1      11.277  49.612   8.969  1.00  0.00     0.008 C 
ATOM      5  C   UNL     1      12.128  48.354   8.651  1.00  0.00    -0.026 C 
ATOM      6  C   UNL     1      11.160  47.149   8.436  1.00  0.00     0.008 C 
ATOM      7  C   UNL     1      10.525  47.053   7.040  1.00  0.00     0.012 C 
ATOM      8  C   UNL     1      11.554  47.089   5.864  1.00  0.00    -0.006 C 
ATOM      9  C   UNL     1      12.310  48.414   6.060  1.00  0.00    -0.064 C 
ATOM     10  C   UNL     1      12.292  49.364   5.106  1.00  0.00    -0.027 C 
ATOM     11  C   UNL     1      11.333  49.419   3.964  1.00  0.00     0.032 C 
ATOM     12  C   UNL     1      10.211  48.348   3.988  1.00  0.00     0.006 C 
ATOM     13  C   UNL     1      10.821  46.964   4.416  1.00  0.00    -0.020 C 
ATOM     14  C   UNL     1      11.818  46.525   3.291  1.00  0.00     0.008 C 
ATOM     15  C   UNL     1      11.470  46.951   1.843  1.00  0.00     0.005 C 
ATOM     16  C   UNL     1       9.986  47.324   1.550  1.00  0.00     0.003 C 
ATOM     17  C   UNL     1       9.354  48.320   2.624  1.00  0.00    -0.025 C 
ATOM     18  C   UNL     1       9.229  49.751   2.006  1.00  0.00     0.010 C 
ATOM     19  C   UNL     1       8.442  49.831   0.681  1.00  0.00     0.033 C 
ATOM     20  C   UNL     1       8.454  48.531  -0.152  1.00  0.00     0.120 C 
ATOM     21  C   UNL     1       9.772  47.721   0.014  1.00  0.00    -0.006 C 
ATOM     22  C   UNL     1       9.636  46.424  -0.830  1.00  0.00     0.014 C 
ATOM     23  C   UNL     1      10.958  48.527  -0.593  1.00  0.00     0.014 C 
ATOM     24  C   UNL     1       7.886  47.891   2.994  1.00  0.00     0.012 C 
ATOM     25  C   UNL     1       9.723  45.858   4.518  1.00  0.00     0.012 C 
ATOM     26  C   UNL     1      13.052  48.629   7.406  1.00  0.00     0.022 C 
ATOM     27  C   UNL     1      13.859  49.963   7.577  1.00  0.00     0.015 C 
ATOM     28  C   UNL     1      12.573  45.908   6.032  1.00  0.00     0.017 C 
ATOM     29  C   UNL     1      13.001  47.986   9.885  1.00  0.00     0.012 C 
ATOM     30  C   UNL     1      14.124  52.233   8.644  1.00  0.00     0.011 C 
ENDROOT
BRANCH  20  31
ATOM     31  O   UNL     1       8.229  48.850  -1.505  1.00  0.00    -0.393 OA
ATOM     32  H   UNL     1       8.904  48.353  -2.036  1.00  0.00     0.210 HD
ENDBRANCH  20  31
TORSDOF 1
ENDMDL
MODEL 2
REMARK VINA RESULT:    -5.311      3.185      7.433
REMARK INTER + INTRA:          -5.466
REMARK INTER:                  -5.466
REMARK INTRA:                   0.000
REMARK UNBOUND:                 0.000
REMARK SMILES CC1(C)CC[C@@]2(C)CC[C@]3(C)C(=CC[C@H]4[C@@]5(C)CC[C@@H](O)C(C)(C)[C@H]5CC[C@]43C)[C@H]2C1
REMARK SMILES IDX 1 1 2 2 4 3 5 4 6 5 8 6 9 7 10 8 12 9 13 10 14 11 15 12
REMARK SMILES IDX 28 13 27 14 26 15 25 16 16 17 18 18 19 19 20 20 22 21 23 22
REMARK SMILES IDX 24 23 17 24 29 25 30 26 31 27 11 28 7 29 3 30 21 31
REMARK H PARENT 21 32
REMARK Flexibility Score: inf
ROOT
ATOM      1  C   UNL     1      13.924  49.719   1.604  1.00  0.00     0.011 C 
ATOM      2  C   UNL     1      12.832  50.166   0.605  1.00  0.00    -0.035 C 
ATOM      3  C   UNL     1      12.683  49.092  -0.502  1.00  0.00     0.007 C 
ATOM      4  C   UNL     1      11.863  47.878  -0.052  1.00  0.00     0.008 C 
ATOM      5  C   UNL     1      10.438  48.246   0.439  1.00  0.00    -0.026 C 
ATOM      6  C   UNL     1       9.689  46.927   0.804  1.00  0.00     0.008 C 
ATOM      7  C   UNL     1      10.002  46.353   2.195  1.00  0.00     0.012 C 
ATOM      8  C   UNL     1       9.823  47.374   3.365  1.00  0.00    -0.006 C 
ATOM      9  C   UNL     1      10.761  48.538   3.000  1.00  0.00    -0.064 C 
ATOM     10  C   UNL     1      11.771  48.890   3.819  1.00  0.00    -0.027 C 
ATOM     11  C   UNL     1      12.306  48.055   4.934  1.00  0.00     0.032 C 
ATOM     12  C   UNL     1      11.704  46.630   5.043  1.00  0.00     0.006 C 
ATOM     13  C   UNL     1      10.152  46.701   4.809  1.00  0.00    -0.020 C 
ATOM     14  C   UNL     1       9.538  47.524   5.992  1.00  0.00     0.008 C 
ATOM     15  C   UNL     1      10.241  47.403   7.367  1.00  0.00     0.005 C 
ATOM     16  C   UNL     1      11.146  46.156   7.595  1.00  0.00     0.003 C 
ATOM     17  C   UNL     1      12.154  45.870   6.391  1.00  0.00    -0.025 C 
ATOM     18  C   UNL     1      13.604  46.278   6.812  1.00  0.00     0.010 C 
ATOM     19  C   UNL     1      14.125  45.620   8.107  1.00  0.00     0.033 C 
ATOM     20  C   UNL     1      13.023  45.209   9.106  1.00  0.00     0.120 C 
ATOM     21  C   UNL     1      11.787  46.153   9.061  1.00  0.00    -0.006 C 
ATOM     22  C   UNL     1      10.740  45.605  10.070  1.00  0.00     0.014 C 
ATOM     23  C   UNL     1      12.194  47.569   9.566  1.00  0.00     0.014 C 
ATOM     24  C   UNL     1      12.225  44.332   6.069  1.00  0.00     0.012 C 
ATOM     25  C   UNL     1       9.499  45.282   4.847  1.00  0.00     0.012 C 
ATOM     26  C   UNL     1      10.528  49.255   1.645  1.00  0.00     0.022 C 
ATOM     27  C   UNL     1      11.459  50.471   1.304  1.00  0.00     0.015 C 
ATOM     28  C   UNL     1       8.349  47.909   3.365  1.00  0.00     0.017 C 
ATOM     29  C   UNL     1       9.632  48.887  -0.727  1.00  0.00     0.012 C 
ATOM     30  C   UNL     1      13.334  51.471  -0.055  1.00  0.00     0.011 C 
ENDROOT
BRANCH  20  31
ATOM     31  O   UNL     1      13.571  45.162  10.402  1.00  0.00    -0.393 OA
ATOM     32  H   UNL     1      13.293  45.996  10.865  1.00  0.00     0.210 HD
ENDBRANCH  20  31
TORSDOF 1
ENDMDL
MODEL 3
REMARK VINA RESULT:    -5.248      2.785      5.342
REMARK INTER + INTRA:          -5.401
REMARK INTER:                  -5.401
REMARK INTRA:                   0.000
REMARK UNBOUND:                 0.000
REMARK SMILES CC1(C)CC[C@@]2(C)CC[C@]3(C)C(=CC[C@H]4[C@@]5(C)CC[C@@H](O)C(C)(C)[C@H]5CC[C@]43C)[C@H]2C1
REMARK SMILES IDX 1 1 2 2 4 3 5 4 6 5 8 6 9 7 10 8 12 9 13 10 14 11 15 12
REMARK SMILES IDX 28 13 27 14 26 15 25 16 16 17 18 18 19 19 20 20 22 21 23 22
REMARK SMILES IDX 24 23 17 24 29 25 30 26 31 27 11 28 7 29 3 30 21 31
REMARK H PARENT 21 32
REMARK Flexibility Score: inf
ROOT
ATOM      1  C   UNL     1       7.900  43.665   8.904  1.00  0.00     0.011 C 
ATOM      2  C   UNL     1       8.316  43.860  10.380  1.00  0.00    -0.035 C 
ATOM      3  C   UNL     1       9.368  42.787  10.760  1.00  0.00     0.007 C 
ATOM      4  C   UNL     1      10.775  43.121  10.253  1.00  0.00     0.008 C 
ATOM      5  C   UNL     1      11.300  44.491  10.756  1.00  0.00    -0.026 C 
ATOM      6  C   UNL     1      12.756  44.682  10.228  1.00  0.00     0.008 C 
ATOM      7  C   UNL     1      12.872  45.188   8.781  1.00  0.00     0.012 C 
ATOM      8  C   UNL     1      12.054  46.488   8.489  1.00  0.00    -0.006 C 
ATOM      9  C   UNL     1      10.606  46.117   8.852  1.00  0.00    -0.064 C 
ATOM     10  C   UNL     1       9.630  46.170   7.927  1.00  0.00    -0.027 C 
ATOM     11  C   UNL     1       9.844  46.249   6.452  1.00  0.00     0.032 C 
ATOM     12  C   UNL     1      11.320  46.133   5.990  1.00  0.00     0.006 C 
ATOM     13  C   UNL     1      12.234  46.981   6.948  1.00  0.00    -0.020 C 
ATOM     14  C   UNL     1      11.836  48.484   6.764  1.00  0.00     0.008 C 
ATOM     15  C   UNL     1      11.359  48.914   5.355  1.00  0.00     0.005 C 
ATOM     16  C   UNL     1      11.766  48.003   4.159  1.00  0.00     0.003 C 
ATOM     17  C   UNL     1      11.504  46.451   4.421  1.00  0.00    -0.025 C 
ATOM     18  C   UNL     1      10.257  45.983   3.601  1.00  0.00     0.010 C 
ATOM     19  C   UNL     1      10.322  46.261   2.084  1.00  0.00     0.033 C 
ATOM     20  C   UNL     1      11.212  47.458   1.689  1.00  0.00     0.120 C 
ATOM     21  C   UNL     1      11.225  48.580   2.768  1.00  0.00    -0.006 C 
ATOM     22  C   UNL     1      12.188  49.696   2.274  1.00  0.00     0.014 C 
ATOM     23  C   UNL     1       9.811  49.224   2.867  1.00  0.00     0.014 C 
ATOM     24  C   UNL     1      12.704  45.580   3.896  1.00  0.00     0.012 C 
ATOM     25  C   UNL     1      13.743  46.853   6.566  1.00  0.00     0.012 C 
ATOM     26  C   UNL     1      10.326  45.642  10.302  1.00  0.00     0.022 C 
ATOM     27  C   UNL     1       8.838  45.312  10.676  1.00  0.00     0.015 C 
ATOM     28  C   UNL     1      12.530  47.628   9.456  1.00  0.00     0.017 C 
ATOM     29  C   UNL     1      11.408  44.472  12.308  1.00  0.00     0.012 C 
ATOM     30  C   UNL     1       7.053  43.621  11.239  1.00  0.00     0.011 C 
ENDROOT
BRANCH  20  31
ATOM     31  O   UNL     1      10.780  47.962   0.447  1.00  0.00    -0.393 OA
ATOM     32  H   UNL     1      10.871  48.950   0.488  1.00  0.00     0.210 HD
ENDBRANCH  20  31
TORSDOF 1
ENDMDL
MODEL 4
REMARK VINA RESULT:    -5.223      2.109      4.517
REMARK INTER + INTRA:          -5.376
REMARK INTER:                  -5.376
REMARK INTRA:                   0.000
REMARK UNBOUND:                 0.000
REMARK SMILES CC1(C)CC[C@@]2(C)CC[C@]3(C)C(=CC[C@H]4[C@@]5(C)CC[C@@H](O)C(C)(C)[C@H]5CC[C@]43C)[C@H]2C1
REMARK SMILES IDX 1 1 2 2 4 3 5 4 6 5 8 6 9 7 10 8 12 9 13 10 14 11 15 12
REMARK SMILES IDX 28 13 27 14 26 15 25 16 16 17 18 18 19 19 20 20 22 21 23 22
REMARK SMILES IDX 24 23 17 24 29 25 30 26 31 27 11 28 7 29 3 30 21 31
REMARK H PARENT 21 32
REMARK Flexibility Score: inf
ROOT
ATOM      1  C   UNL     1      13.560  43.276   6.753  1.00  0.00     0.011 C 
ATOM      2  C   UNL     1      13.097  43.221   8.227  1.00  0.00    -0.035 C 
ATOM      3  C   UNL     1      14.124  43.972   9.112  1.00  0.00     0.007 C 
ATOM      4  C   UNL     1      13.966  45.495   9.052  1.00  0.00     0.008 C 
ATOM      5  C   UNL     1      12.551  45.982   9.461  1.00  0.00    -0.026 C 
ATOM      6  C   UNL     1      12.539  47.542   9.422  1.00  0.00     0.008 C 
ATOM      7  C   UNL     1      12.336  48.167   8.032  1.00  0.00     0.012 C 
ATOM      8  C   UNL     1      11.081  47.634   7.267  1.00  0.00    -0.006 C 
ATOM      9  C   UNL     1      11.302  46.114   7.186  1.00  0.00    -0.064 C 
ATOM     10  C   UNL     1      11.386  45.494   5.994  1.00  0.00    -0.027 C 
ATOM     11  C   UNL     1      11.611  46.173   4.684  1.00  0.00     0.032 C 
ATOM     12  C   UNL     1      11.887  47.697   4.766  1.00  0.00     0.006 C 
ATOM     13  C   UNL     1      10.913  48.347   5.814  1.00  0.00    -0.020 C 
ATOM     14  C   UNL     1       9.458  48.198   5.254  1.00  0.00     0.008 C 
ATOM     15  C   UNL     1       9.292  48.245   3.715  1.00  0.00     0.005 C 
ATOM     16  C   UNL     1      10.442  48.906   2.897  1.00  0.00     0.003 C 
ATOM     17  C   UNL     1      11.896  48.403   3.318  1.00  0.00    -0.025 C 
ATOM     18  C   UNL     1      12.456  47.437   2.222  1.00  0.00     0.010 C 
ATOM     19  C   UNL     1      12.487  48.011   0.790  1.00  0.00     0.033 C 
ATOM     20  C   UNL     1      11.436  49.107   0.515  1.00  0.00     0.120 C 
ATOM     21  C   UNL     1      10.125  48.902   1.328  1.00  0.00    -0.006 C 
ATOM     22  C   UNL     1       9.178  50.090   1.000  1.00  0.00     0.014 C 
ATOM     23  C   UNL     1       9.406  47.610   0.840  1.00  0.00     0.014 C 
ATOM     24  C   UNL     1      12.911  49.603   3.380  1.00  0.00     0.012 C 
ATOM     25  C   UNL     1      11.187  49.875   5.984  1.00  0.00     0.012 C 
ATOM     26  C   UNL     1      11.466  45.337   8.518  1.00  0.00     0.022 C 
ATOM     27  C   UNL     1      11.643  43.780   8.426  1.00  0.00     0.015 C 
ATOM     28  C   UNL     1       9.797  47.902   8.128  1.00  0.00     0.017 C 
ATOM     29  C   UNL     1      12.267  45.589  10.939  1.00  0.00     0.012 C 
ATOM     30  C   UNL     1      13.099  41.732   8.643  1.00  0.00     0.011 C 
ENDROOT
BRANCH  20  31
ATOM     31  O   UNL     1      11.167  49.151  -0.866  1.00  0.00    -0.393 OA
ATOM     32  H   UNL     1      11.973  48.801  -1.329  1.00  0.00     0.210 HD
ENDBRANCH  20  31
TORSDOF 1
ENDMDL
MODEL 5
REMARK VINA RESULT:    -4.861      4.627      8.528
REMARK INTER + INTRA:          -5.003
REMARK INTER:                  -5.003
REMARK INTRA:                   0.000
REMARK UNBOUND:                 0.000
REMARK SMILES CC1(C)CC[C@@]2(C)CC[C@]3(C)C(=CC[C@H]4[C@@]5(C)CC[C@@H](O)C(C)(C)[C@H]5CC[C@]43C)[C@H]2C1
REMARK SMILES IDX 1 1 2 2 4 3 5 4 6 5 8 6 9 7 10 8 12 9 13 10 14 11 15 12
REMARK SMILES IDX 28 13 27 14 26 15 25 16 16 17 18 18 19 19 20 20 22 21 23 22
REMARK SMILES IDX 24 23 17 24 29 25 30 26 31 27 11 28 7 29 3 30 21 31
REMARK H PARENT 21 32
REMARK Flexibility Score: inf
ROOT
ATOM      1  C   UNL     1       8.840  46.493   4.941  1.00  0.00     0.011 C 
ATOM      2  C   UNL     1       9.935  47.307   4.216  1.00  0.00    -0.035 C 
ATOM      3  C   UNL     1       9.840  48.792   4.651  1.00  0.00     0.007 C 
ATOM      4  C   UNL     1      10.464  49.054   6.026  1.00  0.00     0.008 C 
ATOM      5  C   UNL     1      11.955  48.636   6.113  1.00  0.00    -0.026 C 
ATOM      6  C   UNL     1      12.488  49.012   7.530  1.00  0.00     0.008 C 
ATOM      7  C   UNL     1      12.159  48.010   8.648  1.00  0.00     0.012 C 
ATOM      8  C   UNL     1      12.571  46.536   8.329  1.00  0.00    -0.006 C 
ATOM      9  C   UNL     1      11.826  46.206   7.024  1.00  0.00    -0.064 C 
ATOM     10  C   UNL     1      10.938  45.196   6.976  1.00  0.00    -0.027 C 
ATOM     11  C   UNL     1      10.330  44.526   8.163  1.00  0.00     0.032 C 
ATOM     12  C   UNL     1      10.685  45.158   9.535  1.00  0.00     0.006 C 
ATOM     13  C   UNL     1      12.213  45.530   9.556  1.00  0.00    -0.020 C 
ATOM     14  C   UNL     1      13.021  44.191   9.471  1.00  0.00     0.008 C 
ATOM     15  C   UNL     1      12.384  42.946  10.136  1.00  0.00     0.005 C 
ATOM     16  C   UNL     1      11.293  43.199  11.220  1.00  0.00     0.003 C 
ATOM     17  C   UNL     1      10.187  44.260  10.776  1.00  0.00    -0.025 C 
ATOM     18  C   UNL     1       8.852  43.519  10.437  1.00  0.00     0.010 C 
ATOM     19  C   UNL     1       8.299  42.612  11.557  1.00  0.00     0.033 C 
ATOM     20  C   UNL     1       9.368  42.061  12.524  1.00  0.00     0.120 C 
ATOM     21  C   UNL     1      10.742  41.827  11.832  1.00  0.00    -0.006 C 
ATOM     22  C   UNL     1      11.734  41.322  12.917  1.00  0.00     0.014 C 
ATOM     23  C   UNL     1      10.610  40.684  10.783  1.00  0.00     0.014 C 
ATOM     24  C   UNL     1       9.838  45.237  11.959  1.00  0.00     0.012 C 
ATOM     25  C   UNL     1      12.616  46.227  10.894  1.00  0.00     0.012 C 
ATOM     26  C   UNL     1      12.104  47.102   5.788  1.00  0.00     0.022 C 
ATOM     27  C   UNL     1      11.376  46.728   4.450  1.00  0.00     0.015 C 
ATOM     28  C   UNL     1      14.113  46.479   8.046  1.00  0.00     0.017 C 
ATOM     29  C   UNL     1      12.794  49.473   5.105  1.00  0.00     0.012 C 
ATOM     30  C   UNL     1       9.627  47.228   2.703  1.00  0.00     0.011 C 
ENDROOT
BRANCH  20  31
ATOM     31  O   UNL     1       8.891  40.871  13.107  1.00  0.00    -0.393 OA
ATOM     32  H   UNL     1       7.936  40.786  12.853  1.00  0.00     0.210 HD
ENDBRANCH  20  31
TORSDOF 1
ENDMDL
MODEL 6
REMARK VINA RESULT:    -4.813      4.167      7.143
REMARK INTER + INTRA:          -4.954
REMARK INTER:                  -4.954
REMARK INTRA:                   0.000
REMARK UNBOUND:                 0.000
REMARK SMILES CC1(C)CC[C@@]2(C)CC[C@]3(C)C(=CC[C@H]4[C@@]5(C)CC[C@@H](O)C(C)(C)[C@H]5CC[C@]43C)[C@H]2C1
REMARK SMILES IDX 1 1 2 2 4 3 5 4 6 5 8 6 9 7 10 8 12 9 13 10 14 11 15 12
REMARK SMILES IDX 28 13 27 14 26 15 25 16 16 17 18 18 19 19 20 20 22 21 23 22
REMARK SMILES IDX 24 23 17 24 29 25 30 26 31 27 11 28 7 29 3 30 21 31
REMARK H PARENT 21 32
REMARK Flexibility Score: inf
ROOT
ATOM      1  C   UNL     1       6.754  42.999   8.852  1.00  0.00     0.011 C 
ATOM      2  C   UNL     1       6.800  42.740  10.376  1.00  0.00    -0.035 C 
ATOM      3  C   UNL     1       7.438  41.352  10.638  1.00  0.00     0.007 C 
ATOM      4  C   UNL     1       8.966  41.366  10.531  1.00  0.00     0.008 C 
ATOM      5  C   UNL     1       9.640  42.382  11.491  1.00  0.00    -0.026 C 
ATOM      6  C   UNL     1      11.188  42.253  11.333  1.00  0.00     0.008 C 
ATOM      7  C   UNL     1      11.795  43.006  10.138  1.00  0.00     0.012 C 
ATOM      8  C   UNL     1      11.404  44.518  10.068  1.00  0.00    -0.006 C 
ATOM      9  C   UNL     1       9.867  44.512  10.021  1.00  0.00    -0.064 C 
ATOM     10  C   UNL     1       9.208  45.046   8.975  1.00  0.00    -0.027 C 
ATOM     11  C   UNL     1       9.817  45.377   7.653  1.00  0.00     0.032 C 
ATOM     12  C   UNL     1      11.295  44.943   7.476  1.00  0.00     0.006 C 
ATOM     13  C   UNL     1      12.092  45.260   8.793  1.00  0.00    -0.020 C 
ATOM     14  C   UNL     1      12.113  46.817   8.963  1.00  0.00     0.008 C 
ATOM     15  C   UNL     1      12.138  47.662   7.666  1.00  0.00     0.005 C 
ATOM     16  C   UNL     1      12.626  46.954   6.366  1.00  0.00     0.003 C 
ATOM     17  C   UNL     1      11.954  45.526   6.126  1.00  0.00    -0.025 C 
ATOM     18  C   UNL     1      10.895  45.629   4.980  1.00  0.00     0.010 C 
ATOM     19  C   UNL     1      11.420  46.199   3.646  1.00  0.00     0.033 C 
ATOM     20  C   UNL     1      12.633  47.144   3.784  1.00  0.00     0.120 C 
ATOM     21  C   UNL     1      12.618  47.951   5.115  1.00  0.00    -0.006 C 
ATOM     22  C   UNL     1      13.907  48.819   5.151  1.00  0.00     0.014 C 
ATOM     23  C   UNL     1      11.415  48.939   5.111  1.00  0.00     0.014 C 
ATOM     24  C   UNL     1      13.017  44.481   5.625  1.00  0.00     0.012 C 
ATOM     25  C   UNL     1      13.577  44.786   8.695  1.00  0.00     0.012 C 
ATOM     26  C   UNL     1       9.112  43.836  11.195  1.00  0.00     0.022 C 
ATOM     27  C   UNL     1       7.544  43.878  11.162  1.00  0.00     0.015 C 
ATOM     28  C   UNL     1      11.857  45.232  11.389  1.00  0.00     0.017 C 
ATOM     29  C   UNL     1       9.327  41.996  12.965  1.00  0.00     0.012 C 
ATOM     30  C   UNL     1       5.334  42.697  10.868  1.00  0.00     0.011 C 
ENDROOT
BRANCH  20  31
ATOM     31  O   UNL     1      12.672  48.009   2.674  1.00  0.00    -0.393 OA
ATOM     32  H   UNL     1      13.628  48.141   2.443  1.00  0.00     0.210 HD
ENDBRANCH  20  31
TORSDOF 1
ENDMDL
MODEL 7
REMARK VINA RESULT:    -4.730      4.862      8.003
REMARK INTER + INTRA:          -4.869
REMARK INTER:                  -4.869
REMARK INTRA:                   0.000
REMARK UNBOUND:                 0.000
REMARK SMILES CC1(C)CC[C@@]2(C)CC[C@]3(C)C(=CC[C@H]4[C@@]5(C)CC[C@@H](O)C(C)(C)[C@H]5CC[C@]43C)[C@H]2C1
REMARK SMILES IDX 1 1 2 2 4 3 5 4 6 5 8 6 9 7 10 8 12 9 13 10 14 11 15 12
REMARK SMILES IDX 28 13 27 14 26 15 25 16 16 17 18 18 19 19 20 20 22 21 23 22
REMARK SMILES IDX 24 23 17 24 29 25 30 26 31 27 11 28 7 29 3 30 21 31
REMARK H PARENT 21 32
REMARK Flexibility Score: inf
ROOT
ATOM      1  C   UNL     1       6.545  42.360   8.766  1.00  0.00     0.011 C 
ATOM      2  C   UNL     1       6.503  41.808  10.210  1.00  0.00    -0.035 C 
ATOM      3  C   UNL     1       7.128  40.390  10.233  1.00  0.00     0.007 C 
ATOM      4  C   UNL     1       8.660  40.410  10.216  1.00  0.00     0.008 C 
ATOM      5  C   UNL     1       9.276  41.213  11.393  1.00  0.00    -0.026 C 
ATOM      6  C   UNL     1      10.830  41.102  11.300  1.00  0.00     0.008 C 
ATOM      7  C   UNL     1      11.503  42.067  10.311  1.00  0.00     0.012 C 
ATOM      8  C   UNL     1      11.115  43.568  10.515  1.00  0.00    -0.006 C 
ATOM      9  C   UNL     1       9.583  43.586  10.381  1.00  0.00    -0.064 C 
ATOM     10  C   UNL     1       8.985  44.319   9.423  1.00  0.00    -0.027 C 
ATOM     11  C   UNL     1       9.667  44.896   8.228  1.00  0.00     0.032 C 
ATOM     12  C   UNL     1      11.154  44.490   8.053  1.00  0.00     0.006 C 
ATOM     13  C   UNL     1      11.874  44.537   9.450  1.00  0.00    -0.020 C 
ATOM     14  C   UNL     1      11.883  46.030   9.921  1.00  0.00     0.008 C 
ATOM     15  C   UNL     1      11.981  47.111   8.817  1.00  0.00     0.005 C 
ATOM     16  C   UNL     1      12.543  46.665   7.434  1.00  0.00     0.003 C 
ATOM     17  C   UNL     1      11.888  45.319   6.883  1.00  0.00    -0.025 C 
ATOM     18  C   UNL     1      10.896  45.653   5.721  1.00  0.00     0.010 C 
ATOM     19  C   UNL     1      11.497  46.467   4.555  1.00  0.00     0.033 C 
ATOM     20  C   UNL     1      12.698  47.354   4.943  1.00  0.00     0.120 C 
ATOM     21  C   UNL     1      12.606  47.887   6.402  1.00  0.00    -0.006 C 
ATOM     22  C   UNL     1      13.889  48.719   6.680  1.00  0.00     0.014 C 
ATOM     23  C   UNL     1      11.403  48.869   6.524  1.00  0.00     0.014 C 
ATOM     24  C   UNL     1      12.980  44.380   6.248  1.00  0.00     0.012 C 
ATOM     25  C   UNL     1      13.363  44.077   9.345  1.00  0.00     0.012 C 
ATOM     26  C   UNL     1       8.763  42.701  11.357  1.00  0.00     0.022 C 
ATOM     27  C   UNL     1       7.199  42.764  11.244  1.00  0.00     0.015 C 
ATOM     28  C   UNL     1      11.490  44.006  11.973  1.00  0.00     0.017 C 
ATOM     29  C   UNL     1       8.880  40.550  12.743  1.00  0.00     0.012 C 
ATOM     30  C   UNL     1       5.012  41.684  10.601  1.00  0.00     0.011 C 
ENDROOT
BRANCH  20  31
ATOM     31  O   UNL     1      12.799  48.419   4.026  1.00  0.00    -0.393 OA
ATOM     32  H   UNL     1      13.766  48.569   3.863  1.00  0.00     0.210 HD
ENDBRANCH  20  31
TORSDOF 1
ENDMDL
MODEL 8
REMARK VINA RESULT:    -4.700      1.951      4.569
REMARK INTER + INTRA:          -4.837
REMARK INTER:                  -4.837
REMARK INTRA:                   0.000
REMARK UNBOUND:                 0.000
REMARK SMILES CC1(C)CC[C@@]2(C)CC[C@]3(C)C(=CC[C@H]4[C@@]5(C)CC[C@@H](O)C(C)(C)[C@H]5CC[C@]43C)[C@H]2C1
REMARK SMILES IDX 1 1 2 2 4 3 5 4 6 5 8 6 9 7 10 8 12 9 13 10 14 11 15 12
REMARK SMILES IDX 28 13 27 14 26 15 25 16 16 17 18 18 19 19 20 20 22 21 23 22
REMARK SMILES IDX 24 23 17 24 29 25 30 26 31 27 11 28 7 29 3 30 21 31
REMARK H PARENT 21 32
REMARK Flexibility Score: inf
ROOT
ATOM      1  C   UNL     1      11.486  43.393   8.725  1.00  0.00     0.011 C 
ATOM      2  C   UNL     1      11.748  43.998  10.123  1.00  0.00    -0.035 C 
ATOM      3  C   UNL     1      13.276  44.075  10.367  1.00  0.00     0.007 C 
ATOM      4  C   UNL     1      13.937  45.263   9.660  1.00  0.00     0.008 C 
ATOM      5  C   UNL     1      13.328  46.632  10.061  1.00  0.00    -0.026 C 
ATOM      6  C   UNL     1      14.125  47.756   9.327  1.00  0.00     0.008 C 
ATOM      7  C   UNL     1      13.710  48.017   7.870  1.00  0.00     0.012 C 
ATOM      8  C   UNL     1      12.180  48.274   7.676  1.00  0.00    -0.006 C 
ATOM      9  C   UNL     1      11.507  47.014   8.247  1.00  0.00    -0.064 C 
ATOM     10  C   UNL     1      10.732  46.235   7.469  1.00  0.00    -0.027 C 
ATOM     11  C   UNL     1      10.695  46.274   5.978  1.00  0.00     0.032 C 
ATOM     12  C   UNL     1      11.735  47.212   5.312  1.00  0.00     0.006 C 
ATOM     13  C   UNL     1      11.810  48.560   6.117  1.00  0.00    -0.020 C 
ATOM     14  C   UNL     1      10.423  49.272   5.966  1.00  0.00     0.008 C 
ATOM     15  C   UNL     1       9.668  49.056   4.632  1.00  0.00     0.005 C 
ATOM     16  C   UNL     1      10.510  48.593   3.405  1.00  0.00     0.003 C 
ATOM     17  C   UNL     1      11.494  47.379   3.728  1.00  0.00    -0.025 C 
ATOM     18  C   UNL     1      10.927  46.062   3.102  1.00  0.00     0.010 C 
ATOM     19  C   UNL     1      10.640  46.124   1.587  1.00  0.00     0.033 C 
ATOM     20  C   UNL     1      10.327  47.536   1.049  1.00  0.00     0.120 C 
ATOM     21  C   UNL     1       9.604  48.432   2.096  1.00  0.00    -0.006 C 
ATOM     22  C   UNL     1       9.393  49.831   1.451  1.00  0.00     0.014 C 
ATOM     23  C   UNL     1       8.187  47.856   2.385  1.00  0.00     0.014 C 
ATOM     24  C   UNL     1      12.898  47.597   3.053  1.00  0.00     0.012 C 
ATOM     25  C   UNL     1      12.889  49.523   5.527  1.00  0.00     0.012 C 
ATOM     26  C   UNL     1      11.789  46.655   9.730  1.00  0.00     0.022 C 
ATOM     27  C   UNL     1      11.060  45.396  10.317  1.00  0.00     0.015 C 
ATOM     28  C   UNL     1      11.747  49.505   8.546  1.00  0.00     0.017 C 
ATOM     29  C   UNL     1      13.546  46.877  11.581  1.00  0.00     0.012 C 
ATOM     30  C   UNL     1      11.144  43.019  11.156  1.00  0.00     0.011 C 
ENDROOT
BRANCH  20  31
ATOM     31  O   UNL     1       9.561  47.422  -0.127  1.00  0.00    -0.393 OA
ATOM     32  H   UNL     1       9.081  46.555  -0.077  1.00  0.00     0.210 HD
ENDBRANCH  20  31
TORSDOF 1
ENDMDL
MODEL 9
REMARK VINA RESULT:    -4.282      3.121      5.698
REMARK INTER + INTRA:          -4.407
REMARK INTER:                  -4.407
REMARK INTRA:                   0.000
REMARK UNBOUND:                 0.000
REMARK SMILES CC1(C)CC[C@@]2(C)CC[C@]3(C)C(=CC[C@H]4[C@@]5(C)CC[C@@H](O)C(C)(C)[C@H]5CC[C@]43C)[C@H]2C1
REMARK SMILES IDX 1 1 2 2 4 3 5 4 6 5 8 6 9 7 10 8 12 9 13 10 14 11 15 12
REMARK SMILES IDX 28 13 27 14 26 15 25 16 16 17 18 18 19 19 20 20 22 21 23 22
REMARK SMILES IDX 24 23 17 24 29 25 30 26 31 27 11 28 7 29 3 30 21 31
REMARK H PARENT 21 32
REMARK Flexibility Score: inf
ROOT
ATOM      1  C   UNL     1      14.096  42.250   8.004  1.00  0.00     0.011 C 
ATOM      2  C   UNL     1      13.432  41.791   9.323  1.00  0.00    -0.035 C 
ATOM      3  C   UNL     1      14.125  42.497  10.516  1.00  0.00     0.007 C 
ATOM      4  C   UNL     1      13.657  43.943  10.709  1.00  0.00     0.008 C 
ATOM      5  C   UNL     1      12.125  44.070  10.915  1.00  0.00    -0.026 C 
ATOM      6  C   UNL     1      11.787  45.574  11.164  1.00  0.00     0.008 C 
ATOM      7  C   UNL     1      11.674  46.444   9.902  1.00  0.00     0.012 C 
ATOM      8  C   UNL     1      10.696  45.879   8.821  1.00  0.00    -0.006 C 
ATOM      9  C   UNL     1      11.246  44.478   8.504  1.00  0.00    -0.064 C 
ATOM     10  C   UNL     1      11.644  44.161   7.257  1.00  0.00    -0.027 C 
ATOM     11  C   UNL     1      11.920  45.141   6.166  1.00  0.00     0.032 C 
ATOM     12  C   UNL     1      11.849  46.634   6.582  1.00  0.00     0.006 C 
ATOM     13  C   UNL     1      10.607  46.854   7.520  1.00  0.00    -0.020 C 
ATOM     14  C   UNL     1       9.323  46.577   6.668  1.00  0.00     0.008 C 
ATOM     15  C   UNL     1       9.393  46.932   5.162  1.00  0.00     0.005 C 
ATOM     16  C   UNL     1      10.487  47.950   4.722  1.00  0.00     0.003 C 
ATOM     17  C   UNL     1      11.932  47.632   5.320  1.00  0.00    -0.025 C 
ATOM     18  C   UNL     1      12.848  47.045   4.196  1.00  0.00     0.010 C 
ATOM     19  C   UNL     1      12.978  47.917   2.929  1.00  0.00     0.033 C 
ATOM     20  C   UNL     1      11.774  48.844   2.662  1.00  0.00     0.120 C 
ATOM     21  C   UNL     1      10.427  48.237   3.149  1.00  0.00    -0.006 C 
ATOM     22  C   UNL     1       9.311  49.281   2.867  1.00  0.00     0.014 C 
ATOM     23  C   UNL     1      10.084  46.978   2.298  1.00  0.00     0.014 C 
ATOM     24  C   UNL     1      12.645  48.949   5.801  1.00  0.00     0.012 C 
ATOM     25  C   UNL     1      10.520  48.331   8.021  1.00  0.00     0.012 C 
ATOM     26  C   UNL     1      11.363  43.468   9.675  1.00  0.00     0.022 C 
ATOM     27  C   UNL     1      11.880  42.026   9.333  1.00  0.00     0.015 C 
ATOM     28  C   UNL     1       9.266  45.720   9.447  1.00  0.00     0.017 C 
ATOM     29  C   UNL     1      11.705  43.318  12.210  1.00  0.00     0.012 C 
ATOM     30  C   UNL     1      13.687  40.271   9.448  1.00  0.00     0.011 C 
ENDROOT
BRANCH  20  31
ATOM     31  O   UNL     1      11.720  49.142   1.286  1.00  0.00    -0.393 OA
ATOM     32  H   UNL     1      12.535  49.668   1.072  1.00  0.00     0.210 HD
ENDBRANCH  20  31
TORSDOF 1
ENDMDL
