MODEL 1
REMARK VINA RESULT:    -5.279      0.000      0.000
REMARK INTER + INTRA:         -10.871
REMARK INTER:                  -8.983
REMARK INTRA:                  -1.888
REMARK UNBOUND:                -1.888
REMARK SMILES CCCCCCCCCCCCCC(=O)[O-]
REMARK SMILES IDX 8 1 9 2 10 3 11 4 12 5 13 6 14 7 15 8 16 9 7 10 6 11 5 12
REMARK SMILES IDX 4 13 3 14 2 15 1 16
REMARK H PARENT
REMARK Flexibility Score: inf
ROOT
ATOM      1  C   UNL     1     -12.575  -8.616  10.367  1.00  0.00     0.000 C 
ENDROOT
BRANCH   1   2
ATOM      2  C   UNL     1     -11.643  -7.818   9.439  1.00  0.00     0.000 C 
BRANCH   2   3
ATOM      3  C   UNL     1     -11.618  -8.375   8.007  1.00  0.00     0.000 C 
BRANCH   3   4
ATOM      4  C   UNL     1     -11.107  -9.822   7.941  1.00  0.00     0.000 C 
BRANCH   4   5
ATOM      5  C   UNL     1      -9.745  -9.954   8.641  1.00  0.00     0.006 C 
BRANCH   5   6
ATOM      6  C   UNL     1      -8.696 -10.633   7.750  1.00  0.00     0.053 C 
BRANCH   6   7
ATOM      7  C   UNL     1      -7.698  -9.651   7.219  1.00  0.00     0.041 C 
ATOM      8  O   UNL     1      -6.538 -10.033   6.909  1.00  0.00    -0.550 OA
ATOM      9  O   UNL     1      -8.036  -8.309   7.098  1.00  0.00    -0.550 OA
ENDBRANCH   6   7
ENDBRANCH   5   6
ENDBRANCH   4   5
ENDBRANCH   3   4
ENDBRANCH   2   3
ENDBRANCH   1   2
BRANCH   1  10
ATOM     10  C   UNL     1     -11.824  -9.255  11.548  1.00  0.00     0.000 C 
BRANCH  10  11
ATOM     11  C   UNL     1     -12.310 -10.682  11.859  1.00  0.00    -0.000 C 
BRANCH  11  12
ATOM     12  C   UNL     1     -13.360 -11.179  10.852  1.00  0.00    -0.000 C 
BRANCH  12  13
ATOM     13  C   UNL     1     -12.875 -12.390  10.042  1.00  0.00    -0.000 C 
BRANCH  13  14
ATOM     14  C   UNL     1     -11.409 -12.715  10.364  1.00  0.00    -0.000 C 
BRANCH  14  15
ATOM     15  C   UNL     1     -10.731 -13.538   9.258  1.00  0.00    -0.003 C 
ATOM     16  C   UNL     1     -11.600 -13.683   8.009  1.00  0.00     0.004 C 
ENDBRANCH  14  15
ENDBRANCH  13  14
ENDBRANCH  12  13
ENDBRANCH  11  12
ENDBRANCH  10  11
ENDBRANCH   1  10
TORSDOF 12
ENDMDL
MODEL 2
REMARK VINA RESULT:    -5.238      2.863      4.887
REMARK INTER + INTRA:         -10.801
REMARK INTER:                  -9.281
REMARK INTRA:                  -1.519
REMARK UNBOUND:                -1.888
REMARK SMILES CCCCCCCCCCCCCC(=O)[O-]
REMARK SMILES IDX 8 1 9 2 10 3 11 4 12 5 13 6 14 7 15 8 16 9 7 10 6 11 5 12
REMARK SMILES IDX 4 13 3 14 2 15 1 16
REMARK H PARENT
REMARK Flexibility Score: inf
ROOT
ATOM      1  C   UNL     1     -12.132 -10.933  11.906  1.00  0.00     0.000 C 
ENDROOT
BRANCH   1   2
ATOM      2  C   UNL     1     -13.137 -11.270  10.791  1.00  0.00     0.000 C 
BRANCH   2   3
ATOM      3  C   UNL     1     -12.737 -12.522   9.994  1.00  0.00     0.000 C 
BRANCH   3   4
ATOM      4  C   UNL     1     -11.240 -12.844  10.108  1.00  0.00     0.000 C 
BRANCH   4   5
ATOM      5  C   UNL     1     -10.711 -13.461   8.804  1.00  0.00     0.006 C 
BRANCH   5   6
ATOM      6  C   UNL     1     -11.309 -14.848   8.532  1.00  0.00     0.053 C 
BRANCH   6   7
ATOM      7  C   UNL     1     -10.378 -15.946   8.947  1.00  0.00     0.041 C 
ATOM      8  O   UNL     1      -9.162 -15.901   8.623  1.00  0.00    -0.550 OA
ATOM      9  O   UNL     1     -10.860 -17.036   9.661  1.00  0.00    -0.550 OA
ENDBRANCH   6   7
ENDBRANCH   5   6
ENDBRANCH   4   5
ENDBRANCH   3   4
ENDBRANCH   2   3
ENDBRANCH   1   2
BRANCH   1  10
ATOM     10  C   UNL     1     -11.678  -9.464  11.865  1.00  0.00     0.000 C 
BRANCH  10  11
ATOM     11  C   UNL     1     -12.111  -8.744  10.575  1.00  0.00    -0.000 C 
BRANCH  11  12
ATOM     12  C   UNL     1     -11.012  -7.828  10.013  1.00  0.00    -0.000 C 
BRANCH  12  13
ATOM     13  C   UNL     1     -10.768  -8.049   8.513  1.00  0.00    -0.000 C 
BRANCH  13  14
ATOM     14  C   UNL     1     -10.515  -9.534   8.211  1.00  0.00    -0.000 C 
BRANCH  14  15
ATOM     15  C   UNL     1      -9.091  -9.976   8.584  1.00  0.00    -0.003 C 
ATOM     16  C   UNL     1      -8.422 -10.805   7.488  1.00  0.00     0.004 C 
ENDBRANCH  14  15
ENDBRANCH  13  14
ENDBRANCH  12  13
ENDBRANCH  11  12
ENDBRANCH  10  11
ENDBRANCH   1  10
TORSDOF 12
ENDMDL
MODEL 3
REMARK VINA RESULT:    -5.206      1.166      1.720
REMARK INTER + INTRA:         -10.747
REMARK INTER:                  -9.244
REMARK INTRA:                  -1.502
REMARK UNBOUND:                -1.888
REMARK SMILES CCCCCCCCCCCCCC(=O)[O-]
REMARK SMILES IDX 8 1 9 2 10 3 11 4 12 5 13 6 14 7 15 8 16 9 7 10 6 11 5 12
REMARK SMILES IDX 4 13 3 14 2 15 1 16
REMARK H PARENT
REMARK Flexibility Score: inf
ROOT
ATOM      1  C   UNL     1     -11.878  -9.581  11.838  1.00  0.00     0.000 C 
ENDROOT
BRANCH   1   2
ATOM      2  C   UNL     1     -12.050  -8.565  10.694  1.00  0.00     0.000 C 
BRANCH   2   3
ATOM      3  C   UNL     1     -10.918  -8.645   9.659  1.00  0.00     0.000 C 
BRANCH   3   4
ATOM      4  C   UNL     1     -11.401  -9.141   8.287  1.00  0.00     0.000 C 
BRANCH   4   5
ATOM      5  C   UNL     1     -10.510 -10.283   7.772  1.00  0.00     0.006 C 
BRANCH   5   6
ATOM      6  C   UNL     1      -9.108 -10.253   8.394  1.00  0.00     0.053 C 
BRANCH   6   7
ATOM      7  C   UNL     1      -8.111  -9.599   7.488  1.00  0.00     0.041 C 
ATOM      8  O   UNL     1      -7.130 -10.255   7.047  1.00  0.00    -0.550 OA
ATOM      9  O   UNL     1      -8.246  -8.256   7.156  1.00  0.00    -0.550 OA
ENDBRANCH   6   7
ENDBRANCH   5   6
ENDBRANCH   4   5
ENDBRANCH   3   4
ENDBRANCH   2   3
ENDBRANCH   1   2
BRANCH   1  10
ATOM     10  C   UNL     1     -11.687 -11.018  11.325  1.00  0.00     0.000 C 
BRANCH  10  11
ATOM     11  C   UNL     1     -12.942 -11.571  10.627  1.00  0.00    -0.000 C 
BRANCH  11  12
ATOM     12  C   UNL     1     -12.661 -12.864   9.844  1.00  0.00    -0.000 C 
BRANCH  12  13
ATOM     13  C   UNL     1     -11.172 -13.241   9.841  1.00  0.00    -0.000 C 
BRANCH  13  14
ATOM     14  C   UNL     1     -10.862 -14.240   8.715  1.00  0.00    -0.000 C 
BRANCH  14  15
ATOM     15  C   UNL     1     -10.104 -15.478   9.219  1.00  0.00    -0.003 C 
ATOM     16  C   UNL     1     -10.961 -16.743   9.206  1.00  0.00     0.004 C 
ENDBRANCH  14  15
ENDBRANCH  13  14
ENDBRANCH  12  13
ENDBRANCH  11  12
ENDBRANCH  10  11
ENDBRANCH   1  10
TORSDOF 12
ENDMDL
MODEL 4
REMARK VINA RESULT:    -5.094      2.866      4.860
REMARK INTER + INTRA:         -10.555
REMARK INTER:                  -8.857
REMARK INTRA:                  -1.698
REMARK UNBOUND:                -1.888
REMARK SMILES CCCCCCCCCCCCCC(=O)[O-]
REMARK SMILES IDX 8 1 9 2 10 3 11 4 12 5 13 6 14 7 15 8 16 9 7 10 6 11 5 12
REMARK SMILES IDX 4 13 3 14 2 15 1 16
REMARK H PARENT
REMARK Flexibility Score: inf
ROOT
ATOM      1  C   UNL     1     -12.701  -9.270  10.585  1.00  0.00     0.000 C 
ENDROOT
BRANCH   1   2
ATOM      2  C   UNL     1     -13.669 -10.447  10.801  1.00  0.00     0.000 C 
BRANCH   2   3
ATOM      3  C   UNL     1     -13.027 -11.806  10.479  1.00  0.00     0.000 C 
BRANCH   3   4
ATOM      4  C   UNL     1     -11.548 -11.875  10.885  1.00  0.00     0.000 C 
BRANCH   4   5
ATOM      5  C   UNL     1     -10.801 -12.931  10.055  1.00  0.00     0.006 C 
BRANCH   5   6
ATOM      6  C   UNL     1     -11.457 -13.168   8.689  1.00  0.00     0.053 C 
BRANCH   6   7
ATOM      7  C   UNL     1     -11.835 -14.605   8.495  1.00  0.00     0.041 C 
ATOM      8  O   UNL     1     -13.036 -14.920   8.284  1.00  0.00    -0.550 OA
ATOM      9  O   UNL     1     -10.868 -15.598   8.581  1.00  0.00    -0.550 OA
ENDBRANCH   6   7
ENDBRANCH   5   6
ENDBRANCH   4   5
ENDBRANCH   3   4
ENDBRANCH   2   3
ENDBRANCH   1   2
BRANCH   1  10
ATOM     10  C   UNL     1     -12.845  -8.639   9.190  1.00  0.00     0.000 C 
BRANCH  10  11
ATOM     11  C   UNL     1     -11.487  -8.294   8.552  1.00  0.00    -0.000 C 
BRANCH  11  12
ATOM     12  C   UNL     1     -10.332  -8.330   9.565  1.00  0.00    -0.000 C 
BRANCH  12  13
ATOM     13  C   UNL     1      -9.319  -9.445   9.268  1.00  0.00    -0.000 C 
BRANCH  13  14
ATOM     14  C   UNL     1      -9.630 -10.126   7.927  1.00  0.00    -0.000 C 
BRANCH  14  15
ATOM     15  C   UNL     1      -8.433 -10.914   7.373  1.00  0.00    -0.003 C 
ATOM     16  C   UNL     1      -7.197 -10.041   7.158  1.00  0.00     0.004 C 
ENDBRANCH  14  15
ENDBRANCH  13  14
ENDBRANCH  12  13
ENDBRANCH  11  12
ENDBRANCH  10  11
ENDBRANCH   1  10
TORSDOF 12
ENDMDL
MODEL 5
REMARK VINA RESULT:    -5.066      2.928      5.045
REMARK INTER + INTRA:         -10.507
REMARK INTER:                  -8.877
REMARK INTRA:                  -1.630
REMARK UNBOUND:                -1.888
REMARK SMILES CCCCCCCCCCCCCC(=O)[O-]
REMARK SMILES IDX 8 1 9 2 10 3 11 4 12 5 13 6 14 7 15 8 16 9 7 10 6 11 5 12
REMARK SMILES IDX 4 13 3 14 2 15 1 16
REMARK H PARENT
REMARK Flexibility Score: inf
ROOT
ATOM      1  C   UNL     1      -8.689 -10.195   7.920  1.00  0.00     0.000 C 
ENDROOT
BRANCH   1   2
ATOM      2  C   UNL     1      -9.237 -11.514   7.348  1.00  0.00     0.000 C 
BRANCH   2   3
ATOM      3  C   UNL     1     -10.075 -12.298   8.371  1.00  0.00     0.000 C 
BRANCH   3   4
ATOM      4  C   UNL     1     -11.282 -13.002   7.734  1.00  0.00     0.000 C 
BRANCH   4   5
ATOM      5  C   UNL     1     -11.867 -14.056   8.687  1.00  0.00     0.006 C 
BRANCH   5   6
ATOM      6  C   UNL     1     -10.808 -14.636   9.634  1.00  0.00     0.053 C 
BRANCH   6   7
ATOM      7  C   UNL     1     -10.219 -15.905   9.099  1.00  0.00     0.041 C 
ATOM      8  O   UNL     1      -9.118 -15.883   8.487  1.00  0.00    -0.550 OA
ATOM      9  O   UNL     1     -10.901 -17.106   9.245  1.00  0.00    -0.550 OA
ENDBRANCH   6   7
ENDBRANCH   5   6
ENDBRANCH   4   5
ENDBRANCH   3   4
ENDBRANCH   2   3
ENDBRANCH   1   2
BRANCH   1  10
ATOM     10  C   UNL     1      -9.373  -9.796   9.238  1.00  0.00     0.000 C 
BRANCH  10  11
ATOM     11  C   UNL     1      -9.862  -8.337   9.235  1.00  0.00    -0.000 C 
BRANCH  11  12
ATOM     12  C   UNL     1     -11.396  -8.229   9.243  1.00  0.00    -0.000 C 
BRANCH  12  13
ATOM     13  C   UNL     1     -12.017  -8.726  10.556  1.00  0.00    -0.000 C 
BRANCH  13  14
ATOM     14  C   UNL     1     -13.288  -9.546  10.286  1.00  0.00    -0.000 C 
BRANCH  14  15
ATOM     15  C   UNL     1     -13.059 -11.058  10.445  1.00  0.00    -0.003 C 
ATOM     16  C   UNL     1     -12.001 -11.389  11.497  1.00  0.00     0.004 C 
ENDBRANCH  14  15
ENDBRANCH  13  14
ENDBRANCH  12  13
ENDBRANCH  11  12
ENDBRANCH  10  11
ENDBRANCH   1  10
TORSDOF 12
ENDMDL
MODEL 6
REMARK VINA RESULT:    -4.905      1.522      2.160
REMARK INTER + INTRA:         -10.233
REMARK INTER:                  -8.597
REMARK INTRA:                  -1.636
REMARK UNBOUND:                -1.888
REMARK SMILES CCCCCCCCCCCCCC(=O)[O-]
REMARK SMILES IDX 8 1 9 2 10 3 11 4 12 5 13 6 14 7 15 8 16 9 7 10 6 11 5 12
REMARK SMILES IDX 4 13 3 14 2 15 1 16
REMARK H PARENT
REMARK Flexibility Score: inf
ROOT
ATOM      1  C   UNL     1     -14.126  -9.269  10.457  1.00  0.00     0.000 C 
ENDROOT
BRANCH   1   2
ATOM      2  C   UNL     1     -13.142  -8.827   9.360  1.00  0.00     0.000 C 
BRANCH   2   3
ATOM      3  C   UNL     1     -12.362  -7.559   9.743  1.00  0.00     0.000 C 
BRANCH   3   4
ATOM      4  C   UNL     1     -10.853  -7.808   9.878  1.00  0.00     0.000 C 
BRANCH   4   5
ATOM      5  C   UNL     1     -10.246  -8.243   8.535  1.00  0.00     0.006 C 
BRANCH   5   6
ATOM      6  C   UNL     1      -9.316  -9.454   8.682  1.00  0.00     0.053 C 
BRANCH   6   7
ATOM      7  C   UNL     1      -9.723 -10.581   7.783  1.00  0.00     0.041 C 
ATOM      8  O   UNL     1     -10.917 -10.682   7.396  1.00  0.00    -0.550 OA
ATOM      9  O   UNL     1      -8.792 -11.539   7.401  1.00  0.00    -0.550 OA
ENDBRANCH   6   7
ENDBRANCH   5   6
ENDBRANCH   4   5
ENDBRANCH   3   4
ENDBRANCH   2   3
ENDBRANCH   1   2
BRANCH   1  10
ATOM     10  C   UNL     1     -13.736 -10.614  11.091  1.00  0.00     0.000 C 
BRANCH  10  11
ATOM     11  C   UNL     1     -12.382 -10.556  11.822  1.00  0.00    -0.000 C 
BRANCH  11  12
ATOM     12  C   UNL     1     -11.289 -11.365  11.104  1.00  0.00    -0.000 C 
BRANCH  12  13
ATOM     13  C   UNL     1     -11.862 -12.501  10.245  1.00  0.00    -0.000 C 
BRANCH  13  14
ATOM     14  C   UNL     1     -10.784 -13.548   9.929  1.00  0.00    -0.000 C 
BRANCH  14  15
ATOM     15  C   UNL     1     -10.952 -14.165   8.531  1.00  0.00    -0.003 C 
ATOM     16  C   UNL     1     -12.408 -14.199   8.070  1.00  0.00     0.004 C 
ENDBRANCH  14  15
ENDBRANCH  13  14
ENDBRANCH  12  13
ENDBRANCH  11  12
ENDBRANCH  10  11
ENDBRANCH   1  10
TORSDOF 12
ENDMDL
MODEL 7
REMARK VINA RESULT:    -4.883      3.018      4.980
REMARK INTER + INTRA:         -10.197
REMARK INTER:                  -8.450
REMARK INTRA:                  -1.747
REMARK UNBOUND:                -1.888
REMARK SMILES CCCCCCCCCCCCCC(=O)[O-]
REMARK SMILES IDX 8 1 9 2 10 3 11 4 12 5 13 6 14 7 15 8 16 9 7 10 6 11 5 12
REMARK SMILES IDX 4 13 3 14 2 15 1 16
REMARK H PARENT
REMARK Flexibility Score: inf
ROOT
ATOM      1  C   UNL     1      -9.115 -10.128   7.707  1.00  0.00     0.000 C 
ENDROOT
BRANCH   1   2
ATOM      2  C   UNL     1      -9.080  -9.848   9.220  1.00  0.00     0.000 C 
BRANCH   2   3
ATOM      3  C   UNL     1     -10.141  -8.825   9.655  1.00  0.00     0.000 C 
BRANCH   3   4
ATOM      4  C   UNL     1     -11.201  -8.571   8.572  1.00  0.00     0.000 C 
BRANCH   4   5
ATOM      5  C   UNL     1     -12.042  -7.330   8.909  1.00  0.00     0.006 C 
BRANCH   5   6
ATOM      6  C   UNL     1     -13.015  -7.584  10.068  1.00  0.00     0.053 C 
BRANCH   6   7
ATOM      7  C   UNL     1     -14.414  -7.177   9.719  1.00  0.00     0.041 C 
ATOM      8  O   UNL     1     -14.992  -7.688   8.724  1.00  0.00    -0.550 OA
ATOM      9  O   UNL     1     -15.067  -6.209  10.473  1.00  0.00    -0.550 OA
ENDBRANCH   6   7
ENDBRANCH   5   6
ENDBRANCH   4   5
ENDBRANCH   3   4
ENDBRANCH   2   3
ENDBRANCH   1   2
BRANCH   1  10
ATOM     10  C   UNL     1      -9.298 -11.621   7.388  1.00  0.00     0.000 C 
BRANCH  10  11
ATOM     11  C   UNL     1     -10.654 -12.168   7.866  1.00  0.00    -0.000 C 
BRANCH  11  12
ATOM     12  C   UNL     1     -10.510 -13.184   9.011  1.00  0.00    -0.000 C 
BRANCH  12  13
ATOM     13  C   UNL     1     -11.255 -12.752  10.282  1.00  0.00    -0.000 C 
BRANCH  13  14
ATOM     14  C   UNL     1     -12.667 -12.248   9.947  1.00  0.00    -0.000 C 
BRANCH  14  15
ATOM     15  C   UNL     1     -13.140 -11.139  10.900  1.00  0.00    -0.003 C 
ATOM     16  C   UNL     1     -12.139 -10.855  12.020  1.00  0.00     0.004 C 
ENDBRANCH  14  15
ENDBRANCH  13  14
ENDBRANCH  12  13
ENDBRANCH  11  12
ENDBRANCH  10  11
ENDBRANCH   1  10
TORSDOF 12
ENDMDL
MODEL 8
REMARK VINA RESULT:    -4.771      1.311      4.108
REMARK INTER + INTRA:         -10.005
REMARK INTER:                  -8.544
REMARK INTRA:                  -1.461
REMARK UNBOUND:                -1.888
REMARK SMILES CCCCCCCCCCCCCC(=O)[O-]
REMARK SMILES IDX 8 1 9 2 10 3 11 4 12 5 13 6 14 7 15 8 16 9 7 10 6 11 5 12
REMARK SMILES IDX 4 13 3 14 2 15 1 16
REMARK H PARENT
REMARK Flexibility Score: inf
ROOT
ATOM      1  C   UNL     1     -11.430 -11.632  10.823  1.00  0.00     0.000 C 
ENDROOT
BRANCH   1   2
ATOM      2  C   UNL     1     -11.331 -12.982  10.091  1.00  0.00     0.000 C 
BRANCH   2   3
ATOM      3  C   UNL     1     -11.267 -12.822   8.564  1.00  0.00     0.000 C 
BRANCH   3   4
ATOM      4  C   UNL     1      -9.874 -12.405   8.069  1.00  0.00     0.000 C 
BRANCH   4   5
ATOM      5  C   UNL     1      -9.921 -11.025   7.395  1.00  0.00     0.006 C 
BRANCH   5   6
ATOM      6  C   UNL     1      -9.156  -9.961   8.194  1.00  0.00     0.053 C 
BRANCH   6   7
ATOM      7  C   UNL     1      -7.994  -9.415   7.422  1.00  0.00     0.041 C 
ATOM      8  O   UNL     1      -7.040 -10.168   7.097  1.00  0.00    -0.550 OA
ATOM      9  O   UNL     1      -7.949  -8.066   7.092  1.00  0.00    -0.550 OA
ENDBRANCH   6   7
ENDBRANCH   5   6
ENDBRANCH   4   5
ENDBRANCH   3   4
ENDBRANCH   2   3
ENDBRANCH   1   2
BRANCH   1  10
ATOM     10  C   UNL     1     -12.864 -11.078  10.845  1.00  0.00     0.000 C 
BRANCH  10  11
ATOM     11  C   UNL     1     -12.935  -9.595  10.440  1.00  0.00    -0.000 C 
BRANCH  11  12
ATOM     12  C   UNL     1     -11.619  -8.847  10.709  1.00  0.00    -0.000 C 
BRANCH  12  13
ATOM     13  C   UNL     1     -11.523  -7.523   9.936  1.00  0.00    -0.000 C 
BRANCH  13  14
ATOM     14  C   UNL     1     -12.388  -7.565   8.667  1.00  0.00    -0.000 C 
BRANCH  14  15
ATOM     15  C   UNL     1     -13.367  -6.383   8.583  1.00  0.00    -0.003 C 
ATOM     16  C   UNL     1     -13.959  -6.006   9.940  1.00  0.00     0.004 C 
ENDBRANCH  14  15
ENDBRANCH  13  14
ENDBRANCH  12  13
ENDBRANCH  11  12
ENDBRANCH  10  11
ENDBRANCH   1  10
TORSDOF 12
ENDMDL
MODEL 9
REMARK VINA RESULT:    -4.649      2.345      4.920
REMARK INTER + INTRA:          -9.798
REMARK INTER:                  -8.387
REMARK INTRA:                  -1.410
REMARK UNBOUND:                -1.888
REMARK SMILES CCCCCCCCCCCCCC(=O)[O-]
REMARK SMILES IDX 8 1 9 2 10 3 11 4 12 5 13 6 14 7 15 8 16 9 7 10 6 11 5 12
REMARK SMILES IDX 4 13 3 14 2 15 1 16
REMARK H PARENT
REMARK Flexibility Score: inf
ROOT
ATOM      1  C   UNL     1     -12.210 -12.636  10.186  1.00  0.00     0.000 C 
ENDROOT
BRANCH   1   2
ATOM      2  C   UNL     1     -12.090 -11.258  10.861  1.00  0.00     0.000 C 
BRANCH   2   3
ATOM      3  C   UNL     1     -13.455 -10.676  11.261  1.00  0.00     0.000 C 
BRANCH   3   4
ATOM      4  C   UNL     1     -13.910  -9.539  10.334  1.00  0.00     0.000 C 
BRANCH   4   5
ATOM      5  C   UNL     1     -12.802  -8.486  10.172  1.00  0.00     0.006 C 
BRANCH   5   6
ATOM      6  C   UNL     1     -13.291  -7.237   9.427  1.00  0.00     0.053 C 
BRANCH   6   7
ATOM      7  C   UNL     1     -13.513  -7.509   7.971  1.00  0.00     0.041 C 
ATOM      8  O   UNL     1     -12.622  -8.085   7.292  1.00  0.00    -0.550 OA
ATOM      9  O   UNL     1     -14.688  -7.097   7.356  1.00  0.00    -0.550 OA
ENDBRANCH   6   7
ENDBRANCH   5   6
ENDBRANCH   4   5
ENDBRANCH   3   4
ENDBRANCH   2   3
ENDBRANCH   1   2
BRANCH   1  10
ATOM     10  C   UNL     1     -10.849 -13.330  10.018  1.00  0.00     0.000 C 
BRANCH  10  11
ATOM     11  C   UNL     1     -10.532 -13.668   8.550  1.00  0.00    -0.000 C 
BRANCH  11  12
ATOM     12  C   UNL     1     -10.463 -12.417   7.658  1.00  0.00    -0.000 C 
BRANCH  12  13
ATOM     13  C   UNL     1      -9.041 -12.123   7.160  1.00  0.00    -0.000 C 
BRANCH  13  14
ATOM     14  C   UNL     1      -8.635 -10.677   7.481  1.00  0.00    -0.000 C 
BRANCH  14  15
ATOM     15  C   UNL     1      -9.753  -9.894   8.188  1.00  0.00    -0.003 C 
ATOM     16  C   UNL     1      -9.286  -9.237   9.487  1.00  0.00     0.004 C 
ENDBRANCH  14  15
ENDBRANCH  13  14
ENDBRANCH  12  13
ENDBRANCH  11  12
ENDBRANCH  10  11
ENDBRANCH   1  10
TORSDOF 12
ENDMDL
