MODEL 1
REMARK VINA RESULT:    -4.862      0.000      0.000
REMARK INTER + INTRA:         -11.636
REMARK INTER:                  -9.409
REMARK INTRA:                  -2.226
REMARK UNBOUND:                -2.226
REMARK SMILES CCCCCCCCCCCCCCCCCC(=O)[O-]
REMARK SMILES IDX 10 1 11 2 12 3 13 4 14 5 15 6 16 7 17 8 18 9 19 10 20 11
REMARK SMILES IDX 9 12 8 13 7 14 6 15 5 16 4 17 3 18 2 19 1 20
REMARK H PARENT
REMARK Flexibility Score: inf
ROOT
ATOM      1  C   UNL     1      14.051  12.562 -21.763  1.00  0.00     0.000 C 
ENDROOT
BRANCH   1   2
ATOM      2  C   UNL     1      13.126  11.365 -21.491  1.00  0.00     0.000 C 
BRANCH   2   3
ATOM      3  C   UNL     1      12.507  11.406 -20.083  1.00  0.00     0.000 C 
BRANCH   3   4
ATOM      4  C   UNL     1      11.002  11.712 -20.109  1.00  0.00     0.000 C 
BRANCH   4   5
ATOM      5  C   UNL     1      10.577  12.686 -19.000  1.00  0.00     0.000 C 
BRANCH   5   6
ATOM      6  C   UNL     1      11.690  12.843 -17.953  1.00  0.00     0.000 C 
BRANCH   6   7
ATOM      7  C   UNL     1      11.924  14.308 -17.551  1.00  0.00     0.006 C 
BRANCH   7   8
ATOM      8  C   UNL     1      10.618  15.103 -17.432  1.00  0.00     0.053 C 
BRANCH   8   9
ATOM      9  C   UNL     1      10.715  16.103 -16.323  1.00  0.00     0.041 C 
ATOM     10  O   UNL     1       9.682  16.686 -15.901  1.00  0.00    -0.550 OA
ATOM     11  O   UNL     1      11.942  16.354 -15.719  1.00  0.00    -0.550 OA
ENDBRANCH   8   9
ENDBRANCH   7   8
ENDBRANCH   6   7
ENDBRANCH   5   6
ENDBRANCH   4   5
ENDBRANCH   3   4
ENDBRANCH   2   3
ENDBRANCH   1   2
BRANCH   1  12
ATOM     12  C   UNL     1      14.218  13.469 -20.532  1.00  0.00     0.000 C 
BRANCH  12  13
ATOM     13  C   UNL     1      13.572  14.850 -20.724  1.00  0.00    -0.000 C 
BRANCH  13  14
ATOM     14  C   UNL     1      14.193  15.924 -19.814  1.00  0.00    -0.000 C 
BRANCH  14  15
ATOM     15  C   UNL     1      15.508  15.461 -19.169  1.00  0.00    -0.000 C 
BRANCH  15  16
ATOM     16  C   UNL     1      16.089  16.505 -18.198  1.00  0.00    -0.000 C 
BRANCH  16  17
ATOM     17  C   UNL     1      16.347  15.929 -16.797  1.00  0.00    -0.000 C 
BRANCH  17  18
ATOM     18  C   UNL     1      15.496  14.685 -16.503  1.00  0.00    -0.000 C 
BRANCH  18  19
ATOM     19  C   UNL     1      16.371  13.525 -16.016  1.00  0.00    -0.003 C 
ATOM     20  C   UNL     1      17.632  13.390 -16.866  1.00  0.00     0.004 C 
ENDBRANCH  18  19
ENDBRANCH  17  18
ENDBRANCH  16  17
ENDBRANCH  15  16
ENDBRANCH  14  15
ENDBRANCH  13  14
ENDBRANCH  12  13
ENDBRANCH   1  12
TORSDOF 16
ENDMDL
MODEL 2
REMARK VINA RESULT:    -4.817      2.756      5.701
REMARK INTER + INTRA:         -11.549
REMARK INTER:                  -8.610
REMARK INTRA:                  -2.939
REMARK UNBOUND:                -2.226
REMARK SMILES CCCCCCCCCCCCCCCCCC(=O)[O-]
REMARK SMILES IDX 10 1 11 2 12 3 13 4 14 5 15 6 16 7 17 8 18 9 19 10 20 11
REMARK SMILES IDX 9 12 8 13 7 14 6 15 5 16 4 17 3 18 2 19 1 20
REMARK H PARENT
REMARK Flexibility Score: inf
ROOT
ATOM      1  C   UNL     1      10.319  15.485 -20.030  1.00  0.00     0.000 C 
ENDROOT
BRANCH   1   2
ATOM      2  C   UNL     1      11.711  16.116 -20.195  1.00  0.00     0.000 C 
BRANCH   2   3
ATOM      3  C   UNL     1      12.756  15.112 -20.713  1.00  0.00     0.000 C 
BRANCH   3   4
ATOM      4  C   UNL     1      14.043  15.114 -19.874  1.00  0.00     0.000 C 
BRANCH   4   5
ATOM      5  C   UNL     1      13.845  15.744 -18.488  1.00  0.00     0.000 C 
BRANCH   5   6
ATOM      6  C   UNL     1      14.308  14.786 -17.380  1.00  0.00     0.000 C 
BRANCH   6   7
ATOM      7  C   UNL     1      15.482  15.348 -16.561  1.00  0.00     0.006 C 
BRANCH   7   8
ATOM      8  C   UNL     1      16.755  15.523 -17.400  1.00  0.00     0.053 C 
BRANCH   8   9
ATOM      9  C   UNL     1      17.297  14.190 -17.808  1.00  0.00     0.041 C 
ATOM     10  O   UNL     1      17.235  13.822 -19.011  1.00  0.00    -0.550 OA
ATOM     11  O   UNL     1      17.917  13.374 -16.869  1.00  0.00    -0.550 OA
ENDBRANCH   8   9
ENDBRANCH   7   8
ENDBRANCH   6   7
ENDBRANCH   5   6
ENDBRANCH   4   5
ENDBRANCH   3   4
ENDBRANCH   2   3
ENDBRANCH   1   2
BRANCH   1  12
ATOM     12  C   UNL     1      10.107  14.884 -18.630  1.00  0.00     0.000 C 
BRANCH  12  13
ATOM     13  C   UNL     1      10.128  13.348 -18.638  1.00  0.00    -0.000 C 
BRANCH  13  14
ATOM     14  C   UNL     1      11.359  12.771 -17.916  1.00  0.00    -0.000 C 
BRANCH  14  15
ATOM     15  C   UNL     1      12.219  11.887 -18.833  1.00  0.00    -0.000 C 
BRANCH  15  16
ATOM     16  C   UNL     1      11.542  11.606 -20.186  1.00  0.00    -0.000 C 
BRANCH  16  17
ATOM     17  C   UNL     1      12.557  11.352 -21.312  1.00  0.00    -0.000 C 
BRANCH  17  18
ATOM     18  C   UNL     1      14.008  11.345 -20.810  1.00  0.00    -0.000 C 
BRANCH  18  19
ATOM     19  C   UNL     1      14.909  12.179 -21.726  1.00  0.00    -0.003 C 
ATOM     20  C   UNL     1      14.187  12.555 -23.017  1.00  0.00     0.004 C 
ENDBRANCH  18  19
ENDBRANCH  17  18
ENDBRANCH  16  17
ENDBRANCH  15  16
ENDBRANCH  14  15
ENDBRANCH  13  14
ENDBRANCH  12  13
ENDBRANCH   1  12
TORSDOF 16
ENDMDL
MODEL 3
REMARK VINA RESULT:    -4.793      2.495      6.115
REMARK INTER + INTRA:         -11.502
REMARK INTER:                  -8.953
REMARK INTRA:                  -2.550
REMARK UNBOUND:                -2.226
REMARK SMILES CCCCCCCCCCCCCCCCCC(=O)[O-]
REMARK SMILES IDX 10 1 11 2 12 3 13 4 14 5 15 6 16 7 17 8 18 9 19 10 20 11
REMARK SMILES IDX 9 12 8 13 7 14 6 15 5 16 4 17 3 18 2 19 1 20
REMARK H PARENT
REMARK Flexibility Score: inf
ROOT
ATOM      1  C   UNL     1      13.822  14.410 -18.687  1.00  0.00     0.000 C 
ENDROOT
BRANCH   1   2
ATOM      2  C   UNL     1      13.261  15.827 -18.491  1.00  0.00     0.000 C 
BRANCH   2   3
ATOM      3  C   UNL     1      13.829  16.833 -19.508  1.00  0.00     0.000 C 
BRANCH   3   4
ATOM      4  C   UNL     1      14.649  17.947 -18.840  1.00  0.00     0.000 C 
BRANCH   4   5
ATOM      5  C   UNL     1      14.776  17.760 -17.321  1.00  0.00     0.000 C 
BRANCH   5   6
ATOM      6  C   UNL     1      16.215  17.384 -16.934  1.00  0.00     0.000 C 
BRANCH   6   7
ATOM      7  C   UNL     1      16.345  15.919 -16.487  1.00  0.00     0.006 C 
BRANCH   7   8
ATOM      8  C   UNL     1      17.224  15.090 -17.433  1.00  0.00     0.053 C 
BRANCH   8   9
ATOM      9  C   UNL     1      17.286  13.668 -16.973  1.00  0.00     0.041 C 
ATOM     10  O   UNL     1      17.989  12.829 -17.597  1.00  0.00    -0.550 OA
ATOM     11  O   UNL     1      16.606  13.278 -15.825  1.00  0.00    -0.550 OA
ENDBRANCH   8   9
ENDBRANCH   7   8
ENDBRANCH   6   7
ENDBRANCH   5   6
ENDBRANCH   4   5
ENDBRANCH   3   4
ENDBRANCH   2   3
ENDBRANCH   1   2
BRANCH   1  12
ATOM     12  C   UNL     1      14.644  14.276 -19.981  1.00  0.00     0.000 C 
BRANCH  12  13
ATOM     13  C   UNL     1      14.520  12.883 -20.617  1.00  0.00    -0.000 C 
BRANCH  13  14
ATOM     14  C   UNL     1      13.094  12.586 -21.112  1.00  0.00    -0.000 C 
BRANCH  14  15
ATOM     15  C   UNL     1      12.448  11.403 -20.374  1.00  0.00    -0.000 C 
BRANCH  15  16
ATOM     16  C   UNL     1      11.059  11.748 -19.808  1.00  0.00    -0.000 C 
BRANCH  16  17
ATOM     17  C   UNL     1      11.104  12.127 -18.320  1.00  0.00    -0.000 C 
BRANCH  17  18
ATOM     18  C   UNL     1      10.406  13.463 -18.028  1.00  0.00    -0.000 C 
BRANCH  18  19
ATOM     19  C   UNL     1      10.109  14.221 -19.327  1.00  0.00    -0.003 C 
ATOM     20  C   UNL     1       9.516  15.598 -19.039  1.00  0.00     0.004 C 
ENDBRANCH  18  19
ENDBRANCH  17  18
ENDBRANCH  16  17
ENDBRANCH  15  16
ENDBRANCH  14  15
ENDBRANCH  13  14
ENDBRANCH  12  13
ENDBRANCH   1  12
TORSDOF 16
ENDMDL
MODEL 4
REMARK VINA RESULT:    -4.781      1.508      2.254
REMARK INTER + INTRA:         -11.480
REMARK INTER:                  -8.935
REMARK INTRA:                  -2.545
REMARK UNBOUND:                -2.226
REMARK SMILES CCCCCCCCCCCCCCCCCC(=O)[O-]
REMARK SMILES IDX 10 1 11 2 12 3 13 4 14 5 15 6 16 7 17 8 18 9 19 10 20 11
REMARK SMILES IDX 9 12 8 13 7 14 6 15 5 16 4 17 3 18 2 19 1 20
REMARK H PARENT
REMARK Flexibility Score: inf
ROOT
ATOM      1  C   UNL     1      12.983  15.015 -21.222  1.00  0.00     0.000 C 
ENDROOT
BRANCH   1   2
ATOM      2  C   UNL     1      13.451  13.767 -21.987  1.00  0.00     0.000 C 
BRANCH   2   3
ATOM      3  C   UNL     1      13.896  12.633 -21.047  1.00  0.00     0.000 C 
BRANCH   3   4
ATOM      4  C   UNL     1      13.028  11.373 -21.190  1.00  0.00     0.000 C 
BRANCH   4   5
ATOM      5  C   UNL     1      11.789  11.403 -20.283  1.00  0.00     0.000 C 
BRANCH   5   6
ATOM      6  C   UNL     1      12.163  11.847 -18.860  1.00  0.00     0.000 C 
BRANCH   6   7
ATOM      7  C   UNL     1      11.067  12.697 -18.197  1.00  0.00     0.006 C 
BRANCH   7   8
ATOM      8  C   UNL     1      10.285  13.545 -19.208  1.00  0.00     0.053 C 
BRANCH   8   9
ATOM      9  C   UNL     1      10.000  14.900 -18.642  1.00  0.00     0.041 C 
ATOM     10  O   UNL     1       9.466  15.788 -19.358  1.00  0.00    -0.550 OA
ATOM     11  O   UNL     1      10.276  15.168 -17.306  1.00  0.00    -0.550 OA
ENDBRANCH   8   9
ENDBRANCH   7   8
ENDBRANCH   6   7
ENDBRANCH   5   6
ENDBRANCH   4   5
ENDBRANCH   3   4
ENDBRANCH   2   3
ENDBRANCH   1   2
BRANCH   1  12
ATOM     12  C   UNL     1      13.736  15.211 -19.894  1.00  0.00     0.000 C 
BRANCH  12  13
ATOM     13  C   UNL     1      13.341  16.511 -19.178  1.00  0.00    -0.000 C 
BRANCH  13  14
ATOM     14  C   UNL     1      14.491  17.534 -19.138  1.00  0.00    -0.000 C 
BRANCH  14  15
ATOM     15  C   UNL     1      14.988  17.805 -17.710  1.00  0.00    -0.000 C 
BRANCH  15  16
ATOM     16  C   UNL     1      16.218  16.956 -17.343  1.00  0.00    -0.000 C 
BRANCH  16  17
ATOM     17  C   UNL     1      15.872  15.790 -16.403  1.00  0.00    -0.000 C 
BRANCH  17  18
ATOM     18  C   UNL     1      16.504  14.464 -16.849  1.00  0.00    -0.000 C 
BRANCH  18  19
ATOM     19  C   UNL     1      17.371  14.662 -18.098  1.00  0.00    -0.003 C 
ATOM     20  C   UNL     1      16.947  13.718 -19.220  1.00  0.00     0.004 C 
ENDBRANCH  18  19
ENDBRANCH  17  18
ENDBRANCH  16  17
ENDBRANCH  15  16
ENDBRANCH  14  15
ENDBRANCH  13  14
ENDBRANCH  12  13
ENDBRANCH   1  12
TORSDOF 16
ENDMDL
MODEL 5
REMARK VINA RESULT:    -4.752      2.669      5.862
REMARK INTER + INTRA:         -11.423
REMARK INTER:                  -8.812
REMARK INTRA:                  -2.611
REMARK UNBOUND:                -2.226
REMARK SMILES CCCCCCCCCCCCCCCCCC(=O)[O-]
REMARK SMILES IDX 10 1 11 2 12 3 13 4 14 5 15 6 16 7 17 8 18 9 19 10 20 11
REMARK SMILES IDX 9 12 8 13 7 14 6 15 5 16 4 17 3 18 2 19 1 20
REMARK H PARENT
REMARK Flexibility Score: inf
ROOT
ATOM      1  C   UNL     1      12.955  11.241 -20.743  1.00  0.00     0.000 C 
ENDROOT
BRANCH   1   2
ATOM      2  C   UNL     1      13.963  12.402 -20.750  1.00  0.00     0.000 C 
BRANCH   2   3
ATOM      3  C   UNL     1      13.510  13.572 -21.640  1.00  0.00     0.000 C 
BRANCH   3   4
ATOM      4  C   UNL     1      13.413  14.897 -20.869  1.00  0.00     0.000 C 
BRANCH   4   5
ATOM      5  C   UNL     1      14.112  14.840 -19.502  1.00  0.00     0.000 C 
BRANCH   5   6
ATOM      6  C   UNL     1      13.463  15.820 -18.513  1.00  0.00     0.000 C 
BRANCH   6   7
ATOM      7  C   UNL     1      13.570  15.348 -17.054  1.00  0.00     0.006 C 
BRANCH   7   8
ATOM      8  C   UNL     1      14.353  14.036 -16.914  1.00  0.00     0.053 C 
BRANCH   8   9
ATOM      9  C   UNL     1      15.663  14.281 -16.234  1.00  0.00     0.041 C 
ATOM     10  O   UNL     1      16.287  13.328 -15.697  1.00  0.00    -0.550 OA
ATOM     11  O   UNL     1      16.220  15.554 -16.236  1.00  0.00    -0.550 OA
ENDBRANCH   8   9
ENDBRANCH   7   8
ENDBRANCH   6   7
ENDBRANCH   5   6
ENDBRANCH   4   5
ENDBRANCH   3   4
ENDBRANCH   2   3
ENDBRANCH   1   2
BRANCH   1  12
ATOM     12  C   UNL     1      11.616  11.627 -20.090  1.00  0.00     0.000 C 
BRANCH  12  13
ATOM     13  C   UNL     1      11.779  12.063 -18.626  1.00  0.00    -0.000 C 
BRANCH  13  14
ATOM     14  C   UNL     1      10.877  13.255 -18.261  1.00  0.00    -0.000 C 
BRANCH  14  15
ATOM     15  C   UNL     1       9.888  13.610 -19.382  1.00  0.00    -0.000 C 
BRANCH  15  16
ATOM     16  C   UNL     1       9.982  15.087 -19.806  1.00  0.00    -0.000 C 
BRANCH  16  17
ATOM     17  C   UNL     1       8.903  15.960 -19.146  1.00  0.00    -0.000 C 
BRANCH  17  18
ATOM     18  C   UNL     1       7.695  16.200 -20.063  1.00  0.00    -0.000 C 
BRANCH  18  19
ATOM     19  C   UNL     1       8.046  15.895 -21.523  1.00  0.00    -0.003 C 
ATOM     20  C   UNL     1       7.115  14.833 -22.104  1.00  0.00     0.004 C 
ENDBRANCH  18  19
ENDBRANCH  17  18
ENDBRANCH  16  17
ENDBRANCH  15  16
ENDBRANCH  14  15
ENDBRANCH  13  14
ENDBRANCH  12  13
ENDBRANCH   1  12
TORSDOF 16
ENDMDL
MODEL 6
REMARK VINA RESULT:    -4.745      2.858      5.885
REMARK INTER + INTRA:         -11.409
REMARK INTER:                  -8.057
REMARK INTRA:                  -3.353
REMARK UNBOUND:                -2.226
REMARK SMILES CCCCCCCCCCCCCCCCCC(=O)[O-]
REMARK SMILES IDX 10 1 11 2 12 3 13 4 14 5 15 6 16 7 17 8 18 9 19 10 20 11
REMARK SMILES IDX 9 12 8 13 7 14 6 15 5 16 4 17 3 18 2 19 1 20
REMARK H PARENT
REMARK Flexibility Score: inf
ROOT
ATOM      1  C   UNL     1      10.667  16.847 -17.481  1.00  0.00     0.000 C 
ENDROOT
BRANCH   1   2
ATOM      2  C   UNL     1      11.160  16.400 -16.096  1.00  0.00     0.000 C 
BRANCH   2   3
ATOM      3  C   UNL     1      12.660  16.673 -15.887  1.00  0.00     0.000 C 
BRANCH   3   4
ATOM      4  C   UNL     1      13.218  17.698 -16.886  1.00  0.00     0.000 C 
BRANCH   4   5
ATOM      5  C   UNL     1      14.700  17.461 -17.212  1.00  0.00     0.000 C 
BRANCH   5   6
ATOM      6  C   UNL     1      15.410  16.755 -16.047  1.00  0.00     0.000 C 
BRANCH   6   7
ATOM      7  C   UNL     1      15.995  15.391 -16.448  1.00  0.00     0.006 C 
BRANCH   7   8
ATOM      8  C   UNL     1      16.753  15.443 -17.781  1.00  0.00     0.053 C 
BRANCH   8   9
ATOM      9  C   UNL     1      17.185  14.070 -18.189  1.00  0.00     0.041 C 
ATOM     10  O   UNL     1      17.665  13.277 -17.336  1.00  0.00    -0.550 OA
ATOM     11  O   UNL     1      17.011  13.647 -19.501  1.00  0.00    -0.550 OA
ENDBRANCH   8   9
ENDBRANCH   7   8
ENDBRANCH   6   7
ENDBRANCH   5   6
ENDBRANCH   4   5
ENDBRANCH   3   4
ENDBRANCH   2   3
ENDBRANCH   1   2
BRANCH   1  12
ATOM     12  C   UNL     1       9.711  15.827 -18.124  1.00  0.00     0.000 C 
BRANCH  12  13
ATOM     13  C   UNL     1      10.016  15.590 -19.611  1.00  0.00    -0.000 C 
BRANCH  13  14
ATOM     14  C   UNL     1      11.261  16.357 -20.088  1.00  0.00    -0.000 C 
BRANCH  14  15
ATOM     15  C   UNL     1      12.350  15.426 -20.644  1.00  0.00    -0.000 C 
BRANCH  15  16
ATOM     16  C   UNL     1      13.451  15.124 -19.613  1.00  0.00    -0.000 C 
BRANCH  16  17
ATOM     17  C   UNL     1      13.439  13.658 -19.149  1.00  0.00    -0.000 C 
BRANCH  17  18
ATOM     18  C   UNL     1      12.764  13.477 -17.782  1.00  0.00    -0.000 C 
BRANCH  18  19
ATOM     19  C   UNL     1      11.522  12.586 -17.898  1.00  0.00    -0.003 C 
ATOM     20  C   UNL     1      11.349  12.064 -19.322  1.00  0.00     0.004 C 
ENDBRANCH  18  19
ENDBRANCH  17  18
ENDBRANCH  16  17
ENDBRANCH  15  16
ENDBRANCH  14  15
ENDBRANCH  13  14
ENDBRANCH  12  13
ENDBRANCH   1  12
TORSDOF 16
ENDMDL
MODEL 7
REMARK VINA RESULT:    -4.741      2.624      6.183
REMARK INTER + INTRA:         -11.402
REMARK INTER:                  -9.135
REMARK INTRA:                  -2.267
REMARK UNBOUND:                -2.226
REMARK SMILES CCCCCCCCCCCCCCCCCC(=O)[O-]
REMARK SMILES IDX 10 1 11 2 12 3 13 4 14 5 15 6 16 7 17 8 18 9 19 10 20 11
REMARK SMILES IDX 9 12 8 13 7 14 6 15 5 16 4 17 3 18 2 19 1 20
REMARK H PARENT
REMARK Flexibility Score: inf
ROOT
ATOM      1  C   UNL     1       9.802  15.842 -18.000  1.00  0.00     0.000 C 
ENDROOT
BRANCH   1   2
ATOM      2  C   UNL     1      10.321  16.123 -16.581  1.00  0.00     0.000 C 
BRANCH   2   3
ATOM      3  C   UNL     1      11.495  17.118 -16.567  1.00  0.00     0.000 C 
BRANCH   3   4
ATOM      4  C   UNL     1      12.632  16.677 -15.634  1.00  0.00     0.000 C 
BRANCH   4   5
ATOM      5  C   UNL     1      13.780  15.986 -16.385  1.00  0.00     0.000 C 
BRANCH   5   6
ATOM      6  C   UNL     1      14.904  16.984 -16.704  1.00  0.00     0.000 C 
BRANCH   6   7
ATOM      7  C   UNL     1      16.303  16.354 -16.604  1.00  0.00     0.006 C 
BRANCH   7   8
ATOM      8  C   UNL     1      16.257  14.820 -16.562  1.00  0.00     0.053 C 
BRANCH   8   9
ATOM      9  C   UNL     1      17.279  14.243 -17.490  1.00  0.00     0.041 C 
ATOM     10  O   UNL     1      17.911  13.202 -17.169  1.00  0.00    -0.550 OA
ATOM     11  O   UNL     1      17.500  14.827 -18.732  1.00  0.00    -0.550 OA
ENDBRANCH   8   9
ENDBRANCH   7   8
ENDBRANCH   6   7
ENDBRANCH   5   6
ENDBRANCH   4   5
ENDBRANCH   3   4
ENDBRANCH   2   3
ENDBRANCH   1   2
BRANCH   1  12
ATOM     12  C   UNL     1      10.502  14.639 -18.656  1.00  0.00     0.000 C 
BRANCH  12  13
ATOM     13  C   UNL     1      11.001  13.614 -17.626  1.00  0.00    -0.000 C 
BRANCH  13  14
ATOM     14  C   UNL     1      11.269  12.233 -18.250  1.00  0.00    -0.000 C 
BRANCH  14  15
ATOM     15  C   UNL     1      10.467  12.004 -19.541  1.00  0.00    -0.000 C 
BRANCH  15  16
ATOM     16  C   UNL     1      11.324  11.404 -20.669  1.00  0.00    -0.000 C 
BRANCH  16  17
ATOM     17  C   UNL     1      12.823  11.394 -20.331  1.00  0.00    -0.000 C 
BRANCH  17  18
ATOM     18  C   UNL     1      13.657  12.223 -21.318  1.00  0.00    -0.000 C 
BRANCH  18  19
ATOM     19  C   UNL     1      13.427  13.723 -21.106  1.00  0.00    -0.003 C 
ATOM     20  C   UNL     1      14.074  14.203 -19.810  1.00  0.00     0.004 C 
ENDBRANCH  18  19
ENDBRANCH  17  18
ENDBRANCH  16  17
ENDBRANCH  15  16
ENDBRANCH  14  15
ENDBRANCH  13  14
ENDBRANCH  12  13
ENDBRANCH   1  12
TORSDOF 16
ENDMDL
MODEL 8
REMARK VINA RESULT:    -4.723      2.764      4.877
REMARK INTER + INTRA:         -11.367
REMARK INTER:                  -9.454
REMARK INTRA:                  -1.913
REMARK UNBOUND:                -2.226
REMARK SMILES CCCCCCCCCCCCCCCCCC(=O)[O-]
REMARK SMILES IDX 10 1 11 2 12 3 13 4 14 5 15 6 16 7 17 8 18 9 19 10 20 11
REMARK SMILES IDX 9 12 8 13 7 14 6 15 5 16 4 17 3 18 2 19 1 20
REMARK H PARENT
REMARK Flexibility Score: inf
ROOT
ATOM      1  C   UNL     1      11.145  16.567 -16.021  1.00  0.00     0.000 C 
ENDROOT
BRANCH   1   2
ATOM      2  C   UNL     1      10.660  15.724 -17.211  1.00  0.00     0.000 C 
BRANCH   2   3
ATOM      3  C   UNL     1      11.800  14.937 -17.881  1.00  0.00     0.000 C 
BRANCH   3   4
ATOM      4  C   UNL     1      11.484  13.440 -18.016  1.00  0.00     0.000 C 
BRANCH   4   5
ATOM      5  C   UNL     1      10.628  13.124 -19.252  1.00  0.00     0.000 C 
BRANCH   5   6
ATOM      6  C   UNL     1      11.097  11.825 -19.925  1.00  0.00     0.000 C 
BRANCH   6   7
ATOM      7  C   UNL     1      12.626  11.745 -20.059  1.00  0.00     0.006 C 
BRANCH   7   8
ATOM      8  C   UNL     1      13.079  11.476 -21.500  1.00  0.00     0.053 C 
BRANCH   8   9
ATOM      9  C   UNL     1      13.982  12.571 -21.975  1.00  0.00     0.041 C 
ATOM     10  O   UNL     1      13.525  13.725 -22.183  1.00  0.00    -0.550 OA
ATOM     11  O   UNL     1      15.341  12.329 -22.139  1.00  0.00    -0.550 OA
ENDBRANCH   8   9
ENDBRANCH   7   8
ENDBRANCH   6   7
ENDBRANCH   5   6
ENDBRANCH   4   5
ENDBRANCH   3   4
ENDBRANCH   2   3
ENDBRANCH   1   2
BRANCH   1  12
ATOM     12  C   UNL     1      12.668  16.476 -15.817  1.00  0.00     0.000 C 
BRANCH  12  13
ATOM     13  C   UNL     1      13.396  17.764 -16.231  1.00  0.00    -0.000 C 
BRANCH  13  14
ATOM     14  C   UNL     1      14.273  17.570 -17.480  1.00  0.00    -0.000 C 
BRANCH  14  15
ATOM     15  C   UNL     1      15.763  17.816 -17.198  1.00  0.00    -0.000 C 
BRANCH  15  16
ATOM     16  C   UNL     1      16.372  16.749 -16.271  1.00  0.00    -0.000 C 
BRANCH  16  17
ATOM     17  C   UNL     1      16.050  15.317 -16.728  1.00  0.00    -0.000 C 
BRANCH  17  18
ATOM     18  C   UNL     1      17.237  14.639 -17.428  1.00  0.00    -0.000 C 
BRANCH  18  19
ATOM     19  C   UNL     1      16.833  14.122 -18.813  1.00  0.00    -0.003 C 
ATOM     20  C   UNL     1      15.346  14.349 -19.075  1.00  0.00     0.004 C 
ENDBRANCH  18  19
ENDBRANCH  17  18
ENDBRANCH  16  17
ENDBRANCH  15  16
ENDBRANCH  14  15
ENDBRANCH  13  14
ENDBRANCH  12  13
ENDBRANCH   1  12
TORSDOF 16
ENDMDL
MODEL 9
REMARK VINA RESULT:    -4.715      2.523      5.176
REMARK INTER + INTRA:         -11.352
REMARK INTER:                  -8.705
REMARK INTRA:                  -2.647
REMARK UNBOUND:                -2.226
REMARK SMILES CCCCCCCCCCCCCCCCCC(=O)[O-]
REMARK SMILES IDX 10 1 11 2 12 3 13 4 14 5 15 6 16 7 17 8 18 9 19 10 20 11
REMARK SMILES IDX 9 12 8 13 7 14 6 15 5 16 4 17 3 18 2 19 1 20
REMARK H PARENT
REMARK Flexibility Score: inf
ROOT
ATOM      1  C   UNL     1      12.764  11.112 -20.278  1.00  0.00     0.000 C 
ENDROOT
BRANCH   1   2
ATOM      2  C   UNL     1      13.337  11.716 -21.569  1.00  0.00     0.000 C 
BRANCH   2   3
ATOM      3  C   UNL     1      13.735  13.193 -21.403  1.00  0.00     0.000 C 
BRANCH   3   4
ATOM      4  C   UNL     1      14.677  13.421 -20.211  1.00  0.00     0.000 C 
BRANCH   4   5
ATOM      5  C   UNL     1      14.317  14.677 -19.404  1.00  0.00     0.000 C 
BRANCH   5   6
ATOM      6  C   UNL     1      14.343  14.385 -17.896  1.00  0.00     0.000 C 
BRANCH   6   7
ATOM      7  C   UNL     1      15.324  15.290 -17.133  1.00  0.00     0.006 C 
BRANCH   7   8
ATOM      8  C   UNL     1      16.781  15.077 -17.564  1.00  0.00     0.053 C 
BRANCH   8   9
ATOM      9  C   UNL     1      17.237  13.701 -17.195  1.00  0.00     0.041 C 
ATOM     10  O   UNL     1      17.046  13.261 -16.030  1.00  0.00    -0.550 OA
ATOM     11  O   UNL     1      17.829  12.884 -18.151  1.00  0.00    -0.550 OA
ENDBRANCH   8   9
ENDBRANCH   7   8
ENDBRANCH   6   7
ENDBRANCH   5   6
ENDBRANCH   4   5
ENDBRANCH   3   4
ENDBRANCH   2   3
ENDBRANCH   1   2
BRANCH   1  12
ATOM     12  C   UNL     1      11.451  11.787 -19.844  1.00  0.00     0.000 C 
BRANCH  12  13
ATOM     13  C   UNL     1      11.461  12.199 -18.364  1.00  0.00    -0.000 C 
BRANCH  13  14
ATOM     14  C   UNL     1      10.442  13.309 -18.054  1.00  0.00    -0.000 C 
BRANCH  14  15
ATOM     15  C   UNL     1      10.640  14.553 -18.933  1.00  0.00    -0.000 C 
BRANCH  15  16
ATOM     16  C   UNL     1       9.571  15.631 -18.680  1.00  0.00    -0.000 C 
BRANCH  16  17
ATOM     17  C   UNL     1      10.181  16.993 -18.312  1.00  0.00    -0.000 C 
BRANCH  17  18
ATOM     18  C   UNL     1      11.710  16.939 -18.181  1.00  0.00    -0.000 C 
BRANCH  18  19
ATOM     19  C   UNL     1      12.167  17.529 -16.843  1.00  0.00    -0.003 C 
ATOM     20  C   UNL     1      12.002  16.520 -15.710  1.00  0.00     0.004 C 
ENDBRANCH  18  19
ENDBRANCH  17  18
ENDBRANCH  16  17
ENDBRANCH  15  16
ENDBRANCH  14  15
ENDBRANCH  13  14
ENDBRANCH  12  13
ENDBRANCH   1  12
TORSDOF 16
ENDMDL
