MODEL 1
REMARK VINA RESULT:    17.151      0.000      0.000
REMARK INTER + INTRA:          31.901
REMARK INTER:                  31.188
REMARK INTRA:                   0.713
REMARK UNBOUND:                 0.713
REMARK SMILES CCCCCCCCCCCCCCCC(=O)[O-]
REMARK SMILES IDX 9 1 10 2 11 3 12 4 13 5 14 6 15 7 16 8 17 9 18 10 8 11 7 12
REMARK SMILES IDX 6 13 5 14 4 15 3 16 2 17 1 18
REMARK H PARENT
REMARK Flexibility Score: inf
ROOT
ATOM      1  C   UNL     1     -42.722  24.046 -14.533  1.00  0.00     0.000 C 
ENDROOT
BRANCH   1   2
ATOM      2  C   UNL     1     -42.492  23.406 -13.153  1.00  0.00     0.000 C 
BRANCH   2   3
ATOM      3  C   UNL     1     -41.304  24.018 -12.380  1.00  0.00     0.000 C 
BRANCH   3   4
ATOM      4  C   UNL     1     -41.764  24.859 -11.177  1.00  0.00     0.000 C 
BRANCH   4   5
ATOM      5  C   UNL     1     -43.226  24.587 -10.779  1.00  0.00     0.000 C 
BRANCH   5   6
ATOM      6  C   UNL     1     -43.638  25.146  -9.405  1.00  0.00     0.006 C 
BRANCH   6   7
ATOM      7  C   UNL     1     -45.152  25.091  -9.168  1.00  0.00     0.053 C 
BRANCH   7   8
ATOM      8  C   UNL     1     -45.524  25.919  -7.978  1.00  0.00     0.041 C 
ATOM      9  O   UNL     1     -44.733  26.017  -7.003  1.00  0.00    -0.550 OA
ATOM     10  O   UNL     1     -46.761  26.548  -7.928  1.00  0.00    -0.550 OA
ENDBRANCH   7   8
ENDBRANCH   6   7
ENDBRANCH   5   6
ENDBRANCH   4   5
ENDBRANCH   3   4
ENDBRANCH   2   3
ENDBRANCH   1   2
BRANCH   1  11
ATOM     11  C   UNL     1     -42.725  23.016 -15.674  1.00  0.00     0.000 C 
BRANCH  11  12
ATOM     12  C   UNL     1     -41.968  23.508 -16.918  1.00  0.00    -0.000 C 
BRANCH  12  13
ATOM     13  C   UNL     1     -41.693  22.382 -17.926  1.00  0.00    -0.000 C 
BRANCH  13  14
ATOM     14  C   UNL     1     -40.261  22.473 -18.473  1.00  0.00    -0.000 C 
BRANCH  14  15
ATOM     15  C   UNL     1     -39.708  21.109 -18.919  1.00  0.00    -0.000 C 
BRANCH  15  16
ATOM     16  C   UNL     1     -38.263  20.875 -18.443  1.00  0.00    -0.000 C 
BRANCH  16  17
ATOM     17  C   UNL     1     -37.342  22.067 -18.746  1.00  0.00    -0.003 C 
ATOM     18  C   UNL     1     -38.048  23.183 -19.515  1.00  0.00     0.004 C 
ENDBRANCH  16  17
ENDBRANCH  15  16
ENDBRANCH  14  15
ENDBRANCH  13  14
ENDBRANCH  12  13
ENDBRANCH  11  12
ENDBRANCH   1  11
TORSDOF 14
ENDMDL
MODEL 2
REMARK VINA RESULT:    17.691      1.138      2.006
REMARK INTER + INTRA:          32.883
REMARK INTER:                  32.864
REMARK INTRA:                   0.019
REMARK UNBOUND:                 0.713
REMARK SMILES CCCCCCCCCCCCCCCC(=O)[O-]
REMARK SMILES IDX 9 1 10 2 11 3 12 4 13 5 14 6 15 7 16 8 17 9 18 10 8 11 7 12
REMARK SMILES IDX 6 13 5 14 4 15 3 16 2 17 1 18
REMARK H PARENT
REMARK Flexibility Score: inf
ROOT
ATOM      1  C   UNL     1     -39.213  24.362 -13.829  1.00  0.00     0.000 C 
ENDROOT
BRANCH   1   2
ATOM      2  C   UNL     1     -39.739  24.223 -12.390  1.00  0.00     0.000 C 
BRANCH   2   3
ATOM      3  C   UNL     1     -41.278  24.304 -12.285  1.00  0.00     0.000 C 
BRANCH   3   4
ATOM      4  C   UNL     1     -41.744  24.722 -10.880  1.00  0.00     0.000 C 
BRANCH   4   5
ATOM      5  C   UNL     1     -43.270  24.897 -10.782  1.00  0.00     0.000 C 
BRANCH   5   6
ATOM      6  C   UNL     1     -43.860  24.668  -9.379  1.00  0.00     0.006 C 
BRANCH   6   7
ATOM      7  C   UNL     1     -45.333  25.081  -9.275  1.00  0.00     0.053 C 
BRANCH   7   8
ATOM      8  C   UNL     1     -45.574  25.836  -8.006  1.00  0.00     0.041 C 
ATOM      9  O   UNL     1     -46.582  26.583  -7.895  1.00  0.00    -0.550 OA
ATOM     10  O   UNL     1     -44.663  25.750  -6.962  1.00  0.00    -0.550 OA
ENDBRANCH   7   8
ENDBRANCH   6   7
ENDBRANCH   5   6
ENDBRANCH   4   5
ENDBRANCH   3   4
ENDBRANCH   2   3
ENDBRANCH   1   2
BRANCH   1  11
ATOM     11  C   UNL     1     -40.202  25.083 -14.758  1.00  0.00     0.000 C 
BRANCH  11  12
ATOM     12  C   UNL     1     -41.414  24.213 -15.125  1.00  0.00    -0.000 C 
BRANCH  12  13
ATOM     13  C   UNL     1     -41.707  24.213 -16.633  1.00  0.00    -0.000 C 
BRANCH  13  14
ATOM     14  C   UNL     1     -42.176  22.827 -17.101  1.00  0.00    -0.000 C 
BRANCH  14  15
ATOM     15  C   UNL     1     -41.207  22.179 -18.103  1.00  0.00    -0.000 C 
BRANCH  15  16
ATOM     16  C   UNL     1     -39.903  22.980 -18.265  1.00  0.00    -0.000 C 
BRANCH  16  17
ATOM     17  C   UNL     1     -38.709  22.091 -18.646  1.00  0.00    -0.003 C 
ATOM     18  C   UNL     1     -37.670  22.823 -19.495  1.00  0.00     0.004 C 
ENDBRANCH  16  17
ENDBRANCH  15  16
ENDBRANCH  14  15
ENDBRANCH  13  14
ENDBRANCH  12  13
ENDBRANCH  11  12
ENDBRANCH   1  11
TORSDOF 14
ENDMDL
MODEL 3
REMARK VINA RESULT:    18.415      5.395      7.273
REMARK INTER + INTRA:          34.199
REMARK INTER:                  34.960
REMARK INTRA:                  -0.760
REMARK UNBOUND:                 0.713
REMARK SMILES CCCCCCCCCCCCCCCC(=O)[O-]
REMARK SMILES IDX 9 1 10 2 11 3 12 4 13 5 14 6 15 7 16 8 17 9 18 10 8 11 7 12
REMARK SMILES IDX 6 13 5 14 4 15 3 16 2 17 1 18
REMARK H PARENT
REMARK Flexibility Score: inf
ROOT
ATOM      1  C   UNL     1     -36.609  23.315 -10.305  1.00  0.00     0.000 C 
ENDROOT
BRANCH   1   2
ATOM      2  C   UNL     1     -36.798  22.698  -8.909  1.00  0.00     0.000 C 
BRANCH   2   3
ATOM      3  C   UNL     1     -36.730  23.732  -7.764  1.00  0.00     0.000 C 
BRANCH   3   4
ATOM      4  C   UNL     1     -37.369  23.206  -6.467  1.00  0.00     0.000 C 
BRANCH   4   5
ATOM      5  C   UNL     1     -37.239  24.192  -5.292  1.00  0.00     0.000 C 
BRANCH   5   6
ATOM      6  C   UNL     1     -36.800  25.614  -5.685  1.00  0.00     0.006 C 
BRANCH   6   7
ATOM      7  C   UNL     1     -37.512  26.705  -4.876  1.00  0.00     0.053 C 
BRANCH   7   8
ATOM      8  C   UNL     1     -37.560  27.983  -5.653  1.00  0.00     0.041 C 
ATOM      9  O   UNL     1     -36.543  28.724  -5.717  1.00  0.00    -0.550 OA
ATOM     10  O   UNL     1     -38.740  28.378  -6.269  1.00  0.00    -0.550 OA
ENDBRANCH   7   8
ENDBRANCH   6   7
ENDBRANCH   5   6
ENDBRANCH   4   5
ENDBRANCH   3   4
ENDBRANCH   2   3
ENDBRANCH   1   2
BRANCH   1  11
ATOM     11  C   UNL     1     -37.918  23.858 -10.899  1.00  0.00     0.000 C 
BRANCH  11  12
ATOM     12  C   UNL     1     -38.144  23.405 -12.350  1.00  0.00    -0.000 C 
BRANCH  12  13
ATOM     13  C   UNL     1     -39.308  24.144 -13.026  1.00  0.00    -0.000 C 
BRANCH  13  14
ATOM     14  C   UNL     1     -40.446  24.404 -12.028  1.00  0.00    -0.000 C 
BRANCH  14  15
ATOM     15  C   UNL     1     -41.829  24.440 -12.700  1.00  0.00    -0.000 C 
BRANCH  15  16
ATOM     16  C   UNL     1     -42.113  23.178 -13.533  1.00  0.00    -0.000 C 
BRANCH  16  17
ATOM     17  C   UNL     1     -42.671  23.506 -14.926  1.00  0.00    -0.003 C 
ATOM     18  C   UNL     1     -41.726  24.374 -15.756  1.00  0.00     0.004 C 
ENDBRANCH  16  17
ENDBRANCH  15  16
ENDBRANCH  14  15
ENDBRANCH  13  14
ENDBRANCH  12  13
ENDBRANCH  11  12
ENDBRANCH   1  11
TORSDOF 14
ENDMDL
MODEL 4
REMARK VINA RESULT:    18.781      6.535     10.731
REMARK INTER + INTRA:          34.866
REMARK INTER:                  35.740
REMARK INTRA:                  -0.874
REMARK UNBOUND:                 0.713
REMARK SMILES CCCCCCCCCCCCCCCC(=O)[O-]
REMARK SMILES IDX 9 1 10 2 11 3 12 4 13 5 14 6 15 7 16 8 17 9 18 10 8 11 7 12
REMARK SMILES IDX 6 13 5 14 4 15 3 16 2 17 1 18
REMARK H PARENT
REMARK Flexibility Score: inf
ROOT
ATOM      1  C   UNL     1     -37.386  22.894  -7.695  1.00  0.00     0.000 C 
ENDROOT
BRANCH   1   2
ATOM      2  C   UNL     1     -36.219  23.139  -8.666  1.00  0.00     0.000 C 
BRANCH   2   3
ATOM      3  C   UNL     1     -35.873  21.912  -9.537  1.00  0.00     0.000 C 
BRANCH   3   4
ATOM      4  C   UNL     1     -36.923  21.665 -10.635  1.00  0.00     0.000 C 
BRANCH   4   5
ATOM      5  C   UNL     1     -37.047  22.839 -11.622  1.00  0.00     0.000 C 
BRANCH   5   6
ATOM      6  C   UNL     1     -38.480  23.357 -11.837  1.00  0.00     0.006 C 
BRANCH   6   7
ATOM      7  C   UNL     1     -38.630  24.189 -13.116  1.00  0.00     0.053 C 
BRANCH   7   8
ATOM      8  C   UNL     1     -40.077  24.398 -13.436  1.00  0.00     0.041 C 
ATOM      9  O   UNL     1     -40.435  24.649 -14.618  1.00  0.00    -0.550 OA
ATOM     10  O   UNL     1     -41.025  24.361 -12.423  1.00  0.00    -0.550 OA
ENDBRANCH   7   8
ENDBRANCH   6   7
ENDBRANCH   5   6
ENDBRANCH   4   5
ENDBRANCH   3   4
ENDBRANCH   2   3
ENDBRANCH   1   2
BRANCH   1  11
ATOM     11  C   UNL     1     -37.008  21.968  -6.529  1.00  0.00     0.000 C 
BRANCH  11  12
ATOM     12  C   UNL     1     -37.240  22.618  -5.156  1.00  0.00    -0.000 C 
BRANCH  12  13
ATOM     13  C   UNL     1     -37.775  24.054  -5.265  1.00  0.00    -0.000 C 
BRANCH  13  14
ATOM     14  C   UNL     1     -36.665  25.076  -4.978  1.00  0.00    -0.000 C 
BRANCH  14  15
ATOM     15  C   UNL     1     -37.195  26.516  -4.875  1.00  0.00    -0.000 C 
BRANCH  15  16
ATOM     16  C   UNL     1     -37.052  27.292  -6.196  1.00  0.00    -0.000 C 
BRANCH  16  17
ATOM     17  C   UNL     1     -37.525  28.750  -6.076  1.00  0.00    -0.003 C 
ATOM     18  C   UNL     1     -38.812  28.893  -5.264  1.00  0.00     0.004 C 
ENDBRANCH  16  17
ENDBRANCH  15  16
ENDBRANCH  14  15
ENDBRANCH  13  14
ENDBRANCH  12  13
ENDBRANCH  11  12
ENDBRANCH   1  11
TORSDOF 14
ENDMDL
MODEL 5
REMARK VINA RESULT:    18.816      3.579      6.134
REMARK INTER + INTRA:          34.929
REMARK INTER:                  35.473
REMARK INTRA:                  -0.544
REMARK UNBOUND:                 0.713
REMARK SMILES CCCCCCCCCCCCCCCC(=O)[O-]
REMARK SMILES IDX 9 1 10 2 11 3 12 4 13 5 14 6 15 7 16 8 17 9 18 10 8 11 7 12
REMARK SMILES IDX 6 13 5 14 4 15 3 16 2 17 1 18
REMARK H PARENT
REMARK Flexibility Score: inf
ROOT
ATOM      1  C   UNL     1     -38.978  22.633 -18.280  1.00  0.00     0.000 C 
ENDROOT
BRANCH   1   2
ATOM      2  C   UNL     1     -40.247  21.771 -18.387  1.00  0.00     0.000 C 
BRANCH   2   3
ATOM      3  C   UNL     1     -41.543  22.537 -18.043  1.00  0.00     0.000 C 
BRANCH   3   4
ATOM      4  C   UNL     1     -41.337  23.543 -16.897  1.00  0.00     0.000 C 
BRANCH   4   5
ATOM      5  C   UNL     1     -42.396  23.413 -15.788  1.00  0.00     0.000 C 
BRANCH   5   6
ATOM      6  C   UNL     1     -42.111  24.237 -14.519  1.00  0.00     0.006 C 
BRANCH   6   7
ATOM      7  C   UNL     1     -42.356  23.448 -13.227  1.00  0.00     0.053 C 
BRANCH   7   8
ATOM      8  C   UNL     1     -41.902  24.239 -12.040  1.00  0.00     0.041 C 
ATOM      9  O   UNL     1     -42.726  24.568 -11.146  1.00  0.00    -0.550 OA
ATOM     10  O   UNL     1     -40.579  24.651 -11.944  1.00  0.00    -0.550 OA
ENDBRANCH   7   8
ENDBRANCH   6   7
ENDBRANCH   5   6
ENDBRANCH   4   5
ENDBRANCH   3   4
ENDBRANCH   2   3
ENDBRANCH   1   2
BRANCH   1  11
ATOM     11  C   UNL     1     -38.136  22.617 -19.566  1.00  0.00     0.000 C 
BRANCH  11  12
ATOM     12  C   UNL     1     -37.458  23.967 -19.847  1.00  0.00    -0.000 C 
BRANCH  12  13
ATOM     13  C   UNL     1     -38.071  24.698 -21.050  1.00  0.00    -0.000 C 
BRANCH  13  14
ATOM     14  C   UNL     1     -37.391  26.058 -21.272  1.00  0.00    -0.000 C 
BRANCH  14  15
ATOM     15  C   UNL     1     -38.294  27.061 -22.008  1.00  0.00    -0.000 C 
BRANCH  15  16
ATOM     16  C   UNL     1     -37.796  28.511 -21.874  1.00  0.00    -0.000 C 
BRANCH  16  17
ATOM     17  C   UNL     1     -38.722  29.374 -21.004  1.00  0.00    -0.003 C 
ATOM     18  C   UNL     1     -40.186  29.297 -21.435  1.00  0.00     0.004 C 
ENDBRANCH  16  17
ENDBRANCH  15  16
ENDBRANCH  14  15
ENDBRANCH  13  14
ENDBRANCH  12  13
ENDBRANCH  11  12
ENDBRANCH   1  11
TORSDOF 14
ENDMDL
MODEL 6
REMARK VINA RESULT:    19.083      6.978     10.113
REMARK INTER + INTRA:          35.414
REMARK INTER:                  36.091
REMARK INTRA:                  -0.677
REMARK UNBOUND:                 0.713
REMARK SMILES CCCCCCCCCCCCCCCC(=O)[O-]
REMARK SMILES IDX 9 1 10 2 11 3 12 4 13 5 14 6 15 7 16 8 17 9 18 10 8 11 7 12
REMARK SMILES IDX 6 13 5 14 4 15 3 16 2 17 1 18
REMARK H PARENT
REMARK Flexibility Score: inf
ROOT
ATOM      1  C   UNL     1     -37.062  26.602 -21.218  1.00  0.00     0.000 C 
ENDROOT
BRANCH   1   2
ATOM      2  C   UNL     1     -37.697  27.820 -21.909  1.00  0.00     0.000 C 
BRANCH   2   3
ATOM      3  C   UNL     1     -37.652  29.106 -21.055  1.00  0.00     0.000 C 
BRANCH   3   4
ATOM      4  C   UNL     1     -39.058  29.653 -20.752  1.00  0.00     0.000 C 
BRANCH   4   5
ATOM      5  C   UNL     1     -40.127  29.133 -21.730  1.00  0.00     0.000 C 
BRANCH   5   6
ATOM      6  C   UNL     1     -41.562  29.603 -21.432  1.00  0.00     0.006 C 
BRANCH   6   7
ATOM      7  C   UNL     1     -42.010  30.761 -22.331  1.00  0.00     0.053 C 
BRANCH   7   8
ATOM      8  C   UNL     1     -43.479  31.003 -22.176  1.00  0.00     0.041 C 
ATOM      9  O   UNL     1     -44.297  30.461 -22.966  1.00  0.00    -0.550 OA
ATOM     10  O   UNL     1     -43.941  31.862 -21.188  1.00  0.00    -0.550 OA
ENDBRANCH   7   8
ENDBRANCH   6   7
ENDBRANCH   5   6
ENDBRANCH   4   5
ENDBRANCH   3   4
ENDBRANCH   2   3
ENDBRANCH   1   2
BRANCH   1  11
ATOM     11  C   UNL     1     -37.890  25.319 -21.393  1.00  0.00     0.000 C 
BRANCH  11  12
ATOM     12  C   UNL     1     -38.100  24.564 -20.070  1.00  0.00    -0.000 C 
BRANCH  12  13
ATOM     13  C   UNL     1     -37.718  23.080 -20.170  1.00  0.00    -0.000 C 
BRANCH  13  14
ATOM     14  C   UNL     1     -37.884  22.378 -18.813  1.00  0.00    -0.000 C 
BRANCH  14  15
ATOM     15  C   UNL     1     -38.705  21.082 -18.911  1.00  0.00    -0.000 C 
BRANCH  15  16
ATOM     16  C   UNL     1     -40.196  21.303 -18.606  1.00  0.00    -0.000 C 
BRANCH  16  17
ATOM     17  C   UNL     1     -40.473  22.684 -17.992  1.00  0.00    -0.003 C 
ATOM     18  C   UNL     1     -41.900  22.824 -17.461  1.00  0.00     0.004 C 
ENDBRANCH  16  17
ENDBRANCH  15  16
ENDBRANCH  14  15
ENDBRANCH  13  14
ENDBRANCH  12  13
ENDBRANCH  11  12
ENDBRANCH   1  11
TORSDOF 14
ENDMDL
MODEL 7
REMARK VINA RESULT:    19.360      5.748      9.869
REMARK INTER + INTRA:          35.917
REMARK INTER:                  36.573
REMARK INTRA:                  -0.655
REMARK UNBOUND:                 0.713
REMARK SMILES CCCCCCCCCCCCCCCC(=O)[O-]
REMARK SMILES IDX 9 1 10 2 11 3 12 4 13 5 14 6 15 7 16 8 17 9 18 10 8 11 7 12
REMARK SMILES IDX 6 13 5 14 4 15 3 16 2 17 1 18
REMARK H PARENT
REMARK Flexibility Score: inf
ROOT
ATOM      1  C   UNL     1     -39.615  22.021 -18.460  1.00  0.00     0.000 C 
ENDROOT
BRANCH   1   2
ATOM      2  C   UNL     1     -38.247  22.653 -18.769  1.00  0.00     0.000 C 
BRANCH   2   3
ATOM      3  C   UNL     1     -38.133  23.204 -20.207  1.00  0.00     0.000 C 
BRANCH   3   4
ATOM      4  C   UNL     1     -37.354  24.529 -20.262  1.00  0.00     0.000 C 
BRANCH   4   5
ATOM      5  C   UNL     1     -37.978  25.552 -21.228  1.00  0.00     0.000 C 
BRANCH   5   6
ATOM      6  C   UNL     1     -37.327  26.946 -21.206  1.00  0.00     0.006 C 
BRANCH   6   7
ATOM      7  C   UNL     1     -38.005  27.937 -22.160  1.00  0.00     0.053 C 
BRANCH   7   8
ATOM      8  C   UNL     1     -38.587  29.083 -21.393  1.00  0.00     0.041 C 
ATOM      9  O   UNL     1     -37.846  29.811 -20.681  1.00  0.00    -0.550 OA
ATOM     10  O   UNL     1     -39.955  29.321 -21.430  1.00  0.00    -0.550 OA
ENDBRANCH   7   8
ENDBRANCH   6   7
ENDBRANCH   5   6
ENDBRANCH   4   5
ENDBRANCH   3   4
ENDBRANCH   2   3
ENDBRANCH   1   2
BRANCH   1  11
ATOM     11  C   UNL     1     -40.745  23.059 -18.368  1.00  0.00     0.000 C 
BRANCH  11  12
ATOM     12  C   UNL     1     -41.729  22.765 -17.225  1.00  0.00    -0.000 C 
BRANCH  12  13
ATOM     13  C   UNL     1     -41.731  23.862 -16.150  1.00  0.00    -0.000 C 
BRANCH  13  14
ATOM     14  C   UNL     1     -42.817  23.595 -15.096  1.00  0.00    -0.000 C 
BRANCH  14  15
ATOM     15  C   UNL     1     -42.546  24.321 -13.769  1.00  0.00    -0.000 C 
BRANCH  15  16
ATOM     16  C   UNL     1     -41.532  23.576 -12.884  1.00  0.00    -0.000 C 
BRANCH  16  17
ATOM     17  C   UNL     1     -40.400  24.488 -12.388  1.00  0.00    -0.003 C 
ATOM     18  C   UNL     1     -39.101  24.305 -13.173  1.00  0.00     0.004 C 
ENDBRANCH  16  17
ENDBRANCH  15  16
ENDBRANCH  14  15
ENDBRANCH  13  14
ENDBRANCH  12  13
ENDBRANCH  11  12
ENDBRANCH   1  11
TORSDOF 14
ENDMDL
