MODEL 1
REMARK VINA RESULT:    -6.101      0.000      0.000
REMARK INTER + INTRA:          -7.641
REMARK INTER:                  -7.349
REMARK INTRA:                  -0.292
REMARK UNBOUND:                -0.292
REMARK SMILES O=c1c(O)c(-c2ccc(O)cc2O)oc2cc(O)cc(O)c12
REMARK SMILES IDX 5 1 3 2 2 3 1 4 22 5 20 6 19 7 17 8 16 9 15 10 14 11 6 12
REMARK SMILES IDX 8 13 7 14 9 15 11 16 12 17 10 18 13 20 4 22 21 24 18 26
REMARK H PARENT 10 19 13 21 4 23 21 25 18 27
REMARK Flexibility Score: inf
ROOT
ATOM      1  C   UNL     1     157.894   7.432  29.995  1.00  0.00     0.184 A 
ATOM      2  C   UNL     1     157.143   6.248  29.927  1.00  0.00     0.208 A 
ATOM      3  C   UNL     1     157.287   5.292  30.944  1.00  0.00     0.238 A 
ATOM      4  O   UNL     1     156.657   4.206  30.844  1.00  0.00    -0.285 OA
ATOM      5  C   UNL     1     158.159   5.544  32.031  1.00  0.00     0.111 A 
ATOM      6  C   UNL     1     158.352   4.663  33.136  1.00  0.00     0.134 A 
ATOM      7  C   UNL     1     159.331   4.960  34.093  1.00  0.00     0.093 A 
ATOM      8  C   UNL     1     160.077   6.136  34.020  1.00  0.00     0.123 A 
ATOM      9  C   UNL     1     159.855   7.034  32.974  1.00  0.00     0.094 A 
ATOM     10  C   UNL     1     158.912   6.748  31.984  1.00  0.00     0.146 A 
ATOM     11  O   UNL     1     158.741   7.621  31.000  1.00  0.00    -0.451 OA
ENDROOT
BRANCH   1  12
ATOM     12  C   UNL     1     157.767   8.486  28.966  1.00  0.00     0.063 A 
ATOM     13  C   UNL     1     158.718   9.665  27.061  1.00  0.00     0.047 A 
ATOM     14  C   UNL     1     158.832   8.714  28.078  1.00  0.00     0.020 A 
ATOM     15  C   UNL     1     157.535  10.397  26.914  1.00  0.00     0.119 A 
ATOM     16  C   UNL     1     156.470  10.178  27.791  1.00  0.00     0.093 A 
ATOM     17  C   UNL     1     156.575   9.235  28.820  1.00  0.00     0.130 A 
BRANCH  15  18
ATOM     18  O   UNL     1     157.409  11.344  25.901  1.00  0.00    -0.508 OA
ATOM     19  H   UNL     1     156.817  11.181  25.094  1.00  0.00     0.293 HD
ENDBRANCH  15  18
BRANCH  17  20
ATOM     20  O   UNL     1     155.492   9.082  29.690  1.00  0.00    -0.507 OA
ATOM     21  H   UNL     1     155.148   8.179  29.989  1.00  0.00     0.293 HD
ENDBRANCH  17  20
ENDBRANCH   1  12
BRANCH   2  22
ATOM     22  O   UNL     1     156.288   6.028  28.844  1.00  0.00    -0.502 OA
ATOM     23  H   UNL     1     155.940   5.106  28.607  1.00  0.00     0.293 HD
ENDBRANCH   2  22
BRANCH   6  24
ATOM     24  O   UNL     1     157.599   3.506  33.356  1.00  0.00    -0.507 OA
ATOM     25  H   UNL     1     156.823   3.208  32.784  1.00  0.00     0.293 HD
ENDBRANCH   6  24
BRANCH   8  26
ATOM     26  O   UNL     1     161.031   6.408  34.998  1.00  0.00    -0.508 OA
ATOM     27  H   UNL     1     160.774   6.530  35.970  1.00  0.00     0.293 HD
ENDBRANCH   8  26
TORSDOF 6
ENDMDL
MODEL 2
REMARK VINA RESULT:    -5.988      1.999      3.047
REMARK INTER + INTRA:          -7.506
REMARK INTER:                  -7.219
REMARK INTRA:                  -0.287
REMARK UNBOUND:                -0.292
REMARK SMILES O=c1c(O)c(-c2ccc(O)cc2O)oc2cc(O)cc(O)c12
REMARK SMILES IDX 5 1 3 2 2 3 1 4 22 5 20 6 19 7 17 8 16 9 15 10 14 11 6 12
REMARK SMILES IDX 8 13 7 14 9 15 11 16 12 17 10 18 13 20 4 22 21 24 18 26
REMARK H PARENT 10 19 13 21 4 23 21 25 18 27
REMARK Flexibility Score: inf
ROOT
ATOM      1  C   UNL     1     158.790   6.725  31.990  1.00  0.00     0.184 A 
ATOM      2  C   UNL     1     158.349   5.440  32.341  1.00  0.00     0.208 A 
ATOM      3  C   UNL     1     159.209   4.599  33.065  1.00  0.00     0.238 A 
ATOM      4  O   UNL     1     158.830   3.427  33.322  1.00  0.00    -0.285 OA
ATOM      5  C   UNL     1     160.488   5.066  33.453  1.00  0.00     0.111 A 
ATOM      6  C   UNL     1     161.426   4.314  34.222  1.00  0.00     0.134 A 
ATOM      7  C   UNL     1     162.709   4.830  34.444  1.00  0.00     0.093 A 
ATOM      8  C   UNL     1     163.066   6.096  33.980  1.00  0.00     0.123 A 
ATOM      9  C   UNL     1     162.138   6.865  33.277  1.00  0.00     0.094 A 
ATOM     10  C   UNL     1     160.862   6.362  33.008  1.00  0.00     0.146 A 
ATOM     11  O   UNL     1     160.013   7.119  32.324  1.00  0.00    -0.451 OA
ENDROOT
BRANCH   1  12
ATOM     12  C   UNL     1     157.920   7.663  31.249  1.00  0.00     0.063 A 
ATOM     13  C   UNL     1     157.361   8.779  29.160  1.00  0.00     0.047 A 
ATOM     14  C   UNL     1     158.198   7.941  29.899  1.00  0.00     0.020 A 
ATOM     15  C   UNL     1     156.231   9.349  29.757  1.00  0.00     0.119 A 
ATOM     16  C   UNL     1     155.945   9.079  31.098  1.00  0.00     0.093 A 
ATOM     17  C   UNL     1     156.782   8.247  31.853  1.00  0.00     0.130 A 
BRANCH  15  18
ATOM     18  O   UNL     1     155.387  10.182  29.028  1.00  0.00    -0.508 OA
ATOM     19  H   UNL     1     155.736  10.758  28.270  1.00  0.00     0.293 HD
ENDBRANCH  15  18
BRANCH  17  20
ATOM     20  O   UNL     1     156.467   8.041  33.198  1.00  0.00    -0.507 OA
ATOM     21  H   UNL     1     155.865   7.293  33.516  1.00  0.00     0.293 HD
ENDBRANCH  17  20
ENDBRANCH   1  12
BRANCH   2  22
ATOM     22  O   UNL     1     157.080   5.008  31.947  1.00  0.00    -0.502 OA
ATOM     23  H   UNL     1     156.943   4.337  31.200  1.00  0.00     0.293 HD
ENDBRANCH   2  22
BRANCH   6  24
ATOM     24  O   UNL     1     161.143   3.077  34.810  1.00  0.00    -0.507 OA
ATOM     25  H   UNL     1     161.833   2.381  35.045  1.00  0.00     0.293 HD
ENDBRANCH   6  24
BRANCH   8  26
ATOM     26  O   UNL     1     164.346   6.585  34.233  1.00  0.00    -0.508 OA
ATOM     27  H   UNL     1     164.524   7.243  34.983  1.00  0.00     0.293 HD
ENDBRANCH   8  26
TORSDOF 6
ENDMDL
MODEL 3
REMARK VINA RESULT:    -5.895      2.067      6.625
REMARK INTER + INTRA:          -7.393
REMARK INTER:                  -6.991
REMARK INTRA:                  -0.402
REMARK UNBOUND:                -0.292
REMARK SMILES O=c1c(O)c(-c2ccc(O)cc2O)oc2cc(O)cc(O)c12
REMARK SMILES IDX 5 1 3 2 2 3 1 4 22 5 20 6 19 7 17 8 16 9 15 10 14 11 6 12
REMARK SMILES IDX 8 13 7 14 9 15 11 16 12 17 10 18 13 20 4 22 21 24 18 26
REMARK H PARENT 10 19 13 21 4 23 21 25 18 27
REMARK Flexibility Score: inf
ROOT
ATOM      1  C   UNL     1     159.040   7.106  32.296  1.00  0.00     0.184 A 
ATOM      2  C   UNL     1     157.997   7.402  33.187  1.00  0.00     0.208 A 
ATOM      3  C   UNL     1     156.868   8.084  32.710  1.00  0.00     0.238 A 
ATOM      4  O   UNL     1     155.964   8.400  33.528  1.00  0.00    -0.285 OA
ATOM      5  C   UNL     1     156.784   8.437  31.341  1.00  0.00     0.111 A 
ATOM      6  C   UNL     1     155.669   9.095  30.741  1.00  0.00     0.134 A 
ATOM      7  C   UNL     1     155.747   9.504  29.403  1.00  0.00     0.093 A 
ATOM      8  C   UNL     1     156.871   9.222  28.628  1.00  0.00     0.123 A 
ATOM      9  C   UNL     1     157.944   8.527  29.189  1.00  0.00     0.094 A 
ATOM     10  C   UNL     1     157.911   8.139  30.530  1.00  0.00     0.146 A 
ATOM     11  O   UNL     1     158.957   7.492  31.029  1.00  0.00    -0.451 OA
ENDROOT
BRANCH   1  12
ATOM     12  C   UNL     1     160.243   6.368  32.736  1.00  0.00     0.063 A 
ATOM     13  C   UNL     1     162.480   6.411  33.696  1.00  0.00     0.047 A 
ATOM     14  C   UNL     1     161.352   7.084  33.222  1.00  0.00     0.020 A 
ATOM     15  C   UNL     1     162.515   5.012  33.695  1.00  0.00     0.119 A 
ATOM     16  C   UNL     1     161.419   4.290  33.215  1.00  0.00     0.093 A 
ATOM     17  C   UNL     1     160.286   4.954  32.728  1.00  0.00     0.130 A 
BRANCH  15  18
ATOM     18  O   UNL     1     163.632   4.330  34.170  1.00  0.00    -0.508 OA
ATOM     19  H   UNL     1     164.387   4.814  34.644  1.00  0.00     0.293 HD
ENDBRANCH  15  18
BRANCH  17  20
ATOM     20  O   UNL     1     159.234   4.183  32.227  1.00  0.00    -0.507 OA
ATOM     21  H   UNL     1     158.860   3.377  32.712  1.00  0.00     0.293 HD
ENDBRANCH  17  20
ENDBRANCH   1  12
BRANCH   2  22
ATOM     22  O   UNL     1     158.106   7.038  34.532  1.00  0.00    -0.502 OA
ATOM     23  H   UNL     1     158.945   6.616  34.913  1.00  0.00     0.293 HD
ENDBRANCH   2  22
BRANCH   6  24
ATOM     24  O   UNL     1     154.461   9.346  31.399  1.00  0.00    -0.507 OA
ATOM     25  H   UNL     1     154.059  10.261  31.535  1.00  0.00     0.293 HD
ENDBRANCH   6  24
BRANCH   8  26
ATOM     26  O   UNL     1     156.908   9.629  27.296  1.00  0.00    -0.508 OA
ATOM     27  H   UNL     1     156.227  10.279  26.921  1.00  0.00     0.293 HD
ENDBRANCH   8  26
TORSDOF 6
ENDMDL
MODEL 4
REMARK VINA RESULT:    -5.736      1.559      6.731
REMARK INTER + INTRA:          -7.202
REMARK INTER:                  -6.832
REMARK INTRA:                  -0.370
REMARK UNBOUND:                -0.292
REMARK SMILES O=c1c(O)c(-c2ccc(O)cc2O)oc2cc(O)cc(O)c12
REMARK SMILES IDX 5 1 3 2 2 3 1 4 22 5 20 6 19 7 17 8 16 9 15 10 14 11 6 12
REMARK SMILES IDX 8 13 7 14 9 15 11 16 12 17 10 18 13 20 4 22 21 24 18 26
REMARK H PARENT 10 19 13 21 4 23 21 25 18 27
REMARK Flexibility Score: inf
ROOT
ATOM      1  C   UNL     1     158.147   7.259  31.735  1.00  0.00     0.184 A 
ATOM      2  C   UNL     1     156.941   7.892  32.074  1.00  0.00     0.208 A 
ATOM      3  C   UNL     1     156.356   8.777  31.155  1.00  0.00     0.238 A 
ATOM      4  O   UNL     1     155.307   9.388  31.491  1.00  0.00    -0.285 OA
ATOM      5  C   UNL     1     156.969   8.996  29.898  1.00  0.00     0.111 A 
ATOM      6  C   UNL     1     156.443   9.841  28.876  1.00  0.00     0.134 A 
ATOM      7  C   UNL     1     157.197  10.077  27.719  1.00  0.00     0.093 A 
ATOM      8  C   UNL     1     158.426   9.450  27.520  1.00  0.00     0.123 A 
ATOM      9  C   UNL     1     158.924   8.575  28.488  1.00  0.00     0.094 A 
ATOM     10  C   UNL     1     158.212   8.348  29.668  1.00  0.00     0.146 A 
ATOM     11  O   UNL     1     158.726   7.520  30.569  1.00  0.00    -0.451 OA
ENDROOT
BRANCH   1  12
ATOM     12  C   UNL     1     158.797   6.299  32.651  1.00  0.00     0.063 A 
ATOM     13  C   UNL     1     160.057   5.893  34.694  1.00  0.00     0.047 A 
ATOM     14  C   UNL     1     159.481   6.780  33.782  1.00  0.00     0.020 A 
ATOM     15  C   UNL     1     159.954   4.512  34.492  1.00  0.00     0.119 A 
ATOM     16  C   UNL     1     159.276   4.023  33.372  1.00  0.00     0.093 A 
ATOM     17  C   UNL     1     158.703   4.902  32.445  1.00  0.00     0.130 A 
BRANCH  15  18
ATOM     18  O   UNL     1     160.520   3.619  35.398  1.00  0.00    -0.508 OA
ATOM     19  H   UNL     1     160.333   2.624  35.349  1.00  0.00     0.293 HD
ENDBRANCH  15  18
BRANCH  17  20
ATOM     20  O   UNL     1     158.068   4.359  31.326  1.00  0.00    -0.507 OA
ATOM     21  H   UNL     1     158.319   4.602  30.376  1.00  0.00     0.293 HD
ENDBRANCH  17  20
ENDBRANCH   1  12
BRANCH   2  22
ATOM     22  O   UNL     1     156.357   7.655  33.321  1.00  0.00    -0.502 OA
ATOM     23  H   UNL     1     155.831   6.812  33.521  1.00  0.00     0.293 HD
ENDBRANCH   2  22
BRANCH   6  24
ATOM     24  O   UNL     1     155.184  10.447  28.932  1.00  0.00    -0.507 OA
ATOM     25  H   UNL     1     154.793  11.028  28.207  1.00  0.00     0.293 HD
ENDBRANCH   6  24
BRANCH   8  26
ATOM     26  O   UNL     1     159.142   9.695  26.350  1.00  0.00    -0.508 OA
ATOM     27  H   UNL     1     159.876  10.393  26.313  1.00  0.00     0.293 HD
ENDBRANCH   8  26
TORSDOF 6
ENDMDL
MODEL 5
REMARK VINA RESULT:    -5.672      1.764      2.816
REMARK INTER + INTRA:          -7.125
REMARK INTER:                  -6.740
REMARK INTRA:                  -0.385
REMARK UNBOUND:                -0.292
REMARK SMILES O=c1c(O)c(-c2ccc(O)cc2O)oc2cc(O)cc(O)c12
REMARK SMILES IDX 5 1 3 2 2 3 1 4 22 5 20 6 19 7 17 8 16 9 15 10 14 11 6 12
REMARK SMILES IDX 8 13 7 14 9 15 11 16 12 17 10 18 13 20 4 22 21 24 18 26
REMARK H PARENT 10 19 13 21 4 23 21 25 18 27
REMARK Flexibility Score: inf
ROOT
ATOM      1  C   UNL     1     158.153   6.884  31.647  1.00  0.00     0.184 A 
ATOM      2  C   UNL     1     157.541   5.985  32.534  1.00  0.00     0.208 A 
ATOM      3  C   UNL     1     158.299   5.441  33.582  1.00  0.00     0.238 A 
ATOM      4  O   UNL     1     157.760   4.590  34.337  1.00  0.00    -0.285 OA
ATOM      5  C   UNL     1     159.652   5.824  33.746  1.00  0.00     0.111 A 
ATOM      6  C   UNL     1     160.503   5.366  34.796  1.00  0.00     0.134 A 
ATOM      7  C   UNL     1     161.859   5.716  34.789  1.00  0.00     0.093 A 
ATOM      8  C   UNL     1     162.380   6.559  33.807  1.00  0.00     0.123 A 
ATOM      9  C   UNL     1     161.544   7.060  32.808  1.00  0.00     0.094 A 
ATOM     10  C   UNL     1     160.195   6.699  32.768  1.00  0.00     0.146 A 
ATOM     11  O   UNL     1     159.437   7.187  31.793  1.00  0.00    -0.451 OA
ENDROOT
BRANCH   1  12
ATOM     12  C   UNL     1     157.399   7.507  30.538  1.00  0.00     0.063 A 
ATOM     13  C   UNL     1     156.245   9.451  29.638  1.00  0.00     0.047 A 
ATOM     14  C   UNL     1     156.911   8.817  30.688  1.00  0.00     0.020 A 
ATOM     15  C   UNL     1     156.060   8.787  28.420  1.00  0.00     0.119 A 
ATOM     16  C   UNL     1     156.542   7.485  28.260  1.00  0.00     0.093 A 
ATOM     17  C   UNL     1     157.203   6.835  29.309  1.00  0.00     0.130 A 
BRANCH  15  18
ATOM     18  O   UNL     1     155.401   9.411  27.364  1.00  0.00    -0.508 OA
ATOM     19  H   UNL     1     154.932  10.302  27.484  1.00  0.00     0.293 HD
ENDBRANCH  15  18
BRANCH  17  20
ATOM     20  O   UNL     1     157.632   5.521  29.105  1.00  0.00    -0.507 OA
ATOM     21  H   UNL     1     157.818   5.137  28.188  1.00  0.00     0.293 HD
ENDBRANCH  17  20
ENDBRANCH   1  12
BRANCH   2  22
ATOM     22  O   UNL     1     156.203   5.629  32.350  1.00  0.00    -0.502 OA
ATOM     23  H   UNL     1     155.834   4.733  32.649  1.00  0.00     0.293 HD
ENDBRANCH   2  22
BRANCH   6  24
ATOM     24  O   UNL     1     160.066   4.593  35.876  1.00  0.00    -0.507 OA
ATOM     25  H   UNL     1     159.131   4.610  36.254  1.00  0.00     0.293 HD
ENDBRANCH   6  24
BRANCH   8  26
ATOM     26  O   UNL     1     163.730   6.900  33.840  1.00  0.00    -0.508 OA
ATOM     27  H   UNL     1     164.149   7.333  34.655  1.00  0.00     0.293 HD
ENDBRANCH   8  26
TORSDOF 6
ENDMDL
MODEL 6
REMARK VINA RESULT:    -5.582      6.133      9.638
REMARK INTER + INTRA:          -7.016
REMARK INTER:                  -6.622
REMARK INTRA:                  -0.394
REMARK UNBOUND:                -0.292
REMARK SMILES O=c1c(O)c(-c2ccc(O)cc2O)oc2cc(O)cc(O)c12
REMARK SMILES IDX 5 1 3 2 2 3 1 4 22 5 20 6 19 7 17 8 16 9 15 10 14 11 6 12
REMARK SMILES IDX 8 13 7 14 9 15 11 16 12 17 10 18 13 20 4 22 21 24 18 26
REMARK H PARENT 10 19 13 21 4 23 21 25 18 27
REMARK Flexibility Score: inf
ROOT
ATOM      1  C   UNL     1     164.281   4.298  35.339  1.00  0.00     0.184 A 
ATOM      2  C   UNL     1     164.274   4.536  36.722  1.00  0.00     0.208 A 
ATOM      3  C   UNL     1     165.429   4.254  37.467  1.00  0.00     0.238 A 
ATOM      4  O   UNL     1     165.394   4.412  38.716  1.00  0.00    -0.285 OA
ATOM      5  C   UNL     1     166.585   3.762  36.814  1.00  0.00     0.111 A 
ATOM      6  C   UNL     1     167.824   3.478  37.465  1.00  0.00     0.134 A 
ATOM      7  C   UNL     1     168.863   2.881  36.740  1.00  0.00     0.093 A 
ATOM      8  C   UNL     1     168.732   2.616  35.378  1.00  0.00     0.123 A 
ATOM      9  C   UNL     1     167.546   2.943  34.718  1.00  0.00     0.094 A 
ATOM     10  C   UNL     1     166.478   3.507  35.422  1.00  0.00     0.146 A 
ATOM     11  O   UNL     1     165.362   3.790  34.761  1.00  0.00    -0.451 OA
ENDROOT
BRANCH   1  12
ATOM     12  C   UNL     1     163.102   4.599  34.499  1.00  0.00     0.063 A 
ATOM     13  C   UNL     1     160.945   3.906  33.609  1.00  0.00     0.047 A 
ATOM     14  C   UNL     1     162.095   3.629  34.351  1.00  0.00     0.020 A 
ATOM     15  C   UNL     1     160.782   5.159  33.008  1.00  0.00     0.119 A 
ATOM     16  C   UNL     1     161.776   6.131  33.149  1.00  0.00     0.093 A 
ATOM     17  C   UNL     1     162.938   5.862  33.883  1.00  0.00     0.130 A 
BRANCH  15  18
ATOM     18  O   UNL     1     159.637   5.449  32.270  1.00  0.00    -0.508 OA
ATOM     19  H   UNL     1     159.693   5.804  31.322  1.00  0.00     0.293 HD
ENDBRANCH  15  18
BRANCH  17  20
ATOM     20  O   UNL     1     163.915   6.858  33.961  1.00  0.00    -0.507 OA
ATOM     21  H   UNL     1     164.907   6.663  33.915  1.00  0.00     0.293 HD
ENDBRANCH  17  20
ENDBRANCH   1  12
BRANCH   2  22
ATOM     22  O   UNL     1     163.119   5.025  37.338  1.00  0.00    -0.502 OA
ATOM     23  H   UNL     1     163.010   5.049  38.345  1.00  0.00     0.293 HD
ENDBRANCH   2  22
BRANCH   6  24
ATOM     24  O   UNL     1     168.094   3.785  38.802  1.00  0.00    -0.507 OA
ATOM     25  H   UNL     1     169.008   3.998  39.170  1.00  0.00     0.293 HD
ENDBRANCH   6  24
BRANCH   8  26
ATOM     26  O   UNL     1     169.792   2.036  34.684  1.00  0.00    -0.508 OA
ATOM     27  H   UNL     1     170.051   1.067  34.825  1.00  0.00     0.293 HD
ENDBRANCH   8  26
TORSDOF 6
ENDMDL
MODEL 7
REMARK VINA RESULT:    -5.528      3.004      3.255
REMARK INTER + INTRA:          -6.952
REMARK INTER:                  -6.682
REMARK INTRA:                  -0.270
REMARK UNBOUND:                -0.292
REMARK SMILES O=c1c(O)c(-c2ccc(O)cc2O)oc2cc(O)cc(O)c12
REMARK SMILES IDX 5 1 3 2 2 3 1 4 22 5 20 6 19 7 17 8 16 9 15 10 14 11 6 12
REMARK SMILES IDX 8 13 7 14 9 15 11 16 12 17 10 18 13 20 4 22 21 24 18 26
REMARK H PARENT 10 19 13 21 4 23 21 25 18 27
REMARK Flexibility Score: inf
ROOT
ATOM      1  C   UNL     1     156.475   7.923  30.544  1.00  0.00     0.184 A 
ATOM      2  C   UNL     1     156.130   6.564  30.505  1.00  0.00     0.208 A 
ATOM      3  C   UNL     1     155.474   5.997  31.609  1.00  0.00     0.238 A 
ATOM      4  O   UNL     1     155.222   4.763  31.593  1.00  0.00    -0.285 OA
ATOM      5  C   UNL     1     155.147   6.804  32.726  1.00  0.00     0.111 A 
ATOM      6  C   UNL     1     154.449   6.344  33.882  1.00  0.00     0.134 A 
ATOM      7  C   UNL     1     154.288   7.201  34.978  1.00  0.00     0.093 A 
ATOM      8  C   UNL     1     154.742   8.519  34.935  1.00  0.00     0.123 A 
ATOM      9  C   UNL     1     155.375   8.997  33.787  1.00  0.00     0.094 A 
ATOM     10  C   UNL     1     155.583   8.155  32.691  1.00  0.00     0.146 A 
ATOM     11  O   UNL     1     156.201   8.645  31.624  1.00  0.00    -0.451 OA
ENDROOT
BRANCH   1  12
ATOM     12  C   UNL     1     157.144   8.581  29.402  1.00  0.00     0.063 A 
ATOM     13  C   UNL     1     159.003   8.647  27.831  1.00  0.00     0.047 A 
ATOM     14  C   UNL     1     158.376   8.080  28.943  1.00  0.00     0.020 A 
ATOM     15  C   UNL     1     158.407   9.719  27.159  1.00  0.00     0.119 A 
ATOM     16  C   UNL     1     157.183  10.224  27.605  1.00  0.00     0.093 A 
ATOM     17  C   UNL     1     156.548   9.671  28.725  1.00  0.00     0.130 A 
BRANCH  15  18
ATOM     18  O   UNL     1     159.021  10.289  26.046  1.00  0.00    -0.508 OA
ATOM     19  H   UNL     1     158.513  10.447  25.183  1.00  0.00     0.293 HD
ENDBRANCH  15  18
BRANCH  17  20
ATOM     20  O   UNL     1     155.344  10.238  29.148  1.00  0.00    -0.507 OA
ATOM     21  H   UNL     1     154.510  10.255  28.576  1.00  0.00     0.293 HD
ENDBRANCH  17  20
ENDBRANCH   1  12
BRANCH   2  22
ATOM     22  O   UNL     1     156.461   5.792  29.389  1.00  0.00    -0.502 OA
ATOM     23  H   UNL     1     156.811   6.203  28.531  1.00  0.00     0.293 HD
ENDBRANCH   2  22
BRANCH   6  24
ATOM     24  O   UNL     1     153.875   5.074  33.996  1.00  0.00    -0.507 OA
ATOM     25  H   UNL     1     154.296   4.220  33.663  1.00  0.00     0.293 HD
ENDBRANCH   6  24
BRANCH   8  26
ATOM     26  O   UNL     1     154.551   9.349  36.037  1.00  0.00    -0.508 OA
ATOM     27  H   UNL     1     155.001  10.254  36.105  1.00  0.00     0.293 HD
ENDBRANCH   8  26
TORSDOF 6
ENDMDL
MODEL 8
REMARK VINA RESULT:    -4.913      3.445      6.265
REMARK INTER + INTRA:          -6.211
REMARK INTER:                  -5.867
REMARK INTRA:                  -0.344
REMARK UNBOUND:                -0.292
REMARK SMILES O=c1c(O)c(-c2ccc(O)cc2O)oc2cc(O)cc(O)c12
REMARK SMILES IDX 5 1 3 2 2 3 1 4 22 5 20 6 19 7 17 8 16 9 15 10 14 11 6 12
REMARK SMILES IDX 8 13 7 14 9 15 11 16 12 17 10 18 13 20 4 22 21 24 18 26
REMARK H PARENT 10 19 13 21 4 23 21 25 18 27
REMARK Flexibility Score: inf
ROOT
ATOM      1  C   UNL     1     156.022   8.023  31.774  1.00  0.00     0.184 A 
ATOM      2  C   UNL     1     155.831   6.738  31.242  1.00  0.00     0.208 A 
ATOM      3  C   UNL     1     156.309   6.458  29.953  1.00  0.00     0.238 A 
ATOM      4  O   UNL     1     156.081   5.322  29.459  1.00  0.00    -0.285 OA
ATOM      5  C   UNL     1     156.997   7.458  29.224  1.00  0.00     0.111 A 
ATOM      6  C   UNL     1     157.559   7.271  27.925  1.00  0.00     0.134 A 
ATOM      7  C   UNL     1     158.112   8.366  27.249  1.00  0.00     0.093 A 
ATOM      8  C   UNL     1     158.180   9.624  27.847  1.00  0.00     0.123 A 
ATOM      9  C   UNL     1     157.686   9.804  29.140  1.00  0.00     0.094 A 
ATOM     10  C   UNL     1     157.096   8.739  29.827  1.00  0.00     0.146 A 
ATOM     11  O   UNL     1     156.626   8.956  31.049  1.00  0.00    -0.451 OA
ENDROOT
BRANCH   1  12
ATOM     12  C   UNL     1     155.561   8.369  33.135  1.00  0.00     0.063 A 
ATOM     13  C   UNL     1     153.875   9.380  34.571  1.00  0.00     0.047 A 
ATOM     14  C   UNL     1     154.363   9.087  33.296  1.00  0.00     0.020 A 
ATOM     15  C   UNL     1     154.576   8.955  35.706  1.00  0.00     0.119 A 
ATOM     16  C   UNL     1     155.767   8.240  35.558  1.00  0.00     0.093 A 
ATOM     17  C   UNL     1     156.271   7.949  34.284  1.00  0.00     0.130 A 
BRANCH  15  18
ATOM     18  O   UNL     1     154.096   9.237  36.982  1.00  0.00    -0.508 OA
ATOM     19  H   UNL     1     154.440   8.744  37.799  1.00  0.00     0.293 HD
ENDBRANCH  15  18
BRANCH  17  20
ATOM     20  O   UNL     1     157.485   7.262  34.196  1.00  0.00    -0.507 OA
ATOM     21  H   UNL     1     157.692   6.599  33.460  1.00  0.00     0.293 HD
ENDBRANCH  17  20
ENDBRANCH   1  12
BRANCH   2  22
ATOM     22  O   UNL     1     155.151   5.770  31.987  1.00  0.00    -0.502 OA
ATOM     23  H   UNL     1     155.178   4.786  31.749  1.00  0.00     0.293 HD
ENDBRANCH   2  22
BRANCH   6  24
ATOM     24  O   UNL     1     157.625   6.037  27.271  1.00  0.00    -0.507 OA
ATOM     25  H   UNL     1     157.817   5.917  26.288  1.00  0.00     0.293 HD
ENDBRANCH   6  24
BRANCH   8  26
ATOM     26  O   UNL     1     158.750  10.687  27.151  1.00  0.00    -0.508 OA
ATOM     27  H   UNL     1     159.610  10.577  26.626  1.00  0.00     0.293 HD
ENDBRANCH   8  26
TORSDOF 6
ENDMDL
MODEL 9
REMARK VINA RESULT:    -4.904      3.274      6.248
REMARK INTER + INTRA:          -6.200
REMARK INTER:                  -5.801
REMARK INTRA:                  -0.399
REMARK UNBOUND:                -0.292
REMARK SMILES O=c1c(O)c(-c2ccc(O)cc2O)oc2cc(O)cc(O)c12
REMARK SMILES IDX 5 1 3 2 2 3 1 4 22 5 20 6 19 7 17 8 16 9 15 10 14 11 6 12
REMARK SMILES IDX 8 13 7 14 9 15 11 16 12 17 10 18 13 20 4 22 21 24 18 26
REMARK H PARENT 10 19 13 21 4 23 21 25 18 27
REMARK Flexibility Score: inf
ROOT
ATOM      1  C   UNL     1     158.216   7.120  32.805  1.00  0.00     0.184 A 
ATOM      2  C   UNL     1     157.706   7.485  31.550  1.00  0.00     0.208 A 
ATOM      3  C   UNL     1     156.494   8.190  31.487  1.00  0.00     0.238 A 
ATOM      4  O   UNL     1     156.012   8.461  30.356  1.00  0.00    -0.285 OA
ATOM      5  C   UNL     1     155.822   8.544  32.682  1.00  0.00     0.111 A 
ATOM      6  C   UNL     1     154.608   9.292  32.737  1.00  0.00     0.134 A 
ATOM      7  C   UNL     1     153.968   9.480  33.970  1.00  0.00     0.093 A 
ATOM      8  C   UNL     1     154.530   9.003  35.153  1.00  0.00     0.123 A 
ATOM      9  C   UNL     1     155.748   8.321  35.117  1.00  0.00     0.094 A 
ATOM     10  C   UNL     1     156.391   8.086  33.899  1.00  0.00     0.146 A 
ATOM     11  O   UNL     1     157.540   7.421  33.907  1.00  0.00    -0.451 OA
ENDROOT
BRANCH   1  12
ATOM     12  C   UNL     1     159.500   6.398  32.935  1.00  0.00     0.063 A 
ATOM     13  C   UNL     1     161.887   6.459  33.408  1.00  0.00     0.047 A 
ATOM     14  C   UNL     1     160.671   7.121  33.225  1.00  0.00     0.020 A 
ATOM     15  C   UNL     1     161.949   5.065  33.310  1.00  0.00     0.119 A 
ATOM     16  C   UNL     1     160.792   4.337  33.024  1.00  0.00     0.093 A 
ATOM     17  C   UNL     1     159.568   4.989  32.828  1.00  0.00     0.130 A 
BRANCH  15  18
ATOM     18  O   UNL     1     163.155   4.394  33.497  1.00  0.00    -0.508 OA
ATOM     19  H   UNL     1     164.017   4.726  33.077  1.00  0.00     0.293 HD
ENDBRANCH  15  18
BRANCH  17  20
ATOM     20  O   UNL     1     158.451   4.214  32.509  1.00  0.00    -0.507 OA
ATOM     21  H   UNL     1     158.074   3.508  33.128  1.00  0.00     0.293 HD
ENDBRANCH  17  20
ENDBRANCH   1  12
BRANCH   2  22
ATOM     22  O   UNL     1     158.393   7.125  30.388  1.00  0.00    -0.502 OA
ATOM     23  H   UNL     1     159.338   7.440  30.197  1.00  0.00     0.293 HD
ENDBRANCH   2  22
BRANCH   6  24
ATOM     24  O   UNL     1     154.006   9.890  31.626  1.00  0.00    -0.507 OA
ATOM     25  H   UNL     1     153.196   9.528  31.146  1.00  0.00     0.293 HD
ENDBRANCH   6  24
BRANCH   8  26
ATOM     26  O   UNL     1     153.875   9.221  36.363  1.00  0.00    -0.508 OA
ATOM     27  H   UNL     1     154.060   8.648  37.178  1.00  0.00     0.293 HD
ENDBRANCH   8  26
TORSDOF 6
ENDMDL
