MODEL 1
REMARK VINA RESULT:    -5.537      0.000      0.000
REMARK INTER + INTRA:          -6.213
REMARK INTER:                  -6.670
REMARK INTRA:                   0.456
REMARK UNBOUND:                 0.456
REMARK SMILES O=c1c(O)c(-c2ccc(O)c(O)c2)oc2cc(O)cc(O)c12
REMARK SMILES IDX 5 1 3 2 2 3 1 4 22 5 20 6 19 7 17 8 16 9 15 10 14 11 6 12
REMARK SMILES IDX 7 13 8 14 9 15 13 16 11 17 10 18 12 20 4 22 21 24 18 26
REMARK H PARENT 10 19 12 21 4 23 21 25 18 27
REMARK Flexibility Score: inf
ROOT
ATOM      1  C   UNL     1      27.040 -18.233   0.699  1.00  0.00     0.180 A 
ATOM      2  C   UNL     1      28.131 -17.670   0.015  1.00  0.00     0.208 A 
ATOM      3  C   UNL     1      29.427 -17.872   0.516  1.00  0.00     0.238 A 
ATOM      4  O   UNL     1      30.394 -17.321  -0.070  1.00  0.00    -0.285 OA
ATOM      5  C   UNL     1      29.617 -18.647   1.685  1.00  0.00     0.111 A 
ATOM      6  C   UNL     1      30.888 -18.951   2.258  1.00  0.00     0.134 A 
ATOM      7  C   UNL     1      30.950 -19.617   3.489  1.00  0.00     0.093 A 
ATOM      8  C   UNL     1      29.791 -20.048   4.133  1.00  0.00     0.123 A 
ATOM      9  C   UNL     1      28.545 -19.810   3.551  1.00  0.00     0.094 A 
ATOM     10  C   UNL     1      28.449 -19.116   2.343  1.00  0.00     0.146 A 
ATOM     11  O   UNL     1      27.245 -18.900   1.828  1.00  0.00    -0.452 OA
ENDROOT
BRANCH   1  12
ATOM     12  C   UNL     1      25.647 -18.084   0.218  1.00  0.00     0.025 A 
ATOM     13  C   UNL     1      25.332 -17.047  -0.675  1.00  0.00     0.016 A 
ATOM     14  C   UNL     1      24.020 -16.875  -1.125  1.00  0.00     0.051 A 
ATOM     15  C   UNL     1      23.003 -17.727  -0.677  1.00  0.00     0.157 A 
ATOM     16  C   UNL     1      24.618 -18.924   0.682  1.00  0.00     0.062 A 
ATOM     17  C   UNL     1      23.301 -18.750   0.231  1.00  0.00     0.158 A 
BRANCH  15  18
ATOM     18  O   UNL     1      21.693 -17.559  -1.125  1.00  0.00    -0.504 OA
ATOM     19  H   UNL     1      21.237 -18.257  -1.700  1.00  0.00     0.293 HD
ENDBRANCH  15  18
BRANCH  17  20
ATOM     20  O   UNL     1      22.284 -19.587   0.687  1.00  0.00    -0.504 OA
ATOM     21  H   UNL     1      21.806 -19.413   1.563  1.00  0.00     0.293 HD
ENDBRANCH  17  20
ENDBRANCH   1  12
BRANCH   2  22
ATOM     22  O   UNL     1      27.919 -16.889  -1.124  1.00  0.00    -0.502 OA
ATOM     23  H   UNL     1      27.101 -16.302  -1.238  1.00  0.00     0.293 HD
ENDBRANCH   2  22
BRANCH   6  24
ATOM     24  O   UNL     1      32.110 -18.647   1.651  1.00  0.00    -0.507 OA
ATOM     25  H   UNL     1      32.803 -18.023   2.034  1.00  0.00     0.293 HD
ENDBRANCH   6  24
BRANCH   8  26
ATOM     26  O   UNL     1      29.890 -20.722   5.348  1.00  0.00    -0.508 OA
ATOM     27  H   UNL     1      29.070 -21.074   5.827  1.00  0.00     0.293 HD
ENDBRANCH   8  26
TORSDOF 6
ENDMDL
MODEL 2
REMARK VINA RESULT:    -4.208      2.193      2.560
REMARK INTER + INTRA:          -4.613
REMARK INTER:                  -4.303
REMARK INTRA:                  -0.310
REMARK UNBOUND:                 0.456
REMARK SMILES O=c1c(O)c(-c2ccc(O)c(O)c2)oc2cc(O)cc(O)c12
REMARK SMILES IDX 5 1 3 2 2 3 1 4 22 5 20 6 19 7 17 8 16 9 15 10 14 11 6 12
REMARK SMILES IDX 7 13 8 14 9 15 13 16 11 17 10 18 12 20 4 22 21 24 18 26
REMARK H PARENT 10 19 12 21 4 23 21 25 18 27
REMARK Flexibility Score: inf
ROOT
ATOM      1  C   UNL     1      27.688 -19.053   1.357  1.00  0.00     0.180 A 
ATOM      2  C   UNL     1      28.386 -18.343   2.350  1.00  0.00     0.208 A 
ATOM      3  C   UNL     1      29.545 -18.908   2.904  1.00  0.00     0.238 A 
ATOM      4  O   UNL     1      30.134 -18.293   3.830  1.00  0.00    -0.285 OA
ATOM      5  C   UNL     1      30.002 -20.168   2.448  1.00  0.00     0.111 A 
ATOM      6  C   UNL     1      31.187 -20.817   2.910  1.00  0.00     0.134 A 
ATOM      7  C   UNL     1      31.472 -22.120   2.483  1.00  0.00     0.093 A 
ATOM      8  C   UNL     1      30.652 -22.772   1.563  1.00  0.00     0.123 A 
ATOM      9  C   UNL     1      29.523 -22.124   1.059  1.00  0.00     0.094 A 
ATOM     10  C   UNL     1      29.193 -20.839   1.493  1.00  0.00     0.146 A 
ATOM     11  O   UNL     1      28.105 -20.261   0.997  1.00  0.00    -0.452 OA
ENDROOT
BRANCH   1  12
ATOM     12  C   UNL     1      26.472 -18.511   0.709  1.00  0.00     0.025 A 
ATOM     13  C   UNL     1      26.603 -17.604  -0.355  1.00  0.00     0.016 A 
ATOM     14  C   UNL     1      25.469 -17.063  -0.967  1.00  0.00     0.051 A 
ATOM     15  C   UNL     1      24.190 -17.410  -0.515  1.00  0.00     0.157 A 
ATOM     16  C   UNL     1      25.185 -18.841   1.173  1.00  0.00     0.062 A 
ATOM     17  C   UNL     1      24.048 -18.296   0.559  1.00  0.00     0.158 A 
BRANCH  15  18
ATOM     18  O   UNL     1      23.056 -16.875  -1.125  1.00  0.00    -0.504 OA
ATOM     19  H   UNL     1      22.879 -15.877  -1.130  1.00  0.00     0.293 HD
ENDBRANCH  15  18
BRANCH  17  20
ATOM     20  O   UNL     1      22.773 -18.629   1.016  1.00  0.00    -0.504 OA
ATOM     21  H   UNL     1      22.445 -18.338   1.930  1.00  0.00     0.293 HD
ENDBRANCH  17  20
ENDBRANCH   1  12
BRANCH   2  22
ATOM     22  O   UNL     1      27.905 -17.112   2.802  1.00  0.00    -0.502 OA
ATOM     23  H   UNL     1      27.091 -16.663   2.398  1.00  0.00     0.293 HD
ENDBRANCH   2  22
BRANCH   6  24
ATOM     24  O   UNL     1      32.123 -20.219   3.759  1.00  0.00    -0.507 OA
ATOM     25  H   UNL     1      32.334 -19.233   3.779  1.00  0.00     0.293 HD
ENDBRANCH   6  24
BRANCH   8  26
ATOM     26  O   UNL     1      30.975 -24.062   1.149  1.00  0.00    -0.508 OA
ATOM     27  H   UNL     1      30.842 -24.863   1.755  1.00  0.00     0.293 HD
ENDBRANCH   8  26
TORSDOF 6
ENDMDL
