MODEL 1
REMARK VINA RESULT:    -4.112      0.000      0.000
REMARK INTER + INTRA:         -10.768
REMARK INTER:                  -7.718
REMARK INTRA:                  -3.050
REMARK UNBOUND:                -3.050
REMARK SMILES CCCCCCCCC=CCCCCCCCC(=O)[O-]
REMARK SMILES IDX 10 1 9 2 11 3 12 4 13 5 14 6 15 7 16 8 17 9 18 10 19 11
REMARK SMILES IDX 20 12 8 13 7 14 6 15 5 16 4 17 3 18 2 19 1 20
REMARK H PARENT
REMARK Flexibility Score: inf
ROOT
ATOM      1  C   UNL     1     -15.384  14.638 -18.058  1.00  0.00    -0.031 C 
ATOM      2  C   UNL     1     -16.243  15.558 -18.535  1.00  0.00    -0.031 C 
ENDROOT
BRANCH   1   3
ATOM      3  C   UNL     1     -14.070  14.259 -18.702  1.00  0.00     0.027 C 
BRANCH   3   4
ATOM      4  C   UNL     1     -12.915  14.304 -17.694  1.00  0.00     0.004 C 
BRANCH   4   5
ATOM      5  C   UNL     1     -13.296  13.665 -16.348  1.00  0.00     0.000 C 
BRANCH   5   6
ATOM      6  C   UNL     1     -12.884  12.186 -16.260  1.00  0.00     0.000 C 
BRANCH   6   7
ATOM      7  C   UNL     1     -14.048  11.230 -16.557  1.00  0.00     0.000 C 
BRANCH   7   8
ATOM      8  C   UNL     1     -15.236  11.508 -15.629  1.00  0.00     0.006 C 
BRANCH   8   9
ATOM      9  C   UNL     1     -16.565  11.224 -16.337  1.00  0.00     0.053 C 
BRANCH   9  10
ATOM     10  C   UNL     1     -17.461  12.418 -16.266  1.00  0.00     0.041 C 
ATOM     11  O   UNL     1     -17.226  13.340 -15.442  1.00  0.00    -0.550 OA
ATOM     12  O   UNL     1     -18.530  12.538 -17.146  1.00  0.00    -0.550 OA
ENDBRANCH   9  10
ENDBRANCH   8   9
ENDBRANCH   7   8
ENDBRANCH   6   7
ENDBRANCH   5   6
ENDBRANCH   4   5
ENDBRANCH   3   4
ENDBRANCH   1   3
BRANCH   2  13
ATOM     13  C   UNL     1     -16.008  16.401 -19.763  1.00  0.00     0.027 C 
BRANCH  13  14
ATOM     14  C   UNL     1     -15.286  17.717 -19.431  1.00  0.00     0.004 C 
BRANCH  14  15
ATOM     15  C   UNL     1     -13.767  17.608 -19.640  1.00  0.00     0.000 C 
BRANCH  15  16
ATOM     16  C   UNL     1     -12.955  18.116 -18.435  1.00  0.00     0.000 C 
BRANCH  16  17
ATOM     17  C   UNL     1     -13.783  18.447 -17.180  1.00  0.00    -0.000 C 
BRANCH  17  18
ATOM     18  C   UNL     1     -13.502  17.492 -16.007  1.00  0.00    -0.000 C 
BRANCH  18  19
ATOM     19  C   UNL     1     -14.790  16.999 -15.330  1.00  0.00    -0.003 C 
ATOM     20  C   UNL     1     -15.990  17.902 -15.612  1.00  0.00     0.004 C 
ENDBRANCH  18  19
ENDBRANCH  17  18
ENDBRANCH  16  17
ENDBRANCH  15  16
ENDBRANCH  14  15
ENDBRANCH  13  14
ENDBRANCH   2  13
TORSDOF 15
ENDMDL
MODEL 2
REMARK VINA RESULT:    -4.110     11.990     14.763
REMARK INTER + INTRA:         -10.764
REMARK INTER:                  -7.810
REMARK INTRA:                  -2.954
REMARK UNBOUND:                -3.050
REMARK SMILES CCCCCCCCC=CCCCCCCCC(=O)[O-]
REMARK SMILES IDX 10 1 9 2 11 3 12 4 13 5 14 6 15 7 16 8 17 9 18 10 19 11
REMARK SMILES IDX 20 12 8 13 7 14 6 15 5 16 4 17 3 18 2 19 1 20
REMARK H PARENT
REMARK Flexibility Score: inf
ROOT
ATOM      1  C   UNL     1      -0.284  13.068 -12.680  1.00  0.00    -0.031 C 
ATOM      2  C   UNL     1      -0.059  11.855 -12.142  1.00  0.00    -0.031 C 
ENDROOT
BRANCH   1   3
ATOM      3  C   UNL     1      -0.615  14.318 -11.898  1.00  0.00     0.027 C 
BRANCH   3   4
ATOM      4  C   UNL     1      -2.123  14.597 -11.896  1.00  0.00     0.004 C 
BRANCH   4   5
ATOM      5  C   UNL     1      -2.833  13.934 -10.704  1.00  0.00     0.000 C 
BRANCH   5   6
ATOM      6  C   UNL     1      -4.049  13.097 -11.134  1.00  0.00     0.000 C 
BRANCH   6   7
ATOM      7  C   UNL     1      -4.284  13.134 -12.651  1.00  0.00     0.000 C 
BRANCH   7   8
ATOM      8  C   UNL     1      -4.630  11.740 -13.186  1.00  0.00     0.006 C 
BRANCH   8   9
ATOM      9  C   UNL     1      -3.382  10.855 -13.264  1.00  0.00     0.053 C 
BRANCH   9  10
ATOM     10  C   UNL     1      -2.977  10.645 -14.687  1.00  0.00     0.041 C 
ATOM     11  O   UNL     1      -3.800  10.852 -15.618  1.00  0.00    -0.550 OA
ATOM     12  O   UNL     1      -1.675  10.268 -14.991  1.00  0.00    -0.550 OA
ENDBRANCH   9  10
ENDBRANCH   8   9
ENDBRANCH   7   8
ENDBRANCH   6   7
ENDBRANCH   5   6
ENDBRANCH   4   5
ENDBRANCH   3   4
ENDBRANCH   1   3
BRANCH   2  13
ATOM     13  C   UNL     1      -0.047  11.557 -10.664  1.00  0.00     0.027 C 
BRANCH  13  14
ATOM     14  C   UNL     1      -1.064  10.468 -10.285  1.00  0.00     0.004 C 
BRANCH  14  15
ATOM     15  C   UNL     1      -1.855  10.836  -9.020  1.00  0.00     0.000 C 
BRANCH  15  16
ATOM     16  C   UNL     1      -2.973   9.829  -8.695  1.00  0.00     0.000 C 
BRANCH  16  17
ATOM     17  C   UNL     1      -3.796   9.350  -9.905  1.00  0.00    -0.000 C 
BRANCH  17  18
ATOM     18  C   UNL     1      -5.214   9.945  -9.938  1.00  0.00    -0.000 C 
BRANCH  18  19
ATOM     19  C   UNL     1      -6.189   9.091 -10.763  1.00  0.00    -0.003 C 
ATOM     20  C   UNL     1      -6.234   7.634 -10.304  1.00  0.00     0.004 C 
ENDBRANCH  18  19
ENDBRANCH  17  18
ENDBRANCH  16  17
ENDBRANCH  15  16
ENDBRANCH  14  15
ENDBRANCH  13  14
ENDBRANCH   2  13
TORSDOF 15
ENDMDL
MODEL 3
REMARK VINA RESULT:    -4.091     12.128     14.913
REMARK INTER + INTRA:         -10.728
REMARK INTER:                  -8.263
REMARK INTRA:                  -2.464
REMARK UNBOUND:                -3.050
REMARK SMILES CCCCCCCCC=CCCCCCCCC(=O)[O-]
REMARK SMILES IDX 10 1 9 2 11 3 12 4 13 5 14 6 15 7 16 8 17 9 18 10 19 11
REMARK SMILES IDX 20 12 8 13 7 14 6 15 5 16 4 17 3 18 2 19 1 20
REMARK H PARENT
REMARK Flexibility Score: inf
ROOT
ATOM      1  C   UNL     1      -0.667  11.928 -10.999  1.00  0.00    -0.031 C 
ATOM      2  C   UNL     1      -0.333  10.796 -10.351  1.00  0.00    -0.031 C 
ENDROOT
BRANCH   1   3
ATOM      3  C   UNL     1      -1.029  13.236 -10.334  1.00  0.00     0.027 C 
BRANCH   3   4
ATOM      4  C   UNL     1      -2.548  13.393 -10.190  1.00  0.00     0.004 C 
BRANCH   4   5
ATOM      5  C   UNL     1      -3.015  13.192  -8.739  1.00  0.00     0.000 C 
BRANCH   5   6
ATOM      6  C   UNL     1      -4.315  13.952  -8.428  1.00  0.00     0.000 C 
BRANCH   6   7
ATOM      7  C   UNL     1      -4.600  14.042  -6.921  1.00  0.00     0.000 C 
BRANCH   7   8
ATOM      8  C   UNL     1      -5.951  14.716  -6.659  1.00  0.00     0.006 C 
BRANCH   8   9
ATOM      9  C   UNL     1      -6.979  14.324  -7.726  1.00  0.00     0.053 C 
BRANCH   9  10
ATOM     10  C   UNL     1      -7.507  15.539  -8.416  1.00  0.00     0.041 C 
ATOM     11  O   UNL     1      -7.356  16.678  -7.900  1.00  0.00    -0.550 OA
ATOM     12  O   UNL     1      -8.122  15.422  -9.656  1.00  0.00    -0.550 OA
ENDBRANCH   9  10
ENDBRANCH   8   9
ENDBRANCH   7   8
ENDBRANCH   6   7
ENDBRANCH   5   6
ENDBRANCH   4   5
ENDBRANCH   3   4
ENDBRANCH   1   3
BRANCH   2  13
ATOM     13  C   UNL     1      -0.212  10.665  -8.854  1.00  0.00     0.027 C 
BRANCH  13  14
ATOM     14  C   UNL     1      -1.408   9.920  -8.240  1.00  0.00     0.004 C 
BRANCH  14  15
ATOM     15  C   UNL     1      -1.887   8.765  -9.135  1.00  0.00     0.000 C 
BRANCH  15  16
ATOM     16  C   UNL     1      -3.411   8.559  -9.088  1.00  0.00     0.000 C 
BRANCH  16  17
ATOM     17  C   UNL     1      -4.252   9.823  -9.348  1.00  0.00    -0.000 C 
BRANCH  17  18
ATOM     18  C   UNL     1      -4.372  10.166 -10.842  1.00  0.00    -0.000 C 
BRANCH  18  19
ATOM     19  C   UNL     1      -5.377  11.298 -11.105  1.00  0.00    -0.003 C 
ATOM     20  C   UNL     1      -6.492  11.354 -10.062  1.00  0.00     0.004 C 
ENDBRANCH  18  19
ENDBRANCH  17  18
ENDBRANCH  16  17
ENDBRANCH  15  16
ENDBRANCH  14  15
ENDBRANCH  13  14
ENDBRANCH   2  13
TORSDOF 15
ENDMDL
MODEL 4
REMARK VINA RESULT:    -4.059      1.919      4.833
REMARK INTER + INTRA:         -10.668
REMARK INTER:                  -7.767
REMARK INTRA:                  -2.901
REMARK UNBOUND:                -3.050
REMARK SMILES CCCCCCCCC=CCCCCCCCC(=O)[O-]
REMARK SMILES IDX 10 1 9 2 11 3 12 4 13 5 14 6 15 7 16 8 17 9 18 10 19 11
REMARK SMILES IDX 20 12 8 13 7 14 6 15 5 16 4 17 3 18 2 19 1 20
REMARK H PARENT
REMARK Flexibility Score: inf
ROOT
ATOM      1  C   UNL     1     -16.642  11.595 -15.370  1.00  0.00    -0.031 C 
ATOM      2  C   UNL     1     -15.313  11.793 -15.290  1.00  0.00    -0.031 C 
ENDROOT
BRANCH   1   3
ATOM      3  C   UNL     1     -17.431  11.503 -16.656  1.00  0.00     0.027 C 
BRANCH   3   4
ATOM      4  C   UNL     1     -18.321  12.736 -16.859  1.00  0.00     0.004 C 
BRANCH   4   5
ATOM      5  C   UNL     1     -17.522  13.949 -17.364  1.00  0.00     0.000 C 
BRANCH   5   6
ATOM      6  C   UNL     1     -17.655  15.169 -16.437  1.00  0.00     0.000 C 
BRANCH   6   7
ATOM      7  C   UNL     1     -16.325  15.912 -16.244  1.00  0.00     0.000 C 
BRANCH   7   8
ATOM      8  C   UNL     1     -15.594  15.411 -14.993  1.00  0.00     0.006 C 
BRANCH   8   9
ATOM      9  C   UNL     1     -16.023  16.201 -13.752  1.00  0.00     0.053 C 
BRANCH   9  10
ATOM     10  C   UNL     1     -16.551  15.279 -12.701  1.00  0.00     0.041 C 
ATOM     11  O   UNL     1     -17.016  14.153 -13.020  1.00  0.00    -0.550 OA
ATOM     12  O   UNL     1     -16.485  15.642 -11.362  1.00  0.00    -0.550 OA
ENDBRANCH   9  10
ENDBRANCH   8   9
ENDBRANCH   7   8
ENDBRANCH   6   7
ENDBRANCH   5   6
ENDBRANCH   4   5
ENDBRANCH   3   4
ENDBRANCH   1   3
BRANCH   2  13
ATOM     13  C   UNL     1     -14.385  11.900 -16.474  1.00  0.00     0.027 C 
BRANCH  13  14
ATOM     14  C   UNL     1     -13.168  12.790 -16.176  1.00  0.00     0.004 C 
BRANCH  14  15
ATOM     15  C   UNL     1     -13.008  13.910 -17.217  1.00  0.00     0.000 C 
BRANCH  15  16
ATOM     16  C   UNL     1     -14.050  13.836 -18.347  1.00  0.00     0.000 C 
BRANCH  16  17
ATOM     17  C   UNL     1     -14.144  15.090 -19.236  1.00  0.00    -0.000 C 
BRANCH  17  18
ATOM     18  C   UNL     1     -13.476  16.323 -18.605  1.00  0.00    -0.000 C 
BRANCH  18  19
ATOM     19  C   UNL     1     -14.013  17.642 -19.183  1.00  0.00    -0.003 C 
ATOM     20  C   UNL     1     -15.521  17.608 -19.430  1.00  0.00     0.004 C 
ENDBRANCH  18  19
ENDBRANCH  17  18
ENDBRANCH  16  17
ENDBRANCH  15  16
ENDBRANCH  14  15
ENDBRANCH  13  14
ENDBRANCH   2  13
TORSDOF 15
ENDMDL
MODEL 5
REMARK VINA RESULT:    -4.059     12.350     14.754
REMARK INTER + INTRA:         -10.667
REMARK INTER:                  -8.027
REMARK INTRA:                  -2.640
REMARK UNBOUND:                -3.050
REMARK SMILES CCCCCCCCC=CCCCCCCCC(=O)[O-]
REMARK SMILES IDX 10 1 9 2 11 3 12 4 13 5 14 6 15 7 16 8 17 9 18 10 19 11
REMARK SMILES IDX 20 12 8 13 7 14 6 15 5 16 4 17 3 18 2 19 1 20
REMARK H PARENT
REMARK Flexibility Score: inf
ROOT
ATOM      1  C   UNL     1      -2.245  10.152  -8.370  1.00  0.00    -0.031 C 
ATOM      2  C   UNL     1      -1.144  10.854  -8.696  1.00  0.00    -0.031 C 
ENDROOT
BRANCH   1   3
ATOM      3  C   UNL     1      -2.912   9.122  -9.252  1.00  0.00     0.027 C 
BRANCH   3   4
ATOM      4  C   UNL     1      -4.210   9.662  -9.866  1.00  0.00     0.004 C 
BRANCH   4   5
ATOM      5  C   UNL     1      -3.947  10.506 -11.125  1.00  0.00     0.000 C 
BRANCH   5   6
ATOM      6  C   UNL     1      -4.591  11.900 -11.045  1.00  0.00     0.000 C 
BRANCH   6   7
ATOM      7  C   UNL     1      -4.845  12.350  -9.599  1.00  0.00     0.000 C 
BRANCH   7   8
ATOM      8  C   UNL     1      -4.131  13.673  -9.302  1.00  0.00     0.006 C 
BRANCH   8   9
ATOM      9  C   UNL     1      -3.824  13.809  -7.807  1.00  0.00     0.053 C 
BRANCH   9  10
ATOM     10  C   UNL     1      -5.042  14.248  -7.061  1.00  0.00     0.041 C 
ATOM     11  O   UNL     1      -5.909  14.965  -7.627  1.00  0.00    -0.550 OA
ATOM     12  O   UNL     1      -5.245  13.826  -5.753  1.00  0.00    -0.550 OA
ENDBRANCH   9  10
ENDBRANCH   8   9
ENDBRANCH   7   8
ENDBRANCH   6   7
ENDBRANCH   5   6
ENDBRANCH   4   5
ENDBRANCH   3   4
ENDBRANCH   1   3
BRANCH   2  13
ATOM     13  C   UNL     1      -0.362  10.685  -9.975  1.00  0.00     0.027 C 
BRANCH  13  14
ATOM     14  C   UNL     1      -0.090  12.031 -10.667  1.00  0.00     0.004 C 
BRANCH  14  15
ATOM     15  C   UNL     1      -0.493  12.006 -12.151  1.00  0.00     0.000 C 
BRANCH  15  16
ATOM     16  C   UNL     1      -1.530  13.086 -12.510  1.00  0.00     0.000 C 
BRANCH  16  17
ATOM     17  C   UNL     1      -1.349  14.434 -11.788  1.00  0.00    -0.000 C 
BRANCH  17  18
ATOM     18  C   UNL     1      -2.052  15.598 -12.507  1.00  0.00    -0.000 C 
BRANCH  18  19
ATOM     19  C   UNL     1      -3.437  15.204 -13.045  1.00  0.00    -0.003 C 
ATOM     20  C   UNL     1      -3.556  15.379 -14.558  1.00  0.00     0.004 C 
ENDBRANCH  18  19
ENDBRANCH  17  18
ENDBRANCH  16  17
ENDBRANCH  15  16
ENDBRANCH  14  15
ENDBRANCH  13  14
ENDBRANCH   2  13
TORSDOF 15
ENDMDL
MODEL 6
REMARK VINA RESULT:    -4.010      4.334      6.285
REMARK INTER + INTRA:         -10.575
REMARK INTER:                  -7.677
REMARK INTRA:                  -2.898
REMARK UNBOUND:                -3.050
REMARK SMILES CCCCCCCCC=CCCCCCCCC(=O)[O-]
REMARK SMILES IDX 10 1 9 2 11 3 12 4 13 5 14 6 15 7 16 8 17 9 18 10 19 11
REMARK SMILES IDX 20 12 8 13 7 14 6 15 5 16 4 17 3 18 2 19 1 20
REMARK H PARENT
REMARK Flexibility Score: inf
ROOT
ATOM      1  C   UNL     1     -19.344  17.267 -14.527  1.00  0.00    -0.031 C 
ATOM      2  C   UNL     1     -19.795  17.934 -15.607  1.00  0.00    -0.031 C 
ENDROOT
BRANCH   1   3
ATOM      3  C   UNL     1     -17.963  16.671 -14.388  1.00  0.00     0.027 C 
BRANCH   3   4
ATOM      4  C   UNL     1     -17.161  17.360 -13.277  1.00  0.00     0.004 C 
BRANCH   4   5
ATOM      5  C   UNL     1     -15.795  17.861 -13.774  1.00  0.00     0.000 C 
BRANCH   5   6
ATOM      6  C   UNL     1     -14.688  16.805 -13.617  1.00  0.00     0.000 C 
BRANCH   6   7
ATOM      7  C   UNL     1     -13.301  17.342 -14.001  1.00  0.00     0.000 C 
BRANCH   7   8
ATOM      8  C   UNL     1     -13.311  18.872 -14.089  1.00  0.00     0.006 C 
BRANCH   8   9
ATOM      9  C   UNL     1     -12.001  19.397 -14.686  1.00  0.00     0.053 C 
BRANCH   9  10
ATOM     10  C   UNL     1     -12.279  20.360 -15.794  1.00  0.00     0.041 C 
ATOM     11  O   UNL     1     -12.721  21.511 -15.538  1.00  0.00    -0.550 OA
ATOM     12  O   UNL     1     -12.003  20.005 -17.109  1.00  0.00    -0.550 OA
ENDBRANCH   9  10
ENDBRANCH   8   9
ENDBRANCH   7   8
ENDBRANCH   6   7
ENDBRANCH   5   6
ENDBRANCH   4   5
ENDBRANCH   3   4
ENDBRANCH   1   3
BRANCH   2  13
ATOM     13  C   UNL     1     -18.973  18.243 -16.833  1.00  0.00     0.027 C 
BRANCH  13  14
ATOM     14  C   UNL     1     -19.286  17.287 -17.995  1.00  0.00     0.004 C 
BRANCH  14  15
ATOM     15  C   UNL     1     -18.275  16.132 -18.076  1.00  0.00     0.000 C 
BRANCH  15  16
ATOM     16  C   UNL     1     -16.856  16.599 -18.446  1.00  0.00     0.000 C 
BRANCH  16  17
ATOM     17  C   UNL     1     -15.798  16.420 -17.342  1.00  0.00    -0.000 C 
BRANCH  17  18
ATOM     18  C   UNL     1     -14.728  17.525 -17.352  1.00  0.00    -0.000 C 
BRANCH  18  19
ATOM     19  C   UNL     1     -15.250  18.842 -17.946  1.00  0.00    -0.003 C 
ATOM     20  C   UNL     1     -15.714  19.830 -16.877  1.00  0.00     0.004 C 
ENDBRANCH  18  19
ENDBRANCH  17  18
ENDBRANCH  16  17
ENDBRANCH  15  16
ENDBRANCH  14  15
ENDBRANCH  13  14
ENDBRANCH   2  13
TORSDOF 15
ENDMDL
MODEL 7
REMARK VINA RESULT:    -4.007      4.382      6.633
REMARK INTER + INTRA:         -10.570
REMARK INTER:                  -8.021
REMARK INTRA:                  -2.549
REMARK UNBOUND:                -3.050
REMARK SMILES CCCCCCCCC=CCCCCCCCC(=O)[O-]
REMARK SMILES IDX 10 1 9 2 11 3 12 4 13 5 14 6 15 7 16 8 17 9 18 10 19 11
REMARK SMILES IDX 20 12 8 13 7 14 6 15 5 16 4 17 3 18 2 19 1 20
REMARK H PARENT
REMARK Flexibility Score: inf
ROOT
ATOM      1  C   UNL     1     -19.263  19.087 -19.986  1.00  0.00    -0.031 C 
ATOM      2  C   UNL     1     -19.981  18.734 -18.902  1.00  0.00    -0.031 C 
ENDROOT
BRANCH   1   3
ATOM      3  C   UNL     1     -17.757  19.202 -20.030  1.00  0.00     0.027 C 
BRANCH   3   4
ATOM      4  C   UNL     1     -17.116  17.972 -20.685  1.00  0.00     0.004 C 
BRANCH   4   5
ATOM      5  C   UNL     1     -16.326  17.124 -19.674  1.00  0.00     0.000 C 
BRANCH   5   6
ATOM      6  C   UNL     1     -15.430  17.978 -18.762  1.00  0.00     0.000 C 
BRANCH   6   7
ATOM      7  C   UNL     1     -15.724  17.756 -17.271  1.00  0.00     0.000 C 
BRANCH   7   8
ATOM      8  C   UNL     1     -15.699  19.082 -16.503  1.00  0.00     0.006 C 
BRANCH   8   9
ATOM      9  C   UNL     1     -14.474  19.918 -16.890  1.00  0.00     0.053 C 
BRANCH   9  10
ATOM     10  C   UNL     1     -14.891  21.281 -17.340  1.00  0.00     0.041 C 
ATOM     11  O   UNL     1     -14.024  22.165 -17.570  1.00  0.00    -0.550 OA
ATOM     12  O   UNL     1     -16.234  21.562 -17.553  1.00  0.00    -0.550 OA
ENDBRANCH   9  10
ENDBRANCH   8   9
ENDBRANCH   7   8
ENDBRANCH   6   7
ENDBRANCH   5   6
ENDBRANCH   4   5
ENDBRANCH   3   4
ENDBRANCH   1   3
BRANCH   2  13
ATOM     13  C   UNL     1     -19.393  18.342 -17.570  1.00  0.00     0.027 C 
BRANCH  13  14
ATOM     14  C   UNL     1     -19.326  16.816 -17.395  1.00  0.00     0.004 C 
BRANCH  14  15
ATOM     15  C   UNL     1     -18.912  16.420 -15.968  1.00  0.00     0.000 C 
BRANCH  15  16
ATOM     16  C   UNL     1     -19.016  17.583 -14.966  1.00  0.00     0.000 C 
BRANCH  16  17
ATOM     17  C   UNL     1     -18.442  17.296 -13.566  1.00  0.00    -0.000 C 
BRANCH  17  18
ATOM     18  C   UNL     1     -16.933  17.579 -13.467  1.00  0.00    -0.000 C 
BRANCH  18  19
ATOM     19  C   UNL     1     -16.146  16.380 -12.916  1.00  0.00    -0.003 C 
ATOM     20  C   UNL     1     -16.777  15.038 -13.286  1.00  0.00     0.004 C 
ENDBRANCH  18  19
ENDBRANCH  17  18
ENDBRANCH  16  17
ENDBRANCH  15  16
ENDBRANCH  14  15
ENDBRANCH  13  14
ENDBRANCH   2  13
TORSDOF 15
ENDMDL
MODEL 8
REMARK VINA RESULT:    -3.985      3.069      5.827
REMARK INTER + INTRA:         -10.529
REMARK INTER:                  -7.895
REMARK INTRA:                  -2.634
REMARK UNBOUND:                -3.050
REMARK SMILES CCCCCCCCC=CCCCCCCCC(=O)[O-]
REMARK SMILES IDX 10 1 9 2 11 3 12 4 13 5 14 6 15 7 16 8 17 9 18 10 19 11
REMARK SMILES IDX 20 12 8 13 7 14 6 15 5 16 4 17 3 18 2 19 1 20
REMARK H PARENT
REMARK Flexibility Score: inf
ROOT
ATOM      1  C   UNL     1     -12.664  20.649 -17.588  1.00  0.00    -0.031 C 
ATOM      2  C   UNL     1     -12.323  19.687 -18.466  1.00  0.00    -0.031 C 
ENDROOT
BRANCH   1   3
ATOM      3  C   UNL     1     -13.856  20.596 -16.661  1.00  0.00     0.027 C 
BRANCH   3   4
ATOM      4  C   UNL     1     -15.083  21.276 -17.282  1.00  0.00     0.004 C 
BRANCH   4   5
ATOM      5  C   UNL     1     -16.253  20.296 -17.471  1.00  0.00     0.000 C 
BRANCH   5   6
ATOM      6  C   UNL     1     -16.054  18.983 -16.695  1.00  0.00     0.000 C 
BRANCH   6   7
ATOM      7  C   UNL     1     -16.524  17.753 -17.486  1.00  0.00     0.000 C 
BRANCH   7   8
ATOM      8  C   UNL     1     -16.667  18.081 -18.976  1.00  0.00     0.006 C 
BRANCH   8   9
ATOM      9  C   UNL     1     -18.006  17.577 -19.524  1.00  0.00     0.053 C 
BRANCH   9  10
ATOM     10  C   UNL     1     -17.923  17.374 -21.003  1.00  0.00     0.041 C 
ATOM     11  O   UNL     1     -18.973  17.340 -21.698  1.00  0.00    -0.550 OA
ATOM     12  O   UNL     1     -16.684  17.272 -21.622  1.00  0.00    -0.550 OA
ENDBRANCH   9  10
ENDBRANCH   8   9
ENDBRANCH   7   8
ENDBRANCH   6   7
ENDBRANCH   5   6
ENDBRANCH   4   5
ENDBRANCH   3   4
ENDBRANCH   1   3
BRANCH   2  13
ATOM     13  C   UNL     1     -13.045  18.373 -18.628  1.00  0.00     0.027 C 
BRANCH  13  14
ATOM     14  C   UNL     1     -12.741  17.710 -19.980  1.00  0.00     0.004 C 
BRANCH  14  15
ATOM     15  C   UNL     1     -12.739  16.175 -19.880  1.00  0.00     0.000 C 
BRANCH  15  16
ATOM     16  C   UNL     1     -14.135  15.557 -20.075  1.00  0.00     0.000 C 
BRANCH  16  17
ATOM     17  C   UNL     1     -14.680  14.774 -18.867  1.00  0.00    -0.000 C 
BRANCH  17  18
ATOM     18  C   UNL     1     -13.570  14.279 -17.923  1.00  0.00    -0.000 C 
BRANCH  18  19
ATOM     19  C   UNL     1     -13.889  14.556 -16.446  1.00  0.00    -0.003 C 
ATOM     20  C   UNL     1     -13.341  15.898 -15.963  1.00  0.00     0.004 C 
ENDBRANCH  18  19
ENDBRANCH  17  18
ENDBRANCH  16  17
ENDBRANCH  15  16
ENDBRANCH  14  15
ENDBRANCH  13  14
ENDBRANCH   2  13
TORSDOF 15
ENDMDL
MODEL 9
REMARK VINA RESULT:    -3.963     12.436     15.035
REMARK INTER + INTRA:         -10.488
REMARK INTER:                  -7.983
REMARK INTRA:                  -2.505
REMARK UNBOUND:                -3.050
REMARK SMILES CCCCCCCCC=CCCCCCCCC(=O)[O-]
REMARK SMILES IDX 10 1 9 2 11 3 12 4 13 5 14 6 15 7 16 8 17 9 18 10 19 11
REMARK SMILES IDX 20 12 8 13 7 14 6 15 5 16 4 17 3 18 2 19 1 20
REMARK H PARENT
REMARK Flexibility Score: inf
ROOT
ATOM      1  C   UNL     1      -1.394   8.735  -9.122  1.00  0.00    -0.031 C 
ATOM      2  C   UNL     1      -2.738   8.681  -9.186  1.00  0.00    -0.031 C 
ENDROOT
BRANCH   1   3
ATOM      3  C   UNL     1      -0.588   9.969  -8.789  1.00  0.00     0.027 C 
BRANCH   3   4
ATOM      4  C   UNL     1      -0.168  10.726 -10.055  1.00  0.00     0.004 C 
BRANCH   4   5
ATOM      5  C   UNL     1      -0.164  12.249  -9.844  1.00  0.00     0.000 C 
BRANCH   5   6
ATOM      6  C   UNL     1      -1.470  12.912 -10.313  1.00  0.00     0.000 C 
BRANCH   6   7
ATOM      7  C   UNL     1      -1.850  12.517 -11.747  1.00  0.00     0.000 C 
BRANCH   7   8
ATOM      8  C   UNL     1      -2.223  13.752 -12.575  1.00  0.00     0.006 C 
BRANCH   8   9
ATOM      9  C   UNL     1      -1.434  14.982 -12.114  1.00  0.00     0.053 C 
BRANCH   9  10
ATOM     10  C   UNL     1      -2.037  16.230 -12.673  1.00  0.00     0.041 C 
ATOM     11  O   UNL     1      -1.479  17.343 -12.485  1.00  0.00    -0.550 OA
ATOM     12  O   UNL     1      -3.191  16.161 -13.444  1.00  0.00    -0.550 OA
ENDBRANCH   9  10
ENDBRANCH   8   9
ENDBRANCH   7   8
ENDBRANCH   6   7
ENDBRANCH   5   6
ENDBRANCH   4   5
ENDBRANCH   3   4
ENDBRANCH   1   3
BRANCH   2  13
ATOM     13  C   UNL     1      -3.661   9.834  -8.879  1.00  0.00     0.027 C 
BRANCH  13  14
ATOM     14  C   UNL     1      -4.316  10.403 -10.147  1.00  0.00     0.004 C 
BRANCH  14  15
ATOM     15  C   UNL     1      -5.846  10.489 -10.016  1.00  0.00     0.000 C 
BRANCH  15  16
ATOM     16  C   UNL     1      -6.387  11.917 -10.205  1.00  0.00     0.000 C 
BRANCH  16  17
ATOM     17  C   UNL     1      -5.407  12.908 -10.860  1.00  0.00    -0.000 C 
BRANCH  17  18
ATOM     18  C   UNL     1      -5.025  14.074  -9.933  1.00  0.00    -0.000 C 
BRANCH  18  19
ATOM     19  C   UNL     1      -5.349  13.783  -8.460  1.00  0.00    -0.003 C 
ATOM     20  C   UNL     1      -4.107  13.785  -7.569  1.00  0.00     0.004 C 
ENDBRANCH  18  19
ENDBRANCH  17  18
ENDBRANCH  16  17
ENDBRANCH  15  16
ENDBRANCH  14  15
ENDBRANCH  13  14
ENDBRANCH   2  13
TORSDOF 15
ENDMDL
