MODEL 1
REMARK VINA RESULT:    -4.251      0.000      0.000
REMARK INTER + INTRA:          -7.851
REMARK INTER:                  -7.233
REMARK INTRA:                  -0.618
REMARK UNBOUND:                -0.618
REMARK SMILES CCCCCCCCCCCCCC(=O)[O-]
REMARK SMILES IDX 8 1 9 2 10 3 11 4 12 5 13 6 14 7 15 8 16 9 7 10 6 11 5 12
REMARK SMILES IDX 4 13 3 14 2 15 1 16
REMARK H PARENT
REMARK Flexibility Score: inf
ROOT
ATOM      1  C   UNL     1      31.077  33.620  22.911  1.00  0.00     0.000 C 
ENDROOT
BRANCH   1   2
ATOM      2  C   UNL     1      32.435  33.202  22.310  1.00  0.00     0.000 C 
BRANCH   2   3
ATOM      3  C   UNL     1      32.632  33.554  20.825  1.00  0.00     0.000 C 
BRANCH   3   4
ATOM      4  C   UNL     1      33.644  32.632  20.122  1.00  0.00     0.000 C 
BRANCH   4   5
ATOM      5  C   UNL     1      33.123  32.101  18.777  1.00  0.00     0.006 C 
BRANCH   5   6
ATOM      6  C   UNL     1      34.228  31.465  17.924  1.00  0.00     0.053 C 
BRANCH   6   7
ATOM      7  C   UNL     1      34.479  32.287  16.699  1.00  0.00     0.041 C 
ATOM      8  O   UNL     1      35.647  32.407  16.244  1.00  0.00    -0.550 OA
ATOM      9  O   UNL     1      33.416  32.881  16.031  1.00  0.00    -0.550 OA
ENDBRANCH   6   7
ENDBRANCH   5   6
ENDBRANCH   4   5
ENDBRANCH   3   4
ENDBRANCH   2   3
ENDBRANCH   1   2
BRANCH   1  10
ATOM     10  C   UNL     1      30.036  32.490  23.021  1.00  0.00     0.000 C 
BRANCH  10  11
ATOM     11  C   UNL     1      28.598  32.979  22.793  1.00  0.00    -0.000 C 
BRANCH  11  12
ATOM     12  C   UNL     1      28.539  33.991  21.642  1.00  0.00    -0.000 C 
BRANCH  12  13
ATOM     13  C   UNL     1      27.800  33.402  20.430  1.00  0.00    -0.000 C 
BRANCH  13  14
ATOM     14  C   UNL     1      26.698  34.332  19.898  1.00  0.00    -0.000 C 
BRANCH  14  15
ATOM     15  C   UNL     1      25.571  33.567  19.188  1.00  0.00    -0.003 C 
ATOM     16  C   UNL     1      24.876  32.602  20.145  1.00  0.00     0.004 C 
ENDBRANCH  14  15
ENDBRANCH  13  14
ENDBRANCH  12  13
ENDBRANCH  11  12
ENDBRANCH  10  11
ENDBRANCH   1  10
TORSDOF 12
ENDMDL
MODEL 2
REMARK VINA RESULT:    -4.207      1.553      3.894
REMARK INTER + INTRA:          -7.776
REMARK INTER:                  -6.435
REMARK INTRA:                  -1.342
REMARK UNBOUND:                -0.618
REMARK SMILES CCCCCCCCCCCCCC(=O)[O-]
REMARK SMILES IDX 8 1 9 2 10 3 11 4 12 5 13 6 14 7 15 8 16 9 7 10 6 11 5 12
REMARK SMILES IDX 4 13 3 14 2 15 1 16
REMARK H PARENT
REMARK Flexibility Score: inf
ROOT
ATOM      1  C   UNL     1      29.661  34.600  20.016  1.00  0.00     0.000 C 
ENDROOT
BRANCH   1   2
ATOM      2  C   UNL     1      30.295  33.290  19.505  1.00  0.00     0.000 C 
BRANCH   2   3
ATOM      3  C   UNL     1      31.548  33.466  18.628  1.00  0.00     0.000 C 
BRANCH   3   4
ATOM      4  C   UNL     1      32.726  32.589  19.087  1.00  0.00     0.000 C 
BRANCH   4   5
ATOM      5  C   UNL     1      33.947  32.710  18.162  1.00  0.00     0.006 C 
BRANCH   5   6
ATOM      6  C   UNL     1      34.225  31.420  17.376  1.00  0.00     0.053 C 
BRANCH   6   7
ATOM      7  C   UNL     1      34.264  31.704  15.908  1.00  0.00     0.041 C 
ATOM      8  O   UNL     1      33.443  32.508  15.395  1.00  0.00    -0.550 OA
ATOM      9  O   UNL     1      35.240  31.116  15.113  1.00  0.00    -0.550 OA
ENDBRANCH   6   7
ENDBRANCH   5   6
ENDBRANCH   4   5
ENDBRANCH   3   4
ENDBRANCH   2   3
ENDBRANCH   1   2
BRANCH   1  10
ATOM     10  C   UNL     1      28.269  34.445  20.654  1.00  0.00     0.000 C 
BRANCH  10  11
ATOM     11  C   UNL     1      28.086  33.098  21.369  1.00  0.00    -0.000 C 
BRANCH  11  12
ATOM     12  C   UNL     1      28.472  33.205  22.849  1.00  0.00    -0.000 C 
BRANCH  12  13
ATOM     13  C   UNL     1      29.837  32.550  23.110  1.00  0.00    -0.000 C 
BRANCH  13  14
ATOM     14  C   UNL     1      30.973  33.577  23.235  1.00  0.00    -0.000 C 
BRANCH  14  15
ATOM     15  C   UNL     1      32.312  33.045  22.702  1.00  0.00    -0.003 C 
ATOM     16  C   UNL     1      33.280  34.187  22.411  1.00  0.00     0.004 C 
ENDBRANCH  14  15
ENDBRANCH  13  14
ENDBRANCH  12  13
ENDBRANCH  11  12
ENDBRANCH  10  11
ENDBRANCH   1  10
TORSDOF 12
ENDMDL
MODEL 3
REMARK VINA RESULT:    -4.207      2.946      4.508
REMARK INTER + INTRA:          -7.776
REMARK INTER:                  -5.547
REMARK INTRA:                  -2.228
REMARK UNBOUND:                -0.618
REMARK SMILES CCCCCCCCCCCCCC(=O)[O-]
REMARK SMILES IDX 8 1 9 2 10 3 11 4 12 5 13 6 14 7 15 8 16 9 7 10 6 11 5 12
REMARK SMILES IDX 4 13 3 14 2 15 1 16
REMARK H PARENT
REMARK Flexibility Score: inf
ROOT
ATOM      1  C   UNL     1      30.647  34.949  19.844  1.00  0.00     0.000 C 
ENDROOT
BRANCH   1   2
ATOM      2  C   UNL     1      30.147  36.117  20.719  1.00  0.00     0.000 C 
BRANCH   2   3
ATOM      3  C   UNL     1      31.065  36.498  21.894  1.00  0.00     0.000 C 
BRANCH   3   4
ATOM      4  C   UNL     1      32.269  35.551  22.042  1.00  0.00     0.000 C 
BRANCH   4   5
ATOM      5  C   UNL     1      32.083  34.535  23.180  1.00  0.00     0.006 C 
BRANCH   5   6
ATOM      6  C   UNL     1      32.275  33.084  22.716  1.00  0.00     0.053 C 
BRANCH   6   7
ATOM      7  C   UNL     1      33.550  32.950  21.945  1.00  0.00     0.041 C 
ATOM      8  O   UNL     1      33.528  32.564  20.747  1.00  0.00    -0.550 OA
ATOM      9  O   UNL     1      34.759  33.297  22.534  1.00  0.00    -0.550 OA
ENDBRANCH   6   7
ENDBRANCH   5   6
ENDBRANCH   4   5
ENDBRANCH   3   4
ENDBRANCH   2   3
ENDBRANCH   1   2
BRANCH   1  10
ATOM     10  C   UNL     1      29.821  33.655  19.949  1.00  0.00     0.000 C 
BRANCH  10  11
ATOM     11  C   UNL     1      28.306  33.911  19.933  1.00  0.00    -0.000 C 
BRANCH  11  12
ATOM     12  C   UNL     1      27.635  33.306  21.172  1.00  0.00    -0.000 C 
BRANCH  12  13
ATOM     13  C   UNL     1      28.685  32.777  22.162  1.00  0.00    -0.000 C 
BRANCH  13  14
ATOM     14  C   UNL     1      28.516  33.362  23.573  1.00  0.00    -0.000 C 
BRANCH  14  15
ATOM     15  C   UNL     1      28.262  34.877  23.558  1.00  0.00    -0.003 C 
ATOM     16  C   UNL     1      28.840  35.543  24.803  1.00  0.00     0.004 C 
ENDBRANCH  14  15
ENDBRANCH  13  14
ENDBRANCH  12  13
ENDBRANCH  11  12
ENDBRANCH  10  11
ENDBRANCH   1  10
TORSDOF 12
ENDMDL
MODEL 4
REMARK VINA RESULT:    -4.190      3.473      6.384
REMARK INTER + INTRA:          -7.748
REMARK INTER:                  -6.393
REMARK INTRA:                  -1.355
REMARK UNBOUND:                -0.618
REMARK SMILES CCCCCCCCCCCCCC(=O)[O-]
REMARK SMILES IDX 8 1 9 2 10 3 11 4 12 5 13 6 14 7 15 8 16 9 7 10 6 11 5 12
REMARK SMILES IDX 4 13 3 14 2 15 1 16
REMARK H PARENT
REMARK Flexibility Score: inf
ROOT
ATOM      1  C   UNL     1      32.486  34.335  22.716  1.00  0.00     0.000 C 
ENDROOT
BRANCH   1   2
ATOM      2  C   UNL     1      31.014  34.177  23.150  1.00  0.00     0.000 C 
BRANCH   2   3
ATOM      3  C   UNL     1      30.449  32.749  23.047  1.00  0.00     0.000 C 
BRANCH   3   4
ATOM      4  C   UNL     1      28.918  32.723  22.894  1.00  0.00     0.000 C 
BRANCH   4   5
ATOM      5  C   UNL     1      28.403  33.809  21.937  1.00  0.00     0.006 C 
BRANCH   5   6
ATOM      6  C   UNL     1      27.620  33.230  20.751  1.00  0.00     0.053 C 
BRANCH   6   7
ATOM      7  C   UNL     1      26.560  34.189  20.308  1.00  0.00     0.041 C 
ATOM      8  O   UNL     1      26.819  35.417  20.206  1.00  0.00    -0.550 OA
ATOM      9  O   UNL     1      25.299  33.720  19.962  1.00  0.00    -0.550 OA
ENDBRANCH   6   7
ENDBRANCH   5   6
ENDBRANCH   4   5
ENDBRANCH   3   4
ENDBRANCH   2   3
ENDBRANCH   1   2
BRANCH   1  10
ATOM     10  C   UNL     1      33.174  33.037  22.257  1.00  0.00     0.000 C 
BRANCH  10  11
ATOM     11  C   UNL     1      34.528  33.288  21.577  1.00  0.00    -0.000 C 
BRANCH  11  12
ATOM     12  C   UNL     1      34.697  32.391  20.344  1.00  0.00    -0.000 C 
BRANCH  12  13
ATOM     13  C   UNL     1      33.398  32.332  19.525  1.00  0.00    -0.000 C 
BRANCH  13  14
ATOM     14  C   UNL     1      33.366  33.365  18.389  1.00  0.00    -0.000 C 
BRANCH  14  15
ATOM     15  C   UNL     1      31.958  33.925  18.139  1.00  0.00    -0.003 C 
ATOM     16  C   UNL     1      30.985  33.468  19.223  1.00  0.00     0.004 C 
ENDBRANCH  14  15
ENDBRANCH  13  14
ENDBRANCH  12  13
ENDBRANCH  11  12
ENDBRANCH  10  11
ENDBRANCH   1  10
TORSDOF 12
ENDMDL
MODEL 5
REMARK VINA RESULT:    -4.188      3.031      3.874
REMARK INTER + INTRA:          -7.744
REMARK INTER:                  -5.804
REMARK INTRA:                  -1.941
REMARK UNBOUND:                -0.618
REMARK SMILES CCCCCCCCCCCCCC(=O)[O-]
REMARK SMILES IDX 8 1 9 2 10 3 11 4 12 5 13 6 14 7 15 8 16 9 7 10 6 11 5 12
REMARK SMILES IDX 4 13 3 14 2 15 1 16
REMARK H PARENT
REMARK Flexibility Score: inf
ROOT
ATOM      1  C   UNL     1      29.700  35.820  23.729  1.00  0.00     0.000 C 
ENDROOT
BRANCH   1   2
ATOM      2  C   UNL     1      31.092  35.356  24.207  1.00  0.00     0.000 C 
BRANCH   2   3
ATOM      3  C   UNL     1      32.047  34.889  23.094  1.00  0.00     0.000 C 
BRANCH   3   4
ATOM      4  C   UNL     1      32.033  33.363  22.898  1.00  0.00     0.000 C 
BRANCH   4   5
ATOM      5  C   UNL     1      33.124  32.884  21.927  1.00  0.00     0.006 C 
BRANCH   5   6
ATOM      6  C   UNL     1      34.527  33.354  22.334  1.00  0.00     0.053 C 
BRANCH   6   7
ATOM      7  C   UNL     1      35.261  33.891  21.146  1.00  0.00     0.041 C 
ATOM      8  O   UNL     1      34.865  34.944  20.580  1.00  0.00    -0.550 OA
ATOM      9  O   UNL     1      36.411  33.257  20.695  1.00  0.00    -0.550 OA
ENDBRANCH   6   7
ENDBRANCH   5   6
ENDBRANCH   4   5
ENDBRANCH   3   4
ENDBRANCH   2   3
ENDBRANCH   1   2
BRANCH   1  10
ATOM     10  C   UNL     1      28.526  34.933  24.180  1.00  0.00     0.000 C 
BRANCH  10  11
ATOM     11  C   UNL     1      28.428  33.622  23.385  1.00  0.00    -0.000 C 
BRANCH  11  12
ATOM     12  C   UNL     1      28.104  33.897  21.912  1.00  0.00    -0.000 C 
BRANCH  12  13
ATOM     13  C   UNL     1      28.636  32.771  21.012  1.00  0.00    -0.000 C 
BRANCH  13  14
ATOM     14  C   UNL     1      29.686  33.263  20.004  1.00  0.00    -0.000 C 
BRANCH  14  15
ATOM     15  C   UNL     1      29.934  34.776  20.101  1.00  0.00    -0.003 C 
ATOM     16  C   UNL     1      31.261  35.157  19.452  1.00  0.00     0.004 C 
ENDBRANCH  14  15
ENDBRANCH  13  14
ENDBRANCH  12  13
ENDBRANCH  11  12
ENDBRANCH  10  11
ENDBRANCH   1  10
TORSDOF 12
ENDMDL
MODEL 6
REMARK VINA RESULT:    -4.184      2.118      2.441
REMARK INTER + INTRA:          -7.737
REMARK INTER:                  -6.710
REMARK INTRA:                  -1.026
REMARK UNBOUND:                -0.618
REMARK SMILES CCCCCCCCCCCCCC(=O)[O-]
REMARK SMILES IDX 8 1 9 2 10 3 11 4 12 5 13 6 14 7 15 8 16 9 7 10 6 11 5 12
REMARK SMILES IDX 4 13 3 14 2 15 1 16
REMARK H PARENT
REMARK Flexibility Score: inf
ROOT
ATOM      1  C   UNL     1      30.354  33.523  23.373  1.00  0.00     0.000 C 
ENDROOT
BRANCH   1   2
ATOM      2  C   UNL     1      31.314  34.731  23.367  1.00  0.00     0.000 C 
BRANCH   2   3
ATOM      3  C   UNL     1      32.644  34.509  22.623  1.00  0.00     0.000 C 
BRANCH   3   4
ATOM      4  C   UNL     1      32.761  33.100  22.017  1.00  0.00     0.000 C 
BRANCH   4   5
ATOM      5  C   UNL     1      33.180  33.127  20.538  1.00  0.00     0.006 C 
BRANCH   5   6
ATOM      6  C   UNL     1      34.262  32.089  20.211  1.00  0.00     0.053 C 
BRANCH   6   7
ATOM      7  C   UNL     1      35.621  32.708  20.303  1.00  0.00     0.041 C 
ATOM      8  O   UNL     1      35.743  33.957  20.405  1.00  0.00    -0.550 OA
ATOM      9  O   UNL     1      36.752  31.902  20.325  1.00  0.00    -0.550 OA
ENDBRANCH   6   7
ENDBRANCH   5   6
ENDBRANCH   4   5
ENDBRANCH   3   4
ENDBRANCH   2   3
ENDBRANCH   1   2
BRANCH   1  10
ATOM     10  C   UNL     1      28.857  33.879  23.379  1.00  0.00     0.000 C 
BRANCH  10  11
ATOM     11  C   UNL     1      28.053  33.096  22.331  1.00  0.00    -0.000 C 
BRANCH  11  12
ATOM     12  C   UNL     1      28.702  33.206  20.947  1.00  0.00    -0.000 C 
BRANCH  12  13
ATOM     13  C   UNL     1      28.142  34.408  20.171  1.00  0.00    -0.000 C 
BRANCH  13  14
ATOM     14  C   UNL     1      26.617  34.545  20.310  1.00  0.00    -0.000 C 
BRANCH  14  15
ATOM     15  C   UNL     1      25.852  33.624  19.347  1.00  0.00    -0.003 C 
ATOM     16  C   UNL     1      24.879  32.725  20.105  1.00  0.00     0.004 C 
ENDBRANCH  14  15
ENDBRANCH  13  14
ENDBRANCH  12  13
ENDBRANCH  11  12
ENDBRANCH  10  11
ENDBRANCH   1  10
TORSDOF 12
ENDMDL
MODEL 7
REMARK VINA RESULT:    -4.164      3.386      6.246
REMARK INTER + INTRA:          -7.704
REMARK INTER:                  -5.786
REMARK INTRA:                  -1.918
REMARK UNBOUND:                -0.618
REMARK SMILES CCCCCCCCCCCCCC(=O)[O-]
REMARK SMILES IDX 8 1 9 2 10 3 11 4 12 5 13 6 14 7 15 8 16 9 7 10 6 11 5 12
REMARK SMILES IDX 4 13 3 14 2 15 1 16
REMARK H PARENT
REMARK Flexibility Score: inf
ROOT
ATOM      1  C   UNL     1      33.724  34.061  22.045  1.00  0.00     0.000 C 
ENDROOT
BRANCH   1   2
ATOM      2  C   UNL     1      32.973  32.756  22.381  1.00  0.00     0.000 C 
BRANCH   2   3
ATOM      3  C   UNL     1      31.554  32.943  22.948  1.00  0.00     0.000 C 
BRANCH   3   4
ATOM      4  C   UNL     1      31.233  34.410  23.283  1.00  0.00     0.000 C 
BRANCH   4   5
ATOM      5  C   UNL     1      29.759  34.618  23.666  1.00  0.00     0.006 C 
BRANCH   5   6
ATOM      6  C   UNL     1      28.859  33.460  23.210  1.00  0.00     0.053 C 
BRANCH   6   7
ATOM      7  C   UNL     1      28.214  33.788  21.901  1.00  0.00     0.041 C 
ATOM      8  O   UNL     1      27.750  34.940  21.693  1.00  0.00    -0.550 OA
ATOM      9  O   UNL     1      28.166  32.834  20.891  1.00  0.00    -0.550 OA
ENDBRANCH   6   7
ENDBRANCH   5   6
ENDBRANCH   4   5
ENDBRANCH   3   4
ENDBRANCH   2   3
ENDBRANCH   1   2
BRANCH   1  10
ATOM     10  C   UNL     1      34.894  33.905  21.057  1.00  0.00     0.000 C 
BRANCH  10  11
ATOM     11  C   UNL     1      34.952  32.510  20.418  1.00  0.00    -0.000 C 
BRANCH  11  12
ATOM     12  C   UNL     1      34.743  32.593  18.901  1.00  0.00    -0.000 C 
BRANCH  12  13
ATOM     13  C   UNL     1      33.318  32.162  18.518  1.00  0.00    -0.000 C 
BRANCH  13  14
ATOM     14  C   UNL     1      32.395  33.357  18.231  1.00  0.00    -0.000 C 
BRANCH  14  15
ATOM     15  C   UNL     1      31.228  33.453  19.226  1.00  0.00    -0.003 C 
ATOM     16  C   UNL     1      30.973  34.901  19.634  1.00  0.00     0.004 C 
ENDBRANCH  14  15
ENDBRANCH  13  14
ENDBRANCH  12  13
ENDBRANCH  11  12
ENDBRANCH  10  11
ENDBRANCH   1  10
TORSDOF 12
ENDMDL
MODEL 8
REMARK VINA RESULT:    -4.107      3.467      6.120
REMARK INTER + INTRA:          -7.607
REMARK INTER:                  -5.680
REMARK INTRA:                  -1.926
REMARK UNBOUND:                -0.618
REMARK SMILES CCCCCCCCCCCCCC(=O)[O-]
REMARK SMILES IDX 8 1 9 2 10 3 11 4 12 5 13 6 14 7 15 8 16 9 7 10 6 11 5 12
REMARK SMILES IDX 4 13 3 14 2 15 1 16
REMARK H PARENT
REMARK Flexibility Score: inf
ROOT
ATOM      1  C   UNL     1      30.949  34.842  23.452  1.00  0.00     0.000 C 
ENDROOT
BRANCH   1   2
ATOM      2  C   UNL     1      31.405  33.443  22.989  1.00  0.00     0.000 C 
BRANCH   2   3
ATOM      3  C   UNL     1      30.313  32.358  23.005  1.00  0.00     0.000 C 
BRANCH   3   4
ATOM      4  C   UNL     1      28.913  32.915  22.696  1.00  0.00     0.000 C 
BRANCH   4   5
ATOM      5  C   UNL     1      28.553  32.811  21.205  1.00  0.00     0.006 C 
BRANCH   5   6
ATOM      6  C   UNL     1      28.152  34.162  20.597  1.00  0.00     0.053 C 
BRANCH   6   7
ATOM      7  C   UNL     1      26.773  34.085  20.023  1.00  0.00     0.041 C 
ATOM      8  O   UNL     1      26.376  34.960  19.209  1.00  0.00    -0.550 OA
ATOM      9  O   UNL     1      25.942  33.021  20.349  1.00  0.00    -0.550 OA
ENDBRANCH   6   7
ENDBRANCH   5   6
ENDBRANCH   4   5
ENDBRANCH   3   4
ENDBRANCH   2   3
ENDBRANCH   1   2
BRANCH   1  10
ATOM     10  C   UNL     1      31.059  35.950  22.388  1.00  0.00     0.000 C 
BRANCH  10  11
ATOM     11  C   UNL     1      31.988  35.570  21.225  1.00  0.00    -0.000 C 
BRANCH  11  12
ATOM     12  C   UNL     1      31.278  35.743  19.877  1.00  0.00    -0.000 C 
BRANCH  12  13
ATOM     13  C   UNL     1      31.859  34.787  18.823  1.00  0.00    -0.000 C 
BRANCH  13  14
ATOM     14  C   UNL     1      31.572  33.311  19.139  1.00  0.00    -0.000 C 
BRANCH  14  15
ATOM     15  C   UNL     1      32.798  32.412  18.924  1.00  0.00    -0.003 C 
ATOM     16  C   UNL     1      33.790  32.551  20.076  1.00  0.00     0.004 C 
ENDBRANCH  14  15
ENDBRANCH  13  14
ENDBRANCH  12  13
ENDBRANCH  11  12
ENDBRANCH  10  11
ENDBRANCH   1  10
TORSDOF 12
ENDMDL
MODEL 9
REMARK VINA RESULT:    -4.098      4.560      7.504
REMARK INTER + INTRA:          -7.590
REMARK INTER:                  -5.946
REMARK INTRA:                  -1.644
REMARK UNBOUND:                -0.618
REMARK SMILES CCCCCCCCCCCCCC(=O)[O-]
REMARK SMILES IDX 8 1 9 2 10 3 11 4 12 5 13 6 14 7 15 8 16 9 7 10 6 11 5 12
REMARK SMILES IDX 4 13 3 14 2 15 1 16
REMARK H PARENT
REMARK Flexibility Score: inf
ROOT
ATOM      1  C   UNL     1      30.349  34.502  19.971  1.00  0.00     0.000 C 
ENDROOT
BRANCH   1   2
ATOM      2  C   UNL     1      29.630  33.137  19.994  1.00  0.00     0.000 C 
BRANCH   2   3
ATOM      3  C   UNL     1      28.507  33.005  21.039  1.00  0.00     0.000 C 
BRANCH   3   4
ATOM      4  C   UNL     1      29.041  32.774  22.463  1.00  0.00     0.000 C 
BRANCH   4   5
ATOM      5  C   UNL     1      28.321  33.639  23.510  1.00  0.00     0.006 C 
BRANCH   5   6
ATOM      6  C   UNL     1      28.862  35.075  23.563  1.00  0.00     0.053 C 
BRANCH   6   7
ATOM      7  C   UNL     1      28.189  35.844  24.656  1.00  0.00     0.041 C 
ATOM      8  O   UNL     1      27.148  36.509  24.414  1.00  0.00    -0.550 OA
ATOM      9  O   UNL     1      28.684  35.788  25.953  1.00  0.00    -0.550 OA
ENDBRANCH   6   7
ENDBRANCH   5   6
ENDBRANCH   4   5
ENDBRANCH   3   4
ENDBRANCH   2   3
ENDBRANCH   1   2
BRANCH   1  10
ATOM     10  C   UNL     1      31.541  34.595  19.001  1.00  0.00     0.000 C 
BRANCH  10  11
ATOM     11  C   UNL     1      32.153  33.225  18.675  1.00  0.00    -0.000 C 
BRANCH  11  12
ATOM     12  C   UNL     1      33.632  33.174  19.080  1.00  0.00    -0.000 C 
BRANCH  12  13
ATOM     13  C   UNL     1      33.838  32.256  20.295  1.00  0.00    -0.000 C 
BRANCH  13  14
ATOM     14  C   UNL     1      34.001  33.038  21.607  1.00  0.00    -0.000 C 
BRANCH  14  15
ATOM     15  C   UNL     1      32.719  33.042  22.455  1.00  0.00    -0.003 C 
ATOM     16  C   UNL     1      32.414  34.442  22.980  1.00  0.00     0.004 C 
ENDBRANCH  14  15
ENDBRANCH  13  14
ENDBRANCH  12  13
ENDBRANCH  11  12
ENDBRANCH  10  11
ENDBRANCH   1  10
TORSDOF 12
ENDMDL
