MODEL 1
REMARK VINA RESULT:    -6.467      0.000      0.000
REMARK INTER + INTRA:          -8.219
REMARK INTER:                  -7.790
REMARK INTRA:                  -0.428
REMARK UNBOUND:                -0.428
REMARK SMILES O=c1c(O)c(-c2ccc(O)cc2O)oc2cc(O)cc(O)c12
REMARK SMILES IDX 5 1 3 2 2 3 1 4 22 5 20 6 19 7 17 8 16 9 15 10 14 11 6 12
REMARK SMILES IDX 8 13 7 14 9 15 11 16 12 17 10 18 13 20 4 22 21 24 18 26
REMARK H PARENT 10 19 13 21 4 23 21 25 18 27
REMARK Flexibility Score: inf
ROOT
ATOM      1  C   UNL     1     150.103 146.249 151.582  1.00  0.00     0.184 A 
ATOM      2  C   UNL     1     149.895 146.580 152.932  1.00  0.00     0.208 A 
ATOM      3  C   UNL     1     150.996 146.951 153.719  1.00  0.00     0.238 A 
ATOM      4  O   UNL     1     150.795 147.300 154.911  1.00  0.00    -0.285 OA
ATOM      5  C   UNL     1     152.294 146.967 153.153  1.00  0.00     0.111 A 
ATOM      6  C   UNL     1     153.487 147.289 153.868  1.00  0.00     0.134 A 
ATOM      7  C   UNL     1     154.698 147.397 153.176  1.00  0.00     0.093 A 
ATOM      8  C   UNL     1     154.772 147.132 151.806  1.00  0.00     0.123 A 
ATOM      9  C   UNL     1     153.625 146.760 151.111  1.00  0.00     0.094 A 
ATOM     10  C   UNL     1     152.394 146.678 151.766  1.00  0.00     0.146 A 
ATOM     11  O   UNL     1     151.322 146.332 151.064  1.00  0.00    -0.451 OA
ENDROOT
BRANCH   1  12
ATOM     12  C   UNL     1     148.990 145.826 150.701  1.00  0.00     0.063 A 
ATOM     13  C   UNL     1     147.267 144.211 150.106  1.00  0.00     0.047 A 
ATOM     14  C   UNL     1     148.299 144.625 150.952  1.00  0.00     0.020 A 
ATOM     15  C   UNL     1     146.919 144.982 148.990  1.00  0.00     0.119 A 
ATOM     16  C   UNL     1     147.608 146.169 148.725  1.00  0.00     0.093 A 
ATOM     17  C   UNL     1     148.643 146.594 149.570  1.00  0.00     0.130 A 
BRANCH  15  18
ATOM     18  O   UNL     1     145.892 144.578 148.140  1.00  0.00    -0.508 OA
ATOM     19  H   UNL     1     145.696 145.070 147.276  1.00  0.00     0.293 HD
ENDBRANCH  15  18
BRANCH  17  20
ATOM     20  O   UNL     1     149.318 147.784 149.297  1.00  0.00    -0.507 OA
ATOM     21  H   UNL     1     148.872 148.546 148.801  1.00  0.00     0.293 HD
ENDBRANCH  17  20
ENDBRANCH   1  12
BRANCH   2  22
ATOM     22  O   UNL     1     148.603 146.569 153.464  1.00  0.00    -0.502 OA
ATOM     23  H   UNL     1     148.363 146.046 154.298  1.00  0.00     0.293 HD
ENDBRANCH   2  22
BRANCH   6  24
ATOM     24  O   UNL     1     153.539 147.482 155.251  1.00  0.00    -0.507 OA
ATOM     25  H   UNL     1     153.577 146.742 155.935  1.00  0.00     0.293 HD
ENDBRANCH   6  24
BRANCH   8  26
ATOM     26  O   UNL     1     155.986 147.228 151.128  1.00  0.00    -0.508 OA
ATOM     27  H   UNL     1     156.076 147.771 150.277  1.00  0.00     0.293 HD
ENDBRANCH   8  26
TORSDOF 6
ENDMDL
MODEL 2
REMARK VINA RESULT:    -6.194      2.055      4.031
REMARK INTER + INTRA:          -7.890
REMARK INTER:                  -7.711
REMARK INTRA:                  -0.179
REMARK UNBOUND:                -0.428
REMARK SMILES O=c1c(O)c(-c2ccc(O)cc2O)oc2cc(O)cc(O)c12
REMARK SMILES IDX 5 1 3 2 2 3 1 4 22 5 20 6 19 7 17 8 16 9 15 10 14 11 6 12
REMARK SMILES IDX 8 13 7 14 9 15 11 16 12 17 10 18 13 20 4 22 21 24 18 26
REMARK H PARENT 10 19 13 21 4 23 21 25 18 27
REMARK Flexibility Score: inf
ROOT
ATOM      1  C   UNL     1     152.020 146.884 152.676  1.00  0.00     0.184 A 
ATOM      2  C   UNL     1     153.402 146.750 152.459  1.00  0.00     0.208 A 
ATOM      3  C   UNL     1     154.293 147.173 153.458  1.00  0.00     0.238 A 
ATOM      4  O   UNL     1     155.526 146.998 153.280  1.00  0.00    -0.285 OA
ATOM      5  C   UNL     1     153.792 147.743 154.653  1.00  0.00     0.111 A 
ATOM      6  C   UNL     1     154.605 148.243 155.715  1.00  0.00     0.134 A 
ATOM      7  C   UNL     1     154.001 148.668 156.904  1.00  0.00     0.093 A 
ATOM      8  C   UNL     1     152.611 148.673 157.045  1.00  0.00     0.123 A 
ATOM      9  C   UNL     1     151.807 148.243 155.993  1.00  0.00     0.094 A 
ATOM     10  C   UNL     1     152.381 147.779 154.807  1.00  0.00     0.146 A 
ATOM     11  O   UNL     1     151.580 147.367 153.832  1.00  0.00    -0.451 OA
ENDROOT
BRANCH   1  12
ATOM     12  C   UNL     1     151.025 146.481 151.656  1.00  0.00     0.063 A 
ATOM     13  C   UNL     1     150.240 146.501 149.352  1.00  0.00     0.047 A 
ATOM     14  C   UNL     1     151.192 146.858 150.311  1.00  0.00     0.020 A 
ATOM     15  C   UNL     1     149.104 145.774 149.724  1.00  0.00     0.119 A 
ATOM     16  C   UNL     1     148.923 145.406 151.060  1.00  0.00     0.093 A 
ATOM     17  C   UNL     1     149.874 145.758 152.029  1.00  0.00     0.130 A 
BRANCH  15  18
ATOM     18  O   UNL     1     148.148 145.414 148.776  1.00  0.00    -0.508 OA
ATOM     19  H   UNL     1     148.392 145.290 147.800  1.00  0.00     0.293 HD
ENDBRANCH  15  18
BRANCH  17  20
ATOM     20  O   UNL     1     149.683 145.378 153.358  1.00  0.00    -0.507 OA
ATOM     21  H   UNL     1     149.836 144.425 153.666  1.00  0.00     0.293 HD
ENDBRANCH  17  20
ENDBRANCH   1  12
BRANCH   2  22
ATOM     22  O   UNL     1     153.871 146.171 151.277  1.00  0.00    -0.502 OA
ATOM     23  H   UNL     1     154.596 146.599 150.713  1.00  0.00     0.293 HD
ENDBRANCH   2  22
BRANCH   6  24
ATOM     24  O   UNL     1     155.995 148.366 155.643  1.00  0.00    -0.507 OA
ATOM     25  H   UNL     1     156.492 148.849 154.910  1.00  0.00     0.293 HD
ENDBRANCH   6  24
BRANCH   8  26
ATOM     26  O   UNL     1     152.017 149.113 158.227  1.00  0.00    -0.508 OA
ATOM     27  H   UNL     1     152.559 149.559 158.958  1.00  0.00     0.293 HD
ENDBRANCH   8  26
TORSDOF 6
ENDMDL
MODEL 3
REMARK VINA RESULT:    -6.188      5.435      8.321
REMARK INTER + INTRA:          -7.882
REMARK INTER:                  -7.427
REMARK INTRA:                  -0.455
REMARK UNBOUND:                -0.428
REMARK SMILES O=c1c(O)c(-c2ccc(O)cc2O)oc2cc(O)cc(O)c12
REMARK SMILES IDX 5 1 3 2 2 3 1 4 22 5 20 6 19 7 17 8 16 9 15 10 14 11 6 12
REMARK SMILES IDX 8 13 7 14 9 15 11 16 12 17 10 18 13 20 4 22 21 24 18 26
REMARK H PARENT 10 19 13 21 4 23 21 25 18 27
REMARK Flexibility Score: inf
ROOT
ATOM      1  C   UNL     1     156.944 149.013 150.569  1.00  0.00     0.184 A 
ATOM      2  C   UNL     1     155.545 148.895 150.617  1.00  0.00     0.208 A 
ATOM      3  C   UNL     1     154.952 148.266 151.722  1.00  0.00     0.238 A 
ATOM      4  O   UNL     1     153.696 148.214 151.785  1.00  0.00    -0.285 OA
ATOM      5  C   UNL     1     155.766 147.743 152.756  1.00  0.00     0.111 A 
ATOM      6  C   UNL     1     155.274 147.050 153.903  1.00  0.00     0.134 A 
ATOM      7  C   UNL     1     156.161 146.690 154.924  1.00  0.00     0.093 A 
ATOM      8  C   UNL     1     157.531 146.939 154.810  1.00  0.00     0.123 A 
ATOM      9  C   UNL     1     158.028 147.562 153.668  1.00  0.00     0.094 A 
ATOM     10  C   UNL     1     157.164 147.966 152.648  1.00  0.00     0.146 A 
ATOM     11  O   UNL     1     157.678 148.567 151.582  1.00  0.00    -0.451 OA
ENDROOT
BRANCH   1  12
ATOM     12  C   UNL     1     157.637 149.644 149.422  1.00  0.00     0.063 A 
ATOM     13  C   UNL     1     158.317 149.601 147.084  1.00  0.00     0.047 A 
ATOM     14  C   UNL     1     157.641 149.020 148.161  1.00  0.00     0.020 A 
ATOM     15  C   UNL     1     159.009 150.805 147.255  1.00  0.00     0.119 A 
ATOM     16  C   UNL     1     159.022 151.426 148.507  1.00  0.00     0.093 A 
ATOM     17  C   UNL     1     158.345 150.852 149.592  1.00  0.00     0.130 A 
BRANCH  15  18
ATOM     18  O   UNL     1     159.687 151.393 146.189  1.00  0.00    -0.508 OA
ATOM     19  H   UNL     1     159.577 151.053 145.240  1.00  0.00     0.293 HD
ENDBRANCH  15  18
BRANCH  17  20
ATOM     20  O   UNL     1     158.361 151.486 150.835  1.00  0.00    -0.507 OA
ATOM     21  H   UNL     1     159.191 151.951 151.184  1.00  0.00     0.293 HD
ENDBRANCH  17  20
ENDBRANCH   1  12
BRANCH   2  22
ATOM     22  O   UNL     1     154.762 149.431 149.591  1.00  0.00    -0.502 OA
ATOM     23  H   UNL     1     153.792 149.172 149.455  1.00  0.00     0.293 HD
ENDBRANCH   2  22
BRANCH   6  24
ATOM     24  O   UNL     1     153.940 146.672 154.073  1.00  0.00    -0.507 OA
ATOM     25  H   UNL     1     153.499 146.500 154.964  1.00  0.00     0.293 HD
ENDBRANCH   6  24
BRANCH   8  26
ATOM     26  O   UNL     1     158.409 146.563 155.825  1.00  0.00    -0.508 OA
ATOM     27  H   UNL     1     158.281 146.876 156.780  1.00  0.00     0.293 HD
ENDBRANCH   8  26
TORSDOF 6
ENDMDL
MODEL 4
REMARK VINA RESULT:    -6.071      3.853      6.701
REMARK INTER + INTRA:          -7.741
REMARK INTER:                  -7.407
REMARK INTRA:                  -0.334
REMARK UNBOUND:                -0.428
REMARK SMILES O=c1c(O)c(-c2ccc(O)cc2O)oc2cc(O)cc(O)c12
REMARK SMILES IDX 5 1 3 2 2 3 1 4 22 5 20 6 19 7 17 8 16 9 15 10 14 11 6 12
REMARK SMILES IDX 8 13 7 14 9 15 11 16 12 17 10 18 13 20 4 22 21 24 18 26
REMARK H PARENT 10 19 13 21 4 23 21 25 18 27
REMARK Flexibility Score: inf
ROOT
ATOM      1  C   UNL     1     155.399 148.268 151.868  1.00  0.00     0.184 A 
ATOM      2  C   UNL     1     155.418 148.787 150.562  1.00  0.00     0.208 A 
ATOM      3  C   UNL     1     156.654 149.025 149.942  1.00  0.00     0.238 A 
ATOM      4  O   UNL     1     156.663 149.436 148.753  1.00  0.00    -0.285 OA
ATOM      5  C   UNL     1     157.856 148.761 150.642  1.00  0.00     0.111 A 
ATOM      6  C   UNL     1     159.165 149.003 150.125  1.00  0.00     0.134 A 
ATOM      7  C   UNL     1     160.283 148.585 150.856  1.00  0.00     0.093 A 
ATOM      8  C   UNL     1     160.142 147.993 152.113  1.00  0.00     0.123 A 
ATOM      9  C   UNL     1     158.872 147.806 152.652  1.00  0.00     0.094 A 
ATOM     10  C   UNL     1     157.735 148.180 151.932  1.00  0.00     0.146 A 
ATOM     11  O   UNL     1     156.542 147.974 152.476  1.00  0.00    -0.451 OA
ENDROOT
BRANCH   1  12
ATOM     12  C   UNL     1     154.131 148.015 152.591  1.00  0.00     0.063 A 
ATOM     13  C   UNL     1     152.560 148.592 154.358  1.00  0.00     0.047 A 
ATOM     14  C   UNL     1     153.742 148.846 153.658  1.00  0.00     0.020 A 
ATOM     15  C   UNL     1     151.756 147.500 154.012  1.00  0.00     0.119 A 
ATOM     16  C   UNL     1     152.141 146.661 152.962  1.00  0.00     0.093 A 
ATOM     17  C   UNL     1     153.325 146.909 152.252  1.00  0.00     0.130 A 
BRANCH  15  18
ATOM     18  O   UNL     1     150.576 147.237 154.704  1.00  0.00    -0.508 OA
ATOM     19  H   UNL     1     150.500 147.401 155.701  1.00  0.00     0.293 HD
ENDBRANCH  15  18
BRANCH  17  20
ATOM     20  O   UNL     1     153.694 146.068 151.202  1.00  0.00    -0.507 OA
ATOM     21  H   UNL     1     154.465 146.294 150.585  1.00  0.00     0.293 HD
ENDBRANCH  17  20
ENDBRANCH   1  12
BRANCH   2  22
ATOM     22  O   UNL     1     154.218 149.026 149.887  1.00  0.00    -0.502 OA
ATOM     23  H   UNL     1     153.351 149.224 150.373  1.00  0.00     0.293 HD
ENDBRANCH   2  22
BRANCH   6  24
ATOM     24  O   UNL     1     159.418 149.668 148.923  1.00  0.00    -0.507 OA
ATOM     25  H   UNL     1     159.061 149.386 148.022  1.00  0.00     0.293 HD
ENDBRANCH   6  24
BRANCH   8  26
ATOM     26  O   UNL     1     161.262 147.593 152.841  1.00  0.00    -0.508 OA
ATOM     27  H   UNL     1     161.470 147.986 153.752  1.00  0.00     0.293 HD
ENDBRANCH   8  26
TORSDOF 6
ENDMDL
MODEL 5
REMARK VINA RESULT:    -6.038      2.432      7.031
REMARK INTER + INTRA:          -7.702
REMARK INTER:                  -7.517
REMARK INTRA:                  -0.185
REMARK UNBOUND:                -0.428
REMARK SMILES O=c1c(O)c(-c2ccc(O)cc2O)oc2cc(O)cc(O)c12
REMARK SMILES IDX 5 1 3 2 2 3 1 4 22 5 20 6 19 7 17 8 16 9 15 10 14 11 6 12
REMARK SMILES IDX 8 13 7 14 9 15 11 16 12 17 10 18 13 20 4 22 21 24 18 26
REMARK H PARENT 10 19 13 21 4 23 21 25 18 27
REMARK Flexibility Score: inf
ROOT
ATOM      1  C   UNL     1     154.965 147.576 151.612  1.00  0.00     0.184 A 
ATOM      2  C   UNL     1     154.972 147.439 153.011  1.00  0.00     0.208 A 
ATOM      3  C   UNL     1     153.788 147.060 153.663  1.00  0.00     0.238 A 
ATOM      4  O   UNL     1     153.815 146.885 154.909  1.00  0.00    -0.285 OA
ATOM      5  C   UNL     1     152.609 146.841 152.912  1.00  0.00     0.111 A 
ATOM      6  C   UNL     1     151.343 146.493 153.473  1.00  0.00     0.134 A 
ATOM      7  C   UNL     1     150.275 146.176 152.624  1.00  0.00     0.093 A 
ATOM      8  C   UNL     1     150.409 146.259 151.236  1.00  0.00     0.123 A 
ATOM      9  C   UNL     1     151.623 146.655 150.680  1.00  0.00     0.094 A 
ATOM     10  C   UNL     1     152.717 146.943 151.500  1.00  0.00     0.146 A 
ATOM     11  O   UNL     1     153.859 147.305 150.929  1.00  0.00    -0.451 OA
ENDROOT
BRANCH   1  12
ATOM     12  C   UNL     1     156.172 147.996 150.863  1.00  0.00     0.063 A 
ATOM     13  C   UNL     1     158.557 147.789 150.417  1.00  0.00     0.047 A 
ATOM     14  C   UNL     1     157.412 147.376 151.104  1.00  0.00     0.020 A 
ATOM     15  C   UNL     1     158.482 148.835 149.490  1.00  0.00     0.119 A 
ATOM     16  C   UNL     1     157.258 149.466 149.253  1.00  0.00     0.093 A 
ATOM     17  C   UNL     1     156.103 149.056 149.936  1.00  0.00     0.130 A 
BRANCH  15  18
ATOM     18  O   UNL     1     159.617 149.255 148.800  1.00  0.00    -0.508 OA
ATOM     19  H   UNL     1     160.207 149.999 149.156  1.00  0.00     0.293 HD
ENDBRANCH  15  18
BRANCH  17  20
ATOM     20  O   UNL     1     154.886 149.690 149.684  1.00  0.00    -0.507 OA
ATOM     21  H   UNL     1     154.413 150.234 150.396  1.00  0.00     0.293 HD
ENDBRANCH  17  20
ENDBRANCH   1  12
BRANCH   2  22
ATOM     22  O   UNL     1     156.152 147.647 153.729  1.00  0.00    -0.502 OA
ATOM     23  H   UNL     1     156.876 148.282 153.414  1.00  0.00     0.293 HD
ENDBRANCH   2  22
BRANCH   6  24
ATOM     24  O   UNL     1     151.077 146.470 154.845  1.00  0.00    -0.507 OA
ATOM     25  H   UNL     1     151.690 146.838 155.556  1.00  0.00     0.293 HD
ENDBRANCH   6  24
BRANCH   8  26
ATOM     26  O   UNL     1     149.337 145.956 150.399  1.00  0.00    -0.508 OA
ATOM     27  H   UNL     1     149.056 146.580 149.651  1.00  0.00     0.293 HD
ENDBRANCH   8  26
TORSDOF 6
ENDMDL
MODEL 6
REMARK VINA RESULT:    -5.905      3.768      6.584
REMARK INTER + INTRA:          -7.542
REMARK INTER:                  -7.114
REMARK INTRA:                  -0.428
REMARK UNBOUND:                -0.428
REMARK SMILES O=c1c(O)c(-c2ccc(O)cc2O)oc2cc(O)cc(O)c12
REMARK SMILES IDX 5 1 3 2 2 3 1 4 22 5 20 6 19 7 17 8 16 9 15 10 14 11 6 12
REMARK SMILES IDX 8 13 7 14 9 15 11 16 12 17 10 18 13 20 4 22 21 24 18 26
REMARK H PARENT 10 19 13 21 4 23 21 25 18 27
REMARK Flexibility Score: inf
ROOT
ATOM      1  C   UNL     1     155.440 148.182 152.181  1.00  0.00     0.184 A 
ATOM      2  C   UNL     1     156.616 147.782 152.837  1.00  0.00     0.208 A 
ATOM      3  C   UNL     1     157.854 148.013 152.217  1.00  0.00     0.238 A 
ATOM      4  O   UNL     1     158.906 147.705 152.835  1.00  0.00    -0.285 OA
ATOM      5  C   UNL     1     157.899 148.623 150.940  1.00  0.00     0.111 A 
ATOM      6  C   UNL     1     159.096 148.869 150.201  1.00  0.00     0.134 A 
ATOM      7  C   UNL     1     159.032 149.593 149.005  1.00  0.00     0.093 A 
ATOM      8  C   UNL     1     157.808 150.024 148.488  1.00  0.00     0.123 A 
ATOM      9  C   UNL     1     156.629 149.737 149.171  1.00  0.00     0.094 A 
ATOM     10  C   UNL     1     156.663 149.048 150.386  1.00  0.00     0.146 A 
ATOM     11  O   UNL     1     155.518 148.806 151.011  1.00  0.00    -0.451 OA
ENDROOT
BRANCH   1  12
ATOM     12  C   UNL     1     154.100 147.948 152.766  1.00  0.00     0.063 A 
ATOM     13  C   UNL     1     152.385 148.509 154.401  1.00  0.00     0.047 A 
ATOM     14  C   UNL     1     153.637 148.746 153.829  1.00  0.00     0.020 A 
ATOM     15  C   UNL     1     151.581 147.464 153.928  1.00  0.00     0.119 A 
ATOM     16  C   UNL     1     152.038 146.657 152.882  1.00  0.00     0.093 A 
ATOM     17  C   UNL     1     153.293 146.889 152.301  1.00  0.00     0.130 A 
BRANCH  15  18
ATOM     18  O   UNL     1     150.331 147.218 154.492  1.00  0.00    -0.508 OA
ATOM     19  H   UNL     1     149.599 147.919 154.481  1.00  0.00     0.293 HD
ENDBRANCH  15  18
BRANCH  17  20
ATOM     20  O   UNL     1     153.732 146.080 151.253  1.00  0.00    -0.507 OA
ATOM     21  H   UNL     1     153.789 145.073 151.347  1.00  0.00     0.293 HD
ENDBRANCH  17  20
ENDBRANCH   1  12
BRANCH   2  22
ATOM     22  O   UNL     1     156.546 147.195 154.103  1.00  0.00    -0.502 OA
ATOM     23  H   UNL     1     155.901 147.514 154.815  1.00  0.00     0.293 HD
ENDBRANCH   2  22
BRANCH   6  24
ATOM     24  O   UNL     1     160.358 148.404 150.582  1.00  0.00    -0.507 OA
ATOM     25  H   UNL     1     160.700 147.470 150.418  1.00  0.00     0.293 HD
ENDBRANCH   6  24
BRANCH   8  26
ATOM     26  O   UNL     1     157.751 150.731 147.288  1.00  0.00    -0.508 OA
ATOM     27  H   UNL     1     158.218 150.397 146.454  1.00  0.00     0.293 HD
ENDBRANCH   8  26
TORSDOF 6
ENDMDL
MODEL 7
REMARK VINA RESULT:    -5.826      2.245      7.403
REMARK INTER + INTRA:          -7.446
REMARK INTER:                  -7.309
REMARK INTRA:                  -0.136
REMARK UNBOUND:                -0.428
REMARK SMILES O=c1c(O)c(-c2ccc(O)cc2O)oc2cc(O)cc(O)c12
REMARK SMILES IDX 5 1 3 2 2 3 1 4 22 5 20 6 19 7 17 8 16 9 15 10 14 11 6 12
REMARK SMILES IDX 8 13 7 14 9 15 11 16 12 17 10 18 13 20 4 22 21 24 18 26
REMARK H PARENT 10 19 13 21 4 23 21 25 18 27
REMARK Flexibility Score: inf
ROOT
ATOM      1  C   UNL     1     154.683 147.612 152.959  1.00  0.00     0.184 A 
ATOM      2  C   UNL     1     154.051 147.124 154.115  1.00  0.00     0.208 A 
ATOM      3  C   UNL     1     152.739 146.634 154.019  1.00  0.00     0.238 A 
ATOM      4  O   UNL     1     152.200 146.146 155.046  1.00  0.00    -0.285 OA
ATOM      5  C   UNL     1     152.069 146.657 152.772  1.00  0.00     0.111 A 
ATOM      6  C   UNL     1     150.724 146.223 152.567  1.00  0.00     0.134 A 
ATOM      7  C   UNL     1     150.206 146.172 151.267  1.00  0.00     0.093 A 
ATOM      8  C   UNL     1     150.962 146.600 150.173  1.00  0.00     0.123 A 
ATOM      9  C   UNL     1     152.254 147.081 150.370  1.00  0.00     0.094 A 
ATOM     10  C   UNL     1     152.812 147.110 151.650  1.00  0.00     0.146 A 
ATOM     11  O   UNL     1     154.050 147.565 151.793  1.00  0.00    -0.451 OA
ENDROOT
BRANCH   1  12
ATOM     12  C   UNL     1     156.057 148.165 152.994  1.00  0.00     0.063 A 
ATOM     13  C   UNL     1     157.734 149.582 154.045  1.00  0.00     0.047 A 
ATOM     14  C   UNL     1     156.447 149.038 154.026  1.00  0.00     0.020 A 
ATOM     15  C   UNL     1     158.645 149.272 153.028  1.00  0.00     0.119 A 
ATOM     16  C   UNL     1     158.262 148.417 151.991  1.00  0.00     0.093 A 
ATOM     17  C   UNL     1     156.973 147.864 151.965  1.00  0.00     0.130 A 
BRANCH  15  18
ATOM     18  O   UNL     1     159.930 149.810 153.037  1.00  0.00    -0.508 OA
ATOM     19  H   UNL     1     160.435 149.961 153.903  1.00  0.00     0.293 HD
ENDBRANCH  15  18
BRANCH  17  20
ATOM     20  O   UNL     1     156.607 147.006 150.927  1.00  0.00    -0.507 OA
ATOM     21  H   UNL     1     156.309 147.360 150.026  1.00  0.00     0.293 HD
ENDBRANCH  17  20
ENDBRANCH   1  12
BRANCH   2  22
ATOM     22  O   UNL     1     154.739 147.099 155.331  1.00  0.00    -0.502 OA
ATOM     23  H   UNL     1     155.721 147.336 155.405  1.00  0.00     0.293 HD
ENDBRANCH   2  22
BRANCH   6  24
ATOM     24  O   UNL     1     149.855 145.861 153.600  1.00  0.00    -0.507 OA
ATOM     25  H   UNL     1     150.016 146.045 154.578  1.00  0.00     0.293 HD
ENDBRANCH   6  24
BRANCH   8  26
ATOM     26  O   UNL     1     150.433 146.561 148.884  1.00  0.00    -0.508 OA
ATOM     27  H   UNL     1     150.505 147.353 148.257  1.00  0.00     0.293 HD
ENDBRANCH   8  26
TORSDOF 6
ENDMDL
MODEL 8
REMARK VINA RESULT:    -5.767      2.440      7.886
REMARK INTER + INTRA:          -7.375
REMARK INTER:                  -6.900
REMARK INTRA:                  -0.475
REMARK UNBOUND:                -0.428
REMARK SMILES O=c1c(O)c(-c2ccc(O)cc2O)oc2cc(O)cc(O)c12
REMARK SMILES IDX 5 1 3 2 2 3 1 4 22 5 20 6 19 7 17 8 16 9 15 10 14 11 6 12
REMARK SMILES IDX 8 13 7 14 9 15 11 16 12 17 10 18 13 20 4 22 21 24 18 26
REMARK H PARENT 10 19 13 21 4 23 21 25 18 27
REMARK Flexibility Score: inf
ROOT
ATOM      1  C   UNL     1     154.376 147.322 153.927  1.00  0.00     0.184 A 
ATOM      2  C   UNL     1     154.743 147.805 152.660  1.00  0.00     0.208 A 
ATOM      3  C   UNL     1     153.840 147.673 151.593  1.00  0.00     0.238 A 
ATOM      4  O   UNL     1     154.152 148.159 150.475  1.00  0.00    -0.285 OA
ATOM      5  C   UNL     1     152.590 147.043 151.802  1.00  0.00     0.111 A 
ATOM      6  C   UNL     1     151.614 146.820 150.784  1.00  0.00     0.134 A 
ATOM      7  C   UNL     1     150.361 146.301 151.131  1.00  0.00     0.093 A 
ATOM      8  C   UNL     1     150.071 145.937 152.449  1.00  0.00     0.123 A 
ATOM      9  C   UNL     1     151.037 146.096 153.439  1.00  0.00     0.094 A 
ATOM     10  C   UNL     1     152.285 146.644 153.131  1.00  0.00     0.146 A 
ATOM     11  O   UNL     1     153.173 146.789 154.106  1.00  0.00    -0.451 OA
ENDROOT
BRANCH   1  12
ATOM     12  C   UNL     1     155.289 147.406 155.091  1.00  0.00     0.063 A 
ATOM     13  C   UNL     1     157.269 146.634 156.278  1.00  0.00     0.047 A 
ATOM     14  C   UNL     1     156.422 146.575 155.169  1.00  0.00     0.020 A 
ATOM     15  C   UNL     1     156.991 147.514 157.330  1.00  0.00     0.119 A 
ATOM     16  C   UNL     1     155.861 148.334 157.268  1.00  0.00     0.093 A 
ATOM     17  C   UNL     1     155.006 148.283 156.157  1.00  0.00     0.130 A 
BRANCH  15  18
ATOM     18  O   UNL     1     157.829 147.581 158.442  1.00  0.00    -0.508 OA
ATOM     19  H   UNL     1     158.727 147.111 158.456  1.00  0.00     0.293 HD
ENDBRANCH  15  18
BRANCH  17  20
ATOM     20  O   UNL     1     153.885 149.112 156.106  1.00  0.00    -0.507 OA
ATOM     21  H   UNL     1     153.111 148.999 156.749  1.00  0.00     0.293 HD
ENDBRANCH  17  20
ENDBRANCH   1  12
BRANCH   2  22
ATOM     22  O   UNL     1     155.977 148.436 152.482  1.00  0.00    -0.502 OA
ATOM     23  H   UNL     1     156.504 148.827 153.254  1.00  0.00     0.293 HD
ENDBRANCH   2  22
BRANCH   6  24
ATOM     24  O   UNL     1     151.834 147.063 149.426  1.00  0.00    -0.507 OA
ATOM     25  H   UNL     1     151.331 147.740 148.873  1.00  0.00     0.293 HD
ENDBRANCH   6  24
BRANCH   8  26
ATOM     26  O   UNL     1     148.826 145.407 152.783  1.00  0.00    -0.508 OA
ATOM     27  H   UNL     1     148.071 145.361 152.108  1.00  0.00     0.293 HD
ENDBRANCH   8  26
TORSDOF 6
ENDMDL
MODEL 9
REMARK VINA RESULT:    -5.716      2.488      7.853
REMARK INTER + INTRA:          -7.313
REMARK INTER:                  -6.904
REMARK INTRA:                  -0.409
REMARK UNBOUND:                -0.428
REMARK SMILES O=c1c(O)c(-c2ccc(O)cc2O)oc2cc(O)cc(O)c12
REMARK SMILES IDX 5 1 3 2 2 3 1 4 22 5 20 6 19 7 17 8 16 9 15 10 14 11 6 12
REMARK SMILES IDX 8 13 7 14 9 15 11 16 12 17 10 18 13 20 4 22 21 24 18 26
REMARK H PARENT 10 19 13 21 4 23 21 25 18 27
REMARK Flexibility Score: inf
ROOT
ATOM      1  C   UNL     1     154.621 148.053 152.118  1.00  0.00     0.184 A 
ATOM      2  C   UNL     1     154.467 148.476 150.787  1.00  0.00     0.208 A 
ATOM      3  C   UNL     1     153.301 148.122 150.090  1.00  0.00     0.238 A 
ATOM      4  O   UNL     1     153.143 148.551 148.918  1.00  0.00    -0.285 OA
ATOM      5  C   UNL     1     152.313 147.332 150.727  1.00  0.00     0.111 A 
ATOM      6  C   UNL     1     151.111 146.880 150.103  1.00  0.00     0.134 A 
ATOM      7  C   UNL     1     150.146 146.212 150.867  1.00  0.00     0.093 A 
ATOM      8  C   UNL     1     150.369 145.922 152.216  1.00  0.00     0.123 A 
ATOM      9  C   UNL     1     151.564 146.306 152.818  1.00  0.00     0.094 A 
ATOM     10  C   UNL     1     152.531 147.006 152.092  1.00  0.00     0.146 A 
ATOM     11  O   UNL     1     153.651 147.365 152.707  1.00  0.00    -0.451 OA
ENDROOT
BRANCH   1  12
ATOM     12  C   UNL     1     155.836 148.371 152.903  1.00  0.00     0.063 A 
ATOM     13  C   UNL     1     158.236 148.158 153.256  1.00  0.00     0.047 A 
ATOM     14  C   UNL     1     157.093 147.881 152.501  1.00  0.00     0.020 A 
ATOM     15  C   UNL     1     158.139 148.916 154.428  1.00  0.00     0.119 A 
ATOM     16  C   UNL     1     156.893 149.396 154.843  1.00  0.00     0.093 A 
ATOM     17  C   UNL     1     155.741 149.125 154.091  1.00  0.00     0.130 A 
BRANCH  15  18
ATOM     18  O   UNL     1     159.272 149.197 155.189  1.00  0.00    -0.508 OA
ATOM     19  H   UNL     1     159.200 149.516 156.148  1.00  0.00     0.293 HD
ENDBRANCH  15  18
BRANCH  17  20
ATOM     20  O   UNL     1     154.505 149.616 154.513  1.00  0.00    -0.507 OA
ATOM     21  H   UNL     1     153.944 150.220 153.925  1.00  0.00     0.293 HD
ENDBRANCH  17  20
ENDBRANCH   1  12
BRANCH   2  22
ATOM     22  O   UNL     1     155.449 149.267 150.185  1.00  0.00    -0.502 OA
ATOM     23  H   UNL     1     155.287 149.771 149.321  1.00  0.00     0.293 HD
ENDBRANCH   2  22
BRANCH   6  24
ATOM     24  O   UNL     1     150.830 147.037 148.743  1.00  0.00    -0.507 OA
ATOM     25  H   UNL     1     150.174 147.702 148.364  1.00  0.00     0.293 HD
ENDBRANCH   6  24
BRANCH   8  26
ATOM     26  O   UNL     1     149.410 145.242 152.965  1.00  0.00    -0.508 OA
ATOM     27  H   UNL     1     148.710 144.657 152.524  1.00  0.00     0.293 HD
ENDBRANCH   8  26
TORSDOF 6
ENDMDL
