MODEL 1
REMARK VINA RESULT:    -3.835      0.000      0.000
REMARK INTER + INTRA:          -7.656
REMARK INTER:                  -6.077
REMARK INTRA:                  -1.578
REMARK UNBOUND:                -1.578
REMARK SMILES CCCCCCCCCCCC(=O)[O-]
REMARK SMILES IDX 7 1 8 2 9 3 10 4 11 5 12 6 13 7 14 8 6 9 5 10 4 11 3 12 2 13
REMARK SMILES IDX 1 14
REMARK H PARENT
REMARK Flexibility Score: inf
ROOT
ATOM      1  C   UNL     1      -7.749 -12.965  17.695  1.00  0.00     0.000 C 
ENDROOT
BRANCH   1   2
ATOM      2  C   UNL     1      -7.735 -12.759  16.169  1.00  0.00     0.000 C 
BRANCH   2   3
ATOM      3  C   UNL     1      -7.650 -11.277  15.768  1.00  0.00     0.000 C 
BRANCH   3   4
ATOM      4  C   UNL     1      -9.035 -10.612  15.652  1.00  0.00     0.006 C 
BRANCH   4   5
ATOM      5  C   UNL     1      -9.194  -9.329  16.482  1.00  0.00     0.053 C 
BRANCH   5   6
ATOM      6  C   UNL     1      -9.493  -9.620  17.920  1.00  0.00     0.041 C 
ATOM      7  O   UNL     1     -10.462 -10.362  18.228  1.00  0.00    -0.550 OA
ATOM      8  O   UNL     1      -8.680  -9.100  18.919  1.00  0.00    -0.550 OA
ENDBRANCH   5   6
ENDBRANCH   4   5
ENDBRANCH   3   4
ENDBRANCH   2   3
ENDBRANCH   1   2
BRANCH   1   9
ATOM      9  C   UNL     1      -9.030 -13.609  18.262  1.00  0.00     0.000 C 
BRANCH   9  10
ATOM     10  C   UNL     1      -9.969 -14.236  17.217  1.00  0.00    -0.000 C 
BRANCH  10  11
ATOM     11  C   UNL     1     -11.320 -13.508  17.116  1.00  0.00    -0.000 C 
BRANCH  11  12
ATOM     12  C   UNL     1     -11.650 -13.074  15.678  1.00  0.00    -0.000 C 
BRANCH  12  13
ATOM     13  C   UNL     1     -11.174 -14.090  14.629  1.00  0.00    -0.003 C 
ATOM     14  C   UNL     1     -10.296 -13.421  13.575  1.00  0.00     0.004 C 
ENDBRANCH  12  13
ENDBRANCH  11  12
ENDBRANCH  10  11
ENDBRANCH   9  10
ENDBRANCH   1   9
TORSDOF 10
ENDMDL
MODEL 2
REMARK VINA RESULT:    -3.820      1.384      1.926
REMARK INTER + INTRA:          -7.632
REMARK INTER:                  -6.431
REMARK INTRA:                  -1.201
REMARK UNBOUND:                -1.578
REMARK SMILES CCCCCCCCCCCC(=O)[O-]
REMARK SMILES IDX 7 1 8 2 9 3 10 4 11 5 12 6 13 7 14 8 6 9 5 10 4 11 3 12 2 13
REMARK SMILES IDX 1 14
REMARK H PARENT
REMARK Flexibility Score: inf
ROOT
ATOM      1  C   UNL     1     -10.454 -11.458  17.799  1.00  0.00     0.000 C 
ENDROOT
BRANCH   1   2
ATOM      2  C   UNL     1      -9.040 -11.969  17.468  1.00  0.00     0.000 C 
BRANCH   2   3
ATOM      3  C   UNL     1      -8.260 -11.014  16.550  1.00  0.00     0.000 C 
BRANCH   3   4
ATOM      4  C   UNL     1      -9.155  -9.929  15.921  1.00  0.00     0.006 C 
BRANCH   4   5
ATOM      5  C   UNL     1      -8.665  -8.491  16.151  1.00  0.00     0.053 C 
BRANCH   5   6
ATOM      6  C   UNL     1      -8.468  -8.187  17.605  1.00  0.00     0.041 C 
ATOM      7  O   UNL     1      -7.318  -7.937  18.049  1.00  0.00    -0.550 OA
ATOM      8  O   UNL     1      -9.561  -8.146  18.461  1.00  0.00    -0.550 OA
ENDBRANCH   5   6
ENDBRANCH   4   5
ENDBRANCH   3   4
ENDBRANCH   2   3
ENDBRANCH   1   2
BRANCH   1   9
ATOM      9  C   UNL     1     -11.583 -12.498  17.653  1.00  0.00     0.000 C 
BRANCH   9  10
ATOM     10  C   UNL     1     -11.145 -13.874  17.123  1.00  0.00    -0.000 C 
BRANCH  10  11
ATOM     11  C   UNL     1     -12.090 -14.425  16.042  1.00  0.00    -0.000 C 
BRANCH  11  12
ATOM     12  C   UNL     1     -12.153 -13.523  14.798  1.00  0.00    -0.000 C 
BRANCH  12  13
ATOM     13  C   UNL     1     -11.123 -13.917  13.729  1.00  0.00    -0.003 C 
ATOM     14  C   UNL     1      -9.849 -13.087  13.862  1.00  0.00     0.004 C 
ENDBRANCH  12  13
ENDBRANCH  11  12
ENDBRANCH  10  11
ENDBRANCH   9  10
ENDBRANCH   1   9
TORSDOF 10
ENDMDL
MODEL 3
REMARK VINA RESULT:    -3.719      1.251      2.562
REMARK INTER + INTRA:          -7.472
REMARK INTER:                  -6.224
REMARK INTRA:                  -1.248
REMARK UNBOUND:                -1.578
REMARK SMILES CCCCCCCCCCCC(=O)[O-]
REMARK SMILES IDX 7 1 8 2 9 3 10 4 11 5 12 6 13 7 14 8 6 9 5 10 4 11 3 12 2 13
REMARK SMILES IDX 1 14
REMARK H PARENT
REMARK Flexibility Score: inf
ROOT
ATOM      1  C   UNL     1      -8.740 -13.572  14.526  1.00  0.00     0.000 C 
ENDROOT
BRANCH   1   2
ATOM      2  C   UNL     1      -8.003 -12.732  15.585  1.00  0.00     0.000 C 
BRANCH   2   3
ATOM      3  C   UNL     1      -8.375 -11.241  15.530  1.00  0.00     0.000 C 
BRANCH   3   4
ATOM      4  C   UNL     1      -8.372 -10.575  16.919  1.00  0.00     0.006 C 
BRANCH   4   5
ATOM      5  C   UNL     1      -9.310  -9.365  17.045  1.00  0.00     0.053 C 
BRANCH   5   6
ATOM      6  C   UNL     1      -9.300  -8.783  18.425  1.00  0.00     0.041 C 
ATOM      7  O   UNL     1      -9.280  -7.535  18.586  1.00  0.00    -0.550 OA
ATOM      8  O   UNL     1      -9.347  -9.620  19.532  1.00  0.00    -0.550 OA
ENDBRANCH   5   6
ENDBRANCH   4   5
ENDBRANCH   3   4
ENDBRANCH   2   3
ENDBRANCH   1   2
BRANCH   1   9
ATOM      9  C   UNL     1     -10.013 -12.927  13.941  1.00  0.00     0.000 C 
BRANCH   9  10
ATOM     10  C   UNL     1     -11.229 -13.863  13.823  1.00  0.00    -0.000 C 
BRANCH  10  11
ATOM     11  C   UNL     1     -12.237 -13.678  14.969  1.00  0.00    -0.000 C 
BRANCH  11  12
ATOM     12  C   UNL     1     -11.951 -14.604  16.163  1.00  0.00    -0.000 C 
BRANCH  12  13
ATOM     13  C   UNL     1     -11.163 -13.903  17.280  1.00  0.00    -0.003 C 
ATOM     14  C   UNL     1     -11.541 -12.428  17.376  1.00  0.00     0.004 C 
ENDBRANCH  12  13
ENDBRANCH  11  12
ENDBRANCH  10  11
ENDBRANCH   9  10
ENDBRANCH   1   9
TORSDOF 10
ENDMDL
MODEL 4
REMARK VINA RESULT:    -3.668      1.913      2.858
REMARK INTER + INTRA:          -7.390
REMARK INTER:                  -6.154
REMARK INTRA:                  -1.237
REMARK UNBOUND:                -1.578
REMARK SMILES CCCCCCCCCCCC(=O)[O-]
REMARK SMILES IDX 7 1 8 2 9 3 10 4 11 5 12 6 13 7 14 8 6 9 5 10 4 11 3 12 2 13
REMARK SMILES IDX 1 14
REMARK H PARENT
REMARK Flexibility Score: inf
ROOT
ATOM      1  C   UNL     1      -9.948 -11.076  16.295  1.00  0.00     0.000 C 
ENDROOT
BRANCH   1   2
ATOM      2  C   UNL     1      -8.900  -9.950  16.216  1.00  0.00     0.000 C 
BRANCH   2   3
ATOM      3  C   UNL     1      -7.573 -10.413  15.591  1.00  0.00     0.000 C 
BRANCH   3   4
ATOM      4  C   UNL     1      -7.471 -11.946  15.478  1.00  0.00     0.006 C 
BRANCH   4   5
ATOM      5  C   UNL     1      -6.485 -12.590  16.466  1.00  0.00     0.053 C 
BRANCH   5   6
ATOM      6  C   UNL     1      -7.172 -13.102  17.694  1.00  0.00     0.041 C 
ATOM      7  O   UNL     1      -7.498 -14.315  17.779  1.00  0.00    -0.550 OA
ATOM      8  O   UNL     1      -7.418 -12.247  18.761  1.00  0.00    -0.550 OA
ENDBRANCH   5   6
ENDBRANCH   4   5
ENDBRANCH   3   4
ENDBRANCH   2   3
ENDBRANCH   1   2
BRANCH   1   9
ATOM      9  C   UNL     1     -10.591 -11.283  17.682  1.00  0.00     0.000 C 
BRANCH   9  10
ATOM     10  C   UNL     1     -11.478 -12.533  17.815  1.00  0.00    -0.000 C 
BRANCH  10  11
ATOM     11  C   UNL     1     -10.932 -13.738  17.029  1.00  0.00    -0.000 C 
BRANCH  11  12
ATOM     12  C   UNL     1     -12.002 -14.398  16.144  1.00  0.00    -0.000 C 
BRANCH  12  13
ATOM     13  C   UNL     1     -12.207 -13.660  14.813  1.00  0.00    -0.003 C 
ATOM     14  C   UNL     1     -10.961 -13.754  13.936  1.00  0.00     0.004 C 
ENDBRANCH  12  13
ENDBRANCH  11  12
ENDBRANCH  10  11
ENDBRANCH   9  10
ENDBRANCH   1   9
TORSDOF 10
ENDMDL
MODEL 5
REMARK VINA RESULT:    -3.666      1.730      2.726
REMARK INTER + INTRA:          -7.388
REMARK INTER:                  -5.972
REMARK INTRA:                  -1.416
REMARK UNBOUND:                -1.578
REMARK SMILES CCCCCCCCCCCC(=O)[O-]
REMARK SMILES IDX 7 1 8 2 9 3 10 4 11 5 12 6 13 7 14 8 6 9 5 10 4 11 3 12 2 13
REMARK SMILES IDX 1 14
REMARK H PARENT
REMARK Flexibility Score: inf
ROOT
ATOM      1  C   UNL     1     -11.131 -12.612  17.418  1.00  0.00     0.000 C 
ENDROOT
BRANCH   1   2
ATOM      2  C   UNL     1      -9.699 -12.726  17.972  1.00  0.00     0.000 C 
BRANCH   2   3
ATOM      3  C   UNL     1      -8.904 -11.416  17.846  1.00  0.00     0.000 C 
BRANCH   3   4
ATOM      4  C   UNL     1      -9.751 -10.256  17.290  1.00  0.00     0.006 C 
BRANCH   4   5
ATOM      5  C   UNL     1      -9.375  -9.821  15.865  1.00  0.00     0.053 C 
BRANCH   5   6
ATOM      6  C   UNL     1      -8.356  -8.723  15.862  1.00  0.00     0.041 C 
ATOM      7  O   UNL     1      -7.518  -8.639  14.926  1.00  0.00    -0.550 OA
ATOM      8  O   UNL     1      -8.355  -7.772  16.874  1.00  0.00    -0.550 OA
ENDBRANCH   5   6
ENDBRANCH   4   5
ENDBRANCH   3   4
ENDBRANCH   2   3
ENDBRANCH   1   2
BRANCH   1   9
ATOM      9  C   UNL     1     -11.819 -13.951  17.085  1.00  0.00     0.000 C 
BRANCH   9  10
ATOM     10  C   UNL     1     -11.962 -14.261  15.584  1.00  0.00    -0.000 C 
BRANCH  10  11
ATOM     11  C   UNL     1     -11.505 -13.097  14.688  1.00  0.00    -0.000 C 
BRANCH  11  12
ATOM     12  C   UNL     1     -10.313 -13.475  13.793  1.00  0.00    -0.000 C 
BRANCH  12  13
ATOM     13  C   UNL     1      -8.966 -13.028  14.382  1.00  0.00    -0.003 C 
ATOM     14  C   UNL     1      -8.165 -14.224  14.889  1.00  0.00     0.004 C 
ENDBRANCH  12  13
ENDBRANCH  11  12
ENDBRANCH  10  11
ENDBRANCH   9  10
ENDBRANCH   1   9
TORSDOF 10
ENDMDL
MODEL 6
REMARK VINA RESULT:    -3.621      2.532      4.835
REMARK INTER + INTRA:          -7.316
REMARK INTER:                  -5.886
REMARK INTRA:                  -1.430
REMARK UNBOUND:                -1.578
REMARK SMILES CCCCCCCCCCCC(=O)[O-]
REMARK SMILES IDX 7 1 8 2 9 3 10 4 11 5 12 6 13 7 14 8 6 9 5 10 4 11 3 12 2 13
REMARK SMILES IDX 1 14
REMARK H PARENT
REMARK Flexibility Score: inf
ROOT
ATOM      1  C   UNL     1      -9.649 -10.957  17.608  1.00  0.00     0.000 C 
ENDROOT
BRANCH   1   2
ATOM      2  C   UNL     1     -10.089 -12.398  17.923  1.00  0.00     0.000 C 
BRANCH   2   3
ATOM      3  C   UNL     1     -11.577 -12.647  17.623  1.00  0.00     0.000 C 
BRANCH   3   4
ATOM      4  C   UNL     1     -11.804 -13.866  16.707  1.00  0.00     0.006 C 
BRANCH   4   5
ATOM      5  C   UNL     1     -10.608 -14.213  15.807  1.00  0.00     0.053 C 
BRANCH   5   6
ATOM      6  C   UNL     1     -10.800 -13.729  14.403  1.00  0.00     0.041 C 
ATOM      7  O   UNL     1     -11.929 -13.811  13.853  1.00  0.00    -0.550 OA
ATOM      8  O   UNL     1      -9.739 -13.154  13.714  1.00  0.00    -0.550 OA
ENDBRANCH   5   6
ENDBRANCH   4   5
ENDBRANCH   3   4
ENDBRANCH   2   3
ENDBRANCH   1   2
BRANCH   1   9
ATOM      9  C   UNL     1      -9.634 -10.583  16.112  1.00  0.00     0.000 C 
BRANCH   9  10
ATOM     10  C   UNL     1      -8.257 -10.190  15.546  1.00  0.00    -0.000 C 
BRANCH  10  11
ATOM     11  C   UNL     1      -7.103 -10.980  16.185  1.00  0.00    -0.000 C 
BRANCH  11  12
ATOM     12  C   UNL     1      -6.725 -12.232  15.376  1.00  0.00    -0.000 C 
BRANCH  12  13
ATOM     13  C   UNL     1      -7.053 -13.537  16.117  1.00  0.00    -0.003 C 
ATOM     14  C   UNL     1      -6.553 -13.491  17.558  1.00  0.00     0.004 C 
ENDBRANCH  12  13
ENDBRANCH  11  12
ENDBRANCH  10  11
ENDBRANCH   9  10
ENDBRANCH   1   9
TORSDOF 10
ENDMDL
MODEL 7
REMARK VINA RESULT:    -3.614      1.407      2.351
REMARK INTER + INTRA:          -7.305
REMARK INTER:                  -5.866
REMARK INTRA:                  -1.439
REMARK UNBOUND:                -1.578
REMARK SMILES CCCCCCCCCCCC(=O)[O-]
REMARK SMILES IDX 7 1 8 2 9 3 10 4 11 5 12 6 13 7 14 8 6 9 5 10 4 11 3 12 2 13
REMARK SMILES IDX 1 14
REMARK H PARENT
REMARK Flexibility Score: inf
ROOT
ATOM      1  C   UNL     1      -8.562 -13.805  17.164  1.00  0.00     0.000 C 
ENDROOT
BRANCH   1   2
ATOM      2  C   UNL     1      -8.874 -12.649  18.132  1.00  0.00     0.000 C 
BRANCH   2   3
ATOM      3  C   UNL     1     -10.195 -11.934  17.802  1.00  0.00     0.000 C 
BRANCH   3   4
ATOM      4  C   UNL     1      -9.979 -10.585  17.089  1.00  0.00     0.006 C 
BRANCH   4   5
ATOM      5  C   UNL     1      -8.769  -9.785  17.597  1.00  0.00     0.053 C 
BRANCH   5   6
ATOM      6  C   UNL     1      -9.139  -8.843  18.701  1.00  0.00     0.041 C 
ATOM      7  O   UNL     1      -9.409  -7.641  18.445  1.00  0.00    -0.550 OA
ATOM      8  O   UNL     1      -9.221  -9.303  20.009  1.00  0.00    -0.550 OA
ENDBRANCH   5   6
ENDBRANCH   4   5
ENDBRANCH   3   4
ENDBRANCH   2   3
ENDBRANCH   1   2
BRANCH   1   9
ATOM      9  C   UNL     1      -7.847 -13.398  15.860  1.00  0.00     0.000 C 
BRANCH   9  10
ATOM     10  C   UNL     1      -8.557 -13.818  14.561  1.00  0.00    -0.000 C 
BRANCH  10  11
ATOM     11  C   UNL     1      -9.792 -12.955  14.251  1.00  0.00    -0.000 C 
BRANCH  11  12
ATOM     12  C   UNL     1     -11.037 -13.798  13.933  1.00  0.00    -0.000 C 
BRANCH  12  13
ATOM     13  C   UNL     1     -12.177 -13.572  14.937  1.00  0.00    -0.003 C 
ATOM     14  C   UNL     1     -12.116 -14.587  16.075  1.00  0.00     0.004 C 
ENDBRANCH  12  13
ENDBRANCH  11  12
ENDBRANCH  10  11
ENDBRANCH   9  10
ENDBRANCH   1   9
TORSDOF 10
ENDMDL
MODEL 8
REMARK VINA RESULT:    -3.605      2.315      4.566
REMARK INTER + INTRA:          -7.291
REMARK INTER:                  -5.811
REMARK INTRA:                  -1.481
REMARK UNBOUND:                -1.578
REMARK SMILES CCCCCCCCCCCC(=O)[O-]
REMARK SMILES IDX 7 1 8 2 9 3 10 4 11 5 12 6 13 7 14 8 6 9 5 10 4 11 3 12 2 13
REMARK SMILES IDX 1 14
REMARK H PARENT
REMARK Flexibility Score: inf
ROOT
ATOM      1  C   UNL     1      -7.240 -13.591  16.199  1.00  0.00     0.000 C 
ENDROOT
BRANCH   1   2
ATOM      2  C   UNL     1      -7.510 -13.758  17.706  1.00  0.00     0.000 C 
BRANCH   2   3
ATOM      3  C   UNL     1      -8.972 -14.121  18.014  1.00  0.00     0.000 C 
BRANCH   3   4
ATOM      4  C   UNL     1      -9.738 -14.612  16.770  1.00  0.00     0.006 C 
BRANCH   4   5
ATOM      5  C   UNL     1     -11.100 -13.934  16.555  1.00  0.00     0.053 C 
BRANCH   5   6
ATOM      6  C   UNL     1     -11.319 -13.549  15.124  1.00  0.00     0.041 C 
ATOM      7  O   UNL     1     -12.485 -13.492  14.654  1.00  0.00    -0.550 OA
ATOM      8  O   UNL     1     -10.236 -13.218  14.319  1.00  0.00    -0.550 OA
ENDBRANCH   5   6
ENDBRANCH   4   5
ENDBRANCH   3   4
ENDBRANCH   2   3
ENDBRANCH   1   2
BRANCH   1   9
ATOM      9  C   UNL     1      -6.624 -12.240  15.785  1.00  0.00     0.000 C 
BRANCH   9  10
ATOM     10  C   UNL     1      -7.247 -11.001  16.452  1.00  0.00    -0.000 C 
BRANCH  10  11
ATOM     11  C   UNL     1      -8.448 -10.443  15.670  1.00  0.00    -0.000 C 
BRANCH  11  12
ATOM     12  C   UNL     1      -9.757 -10.506  16.475  1.00  0.00    -0.000 C 
BRANCH  12  13
ATOM     13  C   UNL     1      -9.523 -10.443  17.991  1.00  0.00    -0.003 C 
ATOM     14  C   UNL     1      -9.682  -9.017  18.513  1.00  0.00     0.004 C 
ENDBRANCH  12  13
ENDBRANCH  11  12
ENDBRANCH  10  11
ENDBRANCH   9  10
ENDBRANCH   1   9
TORSDOF 10
ENDMDL
MODEL 9
REMARK VINA RESULT:    -3.531      1.482      2.455
REMARK INTER + INTRA:          -7.174
REMARK INTER:                  -5.692
REMARK INTRA:                  -1.481
REMARK UNBOUND:                -1.578
REMARK SMILES CCCCCCCCCCCC(=O)[O-]
REMARK SMILES IDX 7 1 8 2 9 3 10 4 11 5 12 6 13 7 14 8 6 9 5 10 4 11 3 12 2 13
REMARK SMILES IDX 1 14
REMARK H PARENT
REMARK Flexibility Score: inf
ROOT
ATOM      1  C   UNL     1      -7.695 -12.041  15.600  1.00  0.00     0.000 C 
ENDROOT
BRANCH   1   2
ATOM      2  C   UNL     1      -9.088 -11.498  15.234  1.00  0.00     0.000 C 
BRANCH   2   3
ATOM      3  C   UNL     1      -9.400 -10.151  15.907  1.00  0.00     0.000 C 
BRANCH   3   4
ATOM      4  C   UNL     1      -8.754 -10.018  17.300  1.00  0.00     0.006 C 
BRANCH   4   5
ATOM      5  C   UNL     1      -9.740  -9.677  18.427  1.00  0.00     0.053 C 
BRANCH   5   6
ATOM      6  C   UNL     1      -9.115  -8.822  19.485  1.00  0.00     0.041 C 
ATOM      7  O   UNL     1      -8.656  -9.345  20.534  1.00  0.00    -0.550 OA
ATOM      8  O   UNL     1      -9.007  -7.450  19.297  1.00  0.00    -0.550 OA
ENDBRANCH   5   6
ENDBRANCH   4   5
ENDBRANCH   3   4
ENDBRANCH   2   3
ENDBRANCH   1   2
BRANCH   1   9
ATOM      9  C   UNL     1      -7.665 -13.498  16.103  1.00  0.00     0.000 C 
BRANCH   9  10
ATOM     10  C   UNL     1      -7.806 -13.671  17.626  1.00  0.00    -0.000 C 
BRANCH  10  11
ATOM     11  C   UNL     1      -9.258 -13.925  18.066  1.00  0.00    -0.000 C 
BRANCH  11  12
ATOM     12  C   UNL     1     -10.100 -14.589  16.964  1.00  0.00    -0.000 C 
BRANCH  12  13
ATOM     13  C   UNL     1     -11.445 -13.882  16.740  1.00  0.00    -0.003 C 
ATOM     14  C   UNL     1     -11.622 -12.719  17.713  1.00  0.00     0.004 C 
ENDBRANCH  12  13
ENDBRANCH  11  12
ENDBRANCH  10  11
ENDBRANCH   9  10
ENDBRANCH   1   9
TORSDOF 10
ENDMDL
