MODEL 1
REMARK VINA RESULT:    -1.598      0.000      0.000
REMARK INTER + INTRA:          -3.756
REMARK INTER:                  -3.093
REMARK INTRA:                  -0.663
REMARK UNBOUND:                -0.663
REMARK SMILES CCCCCCCCCCCCCCCCCC(=O)[O-]
REMARK SMILES IDX 10 1 11 2 12 3 13 4 14 5 15 6 16 7 17 8 18 9 19 10 20 11
REMARK SMILES IDX 9 12 8 13 7 14 6 15 5 16 4 17 3 18 2 19 1 20
REMARK H PARENT
REMARK Flexibility Score: inf
ROOT
ATOM      1  C   UNL     1      -8.937  51.329  -3.575  1.00  0.00     0.000 C 
ENDROOT
BRANCH   1   2
ATOM      2  C   UNL     1      -8.853  52.034  -4.942  1.00  0.00     0.000 C 
BRANCH   2   3
ATOM      3  C   UNL     1      -7.481  51.954  -5.635  1.00  0.00     0.000 C 
BRANCH   3   4
ATOM      4  C   UNL     1      -7.570  52.125  -7.161  1.00  0.00     0.000 C 
BRANCH   4   5
ATOM      5  C   UNL     1      -6.731  51.086  -7.926  1.00  0.00     0.000 C 
BRANCH   5   6
ATOM      6  C   UNL     1      -6.311  51.508  -9.349  1.00  0.00     0.000 C 
BRANCH   6   7
ATOM      7  C   UNL     1      -4.798  51.712  -9.550  1.00  0.00     0.006 C 
BRANCH   7   8
ATOM      8  C   UNL     1      -3.949  50.880  -8.582  1.00  0.00     0.053 C 
BRANCH   8   9
ATOM      9  C   UNL     1      -2.735  51.647  -8.162  1.00  0.00     0.041 C 
ATOM     10  O   UNL     1      -1.872  51.982  -9.015  1.00  0.00    -0.550 OA
ATOM     11  O   UNL     1      -2.532  51.947  -6.821  1.00  0.00    -0.550 OA
ENDBRANCH   8   9
ENDBRANCH   7   8
ENDBRANCH   6   7
ENDBRANCH   5   6
ENDBRANCH   4   5
ENDBRANCH   3   4
ENDBRANCH   2   3
ENDBRANCH   1   2
BRANCH   1  12
ATOM     12  C   UNL     1      -8.225  52.106  -2.454  1.00  0.00     0.000 C 
BRANCH  12  13
ATOM     13  C   UNL     1      -8.928  51.957  -1.095  1.00  0.00    -0.000 C 
BRANCH  13  14
ATOM     14  C   UNL     1      -7.979  51.484   0.016  1.00  0.00    -0.000 C 
BRANCH  14  15
ATOM     15  C   UNL     1      -6.593  52.125  -0.138  1.00  0.00    -0.000 C 
BRANCH  15  16
ATOM     16  C   UNL     1      -5.481  51.107   0.158  1.00  0.00    -0.000 C 
BRANCH  16  17
ATOM     17  C   UNL     1      -4.201  51.770   0.692  1.00  0.00    -0.000 C 
BRANCH  17  18
ATOM     18  C   UNL     1      -2.924  51.049   0.226  1.00  0.00    -0.000 C 
BRANCH  18  19
ATOM     19  C   UNL     1      -1.844  52.025  -0.266  1.00  0.00    -0.003 C 
ATOM     20  C   UNL     1      -0.658  52.125   0.693  1.00  0.00     0.004 C 
ENDBRANCH  18  19
ENDBRANCH  17  18
ENDBRANCH  16  17
ENDBRANCH  15  16
ENDBRANCH  14  15
ENDBRANCH  13  14
ENDBRANCH  12  13
ENDBRANCH   1  12
TORSDOF 16
ENDMDL
MODEL 2
REMARK VINA RESULT:    -0.913      1.119      1.662
REMARK INTER + INTRA:          -2.429
REMARK INTER:                  -1.788
REMARK INTRA:                  -0.641
REMARK UNBOUND:                -0.663
REMARK SMILES CCCCCCCCCCCCCCCCCC(=O)[O-]
REMARK SMILES IDX 10 1 11 2 12 3 13 4 14 5 15 6 16 7 17 8 18 9 19 10 20 11
REMARK SMILES IDX 9 12 8 13 7 14 6 15 5 16 4 17 3 18 2 19 1 20
REMARK H PARENT
REMARK Flexibility Score: inf
ROOT
ATOM      1  C   UNL     1      -7.750  49.664  -3.036  1.00  0.00     0.000 C 
ENDROOT
BRANCH   1   2
ATOM      2  C   UNL     1      -8.492  50.102  -4.314  1.00  0.00     0.000 C 
BRANCH   2   3
ATOM      3  C   UNL     1      -8.729  51.617  -4.443  1.00  0.00     0.000 C 
BRANCH   3   4
ATOM      4  C   UNL     1      -8.614  52.121  -5.892  1.00  0.00     0.000 C 
BRANCH   4   5
ATOM      5  C   UNL     1      -7.181  52.025  -6.444  1.00  0.00     0.000 C 
BRANCH   5   6
ATOM      6  C   UNL     1      -7.070  52.079  -7.982  1.00  0.00     0.000 C 
BRANCH   6   7
ATOM      7  C   UNL     1      -6.344  50.885  -8.627  1.00  0.00     0.006 C 
BRANCH   7   8
ATOM      8  C   UNL     1      -5.157  51.309  -9.500  1.00  0.00     0.053 C 
BRANCH   8   9
ATOM      9  C   UNL     1      -3.945  51.546  -8.654  1.00  0.00     0.041 C 
ATOM     10  O   UNL     1      -2.852  51.867  -9.190  1.00  0.00    -0.550 OA
ATOM     11  O   UNL     1      -4.012  51.364  -7.279  1.00  0.00    -0.550 OA
ENDBRANCH   8   9
ENDBRANCH   7   8
ENDBRANCH   6   7
ENDBRANCH   5   6
ENDBRANCH   4   5
ENDBRANCH   3   4
ENDBRANCH   2   3
ENDBRANCH   1   2
BRANCH   1  12
ATOM     12  C   UNL     1      -8.525  49.997  -1.750  1.00  0.00     0.000 C 
BRANCH  12  13
ATOM     13  C   UNL     1      -7.609  50.091  -0.518  1.00  0.00    -0.000 C 
BRANCH  13  14
ATOM     14  C   UNL     1      -6.778  51.382  -0.494  1.00  0.00    -0.000 C 
BRANCH  14  15
ATOM     15  C   UNL     1      -5.720  51.331   0.617  1.00  0.00    -0.000 C 
BRANCH  15  16
ATOM     16  C   UNL     1      -4.467  52.125   0.219  1.00  0.00    -0.000 C 
BRANCH  16  17
ATOM     17  C   UNL     1      -3.231  51.227   0.045  1.00  0.00    -0.000 C 
BRANCH  17  18
ATOM     18  C   UNL     1      -2.076  51.945  -0.675  1.00  0.00    -0.000 C 
BRANCH  18  19
ATOM     19  C   UNL     1      -0.812  52.043   0.193  1.00  0.00    -0.003 C 
ATOM     20  C   UNL     1      -1.114  51.946   1.688  1.00  0.00     0.004 C 
ENDBRANCH  18  19
ENDBRANCH  17  18
ENDBRANCH  16  17
ENDBRANCH  15  16
ENDBRANCH  14  15
ENDBRANCH  13  14
ENDBRANCH  12  13
ENDBRANCH   1  12
TORSDOF 16
ENDMDL
MODEL 3
REMARK VINA RESULT:    -0.443      2.455      7.518
REMARK INTER + INTRA:          -1.521
REMARK INTER:                  -0.545
REMARK INTRA:                  -0.976
REMARK UNBOUND:                -0.663
REMARK SMILES CCCCCCCCCCCCCCCCCC(=O)[O-]
REMARK SMILES IDX 10 1 11 2 12 3 13 4 14 5 15 6 16 7 17 8 18 9 19 10 20 11
REMARK SMILES IDX 9 12 8 13 7 14 6 15 5 16 4 17 3 18 2 19 1 20
REMARK H PARENT
REMARK Flexibility Score: inf
ROOT
ATOM      1  C   UNL     1      -7.581  51.081  -3.848  1.00  0.00     0.000 C 
ENDROOT
BRANCH   1   2
ATOM      2  C   UNL     1      -8.653  50.665  -2.822  1.00  0.00     0.000 C 
BRANCH   2   3
ATOM      3  C   UNL     1      -8.817  51.620  -1.627  1.00  0.00     0.000 C 
BRANCH   3   4
ATOM      4  C   UNL     1      -7.472  52.077  -1.036  1.00  0.00     0.000 C 
BRANCH   4   5
ATOM      5  C   UNL     1      -6.907  51.085  -0.005  1.00  0.00     0.000 C 
BRANCH   5   6
ATOM      6  C   UNL     1      -5.747  51.629   0.855  1.00  0.00     0.000 C 
BRANCH   6   7
ATOM      7  C   UNL     1      -4.522  52.123   0.065  1.00  0.00     0.006 C 
BRANCH   7   8
ATOM      8  C   UNL     1      -3.422  51.061  -0.056  1.00  0.00     0.053 C 
BRANCH   8   9
ATOM      9  C   UNL     1      -2.071  51.702  -0.004  1.00  0.00     0.041 C 
ATOM     10  O   UNL     1      -1.385  51.818  -1.053  1.00  0.00    -0.550 OA
ATOM     11  O   UNL     1      -1.549  52.125   1.211  1.00  0.00    -0.550 OA
ENDBRANCH   8   9
ENDBRANCH   7   8
ENDBRANCH   6   7
ENDBRANCH   5   6
ENDBRANCH   4   5
ENDBRANCH   3   4
ENDBRANCH   2   3
ENDBRANCH   1   2
BRANCH   1  12
ATOM     12  C   UNL     1      -8.009  50.818  -5.302  1.00  0.00     0.000 C 
BRANCH  12  13
ATOM     13  C   UNL     1      -8.715  52.027  -5.937  1.00  0.00    -0.000 C 
BRANCH  13  14
ATOM     14  C   UNL     1      -8.945  51.856  -7.446  1.00  0.00    -0.000 C 
BRANCH  14  15
ATOM     15  C   UNL     1      -7.654  52.124  -8.230  1.00  0.00    -0.000 C 
BRANCH  15  16
ATOM     16  C   UNL     1      -7.038  50.812  -8.740  1.00  0.00    -0.000 C 
BRANCH  16  17
ATOM     17  C   UNL     1      -5.515  50.906  -8.921  1.00  0.00    -0.000 C 
BRANCH  17  18
ATOM     18  C   UNL     1      -4.881  51.996  -8.039  1.00  0.00    -0.000 C 
BRANCH  18  19
ATOM     19  C   UNL     1      -3.658  51.486  -7.261  1.00  0.00    -0.003 C 
ATOM     20  C   UNL     1      -2.346  51.713  -8.010  1.00  0.00     0.004 C 
ENDBRANCH  18  19
ENDBRANCH  17  18
ENDBRANCH  16  17
ENDBRANCH  15  16
ENDBRANCH  14  15
ENDBRANCH  13  14
ENDBRANCH  12  13
ENDBRANCH   1  12
TORSDOF 16
ENDMDL
MODEL 4
REMARK VINA RESULT:     0.458      2.122      2.899
REMARK INTER + INTRA:           0.223
REMARK INTER:                   0.089
REMARK INTRA:                   0.134
REMARK UNBOUND:                -0.663
REMARK SMILES CCCCCCCCCCCCCCCCCC(=O)[O-]
REMARK SMILES IDX 10 1 11 2 12 3 13 4 14 5 15 6 16 7 17 8 18 9 19 10 20 11
REMARK SMILES IDX 9 12 8 13 7 14 6 15 5 16 4 17 3 18 2 19 1 20
REMARK H PARENT
REMARK Flexibility Score: inf
ROOT
ATOM      1  C   UNL     1      -7.991  50.197  -2.973  1.00  0.00     0.000 C 
ENDROOT
BRANCH   1   2
ATOM      2  C   UNL     1      -8.945  50.560  -4.127  1.00  0.00     0.000 C 
BRANCH   2   3
ATOM      3  C   UNL     1      -8.294  51.314  -5.300  1.00  0.00     0.000 C 
BRANCH   3   4
ATOM      4  C   UNL     1      -6.940  51.944  -4.929  1.00  0.00     0.000 C 
BRANCH   4   5
ATOM      5  C   UNL     1      -5.824  51.586  -5.926  1.00  0.00     0.000 C 
BRANCH   5   6
ATOM      6  C   UNL     1      -6.045  52.098  -7.364  1.00  0.00     0.000 C 
BRANCH   6   7
ATOM      7  C   UNL     1      -7.512  52.125  -7.830  1.00  0.00     0.006 C 
BRANCH   7   8
ATOM      8  C   UNL     1      -7.685  51.670  -9.284  1.00  0.00     0.053 C 
BRANCH   8   9
ATOM      9  C   UNL     1      -7.280  50.237  -9.434  1.00  0.00     0.041 C 
ATOM     10  O   UNL     1      -8.148  49.326  -9.392  1.00  0.00    -0.550 OA
ATOM     11  O   UNL     1      -5.938  49.905  -9.569  1.00  0.00    -0.550 OA
ENDBRANCH   8   9
ENDBRANCH   7   8
ENDBRANCH   6   7
ENDBRANCH   5   6
ENDBRANCH   4   5
ENDBRANCH   3   4
ENDBRANCH   2   3
ENDBRANCH   1   2
BRANCH   1  12
ATOM     12  C   UNL     1      -8.688  50.176  -1.602  1.00  0.00     0.000 C 
BRANCH  12  13
ATOM     13  C   UNL     1      -7.790  50.715  -0.476  1.00  0.00    -0.000 C 
BRANCH  13  14
ATOM     14  C   UNL     1      -6.297  50.476  -0.742  1.00  0.00    -0.000 C 
BRANCH  14  15
ATOM     15  C   UNL     1      -5.475  50.669   0.539  1.00  0.00    -0.000 C 
BRANCH  15  16
ATOM     16  C   UNL     1      -4.320  51.656   0.306  1.00  0.00    -0.000 C 
BRANCH  16  17
ATOM     17  C   UNL     1      -2.998  50.948  -0.031  1.00  0.00    -0.000 C 
BRANCH  17  18
ATOM     18  C   UNL     1      -1.798  51.911  -0.043  1.00  0.00    -0.000 C 
BRANCH  18  19
ATOM     19  C   UNL     1      -1.202  52.125   1.357  1.00  0.00    -0.003 C 
ATOM     20  C   UNL     1       0.326  52.073   1.361  1.00  0.00     0.004 C 
ENDBRANCH  18  19
ENDBRANCH  17  18
ENDBRANCH  16  17
ENDBRANCH  15  16
ENDBRANCH  14  15
ENDBRANCH  13  14
ENDBRANCH  12  13
ENDBRANCH   1  12
TORSDOF 16
ENDMDL
MODEL 5
REMARK VINA RESULT:     1.040      5.209      8.322
REMARK INTER + INTRA:           1.349
REMARK INTER:                   2.050
REMARK INTRA:                  -0.700
REMARK UNBOUND:                -0.663
REMARK SMILES CCCCCCCCCCCCCCCCCC(=O)[O-]
REMARK SMILES IDX 10 1 11 2 12 3 13 4 14 5 15 6 16 7 17 8 18 9 19 10 20 11
REMARK SMILES IDX 9 12 8 13 7 14 6 15 5 16 4 17 3 18 2 19 1 20
REMARK H PARENT
REMARK Flexibility Score: inf
ROOT
ATOM      1  C   UNL     1      -7.908  50.381  -2.798  1.00  0.00     0.000 C 
ENDROOT
BRANCH   1   2
ATOM      2  C   UNL     1      -8.294  49.136  -1.977  1.00  0.00     0.000 C 
BRANCH   2   3
ATOM      3  C   UNL     1      -7.150  48.516  -1.155  1.00  0.00     0.000 C 
BRANCH   3   4
ATOM      4  C   UNL     1      -7.182  46.978  -1.146  1.00  0.00     0.000 C 
BRANCH   4   5
ATOM      5  C   UNL     1      -7.239  46.376  -2.562  1.00  0.00     0.000 C 
BRANCH   5   6
ATOM      6  C   UNL     1      -6.813  44.897  -2.658  1.00  0.00     0.000 C 
BRANCH   6   7
ATOM      7  C   UNL     1      -5.938  44.392  -1.497  1.00  0.00     0.006 C 
BRANCH   7   8
ATOM      8  C   UNL     1      -5.157  43.119  -1.847  1.00  0.00     0.053 C 
BRANCH   8   9
ATOM      9  C   UNL     1      -3.851  43.091  -1.118  1.00  0.00     0.041 C 
ATOM     10  O   UNL     1      -2.911  43.849  -1.473  1.00  0.00    -0.550 OA
ATOM     11  O   UNL     1      -3.655  42.191  -0.078  1.00  0.00    -0.550 OA
ENDBRANCH   8   9
ENDBRANCH   7   8
ENDBRANCH   6   7
ENDBRANCH   5   6
ENDBRANCH   4   5
ENDBRANCH   3   4
ENDBRANCH   2   3
ENDBRANCH   1   2
BRANCH   1  12
ATOM     12  C   UNL     1      -8.741  50.535  -4.081  1.00  0.00     0.000 C 
BRANCH  12  13
ATOM     13  C   UNL     1      -8.646  51.949  -4.680  1.00  0.00    -0.000 C 
BRANCH  13  14
ATOM     14  C   UNL     1      -7.469  52.103  -5.654  1.00  0.00    -0.000 C 
BRANCH  14  15
ATOM     15  C   UNL     1      -7.796  51.469  -7.013  1.00  0.00    -0.000 C 
BRANCH  15  16
ATOM     16  C   UNL     1      -6.973  52.121  -8.134  1.00  0.00    -0.000 C 
BRANCH  16  17
ATOM     17  C   UNL     1      -6.040  51.122  -8.838  1.00  0.00    -0.000 C 
BRANCH  17  18
ATOM     18  C   UNL     1      -4.860  51.812  -9.544  1.00  0.00    -0.000 C 
BRANCH  18  19
ATOM     19  C   UNL     1      -3.702  52.125  -8.585  1.00  0.00    -0.003 C 
ATOM     20  C   UNL     1      -3.766  51.306  -7.296  1.00  0.00     0.004 C 
ENDBRANCH  18  19
ENDBRANCH  17  18
ENDBRANCH  16  17
ENDBRANCH  15  16
ENDBRANCH  14  15
ENDBRANCH  13  14
ENDBRANCH  12  13
ENDBRANCH   1  12
TORSDOF 16
ENDMDL
MODEL 6
REMARK VINA RESULT:     1.250      4.387      4.954
REMARK INTER + INTRA:           1.756
REMARK INTER:                   2.209
REMARK INTRA:                  -0.453
REMARK UNBOUND:                -0.663
REMARK SMILES CCCCCCCCCCCCCCCCCC(=O)[O-]
REMARK SMILES IDX 10 1 11 2 12 3 13 4 14 5 15 6 16 7 17 8 18 9 19 10 20 11
REMARK SMILES IDX 9 12 8 13 7 14 6 15 5 16 4 17 3 18 2 19 1 20
REMARK H PARENT
REMARK Flexibility Score: inf
ROOT
ATOM      1  C   UNL     1      -8.802  50.833  -1.990  1.00  0.00     0.000 C 
ENDROOT
BRANCH   1   2
ATOM      2  C   UNL     1      -8.104  51.633  -3.106  1.00  0.00     0.000 C 
BRANCH   2   3
ATOM      3  C   UNL     1      -8.444  51.186  -4.539  1.00  0.00     0.000 C 
BRANCH   3   4
ATOM      4  C   UNL     1      -7.837  52.104  -5.614  1.00  0.00     0.000 C 
BRANCH   4   5
ATOM      5  C   UNL     1      -7.667  51.400  -6.972  1.00  0.00     0.000 C 
BRANCH   5   6
ATOM      6  C   UNL     1      -6.739  52.124  -7.969  1.00  0.00     0.000 C 
BRANCH   6   7
ATOM      7  C   UNL     1      -5.932  51.202  -8.899  1.00  0.00     0.006 C 
BRANCH   7   8
ATOM      8  C   UNL     1      -4.555  51.773  -9.259  1.00  0.00     0.053 C 
BRANCH   8   9
ATOM      9  C   UNL     1      -3.545  51.392  -8.223  1.00  0.00     0.041 C 
ATOM     10  O   UNL     1      -3.912  50.828  -7.158  1.00  0.00    -0.550 OA
ATOM     11  O   UNL     1      -2.205  51.704  -8.410  1.00  0.00    -0.550 OA
ENDBRANCH   8   9
ENDBRANCH   7   8
ENDBRANCH   6   7
ENDBRANCH   5   6
ENDBRANCH   4   5
ENDBRANCH   3   4
ENDBRANCH   2   3
ENDBRANCH   1   2
BRANCH   1  12
ATOM     12  C   UNL     1      -7.830  49.949  -1.189  1.00  0.00     0.000 C 
BRANCH  12  13
ATOM     13  C   UNL     1      -8.219  48.462  -1.227  1.00  0.00    -0.000 C 
BRANCH  13  14
ATOM     14  C   UNL     1      -7.008  47.528  -1.079  1.00  0.00    -0.000 C 
BRANCH  14  15
ATOM     15  C   UNL     1      -7.091  46.362  -2.072  1.00  0.00    -0.000 C 
BRANCH  15  16
ATOM     16  C   UNL     1      -6.021  45.303  -1.766  1.00  0.00    -0.000 C 
BRANCH  16  17
ATOM     17  C   UNL     1      -6.514  43.871  -2.031  1.00  0.00    -0.000 C 
BRANCH  17  18
ATOM     18  C   UNL     1      -5.362  42.855  -2.111  1.00  0.00    -0.000 C 
BRANCH  18  19
ATOM     19  C   UNL     1      -4.174  43.240  -1.215  1.00  0.00    -0.003 C 
ATOM     20  C   UNL     1      -3.899  42.207  -0.124  1.00  0.00     0.004 C 
ENDBRANCH  18  19
ENDBRANCH  17  18
ENDBRANCH  16  17
ENDBRANCH  15  16
ENDBRANCH  14  15
ENDBRANCH  13  14
ENDBRANCH  12  13
ENDBRANCH   1  12
TORSDOF 16
ENDMDL
