MODEL 1
REMARK VINA RESULT:    -6.526      0.000      0.000
REMARK INTER + INTRA:          -9.973
REMARK INTER:                  -9.579
REMARK INTRA:                  -0.395
REMARK UNBOUND:                -0.395
REMARK SMILES O=c1c(O[C@H]2O[C@H](CO)[C@@H](O)[C@@H](O)[C@H]2O)c(-c2ccc(O)c(O)c2)oc2cc(O)cc(O)c12
REMARK SMILES IDX 4 1 3 2 16 3 25 4 2 5 26 6 1 7 33 8 27 9 31 10 28 11 30 12
REMARK SMILES IDX 17 13 18 14 19 15 20 16 24 17 22 18 21 19 23 21 32 23 29 25
REMARK SMILES IDX 5 27 14 28 6 29 12 30 7 31 10 32 15 33 13 35 8 37 9 38 11 40
REMARK H PARENT 21 20 23 22 32 24 29 26 15 34 13 36 9 39 11 41
REMARK Flexibility Score: inf
ROOT
ATOM      1  O   UNL     1     -11.812  10.976   4.984  1.00  0.00    -0.454 OA
ENDROOT
BRANCH   1   2
ATOM      2  C   UNL     1     -11.514   9.627   5.265  1.00  0.00     0.214 A 
ATOM      3  C   UNL     1     -10.186   9.204   5.328  1.00  0.00     0.180 A 
ATOM      4  O   UNL     1      -9.889   7.920   5.190  1.00  0.00    -0.452 OA
ATOM      5  C   UNL     1     -12.518   8.663   5.481  1.00  0.00     0.239 A 
ATOM      6  C   UNL     1     -10.821   6.961   5.252  1.00  0.00     0.146 A 
ATOM      7  O   UNL     1     -13.721   9.022   5.633  1.00  0.00    -0.285 OA
ATOM      8  C   UNL     1     -12.168   7.293   5.520  1.00  0.00     0.111 A 
ATOM      9  C   UNL     1     -10.437   5.622   5.126  1.00  0.00     0.094 A 
ATOM     10  C   UNL     1     -13.095   6.249   5.790  1.00  0.00     0.134 A 
ATOM     11  C   UNL     1     -11.356   4.589   5.315  1.00  0.00     0.123 A 
ATOM     12  C   UNL     1     -12.671   4.906   5.687  1.00  0.00     0.093 A 
BRANCH   3  13
ATOM     13  C   UNL     1      -9.121  10.100   5.836  1.00  0.00     0.025 A 
ATOM     14  C   UNL     1      -9.433  10.950   6.921  1.00  0.00     0.016 A 
ATOM     15  C   UNL     1      -8.418  11.480   7.717  1.00  0.00     0.051 A 
ATOM     16  C   UNL     1      -7.075  11.190   7.456  1.00  0.00     0.157 A 
ATOM     17  C   UNL     1      -7.765   9.839   5.553  1.00  0.00     0.062 A 
ATOM     18  C   UNL     1      -6.740  10.380   6.367  1.00  0.00     0.158 A 
BRANCH  16  19
ATOM     19  O   UNL     1      -6.063  11.693   8.280  1.00  0.00    -0.504 OA
ATOM     20  H   UNL     1      -6.173  12.549   8.833  1.00  0.00     0.293 HD
ENDBRANCH  16  19
BRANCH  18  21
ATOM     21  O   UNL     1      -5.402  10.042   6.120  1.00  0.00    -0.504 OA
ATOM     22  H   UNL     1      -5.125   9.362   5.407  1.00  0.00     0.293 HD
ENDBRANCH  18  21
ENDBRANCH   3  13
BRANCH  10  23
ATOM     23  O   UNL     1     -14.414   6.530   6.166  1.00  0.00    -0.507 OA
ATOM     24  H   UNL     1     -14.987   5.865   6.668  1.00  0.00     0.293 HD
ENDBRANCH  10  23
BRANCH  11  25
ATOM     25  O   UNL     1     -10.971   3.259   5.152  1.00  0.00    -0.508 OA
ATOM     26  H   UNL     1     -11.559   2.485   5.421  1.00  0.00     0.293 HD
ENDBRANCH  11  25
ENDBRANCH   1   2
BRANCH   1  27
ATOM     27  C   UNL     1     -12.541  11.354   3.810  1.00  0.00     0.339 C 
ATOM     28  C   UNL     1     -13.686  12.329   4.194  1.00  0.00     0.214 C 
ATOM     29  O   UNL     1     -12.996  10.174   3.180  1.00  0.00    -0.332 OA
ATOM     30  C   UNL     1     -14.687  12.586   3.037  1.00  0.00     0.180 C 
ATOM     31  C   UNL     1     -13.695  10.440   1.983  1.00  0.00     0.179 C 
ATOM     32  C   UNL     1     -14.968  11.301   2.219  1.00  0.00     0.177 C 
BRANCH  28  33
ATOM     33  O   UNL     1     -14.375  11.807   5.310  1.00  0.00    -0.384 OA
ATOM     34  H   UNL     1     -13.689  11.631   6.009  1.00  0.00     0.211 HD
ENDBRANCH  28  33
BRANCH  30  35
ATOM     35  O   UNL     1     -15.873  13.122   3.539  1.00  0.00    -0.387 OA
ATOM     36  H   UNL     1     -15.906  14.076   3.259  1.00  0.00     0.211 HD
ENDBRANCH  30  35
BRANCH  31  37
ATOM     37  C   UNL     1     -12.788  10.902   0.812  1.00  0.00     0.191 C 
BRANCH  37  38
ATOM     38  O   UNL     1     -11.639  10.095   0.679  1.00  0.00    -0.394 OA
ATOM     39  H   UNL     1     -11.871   9.328   0.087  1.00  0.00     0.210 HD
ENDBRANCH  37  38
ENDBRANCH  31  37
BRANCH  32  40
ATOM     40  O   UNL     1     -15.923  10.503   2.892  1.00  0.00    -0.387 OA
ATOM     41  H   UNL     1     -16.382  11.079   3.569  1.00  0.00     0.211 HD
ENDBRANCH  32  40
ENDBRANCH   1  27
TORSDOF 12
ENDMDL
MODEL 2
REMARK VINA RESULT:    -6.253      1.708      2.734
REMARK INTER + INTRA:          -9.572
REMARK INTER:                  -8.203
REMARK INTRA:                  -1.370
REMARK UNBOUND:                -0.395
REMARK SMILES O=c1c(O[C@H]2O[C@H](CO)[C@@H](O)[C@@H](O)[C@H]2O)c(-c2ccc(O)c(O)c2)oc2cc(O)cc(O)c12
REMARK SMILES IDX 4 1 3 2 16 3 25 4 2 5 26 6 1 7 33 8 27 9 31 10 28 11 30 12
REMARK SMILES IDX 17 13 18 14 19 15 20 16 24 17 22 18 21 19 23 21 32 23 29 25
REMARK SMILES IDX 5 27 14 28 6 29 12 30 7 31 10 32 15 33 13 35 8 37 9 38 11 40
REMARK H PARENT 21 20 23 22 32 24 29 26 15 34 13 36 9 39 11 41
REMARK Flexibility Score: inf
ROOT
ATOM      1  O   UNL     1     -11.757   8.872   5.947  1.00  0.00    -0.454 OA
ENDROOT
BRANCH   1   2
ATOM      2  C   UNL     1     -11.328   7.550   5.716  1.00  0.00     0.214 A 
ATOM      3  C   UNL     1     -10.045   7.309   5.219  1.00  0.00     0.180 A 
ATOM      4  O   UNL     1      -9.766   6.157   4.629  1.00  0.00    -0.452 OA
ATOM      5  C   UNL     1     -12.154   6.436   5.959  1.00  0.00     0.239 A 
ATOM      6  C   UNL     1     -10.579   5.096   4.713  1.00  0.00     0.146 A 
ATOM      7  O   UNL     1     -13.241   6.577   6.590  1.00  0.00    -0.285 OA
ATOM      8  C   UNL     1     -11.759   5.163   5.487  1.00  0.00     0.111 A 
ATOM      9  C   UNL     1     -10.212   3.899   4.089  1.00  0.00     0.094 A 
ATOM     10  C   UNL     1     -12.492   3.968   5.731  1.00  0.00     0.134 A 
ATOM     11  C   UNL     1     -10.966   2.738   4.261  1.00  0.00     0.123 A 
ATOM     12  C   UNL     1     -12.078   2.767   5.114  1.00  0.00     0.093 A 
BRANCH   3  13
ATOM     13  C   UNL     1      -8.906   8.181   5.589  1.00  0.00     0.025 A 
ATOM     14  C   UNL     1      -8.224   8.856   4.551  1.00  0.00     0.016 A 
ATOM     15  C   UNL     1      -7.462   9.990   4.828  1.00  0.00     0.051 A 
ATOM     16  C   UNL     1      -7.350  10.480   6.134  1.00  0.00     0.157 A 
ATOM     17  C   UNL     1      -8.762   8.656   6.909  1.00  0.00     0.062 A 
ATOM     18  C   UNL     1      -7.987   9.810   7.181  1.00  0.00     0.158 A 
BRANCH  16  19
ATOM     19  O   UNL     1      -6.616  11.640   6.400  1.00  0.00    -0.504 OA
ATOM     20  H   UNL     1      -6.653  12.469   5.800  1.00  0.00     0.293 HD
ENDBRANCH  16  19
BRANCH  18  21
ATOM     21  O   UNL     1      -7.923  10.313   8.488  1.00  0.00    -0.504 OA
ATOM     22  H   UNL     1      -8.723  10.750   8.954  1.00  0.00     0.293 HD
ENDBRANCH  18  21
ENDBRANCH   3  13
BRANCH  10  23
ATOM     23  O   UNL     1     -13.606   3.961   6.578  1.00  0.00    -0.507 OA
ATOM     24  H   UNL     1     -14.500   3.586   6.293  1.00  0.00     0.293 HD
ENDBRANCH  10  23
BRANCH  11  25
ATOM     25  O   UNL     1     -10.610   1.559   3.607  1.00  0.00    -0.508 OA
ATOM     26  H   UNL     1     -10.357   0.717   4.101  1.00  0.00     0.293 HD
ENDBRANCH  11  25
ENDBRANCH   1   2
BRANCH   1  27
ATOM     27  C   UNL     1     -12.204   9.714   4.876  1.00  0.00     0.339 C 
ATOM     28  C   UNL     1     -11.183  10.860   4.648  1.00  0.00     0.214 C 
ATOM     29  O   UNL     1     -13.502  10.173   5.197  1.00  0.00    -0.332 OA
ATOM     30  C   UNL     1     -11.705  11.965   3.692  1.00  0.00     0.180 C 
ATOM     31  C   UNL     1     -14.050  10.982   4.178  1.00  0.00     0.179 C 
ATOM     32  C   UNL     1     -13.209  12.263   3.921  1.00  0.00     0.177 C 
BRANCH  28  33
ATOM     33  O   UNL     1     -10.848  11.429   5.894  1.00  0.00    -0.384 OA
ATOM     34  H   UNL     1     -11.447  11.007   6.568  1.00  0.00     0.211 HD
ENDBRANCH  28  33
BRANCH  30  35
ATOM     35  O   UNL     1     -10.943  13.124   3.839  1.00  0.00    -0.387 OA
ATOM     36  H   UNL     1     -11.571  13.896   3.791  1.00  0.00     0.211 HD
ENDBRANCH  30  35
BRANCH  31  37
ATOM     37  C   UNL     1     -14.472  10.197   2.908  1.00  0.00     0.191 C 
BRANCH  37  38
ATOM     38  O   UNL     1     -15.775   9.671   3.016  1.00  0.00    -0.394 OA
ATOM     39  H   UNL     1     -16.353  10.146   2.358  1.00  0.00     0.210 HD
ENDBRANCH  37  38
ENDBRANCH  31  37
BRANCH  32  40
ATOM     40  O   UNL     1     -13.363  13.125   5.032  1.00  0.00    -0.387 OA
ATOM     41  H   UNL     1     -12.561  13.015   5.619  1.00  0.00     0.211 HD
ENDBRANCH  32  40
ENDBRANCH   1  27
TORSDOF 12
ENDMDL
MODEL 3
REMARK VINA RESULT:    -5.947      1.064      2.213
REMARK INTER + INTRA:          -9.124
REMARK INTER:                  -9.245
REMARK INTRA:                   0.121
REMARK UNBOUND:                -0.395
REMARK SMILES O=c1c(O[C@H]2O[C@H](CO)[C@@H](O)[C@@H](O)[C@H]2O)c(-c2ccc(O)c(O)c2)oc2cc(O)cc(O)c12
REMARK SMILES IDX 4 1 3 2 16 3 25 4 2 5 26 6 1 7 33 8 27 9 31 10 28 11 30 12
REMARK SMILES IDX 17 13 18 14 19 15 20 16 24 17 22 18 21 19 23 21 32 23 29 25
REMARK SMILES IDX 5 27 14 28 6 29 12 30 7 31 10 32 15 33 13 35 8 37 9 38 11 40
REMARK H PARENT 21 20 23 22 32 24 29 26 15 34 13 36 9 39 11 41
REMARK Flexibility Score: inf
ROOT
ATOM      1  O   UNL     1     -11.602  10.139   4.259  1.00  0.00    -0.454 OA
ENDROOT
BRANCH   1   2
ATOM      2  C   UNL     1     -11.320   8.946   4.954  1.00  0.00     0.214 A 
ATOM      3  C   UNL     1     -10.008   8.649   5.328  1.00  0.00     0.180 A 
ATOM      4  O   UNL     1      -9.663   7.401   5.607  1.00  0.00    -0.452 OA
ATOM      5  C   UNL     1     -12.322   8.015   5.289  1.00  0.00     0.239 A 
ATOM      6  C   UNL     1     -10.569   6.436   5.806  1.00  0.00     0.146 A 
ATOM      7  O   UNL     1     -13.542   8.319   5.157  1.00  0.00    -0.285 OA
ATOM      8  C   UNL     1     -11.949   6.738   5.769  1.00  0.00     0.111 A 
ATOM      9  C   UNL     1     -10.138   5.144   6.125  1.00  0.00     0.094 A 
ATOM     10  C   UNL     1     -12.882   5.749   6.190  1.00  0.00     0.134 A 
ATOM     11  C   UNL     1     -11.051   4.146   6.466  1.00  0.00     0.123 A 
ATOM     12  C   UNL     1     -12.415   4.464   6.538  1.00  0.00     0.093 A 
BRANCH   3  13
ATOM     13  C   UNL     1      -9.060   9.722   5.706  1.00  0.00     0.025 A 
ATOM     14  C   UNL     1      -9.493  10.690   6.640  1.00  0.00     0.016 A 
ATOM     15  C   UNL     1      -8.564  11.442   7.360  1.00  0.00     0.051 A 
ATOM     16  C   UNL     1      -7.191  11.261   7.169  1.00  0.00     0.157 A 
ATOM     17  C   UNL     1      -7.675   9.568   5.490  1.00  0.00     0.062 A 
ATOM     18  C   UNL     1      -6.739  10.334   6.226  1.00  0.00     0.158 A 
BRANCH  16  19
ATOM     19  O   UNL     1      -6.264  11.990   7.921  1.00  0.00    -0.504 OA
ATOM     20  H   UNL     1      -5.702  11.570   8.667  1.00  0.00     0.293 HD
ENDBRANCH  16  19
BRANCH  18  21
ATOM     21  O   UNL     1      -5.366  10.107   6.056  1.00  0.00    -0.504 OA
ATOM     22  H   UNL     1      -4.852  10.412   5.225  1.00  0.00     0.293 HD
ENDBRANCH  18  21
ENDBRANCH   3  13
BRANCH  10  23
ATOM     23  O   UNL     1     -14.251   6.033   6.274  1.00  0.00    -0.507 OA
ATOM     24  H   UNL     1     -14.959   5.364   6.008  1.00  0.00     0.293 HD
ENDBRANCH  10  23
BRANCH  11  25
ATOM     25  O   UNL     1     -10.613   2.852   6.749  1.00  0.00    -0.508 OA
ATOM     26  H   UNL     1      -9.741   2.484   6.401  1.00  0.00     0.293 HD
ENDBRANCH  11  25
ENDBRANCH   1   2
BRANCH   1  27
ATOM     27  C   UNL     1     -12.939  10.643   4.143  1.00  0.00     0.339 C 
ATOM     28  C   UNL     1     -13.562  10.172   2.802  1.00  0.00     0.214 C 
ATOM     29  O   UNL     1     -12.888  12.048   4.277  1.00  0.00    -0.332 OA
ATOM     30  C   UNL     1     -14.903  10.878   2.469  1.00  0.00     0.180 C 
ATOM     31  C   UNL     1     -14.169  12.639   4.218  1.00  0.00     0.179 C 
ATOM     32  C   UNL     1     -14.881  12.377   2.862  1.00  0.00     0.177 C 
BRANCH  28  33
ATOM     33  O   UNL     1     -12.635  10.399   1.763  1.00  0.00    -0.384 OA
ATOM     34  H   UNL     1     -11.732  10.260   2.155  1.00  0.00     0.211 HD
ENDBRANCH  28  33
BRANCH  30  35
ATOM     35  O   UNL     1     -15.200  10.726   1.114  1.00  0.00    -0.387 OA
ATOM     36  H   UNL     1     -14.671  11.409   0.619  1.00  0.00     0.211 HD
ENDBRANCH  30  35
BRANCH  31  37
ATOM     37  C   UNL     1     -15.035  12.393   5.482  1.00  0.00     0.191 C 
BRANCH  37  38
ATOM     38  O   UNL     1     -14.444  12.931   6.644  1.00  0.00    -0.394 OA
ATOM     39  H   UNL     1     -15.143  13.449   7.130  1.00  0.00     0.210 HD
ENDBRANCH  37  38
ENDBRANCH  31  37
BRANCH  32  40
ATOM     40  O   UNL     1     -14.217  13.125   1.862  1.00  0.00    -0.387 OA
ATOM     41  H   UNL     1     -14.893  13.383   1.171  1.00  0.00     0.211 HD
ENDBRANCH  32  40
ENDBRANCH   1  27
TORSDOF 12
ENDMDL
MODEL 4
REMARK VINA RESULT:    -5.911      1.729      5.971
REMARK INTER + INTRA:          -9.070
REMARK INTER:                  -8.077
REMARK INTRA:                  -0.993
REMARK UNBOUND:                -0.395
REMARK SMILES O=c1c(O[C@H]2O[C@H](CO)[C@@H](O)[C@@H](O)[C@H]2O)c(-c2ccc(O)c(O)c2)oc2cc(O)cc(O)c12
REMARK SMILES IDX 4 1 3 2 16 3 25 4 2 5 26 6 1 7 33 8 27 9 31 10 28 11 30 12
REMARK SMILES IDX 17 13 18 14 19 15 20 16 24 17 22 18 21 19 23 21 32 23 29 25
REMARK SMILES IDX 5 27 14 28 6 29 12 30 7 31 10 32 15 33 13 35 8 37 9 38 11 40
REMARK H PARENT 21 20 23 22 32 24 29 26 15 34 13 36 9 39 11 41
REMARK Flexibility Score: inf
ROOT
ATOM      1  O   UNL     1     -11.246   9.463   5.225  1.00  0.00    -0.454 OA
ENDROOT
BRANCH   1   2
ATOM      2  C   UNL     1     -11.810   8.175   5.332  1.00  0.00     0.214 A 
ATOM      3  C   UNL     1     -13.185   8.030   5.527  1.00  0.00     0.180 A 
ATOM      4  O   UNL     1     -13.671   6.901   6.020  1.00  0.00    -0.452 OA
ATOM      5  C   UNL     1     -11.033   7.003   5.259  1.00  0.00     0.239 A 
ATOM      6  C   UNL     1     -12.939   5.783   6.101  1.00  0.00     0.146 A 
ATOM      7  O   UNL     1      -9.826   7.064   4.886  1.00  0.00    -0.285 OA
ATOM      8  C   UNL     1     -11.614   5.763   5.609  1.00  0.00     0.111 A 
ATOM      9  C   UNL     1     -13.521   4.616   6.606  1.00  0.00     0.094 A 
ATOM     10  C   UNL     1     -10.934   4.517   5.512  1.00  0.00     0.134 A 
ATOM     11  C   UNL     1     -12.833   3.402   6.585  1.00  0.00     0.123 A 
ATOM     12  C   UNL     1     -11.560   3.349   6.000  1.00  0.00     0.093 A 
BRANCH   3  13
ATOM     13  C   UNL     1     -14.147   8.985   4.930  1.00  0.00     0.025 A 
ATOM     14  C   UNL     1     -14.567  10.081   5.716  1.00  0.00     0.016 A 
ATOM     15  C   UNL     1     -15.099  11.220   5.112  1.00  0.00     0.051 A 
ATOM     16  C   UNL     1     -15.234  11.300   3.722  1.00  0.00     0.157 A 
ATOM     17  C   UNL     1     -14.318   9.054   3.532  1.00  0.00     0.062 A 
ATOM     18  C   UNL     1     -14.857  10.216   2.927  1.00  0.00     0.158 A 
BRANCH  16  19
ATOM     19  O   UNL     1     -15.732  12.460   3.120  1.00  0.00    -0.504 OA
ATOM     20  H   UNL     1     -15.124  13.188   2.731  1.00  0.00     0.293 HD
ENDBRANCH  16  19
BRANCH  18  21
ATOM     21  O   UNL     1     -14.942  10.297   1.530  1.00  0.00    -0.504 OA
ATOM     22  H   UNL     1     -15.497  11.010   1.049  1.00  0.00     0.293 HD
ENDBRANCH  18  21
ENDBRANCH   3  13
BRANCH  10  23
ATOM     23  O   UNL     1      -9.662   4.428   4.933  1.00  0.00    -0.507 OA
ATOM     24  H   UNL     1      -9.497   4.634   3.957  1.00  0.00     0.293 HD
ENDBRANCH  10  23
BRANCH  11  25
ATOM     25  O   UNL     1     -13.410   2.252   7.123  1.00  0.00    -0.508 OA
ATOM     26  H   UNL     1     -13.525   1.401   6.594  1.00  0.00     0.293 HD
ENDBRANCH  11  25
ENDBRANCH   1   2
BRANCH   1  27
ATOM     27  C   UNL     1     -10.111   9.851   6.009  1.00  0.00     0.339 C 
ATOM     28  C   UNL     1     -10.570  10.749   7.189  1.00  0.00     0.214 C 
ATOM     29  O   UNL     1      -9.185  10.484   5.150  1.00  0.00    -0.332 OA
ATOM     30  C   UNL     1      -9.393  11.430   7.936  1.00  0.00     0.180 C 
ATOM     31  C   UNL     1      -8.005  10.870   5.824  1.00  0.00     0.179 C 
ATOM     32  C   UNL     1      -8.281  11.892   6.962  1.00  0.00     0.177 C 
BRANCH  28  33
ATOM     33  O   UNL     1     -11.454  11.733   6.698  1.00  0.00    -0.384 OA
ATOM     34  H   UNL     1     -11.313  11.773   5.714  1.00  0.00     0.211 HD
ENDBRANCH  28  33
BRANCH  30  35
ATOM     35  O   UNL     1      -9.863  12.502   8.695  1.00  0.00    -0.387 OA
ATOM     36  H   UNL     1      -9.675  12.291   9.649  1.00  0.00     0.211 HD
ENDBRANCH  30  35
BRANCH  31  37
ATOM     37  C   UNL     1      -7.080   9.684   6.205  1.00  0.00     0.191 C 
BRANCH  37  38
ATOM     38  O   UNL     1      -5.732  10.079   6.328  1.00  0.00    -0.394 OA
ATOM     39  H   UNL     1      -5.627  10.956   5.865  1.00  0.00     0.210 HD
ENDBRANCH  37  38
ENDBRANCH  31  37
BRANCH  32  40
ATOM     40  O   UNL     1      -8.643  13.125   6.370  1.00  0.00    -0.387 OA
ATOM     41  H   UNL     1      -9.501  13.425   6.788  1.00  0.00     0.211 HD
ENDBRANCH  32  40
ENDBRANCH   1  27
TORSDOF 12
ENDMDL
MODEL 5
REMARK VINA RESULT:    -5.567      1.911      6.194
REMARK INTER + INTRA:          -8.566
REMARK INTER:                  -8.143
REMARK INTRA:                  -0.422
REMARK UNBOUND:                -0.395
REMARK SMILES O=c1c(O[C@H]2O[C@H](CO)[C@@H](O)[C@@H](O)[C@H]2O)c(-c2ccc(O)c(O)c2)oc2cc(O)cc(O)c12
REMARK SMILES IDX 4 1 3 2 16 3 25 4 2 5 26 6 1 7 33 8 27 9 31 10 28 11 30 12
REMARK SMILES IDX 17 13 18 14 19 15 20 16 24 17 22 18 21 19 23 21 32 23 29 25
REMARK SMILES IDX 5 27 14 28 6 29 12 30 7 31 10 32 15 33 13 35 8 37 9 38 11 40
REMARK H PARENT 21 20 23 22 32 24 29 26 15 34 13 36 9 39 11 41
REMARK Flexibility Score: inf
ROOT
ATOM      1  O   UNL     1     -12.072   7.399   6.723  1.00  0.00    -0.454 OA
ENDROOT
BRANCH   1   2
ATOM      2  C   UNL     1     -12.577   8.454   5.937  1.00  0.00     0.214 A 
ATOM      3  C   UNL     1     -11.896   9.672   5.883  1.00  0.00     0.180 A 
ATOM      4  O   UNL     1     -12.529  10.771   5.500  1.00  0.00    -0.452 OA
ATOM      5  C   UNL     1     -13.768   8.338   5.195  1.00  0.00     0.239 A 
ATOM      6  C   UNL     1     -13.728  10.735   4.907  1.00  0.00     0.146 A 
ATOM      7  O   UNL     1     -14.316   7.208   5.046  1.00  0.00    -0.285 OA
ATOM      8  C   UNL     1     -14.345   9.496   4.624  1.00  0.00     0.111 A 
ATOM      9  C   UNL     1     -14.330  11.931   4.501  1.00  0.00     0.094 A 
ATOM     10  C   UNL     1     -15.512   9.476   3.809  1.00  0.00     0.134 A 
ATOM     11  C   UNL     1     -15.515  11.926   3.765  1.00  0.00     0.123 A 
ATOM     12  C   UNL     1     -16.078  10.698   3.387  1.00  0.00     0.093 A 
BRANCH   3  13
ATOM     13  C   UNL     1     -10.418   9.725   5.958  1.00  0.00     0.025 A 
ATOM     14  C   UNL     1      -9.679   9.039   4.968  1.00  0.00     0.016 A 
ATOM     15  C   UNL     1      -8.353   9.385   4.710  1.00  0.00     0.051 A 
ATOM     16  C   UNL     1      -7.725  10.409   5.427  1.00  0.00     0.157 A 
ATOM     17  C   UNL     1      -9.771  10.731   6.705  1.00  0.00     0.062 A 
ATOM     18  C   UNL     1      -8.424  11.078   6.435  1.00  0.00     0.158 A 
BRANCH  16  19
ATOM     19  O   UNL     1      -6.407  10.777   5.139  1.00  0.00    -0.504 OA
ATOM     20  H   UNL     1      -5.660  10.092   4.989  1.00  0.00     0.293 HD
ENDBRANCH  16  19
BRANCH  18  21
ATOM     21  O   UNL     1      -7.825  12.137   7.131  1.00  0.00    -0.504 OA
ATOM     22  H   UNL     1      -7.482  12.982   6.667  1.00  0.00     0.293 HD
ENDBRANCH  18  21
ENDBRANCH   3  13
BRANCH  10  23
ATOM     23  O   UNL     1     -16.098   8.269   3.411  1.00  0.00    -0.507 OA
ATOM     24  H   UNL     1     -15.673   7.662   2.724  1.00  0.00     0.293 HD
ENDBRANCH  10  23
BRANCH  11  25
ATOM     25  O   UNL     1     -16.125  13.124   3.396  1.00  0.00    -0.508 OA
ATOM     26  H   UNL     1     -15.616  13.890   2.981  1.00  0.00     0.293 HD
ENDBRANCH  11  25
ENDBRANCH   1   2
BRANCH   1  27
ATOM     27  C   UNL     1     -12.436   6.036   6.472  1.00  0.00     0.339 C 
ATOM     28  C   UNL     1     -12.420   5.235   7.801  1.00  0.00     0.214 C 
ATOM     29  O   UNL     1     -11.553   5.522   5.496  1.00  0.00    -0.332 OA
ATOM     30  C   UNL     1     -12.545   3.702   7.595  1.00  0.00     0.180 C 
ATOM     31  C   UNL     1     -11.858   4.188   5.147  1.00  0.00     0.179 C 
ATOM     32  C   UNL     1     -11.748   3.219   6.357  1.00  0.00     0.177 C 
BRANCH  28  33
ATOM     33  O   UNL     1     -11.227   5.525   8.495  1.00  0.00    -0.384 OA
ATOM     34  H   UNL     1     -11.199   6.513   8.608  1.00  0.00     0.211 HD
ENDBRANCH  28  33
BRANCH  30  35
ATOM     35  O   UNL     1     -12.129   3.029   8.744  1.00  0.00    -0.387 OA
ATOM     36  H   UNL     1     -11.721   2.170   8.450  1.00  0.00     0.211 HD
ENDBRANCH  30  35
BRANCH  31  37
ATOM     37  C   UNL     1     -13.142   4.038   4.290  1.00  0.00     0.191 C 
BRANCH  37  38
ATOM     38  O   UNL     1     -12.861   3.585   2.985  1.00  0.00    -0.394 OA
ATOM     39  H   UNL     1     -12.223   2.823   3.056  1.00  0.00     0.210 HD
ENDBRANCH  37  38
ENDBRANCH  31  37
BRANCH  32  40
ATOM     40  O   UNL     1     -10.380   3.082   6.691  1.00  0.00    -0.387 OA
ATOM     41  H   UNL     1     -10.272   3.330   7.654  1.00  0.00     0.211 HD
ENDBRANCH  32  40
ENDBRANCH   1  27
TORSDOF 12
ENDMDL
MODEL 6
REMARK VINA RESULT:    -5.508      2.274      6.128
REMARK INTER + INTRA:          -8.479
REMARK INTER:                  -9.120
REMARK INTRA:                   0.641
REMARK UNBOUND:                -0.395
REMARK SMILES O=c1c(O[C@H]2O[C@H](CO)[C@@H](O)[C@@H](O)[C@H]2O)c(-c2ccc(O)c(O)c2)oc2cc(O)cc(O)c12
REMARK SMILES IDX 4 1 3 2 16 3 25 4 2 5 26 6 1 7 33 8 27 9 31 10 28 11 30 12
REMARK SMILES IDX 17 13 18 14 19 15 20 16 24 17 22 18 21 19 23 21 32 23 29 25
REMARK SMILES IDX 5 27 14 28 6 29 12 30 7 31 10 32 15 33 13 35 8 37 9 38 11 40
REMARK H PARENT 21 20 23 22 32 24 29 26 15 34 13 36 9 39 11 41
REMARK Flexibility Score: inf
ROOT
ATOM      1  O   UNL     1     -12.556   7.450   5.798  1.00  0.00    -0.454 OA
ENDROOT
BRANCH   1   2
ATOM      2  C   UNL     1     -11.185   7.767   5.711  1.00  0.00     0.214 A 
ATOM      3  C   UNL     1     -10.227   6.828   6.095  1.00  0.00     0.180 A 
ATOM      4  O   UNL     1      -8.998   7.219   6.401  1.00  0.00    -0.452 OA
ATOM      5  C   UNL     1     -10.728   9.018   5.252  1.00  0.00     0.239 A 
ATOM      6  C   UNL     1      -8.545   8.445   6.110  1.00  0.00     0.146 A 
ATOM      7  O   UNL     1     -11.533   9.827   4.707  1.00  0.00    -0.285 OA
ATOM      8  C   UNL     1      -9.365   9.360   5.413  1.00  0.00     0.111 A 
ATOM      9  C   UNL     1      -7.228   8.785   6.436  1.00  0.00     0.094 A 
ATOM     10  C   UNL     1      -8.793  10.571   4.932  1.00  0.00     0.134 A 
ATOM     11  C   UNL     1      -6.680  10.004   6.034  1.00  0.00     0.123 A 
ATOM     12  C   UNL     1      -7.451  10.872   5.248  1.00  0.00     0.093 A 
BRANCH   3  13
ATOM     13  C   UNL     1     -10.451   5.378   5.892  1.00  0.00     0.025 A 
ATOM     14  C   UNL     1     -10.640   4.570   7.035  1.00  0.00     0.016 A 
ATOM     15  C   UNL     1     -11.272   3.332   6.928  1.00  0.00     0.051 A 
ATOM     16  C   UNL     1     -11.724   2.861   5.691  1.00  0.00     0.157 A 
ATOM     17  C   UNL     1     -10.875   4.884   4.641  1.00  0.00     0.062 A 
ATOM     18  C   UNL     1     -11.518   3.626   4.541  1.00  0.00     0.158 A 
BRANCH  16  19
ATOM     19  O   UNL     1     -12.391   1.635   5.595  1.00  0.00    -0.504 OA
ATOM     20  H   UNL     1     -12.361   0.928   6.336  1.00  0.00     0.293 HD
ENDBRANCH  16  19
BRANCH  18  21
ATOM     21  O   UNL     1     -12.006   3.190   3.301  1.00  0.00    -0.504 OA
ATOM     22  H   UNL     1     -11.416   3.115   2.468  1.00  0.00     0.293 HD
ENDBRANCH  18  21
ENDBRANCH   3  13
BRANCH  10  23
ATOM     23  O   UNL     1      -9.535  11.460   4.144  1.00  0.00    -0.507 OA
ATOM     24  H   UNL     1      -9.581  11.380   3.137  1.00  0.00     0.293 HD
ENDBRANCH  10  23
BRANCH  11  25
ATOM     25  O   UNL     1      -5.378  10.348   6.393  1.00  0.00    -0.508 OA
ATOM     26  H   UNL     1      -4.566   9.893   6.003  1.00  0.00     0.293 HD
ENDBRANCH  11  25
ENDBRANCH   1   2
BRANCH   1  27
ATOM     27  C   UNL     1     -13.513   8.392   6.298  1.00  0.00     0.339 C 
ATOM     28  C   UNL     1     -14.570   8.699   5.203  1.00  0.00     0.214 C 
ATOM     29  O   UNL     1     -12.810   9.537   6.736  1.00  0.00    -0.332 OA
ATOM     30  C   UNL     1     -15.490   9.897   5.557  1.00  0.00     0.180 C 
ATOM     31  C   UNL     1     -13.667  10.514   7.289  1.00  0.00     0.179 C 
ATOM     32  C   UNL     1     -14.711  11.035   6.262  1.00  0.00     0.177 C 
BRANCH  28  33
ATOM     33  O   UNL     1     -13.905   8.954   3.985  1.00  0.00    -0.384 OA
ATOM     34  H   UNL     1     -14.613   9.055   3.293  1.00  0.00     0.211 HD
ENDBRANCH  28  33
BRANCH  30  35
ATOM     35  O   UNL     1     -16.125  10.369   4.409  1.00  0.00    -0.387 OA
ATOM     36  H   UNL     1     -16.511   9.579   3.941  1.00  0.00     0.211 HD
ENDBRANCH  30  35
BRANCH  31  37
ATOM     37  C   UNL     1     -14.236  10.137   8.682  1.00  0.00     0.191 C 
BRANCH  37  38
ATOM     38  O   UNL     1     -13.710  10.948   9.708  1.00  0.00    -0.394 OA
ATOM     39  H   UNL     1     -13.591  11.867   9.342  1.00  0.00     0.210 HD
ENDBRANCH  37  38
ENDBRANCH  31  37
BRANCH  32  40
ATOM     40  O   UNL     1     -14.031  11.818   5.299  1.00  0.00    -0.387 OA
ATOM     41  H   UNL     1     -13.187  12.155   5.718  1.00  0.00     0.211 HD
ENDBRANCH  32  40
ENDBRANCH   1  27
TORSDOF 12
ENDMDL
MODEL 7
REMARK VINA RESULT:    -5.487      1.675      6.111
REMARK INTER + INTRA:          -8.448
REMARK INTER:                  -7.499
REMARK INTRA:                  -0.949
REMARK UNBOUND:                -0.395
REMARK SMILES O=c1c(O[C@H]2O[C@H](CO)[C@@H](O)[C@@H](O)[C@H]2O)c(-c2ccc(O)c(O)c2)oc2cc(O)cc(O)c12
REMARK SMILES IDX 4 1 3 2 16 3 25 4 2 5 26 6 1 7 33 8 27 9 31 10 28 11 30 12
REMARK SMILES IDX 17 13 18 14 19 15 20 16 24 17 22 18 21 19 23 21 32 23 29 25
REMARK SMILES IDX 5 27 14 28 6 29 12 30 7 31 10 32 15 33 13 35 8 37 9 38 11 40
REMARK H PARENT 21 20 23 22 32 24 29 26 15 34 13 36 9 39 11 41
REMARK Flexibility Score: inf
ROOT
ATOM      1  O   UNL     1     -10.085  10.098   4.547  1.00  0.00    -0.454 OA
ENDROOT
BRANCH   1   2
ATOM      2  C   UNL     1     -10.765   8.929   4.945  1.00  0.00     0.214 A 
ATOM      3  C   UNL     1     -12.107   8.998   5.326  1.00  0.00     0.180 A 
ATOM      4  O   UNL     1     -12.638   8.035   6.064  1.00  0.00    -0.452 OA
ATOM      5  C   UNL     1     -10.138   7.669   4.986  1.00  0.00     0.239 A 
ATOM      6  C   UNL     1     -12.028   6.858   6.252  1.00  0.00     0.146 A 
ATOM      7  O   UNL     1      -8.995   7.511   4.468  1.00  0.00    -0.285 OA
ATOM      8  C   UNL     1     -10.795   6.587   5.616  1.00  0.00     0.111 A 
ATOM      9  C   UNL     1     -12.656   5.873   7.021  1.00  0.00     0.094 A 
ATOM     10  C   UNL     1     -10.274   5.263   5.660  1.00  0.00     0.134 A 
ATOM     11  C   UNL     1     -12.114   4.593   7.131  1.00  0.00     0.123 A 
ATOM     12  C   UNL     1     -10.948   4.281   6.417  1.00  0.00     0.093 A 
BRANCH   3  13
ATOM     13  C   UNL     1     -13.034   9.962   4.689  1.00  0.00     0.025 A 
ATOM     14  C   UNL     1     -13.045  11.289   5.174  1.00  0.00     0.016 A 
ATOM     15  C   UNL     1     -13.536  12.326   4.381  1.00  0.00     0.051 A 
ATOM     16  C   UNL     1     -14.033  12.076   3.098  1.00  0.00     0.157 A 
ATOM     17  C   UNL     1     -13.569   9.708   3.410  1.00  0.00     0.062 A 
ATOM     18  C   UNL     1     -14.064  10.767   2.611  1.00  0.00     0.158 A 
BRANCH  16  19
ATOM     19  O   UNL     1     -14.489  13.125   2.293  1.00  0.00    -0.504 OA
ATOM     20  H   UNL     1     -13.871  13.657   1.673  1.00  0.00     0.293 HD
ENDBRANCH  16  19
BRANCH  18  21
ATOM     21  O   UNL     1     -14.516  10.505   1.310  1.00  0.00    -0.504 OA
ATOM     22  H   UNL     1     -14.889   9.596   1.024  1.00  0.00     0.293 HD
ENDBRANCH  18  21
ENDBRANCH   3  13
BRANCH  10  23
ATOM     23  O   UNL     1      -9.113   4.918   4.957  1.00  0.00    -0.507 OA
ATOM     24  H   UNL     1      -8.338   5.557   4.847  1.00  0.00     0.293 HD
ENDBRANCH  10  23
BRANCH  11  25
ATOM     25  O   UNL     1     -12.731   3.629   7.928  1.00  0.00    -0.508 OA
ATOM     26  H   UNL     1     -13.554   3.125   7.636  1.00  0.00     0.293 HD
ENDBRANCH  11  25
ENDBRANCH   1   2
BRANCH   1  27
ATOM     27  C   UNL     1      -9.530  11.006   5.506  1.00  0.00     0.339 C 
ATOM     28  C   UNL     1      -7.983  10.884   5.510  1.00  0.00     0.214 C 
ATOM     29  O   UNL     1     -10.119  10.729   6.760  1.00  0.00    -0.332 OA
ATOM     30  C   UNL     1      -7.312  11.633   6.692  1.00  0.00     0.180 C 
ATOM     31  C   UNL     1      -9.665  11.605   7.771  1.00  0.00     0.179 C 
ATOM     32  C   UNL     1      -8.131  11.500   8.000  1.00  0.00     0.177 C 
BRANCH  28  33
ATOM     33  O   UNL     1      -7.632   9.518   5.554  1.00  0.00    -0.384 OA
ATOM     34  H   UNL     1      -7.169   9.372   6.422  1.00  0.00     0.211 HD
ENDBRANCH  28  33
BRANCH  30  35
ATOM     35  O   UNL     1      -6.009  11.169   6.875  1.00  0.00    -0.387 OA
ATOM     36  H   UNL     1      -6.031  10.180   6.763  1.00  0.00     0.211 HD
ENDBRANCH  30  35
BRANCH  31  37
ATOM     37  C   UNL     1     -10.222  13.047   7.652  1.00  0.00     0.191 C 
BRANCH  37  38
ATOM     38  O   UNL     1     -11.621  13.093   7.819  1.00  0.00    -0.394 OA
ATOM     39  H   UNL     1     -12.027  12.446   7.178  1.00  0.00     0.210 HD
ENDBRANCH  37  38
ENDBRANCH  31  37
BRANCH  32  40
ATOM     40  O   UNL     1      -7.860  10.253   8.611  1.00  0.00    -0.387 OA
ATOM     41  H   UNL     1      -7.016   9.893   8.213  1.00  0.00     0.211 HD
ENDBRANCH  32  40
ENDBRANCH   1  27
TORSDOF 12
ENDMDL
MODEL 8
REMARK VINA RESULT:    -5.438      2.783      6.286
REMARK INTER + INTRA:          -8.376
REMARK INTER:                  -7.623
REMARK INTRA:                  -0.753
REMARK UNBOUND:                -0.395
REMARK SMILES O=c1c(O[C@H]2O[C@H](CO)[C@@H](O)[C@@H](O)[C@H]2O)c(-c2ccc(O)c(O)c2)oc2cc(O)cc(O)c12
REMARK SMILES IDX 4 1 3 2 16 3 25 4 2 5 26 6 1 7 33 8 27 9 31 10 28 11 30 12
REMARK SMILES IDX 17 13 18 14 19 15 20 16 24 17 22 18 21 19 23 21 32 23 29 25
REMARK SMILES IDX 5 27 14 28 6 29 12 30 7 31 10 32 15 33 13 35 8 37 9 38 11 40
REMARK H PARENT 21 20 23 22 32 24 29 26 15 34 13 36 9 39 11 41
REMARK Flexibility Score: inf
ROOT
ATOM      1  O   UNL     1     -11.034   6.475   5.236  1.00  0.00    -0.454 OA
ENDROOT
BRANCH   1   2
ATOM      2  C   UNL     1     -11.836   7.600   5.514  1.00  0.00     0.214 A 
ATOM      3  C   UNL     1     -11.248   8.781   5.970  1.00  0.00     0.180 A 
ATOM      4  O   UNL     1     -11.979   9.686   6.604  1.00  0.00    -0.452 OA
ATOM      5  C   UNL     1     -13.236   7.585   5.358  1.00  0.00     0.239 A 
ATOM      6  C   UNL     1     -13.317   9.651   6.605  1.00  0.00     0.146 A 
ATOM      7  O   UNL     1     -13.798   6.620   4.764  1.00  0.00    -0.285 OA
ATOM      8  C   UNL     1     -14.003   8.654   5.876  1.00  0.00     0.111 A 
ATOM      9  C   UNL     1     -14.030  10.653   7.271  1.00  0.00     0.094 A 
ATOM     10  C   UNL     1     -15.414   8.761   5.719  1.00  0.00     0.134 A 
ATOM     11  C   UNL     1     -15.421  10.724   7.186  1.00  0.00     0.123 A 
ATOM     12  C   UNL     1     -16.102   9.803   6.377  1.00  0.00     0.093 A 
BRANCH   3  13
ATOM     13  C   UNL     1      -9.900   9.189   5.514  1.00  0.00     0.025 A 
ATOM     14  C   UNL     1      -9.787  10.381   4.764  1.00  0.00     0.016 A 
ATOM     15  C   UNL     1      -8.565  11.048   4.677  1.00  0.00     0.051 A 
ATOM     16  C   UNL     1      -7.428  10.550   5.321  1.00  0.00     0.157 A 
ATOM     17  C   UNL     1      -8.743   8.671   6.132  1.00  0.00     0.062 A 
ATOM     18  C   UNL     1      -7.506   9.355   6.040  1.00  0.00     0.158 A 
BRANCH  16  19
ATOM     19  O   UNL     1      -6.214  11.243   5.262  1.00  0.00    -0.504 OA
ATOM     20  H   UNL     1      -5.319  10.779   5.081  1.00  0.00     0.293 HD
ENDBRANCH  16  19
BRANCH  18  21
ATOM     21  O   UNL     1      -6.388   8.867   6.730  1.00  0.00    -0.504 OA
ATOM     22  H   UNL     1      -6.333   7.911   7.092  1.00  0.00     0.293 HD
ENDBRANCH  18  21
ENDBRANCH   3  13
BRANCH  10  23
ATOM     23  O   UNL     1     -16.125   7.860   4.918  1.00  0.00    -0.507 OA
ATOM     24  H   UNL     1     -15.666   7.150   4.364  1.00  0.00     0.293 HD
ENDBRANCH  10  23
BRANCH  11  25
ATOM     25  O   UNL     1     -16.124  11.706   7.882  1.00  0.00    -0.508 OA
ATOM     26  H   UNL     1     -17.123  11.819   7.805  1.00  0.00     0.293 HD
ENDBRANCH  11  25
ENDBRANCH   1   2
BRANCH   1  27
ATOM     27  C   UNL     1     -11.028   5.327   6.094  1.00  0.00     0.339 C 
ATOM     28  C   UNL     1     -11.130   4.034   5.242  1.00  0.00     0.214 C 
ATOM     29  O   UNL     1     -12.082   5.473   7.024  1.00  0.00    -0.332 OA
ATOM     30  C   UNL     1     -11.393   2.761   6.090  1.00  0.00     0.180 C 
ATOM     31  C   UNL     1     -12.134   4.406   7.947  1.00  0.00     0.179 C 
ATOM     32  C   UNL     1     -12.377   3.035   7.255  1.00  0.00     0.177 C 
BRANCH  28  33
ATOM     33  O   UNL     1     -12.161   4.193   4.293  1.00  0.00    -0.384 OA
ATOM     34  H   UNL     1     -13.016   4.197   4.801  1.00  0.00     0.211 HD
ENDBRANCH  28  33
BRANCH  30  35
ATOM     35  O   UNL     1     -11.866   1.732   5.275  1.00  0.00    -0.387 OA
ATOM     36  H   UNL     1     -12.859   1.733   5.348  1.00  0.00     0.211 HD
ENDBRANCH  30  35
BRANCH  31  37
ATOM     37  C   UNL     1     -10.994   4.426   8.999  1.00  0.00     0.191 C 
BRANCH  37  38
ATOM     38  O   UNL     1     -10.279   5.641   8.986  1.00  0.00    -0.394 OA
ATOM     39  H   UNL     1      -9.622   5.602   8.238  1.00  0.00     0.210 HD
ENDBRANCH  37  38
ENDBRANCH  31  37
BRANCH  32  40
ATOM     40  O   UNL     1     -13.708   3.013   6.774  1.00  0.00    -0.387 OA
ATOM     41  H   UNL     1     -13.976   2.056   6.657  1.00  0.00     0.211 HD
ENDBRANCH  32  40
ENDBRANCH   1  27
TORSDOF 12
ENDMDL
MODEL 9
REMARK VINA RESULT:    -5.381      2.517      3.317
REMARK INTER + INTRA:          -8.292
REMARK INTER:                  -7.557
REMARK INTRA:                  -0.735
REMARK UNBOUND:                -0.395
REMARK SMILES O=c1c(O[C@H]2O[C@H](CO)[C@@H](O)[C@@H](O)[C@H]2O)c(-c2ccc(O)c(O)c2)oc2cc(O)cc(O)c12
REMARK SMILES IDX 4 1 3 2 16 3 25 4 2 5 26 6 1 7 33 8 27 9 31 10 28 11 30 12
REMARK SMILES IDX 17 13 18 14 19 15 20 16 24 17 22 18 21 19 23 21 32 23 29 25
REMARK SMILES IDX 5 27 14 28 6 29 12 30 7 31 10 32 15 33 13 35 8 37 9 38 11 40
REMARK H PARENT 21 20 23 22 32 24 29 26 15 34 13 36 9 39 11 41
REMARK Flexibility Score: inf
ROOT
ATOM      1  O   UNL     1     -11.676   9.314   5.008  1.00  0.00    -0.454 OA
ENDROOT
BRANCH   1   2
ATOM      2  C   UNL     1     -11.430   7.950   5.265  1.00  0.00     0.214 A 
ATOM      3  C   UNL     1     -10.130   7.448   5.182  1.00  0.00     0.180 A 
ATOM      4  O   UNL     1      -9.929   6.149   5.021  1.00  0.00    -0.452 OA
ATOM      5  C   UNL     1     -12.459   7.049   5.599  1.00  0.00     0.239 A 
ATOM      6  C   UNL     1     -10.903   5.247   5.195  1.00  0.00     0.146 A 
ATOM      7  O   UNL     1     -13.614   7.480   5.882  1.00  0.00    -0.285 OA
ATOM      8  C   UNL     1     -12.189   5.661   5.609  1.00  0.00     0.111 A 
ATOM      9  C   UNL     1     -10.617   3.887   5.038  1.00  0.00     0.094 A 
ATOM     10  C   UNL     1     -13.142   4.674   5.990  1.00  0.00     0.134 A 
ATOM     11  C   UNL     1     -11.570   2.913   5.336  1.00  0.00     0.123 A 
ATOM     12  C   UNL     1     -12.813   3.309   5.851  1.00  0.00     0.093 A 
BRANCH   3  13
ATOM     13  C   UNL     1      -8.964   8.279   5.560  1.00  0.00     0.025 A 
ATOM     14  C   UNL     1      -8.292   8.983   4.536  1.00  0.00     0.016 A 
ATOM     15  C   UNL     1      -7.499  10.089   4.842  1.00  0.00     0.051 A 
ATOM     16  C   UNL     1      -7.345  10.519   6.164  1.00  0.00     0.157 A 
ATOM     17  C   UNL     1      -8.778   8.693   6.895  1.00  0.00     0.062 A 
ATOM     18  C   UNL     1      -7.972   9.818   7.198  1.00  0.00     0.158 A 
BRANCH  16  19
ATOM     19  O   UNL     1      -6.580  11.650   6.462  1.00  0.00    -0.504 OA
ATOM     20  H   UNL     1      -6.049  11.747   7.333  1.00  0.00     0.293 HD
ENDBRANCH  16  19
BRANCH  18  21
ATOM     21  O   UNL     1      -7.866  10.263   8.523  1.00  0.00    -0.504 OA
ATOM     22  H   UNL     1      -8.290  11.135   8.850  1.00  0.00     0.293 HD
ENDBRANCH  18  21
ENDBRANCH   3  13
BRANCH  10  23
ATOM     23  O   UNL     1     -14.391   5.035   6.509  1.00  0.00    -0.507 OA
ATOM     24  H   UNL     1     -14.560   5.121   7.501  1.00  0.00     0.293 HD
ENDBRANCH  10  23
BRANCH  11  25
ATOM     25  O   UNL     1     -11.285   1.562   5.142  1.00  0.00    -0.508 OA
ATOM     26  H   UNL     1     -11.970   0.904   4.801  1.00  0.00     0.293 HD
ENDBRANCH  11  25
ENDBRANCH   1   2
BRANCH   1  27
ATOM     27  C   UNL     1     -11.680  10.287   6.061  1.00  0.00     0.339 C 
ATOM     28  C   UNL     1     -12.959  10.120   6.924  1.00  0.00     0.214 C 
ATOM     29  O   UNL     1     -11.562  11.566   5.472  1.00  0.00    -0.332 OA
ATOM     30  C   UNL     1     -13.181  11.288   7.922  1.00  0.00     0.180 C 
ATOM     31  C   UNL     1     -11.515  12.597   6.436  1.00  0.00     0.179 C 
ATOM     32  C   UNL     1     -12.803  12.657   7.303  1.00  0.00     0.177 C 
BRANCH  28  33
ATOM     33  O   UNL     1     -14.076  10.007   6.070  1.00  0.00    -0.384 OA
ATOM     34  H   UNL     1     -13.718   9.842   5.156  1.00  0.00     0.211 HD
ENDBRANCH  28  33
BRANCH  30  35
ATOM     35  O   UNL     1     -14.504  11.293   8.365  1.00  0.00    -0.387 OA
ATOM     36  H   UNL     1     -14.667  12.179   8.790  1.00  0.00     0.211 HD
ENDBRANCH  30  35
BRANCH  31  37
ATOM     37  C   UNL     1     -10.180  12.663   7.222  1.00  0.00     0.191 C 
BRANCH  37  38
ATOM     38  O   UNL     1      -9.112  13.118   6.421  1.00  0.00    -0.394 OA
ATOM     39  H   UNL     1      -9.467  13.818   5.807  1.00  0.00     0.210 HD
ENDBRANCH  37  38
ENDBRANCH  31  37
BRANCH  32  40
ATOM     40  O   UNL     1     -13.862  13.125   6.491  1.00  0.00    -0.387 OA
ATOM     41  H   UNL     1     -13.518  13.892   5.950  1.00  0.00     0.211 HD
ENDBRANCH  32  40
ENDBRANCH   1  27
TORSDOF 12
ENDMDL
