MODEL 1
REMARK VINA RESULT:    -4.845      0.000      0.000
REMARK INTER + INTRA:         -16.138
REMARK INTER:                 -12.777
REMARK INTRA:                  -3.361
REMARK UNBOUND:                -3.361
REMARK SMILES CCCCCCCCCCCCCCCCCCCCCCCCCCCCCC(=O)[O-]
REMARK SMILES IDX 16 1 17 2 18 3 19 4 20 5 21 6 22 7 23 8 24 9 25 10 26 11
REMARK SMILES IDX 27 12 28 13 29 14 30 15 31 16 32 17 15 18 14 19 13 20 12 21
REMARK SMILES IDX 11 22 10 23 9 24 8 25 7 26 6 27 5 28 4 29 3 30 2 31 1 32
REMARK H PARENT
REMARK Flexibility Score: inf
ROOT
ATOM      1  C   UNL     1     -16.167  -7.335   0.227  1.00  0.00     0.000 C 
ENDROOT
BRANCH   1   2
ATOM      2  C   UNL     1     -15.942  -7.520  -1.280  1.00  0.00     0.000 C 
BRANCH   2   3
ATOM      3  C   UNL     1     -15.599  -8.972  -1.658  1.00  0.00     0.000 C 
BRANCH   3   4
ATOM      4  C   UNL     1     -14.199  -9.174  -2.276  1.00  0.00     0.000 C 
BRANCH   4   5
ATOM      5  C   UNL     1     -13.025  -8.684  -1.408  1.00  0.00     0.000 C 
BRANCH   5   6
ATOM      6  C   UNL     1     -11.957  -7.931  -2.222  1.00  0.00     0.000 C 
BRANCH   6   7
ATOM      7  C   UNL     1     -10.590  -7.905  -1.519  1.00  0.00     0.000 C 
BRANCH   7   8
ATOM      8  C   UNL     1      -9.473  -8.510  -2.387  1.00  0.00     0.000 C 
BRANCH   8   9
ATOM      9  C   UNL     1      -8.218  -7.622  -2.455  1.00  0.00     0.000 C 
BRANCH   9  10
ATOM     10  C   UNL     1      -7.235  -7.959  -3.595  1.00  0.00     0.000 C 
BRANCH  10  11
ATOM     11  C   UNL     1      -6.054  -8.865  -3.194  1.00  0.00     0.000 C 
BRANCH  11  12
ATOM     12  C   UNL     1      -6.006  -9.255  -1.703  1.00  0.00     0.000 C 
BRANCH  12  13
ATOM     13  C   UNL     1      -6.305 -10.736  -1.409  1.00  0.00     0.006 C 
BRANCH  13  14
ATOM     14  C   UNL     1      -7.085 -11.422  -2.537  1.00  0.00     0.053 C 
BRANCH  14  15
ATOM     15  C   UNL     1      -7.054 -12.908  -2.368  1.00  0.00     0.041 C 
ATOM     16  O   UNL     1      -6.834 -13.411  -1.235  1.00  0.00    -0.550 OA
ATOM     17  O   UNL     1      -7.313 -13.738  -3.452  1.00  0.00    -0.550 OA
ENDBRANCH  14  15
ENDBRANCH  13  14
ENDBRANCH  12  13
ENDBRANCH  11  12
ENDBRANCH  10  11
ENDBRANCH   9  10
ENDBRANCH   8   9
ENDBRANCH   7   8
ENDBRANCH   6   7
ENDBRANCH   5   6
ENDBRANCH   4   5
ENDBRANCH   3   4
ENDBRANCH   2   3
ENDBRANCH   1   2
BRANCH   1  18
ATOM     18  C   UNL     1     -16.774  -8.603   0.846  1.00  0.00     0.000 C 
BRANCH  18  19
ATOM     19  C   UNL     1     -18.269  -8.450   1.180  1.00  0.00     0.000 C 
BRANCH  19  20
ATOM     20  C   UNL     1     -19.227  -8.780   0.022  1.00  0.00     0.000 C 
BRANCH  20  21
ATOM     21  C   UNL     1     -18.819 -10.050  -0.747  1.00  0.00     0.000 C 
BRANCH  21  22
ATOM     22  C   UNL     1     -19.022 -11.340   0.077  1.00  0.00     0.000 C 
BRANCH  22  23
ATOM     23  C   UNL     1     -19.110 -12.619  -0.779  1.00  0.00     0.000 C 
BRANCH  23  24
ATOM     24  C   UNL     1     -18.279 -12.594  -2.075  1.00  0.00    -0.000 C 
BRANCH  24  25
ATOM     25  C   UNL     1     -18.357 -13.874  -2.934  1.00  0.00    -0.000 C 
BRANCH  25  26
ATOM     26  C   UNL     1     -17.105 -14.771  -2.895  1.00  0.00    -0.000 C 
BRANCH  26  27
ATOM     27  C   UNL     1     -16.395 -14.756  -1.531  1.00  0.00    -0.000 C 
BRANCH  27  28
ATOM     28  C   UNL     1     -14.929 -14.298  -1.628  1.00  0.00    -0.000 C 
BRANCH  28  29
ATOM     29  C   UNL     1     -14.726 -12.789  -1.365  1.00  0.00    -0.000 C 
BRANCH  29  30
ATOM     30  C   UNL     1     -15.285 -12.357   0.003  1.00  0.00    -0.000 C 
BRANCH  30  31
ATOM     31  C   UNL     1     -14.578 -13.052   1.175  1.00  0.00    -0.003 C 
ATOM     32  C   UNL     1     -15.504 -13.988   1.952  1.00  0.00     0.004 C 
ENDBRANCH  30  31
ENDBRANCH  29  30
ENDBRANCH  28  29
ENDBRANCH  27  28
ENDBRANCH  26  27
ENDBRANCH  25  26
ENDBRANCH  24  25
ENDBRANCH  23  24
ENDBRANCH  22  23
ENDBRANCH  21  22
ENDBRANCH  20  21
ENDBRANCH  19  20
ENDBRANCH  18  19
ENDBRANCH   1  18
TORSDOF 28
ENDMDL
MODEL 2
REMARK VINA RESULT:    -4.799      1.171      2.111
REMARK INTER + INTRA:         -16.015
REMARK INTER:                 -12.511
REMARK INTRA:                  -3.504
REMARK UNBOUND:                -3.361
REMARK SMILES CCCCCCCCCCCCCCCCCCCCCCCCCCCCCC(=O)[O-]
REMARK SMILES IDX 16 1 17 2 18 3 19 4 20 5 21 6 22 7 23 8 24 9 25 10 26 11
REMARK SMILES IDX 27 12 28 13 29 14 30 15 31 16 32 17 15 18 14 19 13 20 12 21
REMARK SMILES IDX 11 22 10 23 9 24 8 25 7 26 6 27 5 28 4 29 3 30 2 31 1 32
REMARK H PARENT
REMARK Flexibility Score: inf
ROOT
ATOM      1  C   UNL     1     -16.088  -8.218  -2.237  1.00  0.00     0.000 C 
ENDROOT
BRANCH   1   2
ATOM      2  C   UNL     1     -14.776  -8.756  -2.825  1.00  0.00     0.000 C 
BRANCH   2   3
ATOM      3  C   UNL     1     -13.628  -8.781  -1.800  1.00  0.00     0.000 C 
BRANCH   3   4
ATOM      4  C   UNL     1     -12.372  -7.980  -2.205  1.00  0.00     0.000 C 
BRANCH   4   5
ATOM      5  C   UNL     1     -11.117  -8.259  -1.357  1.00  0.00     0.000 C 
BRANCH   5   6
ATOM      6  C   UNL     1      -9.887  -7.466  -1.834  1.00  0.00     0.000 C 
BRANCH   6   7
ATOM      7  C   UNL     1      -8.838  -8.359  -2.515  1.00  0.00     0.000 C 
BRANCH   7   8
ATOM      8  C   UNL     1      -7.457  -7.686  -2.592  1.00  0.00     0.000 C 
BRANCH   8   9
ATOM      9  C   UNL     1      -6.862  -7.698  -4.012  1.00  0.00     0.000 C 
BRANCH   9  10
ATOM     10  C   UNL     1      -6.087  -8.977  -4.388  1.00  0.00     0.000 C 
BRANCH  10  11
ATOM     11  C   UNL     1      -6.909 -10.045  -5.136  1.00  0.00     0.000 C 
BRANCH  11  12
ATOM     12  C   UNL     1      -6.212 -11.411  -5.299  1.00  0.00     0.000 C 
BRANCH  12  13
ATOM     13  C   UNL     1      -6.752 -12.528  -4.387  1.00  0.00     0.006 C 
BRANCH  13  14
ATOM     14  C   UNL     1      -7.057 -12.041  -2.965  1.00  0.00     0.053 C 
BRANCH  14  15
ATOM     15  C   UNL     1      -7.281 -13.203  -2.050  1.00  0.00     0.041 C 
ATOM     16  O   UNL     1      -6.727 -13.234  -0.920  1.00  0.00    -0.550 OA
ATOM     17  O   UNL     1      -8.137 -14.231  -2.426  1.00  0.00    -0.550 OA
ENDBRANCH  14  15
ENDBRANCH  13  14
ENDBRANCH  12  13
ENDBRANCH  11  12
ENDBRANCH  10  11
ENDBRANCH   9  10
ENDBRANCH   8   9
ENDBRANCH   7   8
ENDBRANCH   6   7
ENDBRANCH   5   6
ENDBRANCH   4   5
ENDBRANCH   3   4
ENDBRANCH   2   3
ENDBRANCH   1   2
BRANCH   1  18
ATOM     18  C   UNL     1     -15.813  -7.354  -0.997  1.00  0.00     0.000 C 
BRANCH  18  19
ATOM     19  C   UNL     1     -15.994  -8.126   0.323  1.00  0.00     0.000 C 
BRANCH  19  20
ATOM     20  C   UNL     1     -17.395  -8.011   0.952  1.00  0.00     0.000 C 
BRANCH  20  21
ATOM     21  C   UNL     1     -18.247  -9.276   0.747  1.00  0.00     0.000 C 
BRANCH  21  22
ATOM     22  C   UNL     1     -19.046  -9.255  -0.573  1.00  0.00     0.000 C 
BRANCH  22  23
ATOM     23  C   UNL     1     -19.046 -10.600  -1.325  1.00  0.00     0.000 C 
BRANCH  23  24
ATOM     24  C   UNL     1     -19.156 -11.847  -0.428  1.00  0.00    -0.000 C 
BRANCH  24  25
ATOM     25  C   UNL     1     -18.927 -13.196  -1.143  1.00  0.00    -0.000 C 
BRANCH  25  26
ATOM     26  C   UNL     1     -18.622 -13.100  -2.650  1.00  0.00    -0.000 C 
BRANCH  26  27
ATOM     27  C   UNL     1     -17.161 -13.440  -2.991  1.00  0.00    -0.000 C 
BRANCH  27  28
ATOM     28  C   UNL     1     -16.217 -12.234  -2.837  1.00  0.00    -0.000 C 
BRANCH  28  29
ATOM     29  C   UNL     1     -15.147 -12.413  -1.737  1.00  0.00    -0.000 C 
BRANCH  29  30
ATOM     30  C   UNL     1     -15.501 -11.644  -0.450  1.00  0.00    -0.000 C 
BRANCH  30  31
ATOM     31  C   UNL     1     -15.366 -12.510   0.810  1.00  0.00    -0.003 C 
ATOM     32  C   UNL     1     -15.848 -13.945   0.595  1.00  0.00     0.004 C 
ENDBRANCH  30  31
ENDBRANCH  29  30
ENDBRANCH  28  29
ENDBRANCH  27  28
ENDBRANCH  26  27
ENDBRANCH  25  26
ENDBRANCH  24  25
ENDBRANCH  23  24
ENDBRANCH  22  23
ENDBRANCH  21  22
ENDBRANCH  20  21
ENDBRANCH  19  20
ENDBRANCH  18  19
ENDBRANCH   1  18
TORSDOF 28
ENDMDL
MODEL 3
REMARK VINA RESULT:    -4.770      2.554      8.695
REMARK INTER + INTRA:         -15.940
REMARK INTER:                 -12.744
REMARK INTRA:                  -3.196
REMARK UNBOUND:                -3.361
REMARK SMILES CCCCCCCCCCCCCCCCCCCCCCCCCCCCCC(=O)[O-]
REMARK SMILES IDX 16 1 17 2 18 3 19 4 20 5 21 6 22 7 23 8 24 9 25 10 26 11
REMARK SMILES IDX 27 12 28 13 29 14 30 15 31 16 32 17 15 18 14 19 13 20 12 21
REMARK SMILES IDX 11 22 10 23 9 24 8 25 7 26 6 27 5 28 4 29 3 30 2 31 1 32
REMARK H PARENT
REMARK Flexibility Score: inf
ROOT
ATOM      1  C   UNL     1     -15.956  -8.460   0.423  1.00  0.00     0.000 C 
ENDROOT
BRANCH   1   2
ATOM      2  C   UNL     1     -17.218  -8.005   1.170  1.00  0.00     0.000 C 
BRANCH   2   3
ATOM      3  C   UNL     1     -18.392  -8.987   1.010  1.00  0.00     0.000 C 
BRANCH   3   4
ATOM      4  C   UNL     1     -19.008  -9.047  -0.404  1.00  0.00     0.000 C 
BRANCH   4   5
ATOM      5  C   UNL     1     -18.838 -10.391  -1.135  1.00  0.00     0.000 C 
BRANCH   5   6
ATOM      6  C   UNL     1     -19.318 -11.590  -0.296  1.00  0.00     0.000 C 
BRANCH   6   7
ATOM      7  C   UNL     1     -19.259 -12.915  -1.074  1.00  0.00     0.000 C 
BRANCH   7   8
ATOM      8  C   UNL     1     -18.576 -12.760  -2.443  1.00  0.00     0.000 C 
BRANCH   8   9
ATOM      9  C   UNL     1     -17.793 -14.016  -2.868  1.00  0.00     0.000 C 
BRANCH   9  10
ATOM     10  C   UNL     1     -16.426 -13.745  -3.528  1.00  0.00     0.000 C 
BRANCH  10  11
ATOM     11  C   UNL     1     -15.639 -12.556  -2.942  1.00  0.00     0.000 C 
BRANCH  11  12
ATOM     12  C   UNL     1     -14.816 -12.876  -1.678  1.00  0.00     0.000 C 
BRANCH  12  13
ATOM     13  C   UNL     1     -14.958 -11.856  -0.535  1.00  0.00     0.006 C 
BRANCH  13  14
ATOM     14  C   UNL     1     -16.042 -12.243   0.478  1.00  0.00     0.053 C 
BRANCH  14  15
ATOM     15  C   UNL     1     -15.909 -13.682   0.865  1.00  0.00     0.041 C 
ATOM     16  O   UNL     1     -16.351 -14.584   0.106  1.00  0.00    -0.550 OA
ATOM     17  O   UNL     1     -15.255 -14.029   2.040  1.00  0.00    -0.550 OA
ENDBRANCH  14  15
ENDBRANCH  13  14
ENDBRANCH  12  13
ENDBRANCH  11  12
ENDBRANCH  10  11
ENDBRANCH   9  10
ENDBRANCH   8   9
ENDBRANCH   7   8
ENDBRANCH   6   7
ENDBRANCH   5   6
ENDBRANCH   4   5
ENDBRANCH   3   4
ENDBRANCH   2   3
ENDBRANCH   1   2
BRANCH   1  18
ATOM     18  C   UNL     1     -15.701  -7.572  -0.804  1.00  0.00     0.000 C 
BRANCH  18  19
ATOM     19  C   UNL     1     -15.751  -8.354  -2.129  1.00  0.00     0.000 C 
BRANCH  19  20
ATOM     20  C   UNL     1     -14.385  -8.840  -2.644  1.00  0.00     0.000 C 
BRANCH  20  21
ATOM     21  C   UNL     1     -13.241  -8.569  -1.650  1.00  0.00     0.000 C 
BRANCH  21  22
ATOM     22  C   UNL     1     -11.962  -8.044  -2.336  1.00  0.00     0.000 C 
BRANCH  22  23
ATOM     23  C   UNL     1     -10.692  -8.174  -1.472  1.00  0.00     0.000 C 
BRANCH  23  24
ATOM     24  C   UNL     1      -9.415  -7.590  -2.100  1.00  0.00    -0.000 C 
BRANCH  24  25
ATOM     25  C   UNL     1      -8.392  -8.631  -2.603  1.00  0.00    -0.000 C 
BRANCH  25  26
ATOM     26  C   UNL     1      -7.486  -8.162  -3.758  1.00  0.00    -0.000 C 
BRANCH  26  27
ATOM     27  C   UNL     1      -6.421  -9.201  -4.148  1.00  0.00    -0.000 C 
BRANCH  27  28
ATOM     28  C   UNL     1      -6.952 -10.256  -5.134  1.00  0.00    -0.000 C 
BRANCH  28  29
ATOM     29  C   UNL     1      -6.500 -11.698  -4.812  1.00  0.00    -0.000 C 
BRANCH  29  30
ATOM     30  C   UNL     1      -6.402 -11.952  -3.296  1.00  0.00    -0.000 C 
BRANCH  30  31
ATOM     31  C   UNL     1      -7.197 -13.188  -2.853  1.00  0.00    -0.003 C 
ATOM     32  C   UNL     1      -6.867 -13.622  -1.424  1.00  0.00     0.004 C 
ENDBRANCH  30  31
ENDBRANCH  29  30
ENDBRANCH  28  29
ENDBRANCH  27  28
ENDBRANCH  26  27
ENDBRANCH  25  26
ENDBRANCH  24  25
ENDBRANCH  23  24
ENDBRANCH  22  23
ENDBRANCH  21  22
ENDBRANCH  20  21
ENDBRANCH  19  20
ENDBRANCH  18  19
ENDBRANCH   1  18
TORSDOF 28
ENDMDL
MODEL 4
REMARK VINA RESULT:    -4.711      2.983      8.780
REMARK INTER + INTRA:         -15.783
REMARK INTER:                 -12.918
REMARK INTRA:                  -2.865
REMARK UNBOUND:                -3.361
REMARK SMILES CCCCCCCCCCCCCCCCCCCCCCCCCCCCCC(=O)[O-]
REMARK SMILES IDX 16 1 17 2 18 3 19 4 20 5 21 6 22 7 23 8 24 9 25 10 26 11
REMARK SMILES IDX 27 12 28 13 29 14 30 15 31 16 32 17 15 18 14 19 13 20 12 21
REMARK SMILES IDX 11 22 10 23 9 24 8 25 7 26 6 27 5 28 4 29 3 30 2 31 1 32
REMARK H PARENT
REMARK Flexibility Score: inf
ROOT
ATOM      1  C   UNL     1     -16.708 -14.171  -2.881  1.00  0.00     0.000 C 
ENDROOT
BRANCH   1   2
ATOM      2  C   UNL     1     -18.216 -14.317  -3.126  1.00  0.00     0.000 C 
BRANCH   2   3
ATOM      3  C   UNL     1     -19.031 -13.143  -2.555  1.00  0.00     0.000 C 
BRANCH   3   4
ATOM      4  C   UNL     1     -19.236 -13.171  -1.026  1.00  0.00     0.000 C 
BRANCH   4   5
ATOM      5  C   UNL     1     -18.978 -11.835  -0.306  1.00  0.00     0.000 C 
BRANCH   5   6
ATOM      6  C   UNL     1     -18.687 -10.680  -1.282  1.00  0.00     0.000 C 
BRANCH   6   7
ATOM      7  C   UNL     1     -18.911  -9.299  -0.643  1.00  0.00     0.000 C 
BRANCH   7   8
ATOM      8  C   UNL     1     -18.223  -9.169   0.727  1.00  0.00     0.000 C 
BRANCH   8   9
ATOM      9  C   UNL     1     -17.372  -7.892   0.851  1.00  0.00     0.000 C 
BRANCH   9  10
ATOM     10  C   UNL     1     -15.847  -8.119   0.879  1.00  0.00     0.000 C 
BRANCH  10  11
ATOM     11  C   UNL     1     -15.384  -9.510   0.403  1.00  0.00     0.000 C 
BRANCH  11  12
ATOM     12  C   UNL     1     -15.096  -9.622  -1.108  1.00  0.00     0.000 C 
BRANCH  12  13
ATOM     13  C   UNL     1     -15.085  -8.282  -1.867  1.00  0.00     0.006 C 
BRANCH  13  14
ATOM     14  C   UNL     1     -16.328  -8.084  -2.744  1.00  0.00     0.053 C 
BRANCH  14  15
ATOM     15  C   UNL     1     -16.057  -8.532  -4.146  1.00  0.00     0.041 C 
ATOM     16  O   UNL     1     -15.276  -9.495  -4.362  1.00  0.00    -0.550 OA
ATOM     17  O   UNL     1     -16.702  -7.915  -5.211  1.00  0.00    -0.550 OA
ENDBRANCH  14  15
ENDBRANCH  13  14
ENDBRANCH  12  13
ENDBRANCH  11  12
ENDBRANCH  10  11
ENDBRANCH   9  10
ENDBRANCH   8   9
ENDBRANCH   7   8
ENDBRANCH   6   7
ENDBRANCH   5   6
ENDBRANCH   4   5
ENDBRANCH   3   4
ENDBRANCH   2   3
ENDBRANCH   1   2
BRANCH   1  18
ATOM     18  C   UNL     1     -16.320 -14.760  -1.518  1.00  0.00     0.000 C 
BRANCH  18  19
ATOM     19  C   UNL     1     -15.592 -13.749  -0.614  1.00  0.00     0.000 C 
BRANCH  19  20
ATOM     20  C   UNL     1     -14.251 -13.234  -1.169  1.00  0.00     0.000 C 
BRANCH  20  21
ATOM     21  C   UNL     1     -13.202 -14.350  -1.325  1.00  0.00     0.000 C 
BRANCH  21  22
ATOM     22  C   UNL     1     -12.358 -14.205  -2.608  1.00  0.00     0.000 C 
BRANCH  22  23
ATOM     23  C   UNL     1     -11.076 -15.061  -2.612  1.00  0.00     0.000 C 
BRANCH  23  24
ATOM     24  C   UNL     1      -9.761 -14.264  -2.546  1.00  0.00    -0.000 C 
BRANCH  24  25
ATOM     25  C   UNL     1      -8.472 -15.113  -2.572  1.00  0.00    -0.000 C 
BRANCH  25  26
ATOM     26  C   UNL     1      -7.159 -14.326  -2.400  1.00  0.00    -0.000 C 
BRANCH  26  27
ATOM     27  C   UNL     1      -7.338 -12.809  -2.585  1.00  0.00    -0.000 C 
BRANCH  27  28
ATOM     28  C   UNL     1      -6.361 -12.215  -3.614  1.00  0.00    -0.000 C 
BRANCH  28  29
ATOM     29  C   UNL     1      -6.970 -11.088  -4.477  1.00  0.00    -0.000 C 
BRANCH  29  30
ATOM     30  C   UNL     1      -6.334  -9.717  -4.177  1.00  0.00    -0.000 C 
BRANCH  30  31
ATOM     31  C   UNL     1      -7.369  -8.585  -4.130  1.00  0.00    -0.003 C 
ATOM     32  C   UNL     1      -7.817  -8.252  -2.707  1.00  0.00     0.004 C 
ENDBRANCH  30  31
ENDBRANCH  29  30
ENDBRANCH  28  29
ENDBRANCH  27  28
ENDBRANCH  26  27
ENDBRANCH  25  26
ENDBRANCH  24  25
ENDBRANCH  23  24
ENDBRANCH  22  23
ENDBRANCH  21  22
ENDBRANCH  20  21
ENDBRANCH  19  20
ENDBRANCH  18  19
ENDBRANCH   1  18
TORSDOF 28
ENDMDL
MODEL 5
REMARK VINA RESULT:    -4.694      1.284      4.071
REMARK INTER + INTRA:         -15.738
REMARK INTER:                 -11.727
REMARK INTRA:                  -4.011
REMARK UNBOUND:                -3.361
REMARK SMILES CCCCCCCCCCCCCCCCCCCCCCCCCCCCCC(=O)[O-]
REMARK SMILES IDX 16 1 17 2 18 3 19 4 20 5 21 6 22 7 23 8 24 9 25 10 26 11
REMARK SMILES IDX 27 12 28 13 29 14 30 15 31 16 32 17 15 18 14 19 13 20 12 21
REMARK SMILES IDX 11 22 10 23 9 24 8 25 7 26 6 27 5 28 4 29 3 30 2 31 1 32
REMARK H PARENT
REMARK Flexibility Score: inf
ROOT
ATOM      1  C   UNL     1     -14.518 -12.656   1.005  1.00  0.00     0.000 C 
ENDROOT
BRANCH   1   2
ATOM      2  C   UNL     1     -15.520 -11.581   0.564  1.00  0.00     0.000 C 
BRANCH   2   3
ATOM      3  C   UNL     1     -14.878 -10.487  -0.308  1.00  0.00     0.000 C 
BRANCH   3   4
ATOM      4  C   UNL     1     -15.272 -10.526  -1.800  1.00  0.00     0.000 C 
BRANCH   4   5
ATOM      5  C   UNL     1     -15.082  -9.200  -2.560  1.00  0.00     0.000 C 
BRANCH   5   6
ATOM      6  C   UNL     1     -14.184  -8.203  -1.806  1.00  0.00     0.000 C 
BRANCH   6   7
ATOM      7  C   UNL     1     -12.781  -8.090  -2.422  1.00  0.00     0.000 C 
BRANCH   7   8
ATOM      8  C   UNL     1     -11.667  -8.377  -1.400  1.00  0.00     0.000 C 
BRANCH   8   9
ATOM      9  C   UNL     1     -10.381  -7.577  -1.675  1.00  0.00     0.000 C 
BRANCH   9  10
ATOM     10  C   UNL     1      -9.265  -8.356  -2.399  1.00  0.00     0.000 C 
BRANCH  10  11
ATOM     11  C   UNL     1      -7.939  -7.590  -2.574  1.00  0.00     0.000 C 
BRANCH  11  12
ATOM     12  C   UNL     1      -7.225  -7.819  -3.922  1.00  0.00     0.000 C 
BRANCH  12  13
ATOM     13  C   UNL     1      -6.207  -8.974  -3.930  1.00  0.00     0.006 C 
BRANCH  13  14
ATOM     14  C   UNL     1      -6.657 -10.160  -4.791  1.00  0.00     0.053 C 
BRANCH  14  15
ATOM     15  C   UNL     1      -6.816 -11.387  -3.951  1.00  0.00     0.041 C 
ATOM     16  O   UNL     1      -7.243 -11.294  -2.770  1.00  0.00    -0.550 OA
ATOM     17  O   UNL     1      -6.537 -12.639  -4.486  1.00  0.00    -0.550 OA
ENDBRANCH  14  15
ENDBRANCH  13  14
ENDBRANCH  12  13
ENDBRANCH  11  12
ENDBRANCH  10  11
ENDBRANCH   9  10
ENDBRANCH   8   9
ENDBRANCH   7   8
ENDBRANCH   6   7
ENDBRANCH   5   6
ENDBRANCH   4   5
ENDBRANCH   3   4
ENDBRANCH   2   3
ENDBRANCH   1   2
BRANCH   1  18
ATOM     18  C   UNL     1     -15.216 -14.013   1.175  1.00  0.00     0.000 C 
BRANCH  18  19
ATOM     19  C   UNL     1     -16.423 -14.187   0.236  1.00  0.00     0.000 C 
BRANCH  19  20
ATOM     20  C   UNL     1     -16.108 -14.887  -1.098  1.00  0.00     0.000 C 
BRANCH  20  21
ATOM     21  C   UNL     1     -15.759 -13.897  -2.224  1.00  0.00     0.000 C 
BRANCH  21  22
ATOM     22  C   UNL     1     -16.744 -13.967  -3.411  1.00  0.00     0.000 C 
BRANCH  22  23
ATOM     23  C   UNL     1     -18.083 -14.649  -3.071  1.00  0.00     0.000 C 
BRANCH  23  24
ATOM     24  C   UNL     1     -19.279 -13.693  -2.912  1.00  0.00    -0.000 C 
BRANCH  24  25
ATOM     25  C   UNL     1     -19.701 -13.401  -1.456  1.00  0.00    -0.000 C 
BRANCH  25  26
ATOM     26  C   UNL     1     -18.952 -12.241  -0.772  1.00  0.00    -0.000 C 
BRANCH  26  27
ATOM     27  C   UNL     1     -18.661 -11.068  -1.724  1.00  0.00    -0.000 C 
BRANCH  27  28
ATOM     28  C   UNL     1     -18.864  -9.695  -1.058  1.00  0.00    -0.000 C 
BRANCH  28  29
ATOM     29  C   UNL     1     -18.653  -9.705   0.472  1.00  0.00    -0.000 C 
BRANCH  29  30
ATOM     30  C   UNL     1     -18.330  -8.304   1.024  1.00  0.00    -0.000 C 
BRANCH  30  31
ATOM     31  C   UNL     1     -16.844  -8.134   1.368  1.00  0.00    -0.003 C 
ATOM     32  C   UNL     1     -16.222  -6.901   0.712  1.00  0.00     0.004 C 
ENDBRANCH  30  31
ENDBRANCH  29  30
ENDBRANCH  28  29
ENDBRANCH  27  28
ENDBRANCH  26  27
ENDBRANCH  25  26
ENDBRANCH  24  25
ENDBRANCH  23  24
ENDBRANCH  22  23
ENDBRANCH  21  22
ENDBRANCH  20  21
ENDBRANCH  19  20
ENDBRANCH  18  19
ENDBRANCH   1  18
TORSDOF 28
ENDMDL
MODEL 6
REMARK VINA RESULT:    -4.687      1.066      3.340
REMARK INTER + INTRA:         -15.720
REMARK INTER:                 -11.984
REMARK INTRA:                  -3.736
REMARK UNBOUND:                -3.361
REMARK SMILES CCCCCCCCCCCCCCCCCCCCCCCCCCCCCC(=O)[O-]
REMARK SMILES IDX 16 1 17 2 18 3 19 4 20 5 21 6 22 7 23 8 24 9 25 10 26 11
REMARK SMILES IDX 27 12 28 13 29 14 30 15 31 16 32 17 15 18 14 19 13 20 12 21
REMARK SMILES IDX 11 22 10 23 9 24 8 25 7 26 6 27 5 28 4 29 3 30 2 31 1 32
REMARK H PARENT
REMARK Flexibility Score: inf
ROOT
ATOM      1  C   UNL     1     -16.360 -10.435  -3.316  1.00  0.00     0.000 C 
ENDROOT
BRANCH   1   2
ATOM      2  C   UNL     1     -15.521  -9.182  -3.604  1.00  0.00     0.000 C 
BRANCH   2   3
ATOM      3  C   UNL     1     -15.872  -8.002  -2.680  1.00  0.00     0.000 C 
BRANCH   3   4
ATOM      4  C   UNL     1     -14.874  -7.751  -1.530  1.00  0.00     0.000 C 
BRANCH   4   5
ATOM      5  C   UNL     1     -13.619  -8.643  -1.548  1.00  0.00     0.000 C 
BRANCH   5   6
ATOM      6  C   UNL     1     -12.394  -7.936  -2.158  1.00  0.00     0.000 C 
BRANCH   6   7
ATOM      7  C   UNL     1     -11.090  -8.271  -1.417  1.00  0.00     0.000 C 
BRANCH   7   8
ATOM      8  C   UNL     1      -9.879  -7.515  -1.990  1.00  0.00     0.000 C 
BRANCH   8   9
ATOM      9  C   UNL     1      -8.759  -8.453  -2.473  1.00  0.00     0.000 C 
BRANCH   9  10
ATOM     10  C   UNL     1      -7.523  -7.749  -3.068  1.00  0.00     0.000 C 
BRANCH  10  11
ATOM     11  C   UNL     1      -6.165  -8.258  -2.546  1.00  0.00     0.000 C 
BRANCH  11  12
ATOM     12  C   UNL     1      -6.244  -9.460  -1.583  1.00  0.00     0.000 C 
BRANCH  12  13
ATOM     13  C   UNL     1      -6.063 -10.837  -2.246  1.00  0.00     0.006 C 
BRANCH  13  14
ATOM     14  C   UNL     1      -6.570 -11.991  -1.372  1.00  0.00     0.053 C 
BRANCH  14  15
ATOM     15  C   UNL     1      -7.046 -13.124  -2.225  1.00  0.00     0.041 C 
ATOM     16  O   UNL     1      -6.926 -13.067  -3.477  1.00  0.00    -0.550 OA
ATOM     17  O   UNL     1      -7.579 -14.263  -1.634  1.00  0.00    -0.550 OA
ENDBRANCH  14  15
ENDBRANCH  13  14
ENDBRANCH  12  13
ENDBRANCH  11  12
ENDBRANCH  10  11
ENDBRANCH   9  10
ENDBRANCH   8   9
ENDBRANCH   7   8
ENDBRANCH   6   7
ENDBRANCH   5   6
ENDBRANCH   4   5
ENDBRANCH   3   4
ENDBRANCH   2   3
ENDBRANCH   1   2
BRANCH   1  18
ATOM     18  C   UNL     1     -15.479 -11.562  -2.757  1.00  0.00     0.000 C 
BRANCH  18  19
ATOM     19  C   UNL     1     -15.319 -11.494  -1.228  1.00  0.00     0.000 C 
BRANCH  19  20
ATOM     20  C   UNL     1     -14.616 -12.710  -0.597  1.00  0.00     0.000 C 
BRANCH  20  21
ATOM     21  C   UNL     1     -15.513 -13.468   0.398  1.00  0.00     0.000 C 
BRANCH  21  22
ATOM     22  C   UNL     1     -16.447 -14.485  -0.292  1.00  0.00     0.000 C 
BRANCH  22  23
ATOM     23  C   UNL     1     -15.912 -15.011  -1.638  1.00  0.00     0.000 C 
BRANCH  23  24
ATOM     24  C   UNL     1     -16.763 -14.640  -2.866  1.00  0.00    -0.000 C 
BRANCH  24  25
ATOM     25  C   UNL     1     -18.289 -14.629  -2.632  1.00  0.00    -0.000 C 
BRANCH  25  26
ATOM     26  C   UNL     1     -18.925 -13.233  -2.493  1.00  0.00    -0.000 C 
BRANCH  26  27
ATOM     27  C   UNL     1     -19.477 -12.960  -1.084  1.00  0.00    -0.000 C 
BRANCH  27  28
ATOM     28  C   UNL     1     -18.900 -11.680  -0.455  1.00  0.00    -0.000 C 
BRANCH  28  29
ATOM     29  C   UNL     1     -19.112 -10.411  -1.311  1.00  0.00    -0.000 C 
BRANCH  29  30
ATOM     30  C   UNL     1     -18.855  -9.120  -0.511  1.00  0.00    -0.000 C 
BRANCH  30  31
ATOM     31  C   UNL     1     -17.663  -9.248   0.447  1.00  0.00    -0.003 C 
ATOM     32  C   UNL     1     -17.426  -7.979   1.267  1.00  0.00     0.004 C 
ENDBRANCH  30  31
ENDBRANCH  29  30
ENDBRANCH  28  29
ENDBRANCH  27  28
ENDBRANCH  26  27
ENDBRANCH  25  26
ENDBRANCH  24  25
ENDBRANCH  23  24
ENDBRANCH  22  23
ENDBRANCH  21  22
ENDBRANCH  20  21
ENDBRANCH  19  20
ENDBRANCH  18  19
ENDBRANCH   1  18
TORSDOF 28
ENDMDL
MODEL 7
REMARK VINA RESULT:    -4.615      2.170      5.654
REMARK INTER + INTRA:         -15.532
REMARK INTER:                 -12.388
REMARK INTRA:                  -3.144
REMARK UNBOUND:                -3.361
REMARK SMILES CCCCCCCCCCCCCCCCCCCCCCCCCCCCCC(=O)[O-]
REMARK SMILES IDX 16 1 17 2 18 3 19 4 20 5 21 6 22 7 23 8 24 9 25 10 26 11
REMARK SMILES IDX 27 12 28 13 29 14 30 15 31 16 32 17 15 18 14 19 13 20 12 21
REMARK SMILES IDX 11 22 10 23 9 24 8 25 7 26 6 27 5 28 4 29 3 30 2 31 1 32
REMARK H PARENT
REMARK Flexibility Score: inf
ROOT
ATOM      1  C   UNL     1     -18.186 -14.445  -2.834  1.00  0.00     0.000 C 
ENDROOT
BRANCH   1   2
ATOM      2  C   UNL     1     -16.681 -14.196  -2.665  1.00  0.00     0.000 C 
BRANCH   2   3
ATOM      3  C   UNL     1     -16.180 -14.506  -1.242  1.00  0.00     0.000 C 
BRANCH   3   4
ATOM      4  C   UNL     1     -14.823 -13.872  -0.874  1.00  0.00     0.000 C 
BRANCH   4   5
ATOM      5  C   UNL     1     -13.771 -13.879  -1.998  1.00  0.00     0.000 C 
BRANCH   5   6
ATOM      6  C   UNL     1     -12.398 -14.390  -1.527  1.00  0.00     0.000 C 
BRANCH   6   7
ATOM      7  C   UNL     1     -11.461 -14.730  -2.697  1.00  0.00     0.000 C 
BRANCH   7   8
ATOM      8  C   UNL     1     -10.023 -14.239  -2.459  1.00  0.00     0.000 C 
BRANCH   8   9
ATOM      9  C   UNL     1      -8.963 -15.303  -2.796  1.00  0.00     0.000 C 
BRANCH   9  10
ATOM     10  C   UNL     1      -7.582 -15.084  -2.143  1.00  0.00     0.000 C 
BRANCH  10  11
ATOM     11  C   UNL     1      -6.713 -13.993  -2.800  1.00  0.00     0.000 C 
BRANCH  11  12
ATOM     12  C   UNL     1      -6.448 -14.188  -4.307  1.00  0.00     0.000 C 
BRANCH  12  13
ATOM     13  C   UNL     1      -6.409 -12.889  -5.132  1.00  0.00     0.006 C 
BRANCH  13  14
ATOM     14  C   UNL     1      -5.909 -11.685  -4.325  1.00  0.00     0.053 C 
BRANCH  14  15
ATOM     15  C   UNL     1      -6.903 -10.569  -4.379  1.00  0.00     0.041 C 
ATOM     16  O   UNL     1      -7.593 -10.287  -3.365  1.00  0.00    -0.550 OA
ATOM     17  O   UNL     1      -7.034  -9.809  -5.535  1.00  0.00    -0.550 OA
ENDBRANCH  14  15
ENDBRANCH  13  14
ENDBRANCH  12  13
ENDBRANCH  11  12
ENDBRANCH  10  11
ENDBRANCH   9  10
ENDBRANCH   8   9
ENDBRANCH   7   8
ENDBRANCH   6   7
ENDBRANCH   5   6
ENDBRANCH   4   5
ENDBRANCH   3   4
ENDBRANCH   2   3
ENDBRANCH   1   2
BRANCH   1  18
ATOM     18  C   UNL     1     -18.984 -13.165  -2.546  1.00  0.00     0.000 C 
BRANCH  18  19
ATOM     19  C   UNL     1     -19.483 -13.085  -1.092  1.00  0.00     0.000 C 
BRANCH  19  20
ATOM     20  C   UNL     1     -19.086 -11.800  -0.342  1.00  0.00     0.000 C 
BRANCH  20  21
ATOM     21  C   UNL     1     -18.894 -10.596  -1.282  1.00  0.00     0.000 C 
BRANCH  21  22
ATOM     22  C   UNL     1     -18.982  -9.241  -0.548  1.00  0.00     0.000 C 
BRANCH  22  23
ATOM     23  C   UNL     1     -18.284  -9.230   0.827  1.00  0.00     0.000 C 
BRANCH  23  24
ATOM     24  C   UNL     1     -17.581  -7.910   1.188  1.00  0.00    -0.000 C 
BRANCH  24  25
ATOM     25  C   UNL     1     -16.072  -7.857   0.865  1.00  0.00    -0.000 C 
BRANCH  25  26
ATOM     26  C   UNL     1     -15.723  -7.660  -0.623  1.00  0.00    -0.000 C 
BRANCH  26  27
ATOM     27  C   UNL     1     -14.632  -8.625  -1.118  1.00  0.00    -0.000 C 
BRANCH  27  28
ATOM     28  C   UNL     1     -15.093 -10.093  -1.126  1.00  0.00    -0.000 C 
BRANCH  28  29
ATOM     29  C   UNL     1     -15.649 -10.567  -2.487  1.00  0.00    -0.000 C 
BRANCH  29  30
ATOM     30  C   UNL     1     -15.465  -9.510  -3.591  1.00  0.00    -0.000 C 
BRANCH  30  31
ATOM     31  C   UNL     1     -16.740  -8.695  -3.845  1.00  0.00    -0.003 C 
ATOM     32  C   UNL     1     -16.647  -7.827  -5.100  1.00  0.00     0.004 C 
ENDBRANCH  30  31
ENDBRANCH  29  30
ENDBRANCH  28  29
ENDBRANCH  27  28
ENDBRANCH  26  27
ENDBRANCH  25  26
ENDBRANCH  24  25
ENDBRANCH  23  24
ENDBRANCH  22  23
ENDBRANCH  21  22
ENDBRANCH  20  21
ENDBRANCH  19  20
ENDBRANCH  18  19
ENDBRANCH   1  18
TORSDOF 28
ENDMDL
MODEL 8
REMARK VINA RESULT:    -4.559      2.249      5.600
REMARK INTER + INTRA:         -15.382
REMARK INTER:                 -12.219
REMARK INTRA:                  -3.164
REMARK UNBOUND:                -3.361
REMARK SMILES CCCCCCCCCCCCCCCCCCCCCCCCCCCCCC(=O)[O-]
REMARK SMILES IDX 16 1 17 2 18 3 19 4 20 5 21 6 22 7 23 8 24 9 25 10 26 11
REMARK SMILES IDX 27 12 28 13 29 14 30 15 31 16 32 17 15 18 14 19 13 20 12 21
REMARK SMILES IDX 11 22 10 23 9 24 8 25 7 26 6 27 5 28 4 29 3 30 2 31 1 32
REMARK H PARENT
REMARK Flexibility Score: inf
ROOT
ATOM      1  C   UNL     1     -16.180 -12.975  -3.285  1.00  0.00     0.000 C 
ENDROOT
BRANCH   1   2
ATOM      2  C   UNL     1     -15.065 -12.762  -2.251  1.00  0.00     0.000 C 
BRANCH   2   3
ATOM      3  C   UNL     1     -14.751 -14.033  -1.441  1.00  0.00     0.000 C 
BRANCH   3   4
ATOM      4  C   UNL     1     -13.250 -14.351  -1.278  1.00  0.00     0.000 C 
BRANCH   4   5
ATOM      5  C   UNL     1     -12.407 -14.197  -2.557  1.00  0.00     0.000 C 
BRANCH   5   6
ATOM      6  C   UNL     1     -11.152 -15.089  -2.554  1.00  0.00     0.000 C 
BRANCH   6   7
ATOM      7  C   UNL     1      -9.849 -14.273  -2.561  1.00  0.00     0.000 C 
BRANCH   7   8
ATOM      8  C   UNL     1      -8.597 -15.167  -2.574  1.00  0.00     0.000 C 
BRANCH   8   9
ATOM      9  C   UNL     1      -7.338 -14.443  -2.063  1.00  0.00     0.000 C 
BRANCH   9  10
ATOM     10  C   UNL     1      -7.283 -12.931  -2.362  1.00  0.00     0.000 C 
BRANCH  10  11
ATOM     11  C   UNL     1      -6.828 -12.562  -3.788  1.00  0.00     0.000 C 
BRANCH  11  12
ATOM     12  C   UNL     1      -6.522 -11.066  -4.009  1.00  0.00     0.000 C 
BRANCH  12  13
ATOM     13  C   UNL     1      -6.863 -10.151  -2.819  1.00  0.00     0.006 C 
BRANCH  13  14
ATOM     14  C   UNL     1      -6.210  -8.768  -2.925  1.00  0.00     0.053 C 
BRANCH  14  15
ATOM     15  C   UNL     1      -7.252  -7.695  -2.943  1.00  0.00     0.041 C 
ATOM     16  O   UNL     1      -6.963  -6.538  -3.346  1.00  0.00    -0.550 OA
ATOM     17  O   UNL     1      -8.556  -7.985  -2.558  1.00  0.00    -0.550 OA
ENDBRANCH  14  15
ENDBRANCH  13  14
ENDBRANCH  12  13
ENDBRANCH  11  12
ENDBRANCH  10  11
ENDBRANCH   9  10
ENDBRANCH   8   9
ENDBRANCH   7   8
ENDBRANCH   6   7
ENDBRANCH   5   6
ENDBRANCH   4   5
ENDBRANCH   3   4
ENDBRANCH   2   3
ENDBRANCH   1   2
BRANCH   1  18
ATOM     18  C   UNL     1     -16.777 -14.384  -3.156  1.00  0.00     0.000 C 
BRANCH  18  19
ATOM     19  C   UNL     1     -18.294 -14.370  -2.896  1.00  0.00     0.000 C 
BRANCH  19  20
ATOM     20  C   UNL     1     -18.830 -13.073  -2.263  1.00  0.00     0.000 C 
BRANCH  20  21
ATOM     21  C   UNL     1     -18.620 -13.022  -0.739  1.00  0.00     0.000 C 
BRANCH  21  22
ATOM     22  C   UNL     1     -18.203 -11.623  -0.237  1.00  0.00     0.000 C 
BRANCH  22  23
ATOM     23  C   UNL     1     -18.622 -10.473  -1.175  1.00  0.00     0.000 C 
BRANCH  23  24
ATOM     24  C   UNL     1     -18.993  -9.158  -0.466  1.00  0.00    -0.000 C 
BRANCH  24  25
ATOM     25  C   UNL     1     -18.285  -8.914   0.884  1.00  0.00    -0.000 C 
BRANCH  25  26
ATOM     26  C   UNL     1     -17.234  -7.788   0.883  1.00  0.00    -0.000 C 
BRANCH  26  27
ATOM     27  C   UNL     1     -15.792  -8.310   1.003  1.00  0.00    -0.000 C 
BRANCH  27  28
ATOM     28  C   UNL     1     -15.384  -9.210  -0.177  1.00  0.00    -0.000 C 
BRANCH  28  29
ATOM     29  C   UNL     1     -14.880  -8.433  -1.413  1.00  0.00    -0.000 C 
BRANCH  29  30
ATOM     30  C   UNL     1     -16.025  -7.725  -2.161  1.00  0.00    -0.000 C 
BRANCH  30  31
ATOM     31  C   UNL     1     -16.416  -8.446  -3.459  1.00  0.00    -0.003 C 
ATOM     32  C   UNL     1     -15.317  -9.379  -3.970  1.00  0.00     0.004 C 
ENDBRANCH  30  31
ENDBRANCH  29  30
ENDBRANCH  28  29
ENDBRANCH  27  28
ENDBRANCH  26  27
ENDBRANCH  25  26
ENDBRANCH  24  25
ENDBRANCH  23  24
ENDBRANCH  22  23
ENDBRANCH  21  22
ENDBRANCH  20  21
ENDBRANCH  19  20
ENDBRANCH  18  19
ENDBRANCH   1  18
TORSDOF 28
ENDMDL
MODEL 9
REMARK VINA RESULT:    -4.506      2.591      9.216
REMARK INTER + INTRA:         -15.243
REMARK INTER:                 -11.957
REMARK INTRA:                  -3.286
REMARK UNBOUND:                -3.361
REMARK SMILES CCCCCCCCCCCCCCCCCCCCCCCCCCCCCC(=O)[O-]
REMARK SMILES IDX 16 1 17 2 18 3 19 4 20 5 21 6 22 7 23 8 24 9 25 10 26 11
REMARK SMILES IDX 27 12 28 13 29 14 30 15 31 16 32 17 15 18 14 19 13 20 12 21
REMARK SMILES IDX 11 22 10 23 9 24 8 25 7 26 6 27 5 28 4 29 3 30 2 31 1 32
REMARK H PARENT
REMARK Flexibility Score: inf
ROOT
ATOM      1  C   UNL     1     -15.278  -8.859  -0.897  1.00  0.00     0.000 C 
ENDROOT
BRANCH   1   2
ATOM      2  C   UNL     1     -15.999  -7.620  -0.348  1.00  0.00     0.000 C 
BRANCH   2   3
ATOM      3  C   UNL     1     -16.885  -7.936   0.872  1.00  0.00     0.000 C 
BRANCH   3   4
ATOM      4  C   UNL     1     -17.792  -9.174   0.718  1.00  0.00     0.000 C 
BRANCH   4   5
ATOM      5  C   UNL     1     -18.951  -9.016  -0.283  1.00  0.00     0.000 C 
BRANCH   5   6
ATOM      6  C   UNL     1     -19.214 -10.295  -1.098  1.00  0.00     0.000 C 
BRANCH   6   7
ATOM      7  C   UNL     1     -19.031 -11.573  -0.263  1.00  0.00     0.000 C 
BRANCH   7   8
ATOM      8  C   UNL     1     -19.215 -12.851  -1.100  1.00  0.00     0.000 C 
BRANCH   8   9
ATOM      9  C   UNL     1     -18.652 -12.719  -2.527  1.00  0.00     0.000 C 
BRANCH   9  10
ATOM     10  C   UNL     1     -17.869 -13.945  -3.040  1.00  0.00     0.000 C 
BRANCH  10  11
ATOM     11  C   UNL     1     -16.334 -13.812  -2.983  1.00  0.00     0.000 C 
BRANCH  11  12
ATOM     12  C   UNL     1     -15.815 -12.435  -2.523  1.00  0.00     0.000 C 
BRANCH  12  13
ATOM     13  C   UNL     1     -14.897 -12.466  -1.287  1.00  0.00     0.006 C 
BRANCH  13  14
ATOM     14  C   UNL     1     -15.661 -12.260   0.027  1.00  0.00     0.053 C 
BRANCH  14  15
ATOM     15  C   UNL     1     -15.837 -13.562   0.740  1.00  0.00     0.041 C 
ATOM     16  O   UNL     1     -16.474 -14.501   0.195  1.00  0.00    -0.550 OA
ATOM     17  O   UNL     1     -15.258 -13.756   1.989  1.00  0.00    -0.550 OA
ENDBRANCH  14  15
ENDBRANCH  13  14
ENDBRANCH  12  13
ENDBRANCH  11  12
ENDBRANCH  10  11
ENDBRANCH   9  10
ENDBRANCH   8   9
ENDBRANCH   7   8
ENDBRANCH   6   7
ENDBRANCH   5   6
ENDBRANCH   4   5
ENDBRANCH   3   4
ENDBRANCH   2   3
ENDBRANCH   1   2
BRANCH   1  18
ATOM     18  C   UNL     1     -14.220  -8.456  -1.933  1.00  0.00     0.000 C 
BRANCH  18  19
ATOM     19  C   UNL     1     -12.793  -8.432  -1.355  1.00  0.00     0.000 C 
BRANCH  19  20
ATOM     20  C   UNL     1     -11.691  -8.069  -2.367  1.00  0.00     0.000 C 
BRANCH  20  21
ATOM     21  C   UNL     1     -10.359  -7.700  -1.690  1.00  0.00     0.000 C 
BRANCH  21  22
ATOM     22  C   UNL     1      -9.150  -8.439  -2.304  1.00  0.00     0.000 C 
BRANCH  22  23
ATOM     23  C   UNL     1      -7.905  -7.549  -2.493  1.00  0.00     0.000 C 
BRANCH  23  24
ATOM     24  C   UNL     1      -6.832  -8.123  -3.434  1.00  0.00    -0.000 C 
BRANCH  24  25
ATOM     25  C   UNL     1      -7.312  -9.250  -4.373  1.00  0.00    -0.000 C 
BRANCH  25  26
ATOM     26  C   UNL     1      -6.220 -10.232  -4.839  1.00  0.00    -0.000 C 
BRANCH  26  27
ATOM     27  C   UNL     1      -6.791 -11.513  -5.469  1.00  0.00    -0.000 C 
BRANCH  27  28
ATOM     28  C   UNL     1      -6.694 -12.732  -4.534  1.00  0.00    -0.000 C 
BRANCH  28  29
ATOM     29  C   UNL     1      -5.973 -12.441  -3.199  1.00  0.00    -0.000 C 
BRANCH  29  30
ATOM     30  C   UNL     1      -6.926 -12.529  -1.993  1.00  0.00    -0.000 C 
BRANCH  30  31
ATOM     31  C   UNL     1      -6.293 -11.992  -0.701  1.00  0.00    -0.003 C 
ATOM     32  C   UNL     1      -6.186 -10.466  -0.686  1.00  0.00     0.004 C 
ENDBRANCH  30  31
ENDBRANCH  29  30
ENDBRANCH  28  29
ENDBRANCH  27  28
ENDBRANCH  26  27
ENDBRANCH  25  26
ENDBRANCH  24  25
ENDBRANCH  23  24
ENDBRANCH  22  23
ENDBRANCH  21  22
ENDBRANCH  20  21
ENDBRANCH  19  20
ENDBRANCH  18  19
ENDBRANCH   1  18
TORSDOF 28
ENDMDL
