MODEL 1
REMARK VINA RESULT:    -4.376      0.000      0.000
REMARK INTER + INTRA:         -11.442
REMARK INTER:                  -8.468
REMARK INTRA:                  -2.974
REMARK UNBOUND:                -2.974
REMARK SMILES CCCCCCCCCCCCCCCCCC(=O)[O-]
REMARK SMILES IDX 10 1 11 2 12 3 13 4 14 5 15 6 16 7 17 8 18 9 19 10 20 11
REMARK SMILES IDX 9 12 8 13 7 14 6 15 5 16 4 17 3 18 2 19 1 20
REMARK H PARENT
REMARK Flexibility Score: inf
ROOT
ATOM      1  C   UNL     1     208.200 205.257 158.783  1.00  0.00     0.000 C 
ENDROOT
BRANCH   1   2
ATOM      2  C   UNL     1     206.973 204.981 159.675  1.00  0.00     0.000 C 
BRANCH   2   3
ATOM      3  C   UNL     1     205.765 204.365 158.947  1.00  0.00     0.000 C 
BRANCH   3   4
ATOM      4  C   UNL     1     206.043 202.946 158.429  1.00  0.00     0.000 C 
BRANCH   4   5
ATOM      5  C   UNL     1     206.070 202.917 156.895  1.00  0.00     0.000 C 
BRANCH   5   6
ATOM      6  C   UNL     1     206.993 201.807 156.381  1.00  0.00     0.000 C 
BRANCH   6   7
ATOM      7  C   UNL     1     207.970 202.347 155.326  1.00  0.00     0.006 C 
BRANCH   7   8
ATOM      8  C   UNL     1     209.399 202.472 155.867  1.00  0.00     0.053 C 
BRANCH   8   9
ATOM      9  C   UNL     1     210.414 201.994 154.875  1.00  0.00     0.041 C 
ATOM     10  O   UNL     1     211.609 202.382 154.954  1.00  0.00    -0.550 OA
ATOM     11  O   UNL     1     210.033 201.144 153.843  1.00  0.00    -0.550 OA
ENDBRANCH   8   9
ENDBRANCH   7   8
ENDBRANCH   6   7
ENDBRANCH   5   6
ENDBRANCH   4   5
ENDBRANCH   3   4
ENDBRANCH   2   3
ENDBRANCH   1   2
BRANCH   1  12
ATOM     12  C   UNL     1     208.538 206.748 158.576  1.00  0.00     0.000 C 
BRANCH  12  13
ATOM     13  C   UNL     1     208.814 207.154 157.117  1.00  0.00    -0.000 C 
BRANCH  13  14
ATOM     14  C   UNL     1     208.365 206.089 156.106  1.00  0.00    -0.000 C 
BRANCH  14  15
ATOM     15  C   UNL     1     207.264 206.637 155.185  1.00  0.00    -0.000 C 
BRANCH  15  16
ATOM     16  C   UNL     1     205.887 206.021 155.479  1.00  0.00    -0.000 C 
BRANCH  16  17
ATOM     17  C   UNL     1     205.020 206.915 156.381  1.00  0.00    -0.000 C 
BRANCH  17  18
ATOM     18  C   UNL     1     205.502 208.380 156.385  1.00  0.00    -0.000 C 
BRANCH  18  19
ATOM     19  C   UNL     1     205.447 209.044 157.771  1.00  0.00    -0.003 C 
ATOM     20  C   UNL     1     205.021 208.083 158.879  1.00  0.00     0.004 C 
ENDBRANCH  18  19
ENDBRANCH  17  18
ENDBRANCH  16  17
ENDBRANCH  15  16
ENDBRANCH  14  15
ENDBRANCH  13  14
ENDBRANCH  12  13
ENDBRANCH   1  12
TORSDOF 16
ENDMDL
MODEL 2
REMARK VINA RESULT:    -4.375      3.364      6.261
REMARK INTER + INTRA:         -11.442
REMARK INTER:                  -8.177
REMARK INTRA:                  -3.264
REMARK UNBOUND:                -2.974
REMARK SMILES CCCCCCCCCCCCCCCCCC(=O)[O-]
REMARK SMILES IDX 10 1 11 2 12 3 13 4 14 5 15 6 16 7 17 8 18 9 19 10 20 11
REMARK SMILES IDX 9 12 8 13 7 14 6 15 5 16 4 17 3 18 2 19 1 20
REMARK H PARENT
REMARK Flexibility Score: inf
ROOT
ATOM      1  C   UNL     1     208.651 207.119 157.406  1.00  0.00     0.000 C 
ENDROOT
BRANCH   1   2
ATOM      2  C   UNL     1     208.551 206.263 156.127  1.00  0.00     0.000 C 
BRANCH   2   3
ATOM      3  C   UNL     1     207.872 206.956 154.932  1.00  0.00     0.000 C 
BRANCH   3   4
ATOM      4  C   UNL     1     206.535 206.306 154.548  1.00  0.00     0.000 C 
BRANCH   4   5
ATOM      5  C   UNL     1     205.354 207.188 154.975  1.00  0.00     0.000 C 
BRANCH   5   6
ATOM      6  C   UNL     1     204.708 206.659 156.261  1.00  0.00     0.000 C 
BRANCH   6   7
ATOM      7  C   UNL     1     205.008 207.586 157.449  1.00  0.00     0.006 C 
BRANCH   7   8
ATOM      8  C   UNL     1     205.451 208.983 156.997  1.00  0.00     0.053 C 
BRANCH   8   9
ATOM      9  C   UNL     1     205.853 209.841 158.157  1.00  0.00     0.041 C 
ATOM     10  O   UNL     1     205.069 209.997 159.131  1.00  0.00    -0.550 OA
ATOM     11  O   UNL     1     207.079 210.494 158.150  1.00  0.00    -0.550 OA
ENDBRANCH   8   9
ENDBRANCH   7   8
ENDBRANCH   6   7
ENDBRANCH   5   6
ENDBRANCH   4   5
ENDBRANCH   3   4
ENDBRANCH   2   3
ENDBRANCH   1   2
BRANCH   1  12
ATOM     12  C   UNL     1     208.191 206.418 158.701  1.00  0.00     0.000 C 
BRANCH  12  13
ATOM     13  C   UNL     1     207.753 204.953 158.525  1.00  0.00    -0.000 C 
BRANCH  13  14
ATOM     14  C   UNL     1     206.482 204.611 159.316  1.00  0.00    -0.000 C 
BRANCH  14  15
ATOM     15  C   UNL     1     205.490 203.825 158.447  1.00  0.00    -0.000 C 
BRANCH  15  16
ATOM     16  C   UNL     1     206.186 202.808 157.528  1.00  0.00    -0.000 C 
BRANCH  16  17
ATOM     17  C   UNL     1     205.972 203.115 156.036  1.00  0.00    -0.000 C 
BRANCH  17  18
ATOM     18  C   UNL     1     207.239 202.842 155.199  1.00  0.00    -0.000 C 
BRANCH  18  19
ATOM     19  C   UNL     1     208.352 202.125 155.981  1.00  0.00    -0.003 C 
ATOM     20  C   UNL     1     209.725 202.768 155.796  1.00  0.00     0.004 C 
ENDBRANCH  18  19
ENDBRANCH  17  18
ENDBRANCH  16  17
ENDBRANCH  15  16
ENDBRANCH  14  15
ENDBRANCH  13  14
ENDBRANCH  12  13
ENDBRANCH   1  12
TORSDOF 16
ENDMDL
MODEL 3
REMARK VINA RESULT:    -4.286      4.696      7.577
REMARK INTER + INTRA:         -11.270
REMARK INTER:                  -8.633
REMARK INTRA:                  -2.637
REMARK UNBOUND:                -2.974
REMARK SMILES CCCCCCCCCCCCCCCCCC(=O)[O-]
REMARK SMILES IDX 10 1 11 2 12 3 13 4 14 5 15 6 16 7 17 8 18 9 19 10 20 11
REMARK SMILES IDX 9 12 8 13 7 14 6 15 5 16 4 17 3 18 2 19 1 20
REMARK H PARENT
REMARK Flexibility Score: inf
ROOT
ATOM      1  C   UNL     1     206.365 206.482 154.892  1.00  0.00     0.000 C 
ENDROOT
BRANCH   1   2
ATOM      2  C   UNL     1     205.251 207.340 155.525  1.00  0.00     0.000 C 
BRANCH   2   3
ATOM      3  C   UNL     1     204.613 206.744 156.792  1.00  0.00     0.000 C 
BRANCH   3   4
ATOM      4  C   UNL     1     204.846 207.610 158.040  1.00  0.00     0.000 C 
BRANCH   4   5
ATOM      5  C   UNL     1     205.658 208.865 157.692  1.00  0.00     0.000 C 
BRANCH   5   6
ATOM      6  C   UNL     1     205.380 209.994 158.691  1.00  0.00     0.000 C 
BRANCH   6   7
ATOM      7  C   UNL     1     204.178 209.656 159.584  1.00  0.00     0.006 C 
BRANCH   7   8
ATOM      8  C   UNL     1     203.068 210.710 159.488  1.00  0.00     0.053 C 
BRANCH   8   9
ATOM      9  C   UNL     1     201.857 210.317 160.277  1.00  0.00     0.041 C 
ATOM     10  O   UNL     1     201.220 209.271 159.981  1.00  0.00    -0.550 OA
ATOM     11  O   UNL     1     201.412 211.121 161.319  1.00  0.00    -0.550 OA
ENDBRANCH   8   9
ENDBRANCH   7   8
ENDBRANCH   6   7
ENDBRANCH   5   6
ENDBRANCH   4   5
ENDBRANCH   3   4
ENDBRANCH   2   3
ENDBRANCH   1   2
BRANCH   1  12
ATOM     12  C   UNL     1     207.800 207.001 155.118  1.00  0.00     0.000 C 
BRANCH  12  13
ATOM     13  C   UNL     1     208.597 206.252 156.201  1.00  0.00    -0.000 C 
BRANCH  13  14
ATOM     14  C   UNL     1     208.807 207.088 157.472  1.00  0.00    -0.000 C 
BRANCH  14  15
ATOM     15  C   UNL     1     208.100 206.445 158.675  1.00  0.00    -0.000 C 
BRANCH  15  16
ATOM     16  C   UNL     1     207.819 204.949 158.464  1.00  0.00    -0.000 C 
BRANCH  16  17
ATOM     17  C   UNL     1     206.537 204.481 159.173  1.00  0.00    -0.000 C 
BRANCH  17  18
ATOM     18  C   UNL     1     205.696 203.535 158.290  1.00  0.00    -0.000 C 
BRANCH  18  19
ATOM     19  C   UNL     1     206.266 203.344 156.874  1.00  0.00    -0.003 C 
ATOM     20  C   UNL     1     206.504 201.879 156.517  1.00  0.00     0.004 C 
ENDBRANCH  18  19
ENDBRANCH  17  18
ENDBRANCH  16  17
ENDBRANCH  15  16
ENDBRANCH  14  15
ENDBRANCH  13  14
ENDBRANCH  12  13
ENDBRANCH   1  12
TORSDOF 16
ENDMDL
MODEL 4
REMARK VINA RESULT:    -4.238      1.015      1.931
REMARK INTER + INTRA:         -11.176
REMARK INTER:                  -8.482
REMARK INTRA:                  -2.694
REMARK UNBOUND:                -2.974
REMARK SMILES CCCCCCCCCCCCCCCCCC(=O)[O-]
REMARK SMILES IDX 10 1 11 2 12 3 13 4 14 5 15 6 16 7 17 8 18 9 19 10 20 11
REMARK SMILES IDX 9 12 8 13 7 14 6 15 5 16 4 17 3 18 2 19 1 20
REMARK H PARENT
REMARK Flexibility Score: inf
ROOT
ATOM      1  C   UNL     1     206.749 204.525 159.697  1.00  0.00     0.000 C 
ENDROOT
BRANCH   1   2
ATOM      2  C   UNL     1     205.861 203.810 158.660  1.00  0.00     0.000 C 
BRANCH   2   3
ATOM      3  C   UNL     1     205.981 202.276 158.647  1.00  0.00     0.000 C 
BRANCH   3   4
ATOM      4  C   UNL     1     206.392 201.723 157.274  1.00  0.00     0.000 C 
BRANCH   4   5
ATOM      5  C   UNL     1     206.222 202.787 156.181  1.00  0.00     0.000 C 
BRANCH   5   6
ATOM      6  C   UNL     1     207.471 202.871 155.295  1.00  0.00     0.000 C 
BRANCH   6   7
ATOM      7  C   UNL     1     208.614 202.024 155.874  1.00  0.00     0.006 C 
BRANCH   7   8
ATOM      8  C   UNL     1     209.979 202.706 155.716  1.00  0.00     0.053 C 
BRANCH   8   9
ATOM      9  C   UNL     1     210.784 202.091 154.614  1.00  0.00     0.041 C 
ATOM     10  O   UNL     1     211.939 202.522 154.356  1.00  0.00    -0.550 OA
ATOM     11  O   UNL     1     210.248 201.062 153.849  1.00  0.00    -0.550 OA
ENDBRANCH   8   9
ENDBRANCH   7   8
ENDBRANCH   6   7
ENDBRANCH   5   6
ENDBRANCH   4   5
ENDBRANCH   3   4
ENDBRANCH   2   3
ENDBRANCH   1   2
BRANCH   1  12
ATOM     12  C   UNL     1     207.658 205.635 159.128  1.00  0.00     0.000 C 
BRANCH  12  13
ATOM     13  C   UNL     1     208.324 205.300 157.781  1.00  0.00    -0.000 C 
BRANCH  13  14
ATOM     14  C   UNL     1     208.303 206.478 156.797  1.00  0.00    -0.000 C 
BRANCH  14  15
ATOM     15  C   UNL     1     208.008 207.798 157.526  1.00  0.00    -0.000 C 
BRANCH  15  16
ATOM     16  C   UNL     1     206.663 208.414 157.111  1.00  0.00    -0.000 C 
BRANCH  16  17
ATOM     17  C   UNL     1     205.671 208.514 158.283  1.00  0.00    -0.000 C 
BRANCH  17  18
ATOM     18  C   UNL     1     204.490 207.533 158.131  1.00  0.00    -0.000 C 
BRANCH  18  19
ATOM     19  C   UNL     1     204.570 206.665 156.864  1.00  0.00    -0.003 C 
ATOM     20  C   UNL     1     203.472 205.605 156.795  1.00  0.00     0.004 C 
ENDBRANCH  18  19
ENDBRANCH  17  18
ENDBRANCH  16  17
ENDBRANCH  15  16
ENDBRANCH  14  15
ENDBRANCH  13  14
ENDBRANCH  12  13
ENDBRANCH   1  12
TORSDOF 16
ENDMDL
MODEL 5
REMARK VINA RESULT:    -4.219      1.218      3.315
REMARK INTER + INTRA:         -11.139
REMARK INTER:                  -9.104
REMARK INTRA:                  -2.035
REMARK UNBOUND:                -2.974
REMARK SMILES CCCCCCCCCCCCCCCCCC(=O)[O-]
REMARK SMILES IDX 10 1 11 2 12 3 13 4 14 5 15 6 16 7 17 8 18 9 19 10 20 11
REMARK SMILES IDX 9 12 8 13 7 14 6 15 5 16 4 17 3 18 2 19 1 20
REMARK H PARENT
REMARK Flexibility Score: inf
ROOT
ATOM      1  C   UNL     1     203.622 206.255 156.968  1.00  0.00     0.000 C 
ENDROOT
BRANCH   1   2
ATOM      2  C   UNL     1     203.928 204.861 157.552  1.00  0.00     0.000 C 
BRANCH   2   3
ATOM      3  C   UNL     1     205.266 204.750 158.303  1.00  0.00     0.000 C 
BRANCH   3   4
ATOM      4  C   UNL     1     206.036 203.466 157.961  1.00  0.00     0.000 C 
BRANCH   4   5
ATOM      5  C   UNL     1     206.212 203.321 156.444  1.00  0.00     0.000 C 
BRANCH   5   6
ATOM      6  C   UNL     1     206.871 201.982 156.092  1.00  0.00     0.000 C 
BRANCH   6   7
ATOM      7  C   UNL     1     207.988 202.173 155.056  1.00  0.00     0.006 C 
BRANCH   7   8
ATOM      8  C   UNL     1     209.347 202.451 155.712  1.00  0.00     0.053 C 
BRANCH   8   9
ATOM      9  C   UNL     1     210.485 202.022 154.838  1.00  0.00     0.041 C 
ATOM     10  O   UNL     1     211.617 202.559 154.963  1.00  0.00    -0.550 OA
ATOM     11  O   UNL     1     210.288 201.052 153.863  1.00  0.00    -0.550 OA
ENDBRANCH   8   9
ENDBRANCH   7   8
ENDBRANCH   6   7
ENDBRANCH   5   6
ENDBRANCH   4   5
ENDBRANCH   3   4
ENDBRANCH   2   3
ENDBRANCH   1   2
BRANCH   1  12
ATOM     12  C   UNL     1     204.595 206.732 155.870  1.00  0.00     0.000 C 
BRANCH  12  13
ATOM     13  C   UNL     1     205.256 208.097 156.136  1.00  0.00    -0.000 C 
BRANCH  13  14
ATOM     14  C   UNL     1     205.941 208.170 157.508  1.00  0.00    -0.000 C 
BRANCH  14  15
ATOM     15  C   UNL     1     207.220 209.018 157.438  1.00  0.00    -0.000 C 
BRANCH  15  16
ATOM     16  C   UNL     1     208.496 208.177 157.598  1.00  0.00    -0.000 C 
BRANCH  16  17
ATOM     17  C   UNL     1     208.273 206.694 157.254  1.00  0.00    -0.000 C 
BRANCH  17  18
ATOM     18  C   UNL     1     208.497 206.406 155.755  1.00  0.00    -0.000 C 
BRANCH  18  19
ATOM     19  C   UNL     1     209.480 207.376 155.080  1.00  0.00    -0.003 C 
ATOM     20  C   UNL     1     210.895 206.812 154.965  1.00  0.00     0.004 C 
ENDBRANCH  18  19
ENDBRANCH  17  18
ENDBRANCH  16  17
ENDBRANCH  15  16
ENDBRANCH  14  15
ENDBRANCH  13  14
ENDBRANCH  12  13
ENDBRANCH   1  12
TORSDOF 16
ENDMDL
MODEL 6
REMARK VINA RESULT:    -4.211      1.431      2.749
REMARK INTER + INTRA:         -11.124
REMARK INTER:                  -8.495
REMARK INTRA:                  -2.629
REMARK UNBOUND:                -2.974
REMARK SMILES CCCCCCCCCCCCCCCCCC(=O)[O-]
REMARK SMILES IDX 10 1 11 2 12 3 13 4 14 5 15 6 16 7 17 8 18 9 19 10 20 11
REMARK SMILES IDX 9 12 8 13 7 14 6 15 5 16 4 17 3 18 2 19 1 20
REMARK H PARENT
REMARK Flexibility Score: inf
ROOT
ATOM      1  C   UNL     1     205.738 203.431 158.585  1.00  0.00     0.000 C 
ENDROOT
BRANCH   1   2
ATOM      2  C   UNL     1     205.991 201.913 158.500  1.00  0.00     0.000 C 
BRANCH   2   3
ATOM      3  C   UNL     1     206.668 201.438 157.201  1.00  0.00     0.000 C 
BRANCH   3   4
ATOM      4  C   UNL     1     206.368 202.354 156.005  1.00  0.00     0.000 C 
BRANCH   4   5
ATOM      5  C   UNL     1     207.665 202.800 155.317  1.00  0.00     0.000 C 
BRANCH   5   6
ATOM      6  C   UNL     1     208.728 203.196 156.349  1.00  0.00     0.000 C 
BRANCH   6   7
ATOM      7  C   UNL     1     210.105 203.353 155.688  1.00  0.00     0.006 C 
BRANCH   7   8
ATOM      8  C   UNL     1     210.575 202.059 155.011  1.00  0.00     0.053 C 
BRANCH   8   9
ATOM      9  C   UNL     1     211.979 202.176 154.502  1.00  0.00     0.041 C 
ATOM     10  O   UNL     1     212.826 201.284 154.770  1.00  0.00    -0.550 OA
ATOM     11  O   UNL     1     212.361 203.287 153.758  1.00  0.00    -0.550 OA
ENDBRANCH   8   9
ENDBRANCH   7   8
ENDBRANCH   6   7
ENDBRANCH   5   6
ENDBRANCH   4   5
ENDBRANCH   3   4
ENDBRANCH   2   3
ENDBRANCH   1   2
BRANCH   1  12
ATOM     12  C   UNL     1     206.536 204.168 159.680  1.00  0.00     0.000 C 
BRANCH  12  13
ATOM     13  C   UNL     1     206.787 205.662 159.406  1.00  0.00    -0.000 C 
BRANCH  13  14
ATOM     14  C   UNL     1     208.271 205.985 159.181  1.00  0.00    -0.000 C 
BRANCH  14  15
ATOM     15  C   UNL     1     208.473 206.750 157.864  1.00  0.00    -0.000 C 
BRANCH  15  16
ATOM     16  C   UNL     1     207.145 207.083 157.166  1.00  0.00    -0.000 C 
BRANCH  16  17
ATOM     17  C   UNL     1     207.016 206.410 155.788  1.00  0.00    -0.000 C 
BRANCH  17  18
ATOM     18  C   UNL     1     205.547 206.119 155.418  1.00  0.00    -0.000 C 
BRANCH  18  19
ATOM     19  C   UNL     1     204.533 206.690 156.424  1.00  0.00    -0.003 C 
ATOM     20  C   UNL     1     203.545 205.645 156.938  1.00  0.00     0.004 C 
ENDBRANCH  18  19
ENDBRANCH  17  18
ENDBRANCH  16  17
ENDBRANCH  15  16
ENDBRANCH  14  15
ENDBRANCH  13  14
ENDBRANCH  12  13
ENDBRANCH   1  12
TORSDOF 16
ENDMDL
MODEL 7
REMARK VINA RESULT:    -4.176      4.242      6.403
REMARK INTER + INTRA:         -11.056
REMARK INTER:                  -8.162
REMARK INTRA:                  -2.894
REMARK UNBOUND:                -2.974
REMARK SMILES CCCCCCCCCCCCCCCCCC(=O)[O-]
REMARK SMILES IDX 10 1 11 2 12 3 13 4 14 5 15 6 16 7 17 8 18 9 19 10 20 11
REMARK SMILES IDX 9 12 8 13 7 14 6 15 5 16 4 17 3 18 2 19 1 20
REMARK H PARENT
REMARK Flexibility Score: inf
ROOT
ATOM      1  C   UNL     1     206.721 205.505 159.244  1.00  0.00     0.000 C 
ENDROOT
BRANCH   1   2
ATOM      2  C   UNL     1     208.197 205.735 158.864  1.00  0.00     0.000 C 
BRANCH   2   3
ATOM      3  C   UNL     1     208.593 207.208 158.660  1.00  0.00     0.000 C 
BRANCH   3   4
ATOM      4  C   UNL     1     208.860 207.555 157.188  1.00  0.00     0.000 C 
BRANCH   4   5
ATOM      5  C   UNL     1     207.815 208.546 156.659  1.00  0.00     0.000 C 
BRANCH   5   6
ATOM      6  C   UNL     1     207.147 209.307 157.810  1.00  0.00     0.000 C 
BRANCH   6   7
ATOM      7  C   UNL     1     205.618 209.297 157.663  1.00  0.00     0.006 C 
BRANCH   7   8
ATOM      8  C   UNL     1     204.913 208.866 158.955  1.00  0.00     0.053 C 
BRANCH   8   9
ATOM      9  C   UNL     1     203.871 209.856 159.376  1.00  0.00     0.041 C 
ATOM     10  O   UNL     1     203.984 211.069 159.057  1.00  0.00    -0.550 OA
ATOM     11  O   UNL     1     202.791 209.445 160.148  1.00  0.00    -0.550 OA
ENDBRANCH   8   9
ENDBRANCH   7   8
ENDBRANCH   6   7
ENDBRANCH   5   6
ENDBRANCH   4   5
ENDBRANCH   3   4
ENDBRANCH   2   3
ENDBRANCH   1   2
BRANCH   1  12
ATOM     12  C   UNL     1     206.350 204.044 159.574  1.00  0.00     0.000 C 
BRANCH  12  13
ATOM     13  C   UNL     1     205.542 203.318 158.483  1.00  0.00    -0.000 C 
BRANCH  13  14
ATOM     14  C   UNL     1     206.432 202.680 157.407  1.00  0.00    -0.000 C 
BRANCH  14  15
ATOM     15  C   UNL     1     206.079 203.220 156.012  1.00  0.00    -0.000 C 
BRANCH  15  16
ATOM     16  C   UNL     1     206.934 204.434 155.616  1.00  0.00    -0.000 C 
BRANCH  16  17
ATOM     17  C   UNL     1     206.085 205.624 155.137  1.00  0.00    -0.000 C 
BRANCH  17  18
ATOM     18  C   UNL     1     205.276 206.262 156.286  1.00  0.00    -0.000 C 
BRANCH  18  19
ATOM     19  C   UNL     1     203.756 206.068 156.152  1.00  0.00    -0.003 C 
ATOM     20  C   UNL     1     203.047 205.943 157.498  1.00  0.00     0.004 C 
ENDBRANCH  18  19
ENDBRANCH  17  18
ENDBRANCH  16  17
ENDBRANCH  15  16
ENDBRANCH  14  15
ENDBRANCH  13  14
ENDBRANCH  12  13
ENDBRANCH   1  12
TORSDOF 16
ENDMDL
MODEL 8
REMARK VINA RESULT:    -4.150      3.741      6.028
REMARK INTER + INTRA:         -11.006
REMARK INTER:                  -8.616
REMARK INTRA:                  -2.390
REMARK UNBOUND:                -2.974
REMARK SMILES CCCCCCCCCCCCCCCCCC(=O)[O-]
REMARK SMILES IDX 10 1 11 2 12 3 13 4 14 5 15 6 16 7 17 8 18 9 19 10 20 11
REMARK SMILES IDX 9 12 8 13 7 14 6 15 5 16 4 17 3 18 2 19 1 20
REMARK H PARENT
REMARK Flexibility Score: inf
ROOT
ATOM      1  C   UNL     1     205.634 202.944 158.463  1.00  0.00     0.000 C 
ENDROOT
BRANCH   1   2
ATOM      2  C   UNL     1     205.190 204.400 158.211  1.00  0.00     0.000 C 
BRANCH   2   3
ATOM      3  C   UNL     1     203.722 204.567 157.783  1.00  0.00     0.000 C 
BRANCH   3   4
ATOM      4  C   UNL     1     203.494 205.813 156.914  1.00  0.00     0.000 C 
BRANCH   4   5
ATOM      5  C   UNL     1     204.811 206.296 156.291  1.00  0.00     0.000 C 
BRANCH   5   6
ATOM      6  C   UNL     1     204.698 207.752 155.826  1.00  0.00     0.000 C 
BRANCH   6   7
ATOM      7  C   UNL     1     205.784 208.623 156.476  1.00  0.00     0.006 C 
BRANCH   7   8
ATOM      8  C   UNL     1     205.975 208.300 157.963  1.00  0.00     0.053 C 
BRANCH   8   9
ATOM      9  C   UNL     1     204.999 209.042 158.823  1.00  0.00     0.041 C 
ATOM     10  O   UNL     1     205.188 210.259 159.090  1.00  0.00    -0.550 OA
ATOM     11  O   UNL     1     203.898 208.384 159.357  1.00  0.00    -0.550 OA
ENDBRANCH   8   9
ENDBRANCH   7   8
ENDBRANCH   6   7
ENDBRANCH   5   6
ENDBRANCH   4   5
ENDBRANCH   3   4
ENDBRANCH   2   3
ENDBRANCH   1   2
BRANCH   1  12
ATOM     12  C   UNL     1     206.421 202.291 157.308  1.00  0.00     0.000 C 
BRANCH  12  13
ATOM     13  C   UNL     1     206.078 202.824 155.905  1.00  0.00    -0.000 C 
BRANCH  13  14
ATOM     14  C   UNL     1     207.189 203.702 155.312  1.00  0.00    -0.000 C 
BRANCH  14  15
ATOM     15  C   UNL     1     208.332 203.896 156.320  1.00  0.00    -0.000 C 
BRANCH  15  16
ATOM     16  C   UNL     1     208.614 205.378 156.613  1.00  0.00    -0.000 C 
BRANCH  16  17
ATOM     17  C   UNL     1     208.213 206.299 155.447  1.00  0.00    -0.000 C 
BRANCH  17  18
ATOM     18  C   UNL     1     209.192 207.478 155.274  1.00  0.00    -0.000 C 
BRANCH  18  19
ATOM     19  C   UNL     1     210.624 207.043 154.918  1.00  0.00    -0.003 C 
ATOM     20  C   UNL     1     211.692 207.792 155.711  1.00  0.00     0.004 C 
ENDBRANCH  18  19
ENDBRANCH  17  18
ENDBRANCH  16  17
ENDBRANCH  15  16
ENDBRANCH  14  15
ENDBRANCH  13  14
ENDBRANCH  12  13
ENDBRANCH   1  12
TORSDOF 16
ENDMDL
MODEL 9
REMARK VINA RESULT:    -4.139      4.694      7.665
REMARK INTER + INTRA:         -10.985
REMARK INTER:                  -8.448
REMARK INTRA:                  -2.538
REMARK UNBOUND:                -2.974
REMARK SMILES CCCCCCCCCCCCCCCCCC(=O)[O-]
REMARK SMILES IDX 10 1 11 2 12 3 13 4 14 5 15 6 16 7 17 8 18 9 19 10 20 11
REMARK SMILES IDX 9 12 8 13 7 14 6 15 5 16 4 17 3 18 2 19 1 20
REMARK H PARENT
REMARK Flexibility Score: inf
ROOT
ATOM      1  C   UNL     1     204.350 204.807 156.774  1.00  0.00     0.000 C 
ENDROOT
BRANCH   1   2
ATOM      2  C   UNL     1     203.994 206.305 156.701  1.00  0.00     0.000 C 
BRANCH   2   3
ATOM      3  C   UNL     1     204.858 207.132 155.733  1.00  0.00     0.000 C 
BRANCH   3   4
ATOM      4  C   UNL     1     205.393 208.424 156.369  1.00  0.00     0.000 C 
BRANCH   4   5
ATOM      5  C   UNL     1     205.282 208.370 157.898  1.00  0.00     0.000 C 
BRANCH   5   6
ATOM      6  C   UNL     1     205.357 209.775 158.507  1.00  0.00     0.000 C 
BRANCH   6   7
ATOM      7  C   UNL     1     204.391 209.914 159.692  1.00  0.00     0.006 C 
BRANCH   7   8
ATOM      8  C   UNL     1     203.153 210.748 159.339  1.00  0.00     0.053 C 
BRANCH   8   9
ATOM      9  C   UNL     1     201.962 210.349 160.155  1.00  0.00     0.041 C 
ATOM     10  O   UNL     1     201.551 211.097 161.081  1.00  0.00    -0.550 OA
ATOM     11  O   UNL     1     201.325 209.138 159.914  1.00  0.00    -0.550 OA
ENDBRANCH   8   9
ENDBRANCH   7   8
ENDBRANCH   6   7
ENDBRANCH   5   6
ENDBRANCH   4   5
ENDBRANCH   3   4
ENDBRANCH   2   3
ENDBRANCH   1   2
BRANCH   1  12
ATOM     12  C   UNL     1     204.381 204.210 158.196  1.00  0.00     0.000 C 
BRANCH  12  13
ATOM     13  C   UNL     1     205.690 203.489 158.568  1.00  0.00    -0.000 C 
BRANCH  13  14
ATOM     14  C   UNL     1     206.439 204.170 159.721  1.00  0.00    -0.000 C 
BRANCH  14  15
ATOM     15  C   UNL     1     206.844 205.603 159.342  1.00  0.00    -0.000 C 
BRANCH  15  16
ATOM     16  C   UNL     1     208.280 205.687 158.803  1.00  0.00    -0.000 C 
BRANCH  16  17
ATOM     17  C   UNL     1     208.360 206.402 157.443  1.00  0.00    -0.000 C 
BRANCH  17  18
ATOM     18  C   UNL     1     207.966 205.474 156.274  1.00  0.00    -0.000 C 
BRANCH  18  19
ATOM     19  C   UNL     1     208.569 204.063 156.377  1.00  0.00    -0.003 C 
ATOM     20  C   UNL     1     207.730 203.000 155.672  1.00  0.00     0.004 C 
ENDBRANCH  18  19
ENDBRANCH  17  18
ENDBRANCH  16  17
ENDBRANCH  15  16
ENDBRANCH  14  15
ENDBRANCH  13  14
ENDBRANCH  12  13
ENDBRANCH   1  12
TORSDOF 16
ENDMDL
