MODEL 1
REMARK VINA RESULT:    -6.266      0.000      0.000
REMARK INTER + INTRA:         -11.040
REMARK INTER:                  -9.197
REMARK INTRA:                  -1.842
REMARK UNBOUND:                -1.842
REMARK SMILES O=c1c(O[C@H]2O[C@H](CO)[C@@H](O)[C@@H](O)[C@H]2O)c(-c2ccc(O)c(O)c2)oc2cc(O)cc(O)c12
REMARK SMILES IDX 4 1 3 2 16 3 25 4 2 5 26 6 1 7 33 8 27 9 31 10 28 11 30 12
REMARK SMILES IDX 17 13 18 14 19 15 20 16 24 17 22 18 21 19 23 21 32 23 29 25
REMARK SMILES IDX 5 27 14 28 6 29 12 30 7 31 10 32 15 33 13 35 8 37 9 38 11 40
REMARK H PARENT 21 20 23 22 32 24 29 26 15 34 13 36 9 39 11 41
REMARK Flexibility Score: inf
ROOT
ATOM      1  O   UNL     1       7.062   8.956 -15.092  1.00  0.00    -0.454 OA
ENDROOT
BRANCH   1   2
ATOM      2  C   UNL     1       6.928   8.012 -16.118  1.00  0.00     0.214 A 
ATOM      3  C   UNL     1       6.970   8.378 -17.480  1.00  0.00     0.180 A 
ATOM      4  O   UNL     1       6.932   7.437 -18.418  1.00  0.00    -0.452 OA
ATOM      5  C   UNL     1       6.761   6.664 -15.786  1.00  0.00     0.239 A 
ATOM      6  C   UNL     1       6.810   6.142 -18.146  1.00  0.00     0.146 A 
ATOM      7  O   UNL     1       6.681   6.335 -14.571  1.00  0.00    -0.285 OA
ATOM      8  C   UNL     1       6.703   5.694 -16.808  1.00  0.00     0.111 A 
ATOM      9  C   UNL     1       6.779   5.225 -19.200  1.00  0.00     0.094 A 
ATOM     10  C   UNL     1       6.558   4.309 -16.554  1.00  0.00     0.134 A 
ATOM     11  C   UNL     1       6.636   3.857 -18.943  1.00  0.00     0.123 A 
ATOM     12  C   UNL     1       6.526   3.406 -17.626  1.00  0.00     0.093 A 
BRANCH   3  13
ATOM     13  C   UNL     1       7.037   9.791 -17.913  1.00  0.00     0.025 A 
ATOM     14  C   UNL     1       5.875  10.488 -18.283  1.00  0.00     0.016 A 
ATOM     15  C   UNL     1       5.955  11.820 -18.698  1.00  0.00     0.051 A 
ATOM     16  C   UNL     1       7.197  12.465 -18.766  1.00  0.00     0.157 A 
ATOM     17  C   UNL     1       8.281  10.432 -18.005  1.00  0.00     0.062 A 
ATOM     18  C   UNL     1       8.365  11.766 -18.422  1.00  0.00     0.158 A 
BRANCH  16  19
ATOM     19  O   UNL     1       7.273  13.796 -19.177  1.00  0.00    -0.504 OA
ATOM     20  H   UNL     1       6.716  14.145 -19.947  1.00  0.00     0.293 HD
ENDBRANCH  16  19
BRANCH  18  21
ATOM     21  O   UNL     1       9.618  12.377 -18.485  1.00  0.00    -0.504 OA
ATOM     22  H   UNL     1      10.478  11.844 -18.462  1.00  0.00     0.293 HD
ENDBRANCH  18  21
ENDBRANCH   3  13
BRANCH  10  23
ATOM     23  O   UNL     1       6.448   3.827 -15.249  1.00  0.00    -0.507 OA
ATOM     24  H   UNL     1       7.150   3.220 -14.844  1.00  0.00     0.293 HD
ENDBRANCH  10  23
BRANCH  11  25
ATOM     25  O   UNL     1       6.603   2.938 -19.989  1.00  0.00    -0.508 OA
ATOM     26  H   UNL     1       5.760   2.782 -20.531  1.00  0.00     0.293 HD
ENDBRANCH  11  25
ENDBRANCH   1   2
BRANCH   1  27
ATOM     27  C   UNL     1       8.272   9.130 -14.344  1.00  0.00     0.339 C 
ATOM     28  C   UNL     1       7.996   9.095 -12.827  1.00  0.00     0.214 C 
ATOM     29  O   UNL     1       8.928  10.331 -14.716  1.00  0.00    -0.332 OA
ATOM     30  C   UNL     1       7.195  10.331 -12.389  1.00  0.00     0.180 C 
ATOM     31  C   UNL     1       8.128  11.473 -14.447  1.00  0.00     0.179 C 
ATOM     32  C   UNL     1       7.873  11.608 -12.926  1.00  0.00     0.177 C 
BRANCH  28  33
ATOM     33  O   UNL     1       7.297   7.927 -12.477  1.00  0.00    -0.384 OA
ATOM     34  H   UNL     1       7.515   7.246 -13.167  1.00  0.00     0.211 HD
ENDBRANCH  28  33
BRANCH  30  35
ATOM     35  O   UNL     1       5.875  10.235 -12.864  1.00  0.00    -0.387 OA
ATOM     36  H   UNL     1       5.880  10.559 -13.802  1.00  0.00     0.211 HD
ENDBRANCH  30  35
BRANCH  31  37
ATOM     37  C   UNL     1       8.864  12.699 -15.004  1.00  0.00     0.191 C 
BRANCH  37  38
ATOM     38  O   UNL     1      10.167  12.357 -15.390  1.00  0.00    -0.394 OA
ATOM     39  H   UNL     1      10.084  11.543 -15.952  1.00  0.00     0.210 HD
ENDBRANCH  37  38
ENDBRANCH  31  37
BRANCH  32  40
ATOM     40  O   UNL     1       7.063  12.726 -12.665  1.00  0.00    -0.387 OA
ATOM     41  H   UNL     1       7.669  13.455 -12.372  1.00  0.00     0.211 HD
ENDBRANCH  32  40
ENDBRANCH   1  27
TORSDOF 12
ENDMDL
MODEL 2
REMARK VINA RESULT:    -6.034      1.837      4.843
REMARK INTER + INTRA:         -10.698
REMARK INTER:                  -8.657
REMARK INTRA:                  -2.041
REMARK UNBOUND:                -1.842
REMARK SMILES O=c1c(O[C@H]2O[C@H](CO)[C@@H](O)[C@@H](O)[C@H]2O)c(-c2ccc(O)c(O)c2)oc2cc(O)cc(O)c12
REMARK SMILES IDX 4 1 3 2 16 3 25 4 2 5 26 6 1 7 33 8 27 9 31 10 28 11 30 12
REMARK SMILES IDX 17 13 18 14 19 15 20 16 24 17 22 18 21 19 23 21 32 23 29 25
REMARK SMILES IDX 5 27 14 28 6 29 12 30 7 31 10 32 15 33 13 35 8 37 9 38 11 40
REMARK H PARENT 21 20 23 22 32 24 29 26 15 34 13 36 9 39 11 41
REMARK Flexibility Score: inf
ROOT
ATOM      1  O   UNL     1       7.250  10.580 -18.381  1.00  0.00    -0.454 OA
ENDROOT
BRANCH   1   2
ATOM      2  C   UNL     1       7.326   9.429 -17.586  1.00  0.00     0.214 A 
ATOM      3  C   UNL     1       7.761   9.475 -16.244  1.00  0.00     0.180 A 
ATOM      4  O   UNL     1       7.728   8.373 -15.502  1.00  0.00    -0.452 OA
ATOM      5  C   UNL     1       6.947   8.198 -18.132  1.00  0.00     0.239 A 
ATOM      6  C   UNL     1       7.340   7.191 -15.970  1.00  0.00     0.146 A 
ATOM      7  O   UNL     1       6.596   8.144 -19.342  1.00  0.00    -0.285 OA
ATOM      8  C   UNL     1       6.943   7.046 -17.320  1.00  0.00     0.111 A 
ATOM      9  C   UNL     1       7.338   6.087 -15.113  1.00  0.00     0.094 A 
ATOM     10  C   UNL     1       6.551   5.769 -17.790  1.00  0.00     0.134 A 
ATOM     11  C   UNL     1       6.949   4.828 -15.583  1.00  0.00     0.123 A 
ATOM     12  C   UNL     1       6.559   4.673 -16.915  1.00  0.00     0.093 A 
BRANCH   3  13
ATOM     13  C   UNL     1       8.279  10.715 -15.628  1.00  0.00     0.025 A 
ATOM     14  C   UNL     1       7.569  11.365 -14.605  1.00  0.00     0.016 A 
ATOM     15  C   UNL     1       8.067  12.541 -14.039  1.00  0.00     0.051 A 
ATOM     16  C   UNL     1       9.269  13.092 -14.499  1.00  0.00     0.157 A 
ATOM     17  C   UNL     1       9.470  11.283 -16.104  1.00  0.00     0.062 A 
ATOM     18  C   UNL     1       9.972  12.462 -15.540  1.00  0.00     0.158 A 
BRANCH  16  19
ATOM     19  O   UNL     1       9.766  14.264 -13.929  1.00  0.00    -0.504 OA
ATOM     20  H   UNL     1      10.616  14.267 -13.380  1.00  0.00     0.293 HD
ENDBRANCH  16  19
BRANCH  18  21
ATOM     21  O   UNL     1      11.168  12.989 -16.026  1.00  0.00    -0.504 OA
ATOM     22  H   UNL     1      11.304  13.198 -17.008  1.00  0.00     0.293 HD
ENDBRANCH  18  21
ENDBRANCH   3  13
BRANCH  10  23
ATOM     23  O   UNL     1       6.155   5.583 -19.115  1.00  0.00    -0.507 OA
ATOM     24  H   UNL     1       5.206   5.323 -19.356  1.00  0.00     0.293 HD
ENDBRANCH  10  23
BRANCH  11  25
ATOM     25  O   UNL     1       6.947   3.723 -14.734  1.00  0.00    -0.508 OA
ATOM     26  H   UNL     1       7.202   2.799 -15.065  1.00  0.00     0.293 HD
ENDBRANCH  11  25
ENDBRANCH   1   2
BRANCH   1  27
ATOM     27  C   UNL     1       6.027  11.286 -18.619  1.00  0.00     0.339 C 
ATOM     28  C   UNL     1       5.877  11.650 -20.111  1.00  0.00     0.214 C 
ATOM     29  O   UNL     1       5.942  12.441 -17.801  1.00  0.00    -0.332 OA
ATOM     30  C   UNL     1       6.915  12.706 -20.521  1.00  0.00     0.180 C 
ATOM     31  C   UNL     1       6.990  13.359 -18.076  1.00  0.00     0.179 C 
ATOM     32  C   UNL     1       6.879  13.885 -19.528  1.00  0.00     0.177 C 
BRANCH  28  33
ATOM     33  O   UNL     1       6.018  10.507 -20.916  1.00  0.00    -0.384 OA
ATOM     34  H   UNL     1       5.210   9.950 -20.765  1.00  0.00     0.211 HD
ENDBRANCH  28  33
BRANCH  30  35
ATOM     35  O   UNL     1       8.196  12.127 -20.554  1.00  0.00    -0.387 OA
ATOM     36  H   UNL     1       8.787  12.700 -19.999  1.00  0.00     0.211 HD
ENDBRANCH  30  35
BRANCH  31  37
ATOM     37  C   UNL     1       6.888  14.501 -17.055  1.00  0.00     0.191 C 
BRANCH  37  38
ATOM     38  O   UNL     1       8.108  15.183 -16.958  1.00  0.00    -0.394 OA
ATOM     39  H   UNL     1       7.881  16.148 -16.911  1.00  0.00     0.210 HD
ENDBRANCH  37  38
ENDBRANCH  31  37
BRANCH  32  40
ATOM     40  O   UNL     1       7.929  14.777 -19.804  1.00  0.00    -0.387 OA
ATOM     41  H   UNL     1       7.584  15.425 -20.472  1.00  0.00     0.211 HD
ENDBRANCH  32  40
ENDBRANCH   1  27
TORSDOF 12
ENDMDL
MODEL 3
REMARK VINA RESULT:    -5.947      2.456      7.034
REMARK INTER + INTRA:         -10.570
REMARK INTER:                  -8.637
REMARK INTRA:                  -1.933
REMARK UNBOUND:                -1.842
REMARK SMILES O=c1c(O[C@H]2O[C@H](CO)[C@@H](O)[C@@H](O)[C@H]2O)c(-c2ccc(O)c(O)c2)oc2cc(O)cc(O)c12
REMARK SMILES IDX 4 1 3 2 16 3 25 4 2 5 26 6 1 7 33 8 27 9 31 10 28 11 30 12
REMARK SMILES IDX 17 13 18 14 19 15 20 16 24 17 22 18 21 19 23 21 32 23 29 25
REMARK SMILES IDX 5 27 14 28 6 29 12 30 7 31 10 32 15 33 13 35 8 37 9 38 11 40
REMARK H PARENT 21 20 23 22 32 24 29 26 15 34 13 36 9 39 11 41
REMARK Flexibility Score: inf
ROOT
ATOM      1  O   UNL     1       7.439  12.621 -15.992  1.00  0.00    -0.454 OA
ENDROOT
BRANCH   1   2
ATOM      2  C   UNL     1       7.685  13.033 -17.308  1.00  0.00     0.214 A 
ATOM      3  C   UNL     1       7.582  12.145 -18.401  1.00  0.00     0.180 A 
ATOM      4  O   UNL     1       7.734  12.603 -19.639  1.00  0.00    -0.452 OA
ATOM      5  C   UNL     1       8.031  14.366 -17.551  1.00  0.00     0.239 A 
ATOM      6  C   UNL     1       8.027  13.869 -19.917  1.00  0.00     0.146 A 
ATOM      7  O   UNL     1       8.164  15.154 -16.576  1.00  0.00    -0.285 OA
ATOM      8  C   UNL     1       8.204  14.812 -18.877  1.00  0.00     0.111 A 
ATOM      9  C   UNL     1       8.168  14.258 -21.252  1.00  0.00     0.094 A 
ATOM     10  C   UNL     1       8.531  16.149 -19.208  1.00  0.00     0.134 A 
ATOM     11  C   UNL     1       8.490  15.581 -21.572  1.00  0.00     0.123 A 
ATOM     12  C   UNL     1       8.671  16.519 -20.553  1.00  0.00     0.093 A 
BRANCH   3  13
ATOM     13  C   UNL     1       7.328  10.700 -18.218  1.00  0.00     0.025 A 
ATOM     14  C   UNL     1       6.202  10.086 -18.792  1.00  0.00     0.016 A 
ATOM     15  C   UNL     1       5.971   8.722 -18.603  1.00  0.00     0.051 A 
ATOM     16  C   UNL     1       6.849   7.957 -17.824  1.00  0.00     0.157 A 
ATOM     17  C   UNL     1       8.192   9.938 -17.417  1.00  0.00     0.062 A 
ATOM     18  C   UNL     1       7.962   8.571 -17.224  1.00  0.00     0.158 A 
BRANCH  16  19
ATOM     19  O   UNL     1       6.617   6.595 -17.640  1.00  0.00    -0.504 OA
ATOM     20  H   UNL     1       7.101   5.896 -18.190  1.00  0.00     0.293 HD
ENDBRANCH  16  19
BRANCH  18  21
ATOM     21  O   UNL     1       8.851   7.839 -16.436  1.00  0.00    -0.504 OA
ATOM     22  H   UNL     1       9.855   7.948 -16.516  1.00  0.00     0.293 HD
ENDBRANCH  18  21
ENDBRANCH   3  13
BRANCH  10  23
ATOM     23  O   UNL     1       8.717  17.110 -18.212  1.00  0.00    -0.507 OA
ATOM     24  H   UNL     1       8.235  18.000 -18.234  1.00  0.00     0.293 HD
ENDBRANCH  10  23
BRANCH  11  25
ATOM     25  O   UNL     1       8.633  15.975 -22.901  1.00  0.00    -0.508 OA
ATOM     26  H   UNL     1       8.707  16.953 -23.159  1.00  0.00     0.293 HD
ENDBRANCH  11  25
ENDBRANCH   1   2
BRANCH   1  27
ATOM     27  C   UNL     1       6.119  12.435 -15.466  1.00  0.00     0.339 C 
ATOM     28  C   UNL     1       5.892  13.311 -14.216  1.00  0.00     0.214 C 
ATOM     29  O   UNL     1       5.876  11.068 -15.181  1.00  0.00    -0.332 OA
ATOM     30  C   UNL     1       6.753  12.820 -13.042  1.00  0.00     0.180 C 
ATOM     31  C   UNL     1       6.769  10.567 -14.198  1.00  0.00     0.179 C 
ATOM     32  C   UNL     1       6.556  11.302 -12.852  1.00  0.00     0.177 C 
BRANCH  28  33
ATOM     33  O   UNL     1       6.190  14.656 -14.494  1.00  0.00    -0.384 OA
ATOM     34  H   UNL     1       7.001  14.884 -13.967  1.00  0.00     0.211 HD
ENDBRANCH  28  33
BRANCH  30  35
ATOM     35  O   UNL     1       8.105  13.116 -13.287  1.00  0.00    -0.387 OA
ATOM     36  H   UNL     1       8.617  12.811 -12.492  1.00  0.00     0.211 HD
ENDBRANCH  30  35
BRANCH  31  37
ATOM     37  C   UNL     1       6.513   9.060 -14.061  1.00  0.00     0.191 C 
BRANCH  37  38
ATOM     38  O   UNL     1       7.688   8.395 -13.682  1.00  0.00    -0.394 OA
ATOM     39  H   UNL     1       7.444   7.828 -12.904  1.00  0.00     0.210 HD
ENDBRANCH  37  38
ENDBRANCH  31  37
BRANCH  32  40
ATOM     40  O   UNL     1       7.456  10.820 -11.886  1.00  0.00    -0.387 OA
ATOM     41  H   UNL     1       7.748   9.922 -12.192  1.00  0.00     0.211 HD
ENDBRANCH  32  40
ENDBRANCH   1  27
TORSDOF 12
ENDMDL
MODEL 4
REMARK VINA RESULT:    -5.781      1.116      1.402
REMARK INTER + INTRA:         -10.327
REMARK INTER:                  -8.924
REMARK INTRA:                  -1.403
REMARK UNBOUND:                -1.842
REMARK SMILES O=c1c(O[C@H]2O[C@H](CO)[C@@H](O)[C@@H](O)[C@H]2O)c(-c2ccc(O)c(O)c2)oc2cc(O)cc(O)c12
REMARK SMILES IDX 4 1 3 2 16 3 25 4 2 5 26 6 1 7 33 8 27 9 31 10 28 11 30 12
REMARK SMILES IDX 17 13 18 14 19 15 20 16 24 17 22 18 21 19 23 21 32 23 29 25
REMARK SMILES IDX 5 27 14 28 6 29 12 30 7 31 10 32 15 33 13 35 8 37 9 38 11 40
REMARK H PARENT 21 20 23 22 32 24 29 26 15 34 13 36 9 39 11 41
REMARK Flexibility Score: inf
ROOT
ATOM      1  O   UNL     1       6.910  10.000 -15.038  1.00  0.00    -0.454 OA
ENDROOT
BRANCH   1   2
ATOM      2  C   UNL     1       6.754   8.996 -16.003  1.00  0.00     0.214 A 
ATOM      3  C   UNL     1       6.773   9.279 -17.386  1.00  0.00     0.180 A 
ATOM      4  O   UNL     1       6.715   8.282 -18.263  1.00  0.00    -0.452 OA
ATOM      5  C   UNL     1       6.589   7.671 -15.586  1.00  0.00     0.239 A 
ATOM      6  C   UNL     1       6.594   7.007 -17.910  1.00  0.00     0.146 A 
ATOM      7  O   UNL     1       6.530   7.417 -14.353  1.00  0.00    -0.285 OA
ATOM      8  C   UNL     1       6.510   6.642 -16.546  1.00  0.00     0.111 A 
ATOM      9  C   UNL     1       6.541   6.027 -18.906  1.00  0.00     0.094 A 
ATOM     10  C   UNL     1       6.365   5.275 -16.206  1.00  0.00     0.134 A 
ATOM     11  C   UNL     1       6.399   4.678 -18.564  1.00  0.00     0.123 A 
ATOM     12  C   UNL     1       6.311   4.308 -17.220  1.00  0.00     0.093 A 
BRANCH   3  13
ATOM     13  C   UNL     1       6.836  10.662 -17.904  1.00  0.00     0.025 A 
ATOM     14  C   UNL     1       5.875  11.617 -17.534  1.00  0.00     0.016 A 
ATOM     15  C   UNL     1       5.943  12.917 -18.039  1.00  0.00     0.051 A 
ATOM     16  C   UNL     1       6.959  13.275 -18.935  1.00  0.00     0.157 A 
ATOM     17  C   UNL     1       7.839  11.016 -18.820  1.00  0.00     0.062 A 
ATOM     18  C   UNL     1       7.909  12.318 -19.329  1.00  0.00     0.158 A 
BRANCH  16  19
ATOM     19  O   UNL     1       7.027  14.575 -19.435  1.00  0.00    -0.504 OA
ATOM     20  H   UNL     1       7.849  15.152 -19.303  1.00  0.00     0.293 HD
ENDBRANCH  16  19
BRANCH  18  21
ATOM     21  O   UNL     1       8.929  12.640 -20.225  1.00  0.00    -0.504 OA
ATOM     22  H   UNL     1       9.239  11.995 -20.942  1.00  0.00     0.293 HD
ENDBRANCH  18  21
ENDBRANCH   3  13
BRANCH  10  23
ATOM     23  O   UNL     1       6.276   4.873 -14.872  1.00  0.00    -0.507 OA
ATOM     24  H   UNL     1       5.613   4.170 -14.571  1.00  0.00     0.293 HD
ENDBRANCH  10  23
BRANCH  11  25
ATOM     25  O   UNL     1       6.344   3.697 -19.551  1.00  0.00    -0.508 OA
ATOM     26  H   UNL     1       7.181   3.232 -19.883  1.00  0.00     0.293 HD
ENDBRANCH  11  25
ENDBRANCH   1   2
BRANCH   1  27
ATOM     27  C   UNL     1       8.066  10.104 -14.199  1.00  0.00     0.339 C 
ATOM     28  C   UNL     1       7.751  10.901 -12.916  1.00  0.00     0.214 C 
ATOM     29  O   UNL     1       9.152  10.682 -14.904  1.00  0.00    -0.332 OA
ATOM     30  C   UNL     1       7.486  12.379 -13.243  1.00  0.00     0.180 C 
ATOM     31  C   UNL     1       8.857  12.001 -15.338  1.00  0.00     0.179 C 
ATOM     32  C   UNL     1       8.627  12.931 -14.122  1.00  0.00     0.177 C 
BRANCH  28  33
ATOM     33  O   UNL     1       6.638  10.354 -12.255  1.00  0.00    -0.384 OA
ATOM     34  H   UNL     1       6.992   9.816 -11.498  1.00  0.00     0.211 HD
ENDBRANCH  28  33
BRANCH  30  35
ATOM     35  O   UNL     1       6.250  12.506 -13.902  1.00  0.00    -0.387 OA
ATOM     36  H   UNL     1       5.654  13.027 -13.302  1.00  0.00     0.211 HD
ENDBRANCH  30  35
BRANCH  31  37
ATOM     37  C   UNL     1      10.032  12.483 -16.199  1.00  0.00     0.191 C 
BRANCH  37  38
ATOM     38  O   UNL     1      10.956  13.190 -15.418  1.00  0.00    -0.394 OA
ATOM     39  H   UNL     1      10.836  12.866 -14.488  1.00  0.00     0.210 HD
ENDBRANCH  37  38
ENDBRANCH  31  37
BRANCH  32  40
ATOM     40  O   UNL     1       8.313  14.231 -14.554  1.00  0.00    -0.387 OA
ATOM     41  H   UNL     1       7.574  14.142 -15.211  1.00  0.00     0.211 HD
ENDBRANCH  32  40
ENDBRANCH   1  27
TORSDOF 12
ENDMDL
MODEL 5
REMARK VINA RESULT:    -5.620      3.223      7.441
REMARK INTER + INTRA:         -10.090
REMARK INTER:                  -8.064
REMARK INTRA:                  -2.027
REMARK UNBOUND:                -1.842
REMARK SMILES O=c1c(O[C@H]2O[C@H](CO)[C@@H](O)[C@@H](O)[C@H]2O)c(-c2ccc(O)c(O)c2)oc2cc(O)cc(O)c12
REMARK SMILES IDX 4 1 3 2 16 3 25 4 2 5 26 6 1 7 33 8 27 9 31 10 28 11 30 12
REMARK SMILES IDX 17 13 18 14 19 15 20 16 24 17 22 18 21 19 23 21 32 23 29 25
REMARK SMILES IDX 5 27 14 28 6 29 12 30 7 31 10 32 15 33 13 35 8 37 9 38 11 40
REMARK H PARENT 21 20 23 22 32 24 29 26 15 34 13 36 9 39 11 41
REMARK Flexibility Score: inf
ROOT
ATOM      1  O   UNL     1       7.706  13.195 -15.489  1.00  0.00    -0.454 OA
ENDROOT
BRANCH   1   2
ATOM      2  C   UNL     1       8.060  13.730 -16.734  1.00  0.00     0.214 A 
ATOM      3  C   UNL     1       8.849  13.012 -17.659  1.00  0.00     0.180 A 
ATOM      4  O   UNL     1       9.082  13.523 -18.863  1.00  0.00    -0.452 OA
ATOM      5  C   UNL     1       7.609  15.008 -17.080  1.00  0.00     0.239 A 
ATOM      6  C   UNL     1       8.642  14.717 -19.246  1.00  0.00     0.146 A 
ATOM      7  O   UNL     1       6.939  15.670 -16.242  1.00  0.00    -0.285 OA
ATOM      8  C   UNL     1       7.893  15.526 -18.360  1.00  0.00     0.111 A 
ATOM      9  C   UNL     1       8.937  15.170 -20.535  1.00  0.00     0.094 A 
ATOM     10  C   UNL     1       7.453  16.800 -18.794  1.00  0.00     0.134 A 
ATOM     11  C   UNL     1       8.500  16.430 -20.958  1.00  0.00     0.123 A 
ATOM     12  C   UNL     1       7.762  17.237 -20.090  1.00  0.00     0.093 A 
BRANCH   3  13
ATOM     13  C   UNL     1       9.452  11.703 -17.328  1.00  0.00     0.025 A 
ATOM     14  C   UNL     1      10.610  11.621 -16.536  1.00  0.00     0.016 A 
ATOM     15  C   UNL     1      11.173  10.378 -16.239  1.00  0.00     0.051 A 
ATOM     16  C   UNL     1      10.600   9.203 -16.744  1.00  0.00     0.157 A 
ATOM     17  C   UNL     1       8.895  10.528 -17.852  1.00  0.00     0.062 A 
ATOM     18  C   UNL     1       9.457   9.280 -17.558  1.00  0.00     0.158 A 
BRANCH  16  19
ATOM     19  O   UNL     1      11.163   7.963 -16.443  1.00  0.00    -0.504 OA
ATOM     20  H   UNL     1      11.089   7.179 -17.080  1.00  0.00     0.293 HD
ENDBRANCH  16  19
BRANCH  18  21
ATOM     21  O   UNL     1       8.867   8.131 -18.083  1.00  0.00    -0.504 OA
ATOM     22  H   UNL     1       8.764   7.283 -17.539  1.00  0.00     0.293 HD
ENDBRANCH  18  21
ENDBRANCH   3  13
BRANCH  10  23
ATOM     23  O   UNL     1       6.714  17.630 -17.950  1.00  0.00    -0.507 OA
ATOM     24  H   UNL     1       7.041  17.875 -17.023  1.00  0.00     0.293 HD
ENDBRANCH  10  23
BRANCH  11  25
ATOM     25  O   UNL     1       8.791  16.888 -22.241  1.00  0.00    -0.508 OA
ATOM     26  H   UNL     1       9.722  16.806 -22.634  1.00  0.00     0.293 HD
ENDBRANCH  11  25
ENDBRANCH   1   2
BRANCH   1  27
ATOM     27  C   UNL     1       6.422  12.618 -15.224  1.00  0.00     0.339 C 
ATOM     28  C   UNL     1       5.875  13.085 -13.859  1.00  0.00     0.214 C 
ATOM     29  O   UNL     1       6.479  11.203 -15.293  1.00  0.00    -0.332 OA
ATOM     30  C   UNL     1       6.708  12.499 -12.709  1.00  0.00     0.180 C 
ATOM     31  C   UNL     1       7.364  10.663 -14.324  1.00  0.00     0.179 C 
ATOM     32  C   UNL     1       6.855  10.975 -12.895  1.00  0.00     0.177 C 
BRANCH  28  33
ATOM     33  O   UNL     1       5.875  14.488 -13.779  1.00  0.00    -0.384 OA
ATOM     34  H   UNL     1       6.145  14.825 -14.674  1.00  0.00     0.211 HD
ENDBRANCH  28  33
BRANCH  30  35
ATOM     35  O   UNL     1       7.971  13.117 -12.672  1.00  0.00    -0.387 OA
ATOM     36  H   UNL     1       7.942  13.874 -13.314  1.00  0.00     0.211 HD
ENDBRANCH  30  35
BRANCH  31  37
ATOM     37  C   UNL     1       7.457   9.151 -14.568  1.00  0.00     0.191 C 
BRANCH  37  38
ATOM     38  O   UNL     1       8.695   8.657 -14.133  1.00  0.00    -0.394 OA
ATOM     39  H   UNL     1       8.972   7.980 -14.803  1.00  0.00     0.210 HD
ENDBRANCH  37  38
ENDBRANCH  31  37
BRANCH  32  40
ATOM     40  O   UNL     1       7.744  10.459 -11.937  1.00  0.00    -0.387 OA
ATOM     41  H   UNL     1       7.574  10.954 -11.094  1.00  0.00     0.211 HD
ENDBRANCH  32  40
ENDBRANCH   1  27
TORSDOF 12
ENDMDL
MODEL 6
REMARK VINA RESULT:    -5.346      3.967      9.232
REMARK INTER + INTRA:          -9.689
REMARK INTER:                  -8.314
REMARK INTRA:                  -1.375
REMARK UNBOUND:                -1.842
REMARK SMILES O=c1c(O[C@H]2O[C@H](CO)[C@@H](O)[C@@H](O)[C@H]2O)c(-c2ccc(O)c(O)c2)oc2cc(O)cc(O)c12
REMARK SMILES IDX 4 1 3 2 16 3 25 4 2 5 26 6 1 7 33 8 27 9 31 10 28 11 30 12
REMARK SMILES IDX 17 13 18 14 19 15 20 16 24 17 22 18 21 19 23 21 32 23 29 25
REMARK SMILES IDX 5 27 14 28 6 29 12 30 7 31 10 32 15 33 13 35 8 37 9 38 11 40
REMARK H PARENT 21 20 23 22 32 24 29 26 15 34 13 36 9 39 11 41
REMARK Flexibility Score: inf
ROOT
ATOM      1  O   UNL     1       7.785  13.784 -18.117  1.00  0.00    -0.454 OA
ENDROOT
BRANCH   1   2
ATOM      2  C   UNL     1       7.342  14.909 -17.409  1.00  0.00     0.214 A 
ATOM      3  C   UNL     1       6.924  14.829 -16.064  1.00  0.00     0.180 A 
ATOM      4  O   UNL     1       6.601  15.937 -15.406  1.00  0.00    -0.452 OA
ATOM      5  C   UNL     1       7.326  16.153 -18.049  1.00  0.00     0.239 A 
ATOM      6  C   UNL     1       6.606  17.143 -15.964  1.00  0.00     0.146 A 
ATOM      7  O   UNL     1       7.659  16.224 -19.263  1.00  0.00    -0.285 OA
ATOM      8  C   UNL     1       6.957  17.305 -17.325  1.00  0.00     0.111 A 
ATOM      9  C   UNL     1       6.251  18.253 -15.192  1.00  0.00     0.094 A 
ATOM     10  C   UNL     1       6.937  18.602 -17.893  1.00  0.00     0.134 A 
ATOM     11  C   UNL     1       6.233  19.532 -15.759  1.00  0.00     0.123 A 
ATOM     12  C   UNL     1       6.575  19.701 -17.102  1.00  0.00     0.093 A 
BRANCH   3  13
ATOM     13  C   UNL     1       6.811  13.538 -15.352  1.00  0.00     0.025 A 
ATOM     14  C   UNL     1       5.978  12.516 -15.837  1.00  0.00     0.016 A 
ATOM     15  C   UNL     1       5.875  11.305 -15.148  1.00  0.00     0.051 A 
ATOM     16  C   UNL     1       6.586  11.106 -13.957  1.00  0.00     0.157 A 
ATOM     17  C   UNL     1       7.503  13.346 -14.146  1.00  0.00     0.062 A 
ATOM     18  C   UNL     1       7.400  12.134 -13.452  1.00  0.00     0.158 A 
BRANCH  16  19
ATOM     19  O   UNL     1       6.484   9.895 -13.274  1.00  0.00    -0.504 OA
ATOM     20  H   UNL     1       7.083   9.109 -13.495  1.00  0.00     0.293 HD
ENDBRANCH  16  19
BRANCH  18  21
ATOM     21  O   UNL     1       8.115  11.971 -12.266  1.00  0.00    -0.504 OA
ATOM     22  H   UNL     1       8.649  11.132 -12.070  1.00  0.00     0.293 HD
ENDBRANCH  18  21
ENDBRANCH   3  13
BRANCH  10  23
ATOM     23  O   UNL     1       7.274  18.804 -19.232  1.00  0.00    -0.507 OA
ATOM     24  H   UNL     1       6.667  18.505 -19.986  1.00  0.00     0.293 HD
ENDBRANCH  10  23
BRANCH  11  25
ATOM     25  O   UNL     1       5.878  20.641 -14.995  1.00  0.00    -0.508 OA
ATOM     26  H   UNL     1       5.736  20.572 -13.993  1.00  0.00     0.293 HD
ENDBRANCH  11  25
ENDBRANCH   1   2
BRANCH   1  27
ATOM     27  C   UNL     1       9.148  13.599 -18.515  1.00  0.00     0.339 C 
ATOM     28  C   UNL     1       9.236  12.847 -19.860  1.00  0.00     0.214 C 
ATOM     29  O   UNL     1       9.883  12.926 -17.506  1.00  0.00    -0.332 OA
ATOM     30  C   UNL     1       8.772  11.391 -19.702  1.00  0.00     0.180 C 
ATOM     31  C   UNL     1       9.365  11.629 -17.252  1.00  0.00     0.179 C 
ATOM     32  C   UNL     1       9.501  10.738 -18.511  1.00  0.00     0.177 C 
BRANCH  28  33
ATOM     33  O   UNL     1       8.460  13.491 -20.838  1.00  0.00    -0.384 OA
ATOM     34  H   UNL     1       9.074  13.722 -21.584  1.00  0.00     0.211 HD
ENDBRANCH  28  33
BRANCH  30  35
ATOM     35  O   UNL     1       7.379  11.354 -19.510  1.00  0.00    -0.387 OA
ATOM     36  H   UNL     1       6.962  11.671 -20.353  1.00  0.00     0.211 HD
ENDBRANCH  30  35
BRANCH  31  37
ATOM     37  C   UNL     1      10.137  11.043 -16.062  1.00  0.00     0.191 C 
BRANCH  37  38
ATOM     38  O   UNL     1      11.475  11.460 -16.091  1.00  0.00    -0.394 OA
ATOM     39  H   UNL     1      11.997  10.687 -16.430  1.00  0.00     0.210 HD
ENDBRANCH  37  38
ENDBRANCH  31  37
BRANCH  32  40
ATOM     40  O   UNL     1       8.967   9.462 -18.264  1.00  0.00    -0.387 OA
ATOM     41  H   UNL     1       8.681   9.451 -17.313  1.00  0.00     0.211 HD
ENDBRANCH  32  40
ENDBRANCH   1  27
TORSDOF 12
ENDMDL
MODEL 7
REMARK VINA RESULT:    -5.256      2.295      4.269
REMARK INTER + INTRA:          -9.557
REMARK INTER:                  -8.751
REMARK INTRA:                  -0.806
REMARK UNBOUND:                -1.842
REMARK SMILES O=c1c(O[C@H]2O[C@H](CO)[C@@H](O)[C@@H](O)[C@H]2O)c(-c2ccc(O)c(O)c2)oc2cc(O)cc(O)c12
REMARK SMILES IDX 4 1 3 2 16 3 25 4 2 5 26 6 1 7 33 8 27 9 31 10 28 11 30 12
REMARK SMILES IDX 17 13 18 14 19 15 20 16 24 17 22 18 21 19 23 21 32 23 29 25
REMARK SMILES IDX 5 27 14 28 6 29 12 30 7 31 10 32 15 33 13 35 8 37 9 38 11 40
REMARK H PARENT 21 20 23 22 32 24 29 26 15 34 13 36 9 39 11 41
REMARK Flexibility Score: inf
ROOT
ATOM      1  O   UNL     1       6.843  12.607 -15.678  1.00  0.00    -0.454 OA
ENDROOT
BRANCH   1   2
ATOM      2  C   UNL     1       6.940  11.213 -15.771  1.00  0.00     0.214 A 
ATOM      3  C   UNL     1       7.394  10.572 -16.944  1.00  0.00     0.180 A 
ATOM      4  O   UNL     1       7.556   9.253 -16.953  1.00  0.00    -0.452 OA
ATOM      5  C   UNL     1       6.588  10.431 -14.666  1.00  0.00     0.239 A 
ATOM      6  C   UNL     1       7.270   8.476 -15.914  1.00  0.00     0.146 A 
ATOM      7  O   UNL     1       6.143  10.995 -13.630  1.00  0.00    -0.285 OA
ATOM      8  C   UNL     1       6.755   9.032 -14.719  1.00  0.00     0.111 A 
ATOM      9  C   UNL     1       7.475   7.097 -16.018  1.00  0.00     0.094 A 
ATOM     10  C   UNL     1       6.445   8.174 -13.637  1.00  0.00     0.134 A 
ATOM     11  C   UNL     1       7.167   6.254 -14.945  1.00  0.00     0.123 A 
ATOM     12  C   UNL     1       6.655   6.793 -13.762  1.00  0.00     0.093 A 
BRANCH   3  13
ATOM     13  C   UNL     1       7.681  11.319 -18.187  1.00  0.00     0.025 A 
ATOM     14  C   UNL     1       8.975  11.342 -18.733  1.00  0.00     0.016 A 
ATOM     15  C   UNL     1       9.232  12.060 -19.904  1.00  0.00     0.051 A 
ATOM     16  C   UNL     1       8.207  12.778 -20.532  1.00  0.00     0.157 A 
ATOM     17  C   UNL     1       6.661  12.059 -18.804  1.00  0.00     0.062 A 
ATOM     18  C   UNL     1       6.916  12.781 -19.976  1.00  0.00     0.158 A 
BRANCH  16  19
ATOM     19  O   UNL     1       8.466  13.491 -21.703  1.00  0.00    -0.504 OA
ATOM     20  H   UNL     1       7.740  14.015 -22.176  1.00  0.00     0.293 HD
ENDBRANCH  16  19
BRANCH  18  21
ATOM     21  O   UNL     1       5.875  13.492 -20.574  1.00  0.00    -0.504 OA
ATOM     22  H   UNL     1       5.898  13.760 -21.550  1.00  0.00     0.293 HD
ENDBRANCH  18  21
ENDBRANCH   3  13
BRANCH  10  23
ATOM     23  O   UNL     1       5.934   8.682 -12.442  1.00  0.00    -0.507 OA
ATOM     24  H   UNL     1       5.864   9.678 -12.273  1.00  0.00     0.293 HD
ENDBRANCH  10  23
BRANCH  11  25
ATOM     25  O   UNL     1       7.367   4.879 -15.042  1.00  0.00    -0.508 OA
ATOM     26  H   UNL     1       6.591   4.237 -15.160  1.00  0.00     0.293 HD
ENDBRANCH  11  25
ENDBRANCH   1   2
BRANCH   1  27
ATOM     27  C   UNL     1       7.552  13.375 -14.698  1.00  0.00     0.339 C 
ATOM     28  C   UNL     1       7.276  14.884 -14.870  1.00  0.00     0.214 C 
ATOM     29  O   UNL     1       8.942  13.103 -14.751  1.00  0.00    -0.332 OA
ATOM     30  C   UNL     1       7.902  15.409 -16.170  1.00  0.00     0.180 C 
ATOM     31  C   UNL     1       9.500  13.452 -16.009  1.00  0.00     0.179 C 
ATOM     32  C   UNL     1       9.381  14.977 -16.248  1.00  0.00     0.177 C 
BRANCH  28  33
ATOM     33  O   UNL     1       5.894  15.137 -14.872  1.00  0.00    -0.384 OA
ATOM     34  H   UNL     1       5.475  14.442 -14.298  1.00  0.00     0.211 HD
ENDBRANCH  28  33
BRANCH  30  35
ATOM     35  O   UNL     1       7.186  14.918 -17.276  1.00  0.00    -0.387 OA
ATOM     36  H   UNL     1       6.511  15.606 -17.513  1.00  0.00     0.211 HD
ENDBRANCH  30  35
BRANCH  31  37
ATOM     37  C   UNL     1      10.966  12.997 -16.011  1.00  0.00     0.191 C 
BRANCH  37  38
ATOM     38  O   UNL     1      11.047  11.598 -16.059  1.00  0.00    -0.394 OA
ATOM     39  H   UNL     1      10.749  11.337 -16.969  1.00  0.00     0.210 HD
ENDBRANCH  37  38
ENDBRANCH  31  37
BRANCH  32  40
ATOM     40  O   UNL     1       9.914  15.317 -17.503  1.00  0.00    -0.387 OA
ATOM     41  H   UNL     1      10.810  15.709 -17.335  1.00  0.00     0.211 HD
ENDBRANCH  32  40
ENDBRANCH   1  27
TORSDOF 12
ENDMDL
MODEL 8
REMARK VINA RESULT:    -5.230      2.309      7.506
REMARK INTER + INTRA:          -9.518
REMARK INTER:                  -8.777
REMARK INTRA:                  -0.741
REMARK UNBOUND:                -1.842
REMARK SMILES O=c1c(O[C@H]2O[C@H](CO)[C@@H](O)[C@@H](O)[C@H]2O)c(-c2ccc(O)c(O)c2)oc2cc(O)cc(O)c12
REMARK SMILES IDX 4 1 3 2 16 3 25 4 2 5 26 6 1 7 33 8 27 9 31 10 28 11 30 12
REMARK SMILES IDX 17 13 18 14 19 15 20 16 24 17 22 18 21 19 23 21 32 23 29 25
REMARK SMILES IDX 5 27 14 28 6 29 12 30 7 31 10 32 15 33 13 35 8 37 9 38 11 40
REMARK H PARENT 21 20 23 22 32 24 29 26 15 34 13 36 9 39 11 41
REMARK Flexibility Score: inf
ROOT
ATOM      1  O   UNL     1       7.341  10.492 -17.550  1.00  0.00    -0.454 OA
ENDROOT
BRANCH   1   2
ATOM      2  C   UNL     1       7.704  11.845 -17.537  1.00  0.00     0.214 A 
ATOM      3  C   UNL     1       7.930  12.547 -16.334  1.00  0.00     0.180 A 
ATOM      4  O   UNL     1       8.363  13.803 -16.374  1.00  0.00    -0.452 OA
ATOM      5  C   UNL     1       7.861  12.520 -18.753  1.00  0.00     0.239 A 
ATOM      6  C   UNL     1       8.560  14.470 -17.507  1.00  0.00     0.146 A 
ATOM      7  O   UNL     1       7.621  11.910 -19.830  1.00  0.00    -0.285 OA
ATOM      8  C   UNL     1       8.302  13.859 -18.757  1.00  0.00     0.111 A 
ATOM      9  C   UNL     1       9.017  15.789 -17.450  1.00  0.00     0.094 A 
ATOM     10  C   UNL     1       8.507  14.603 -19.943  1.00  0.00     0.134 A 
ATOM     11  C   UNL     1       9.219  16.520 -18.626  1.00  0.00     0.123 A 
ATOM     12  C   UNL     1       8.963  15.926 -19.864  1.00  0.00     0.093 A 
BRANCH   3  13
ATOM     13  C   UNL     1       7.682  11.937 -15.010  1.00  0.00     0.025 A 
ATOM     14  C   UNL     1       8.236  12.492 -13.844  1.00  0.00     0.016 A 
ATOM     15  C   UNL     1       8.000  11.899 -12.602  1.00  0.00     0.051 A 
ATOM     16  C   UNL     1       7.224  10.736 -12.509  1.00  0.00     0.157 A 
ATOM     17  C   UNL     1       6.927  10.759 -14.918  1.00  0.00     0.062 A 
ATOM     18  C   UNL     1       6.689  10.161 -13.675  1.00  0.00     0.158 A 
BRANCH  16  19
ATOM     19  O   UNL     1       6.987  10.148 -11.267  1.00  0.00    -0.504 OA
ATOM     20  H   UNL     1       7.684   9.570 -10.813  1.00  0.00     0.293 HD
ENDBRANCH  16  19
BRANCH  18  21
ATOM     21  O   UNL     1       5.919   9.000 -13.618  1.00  0.00    -0.504 OA
ATOM     22  H   UNL     1       5.504   8.588 -14.446  1.00  0.00     0.293 HD
ENDBRANCH  18  21
ENDBRANCH   3  13
BRANCH  10  23
ATOM     23  O   UNL     1       8.262  14.038 -21.196  1.00  0.00    -0.507 OA
ATOM     24  H   UNL     1       7.364  14.130 -21.656  1.00  0.00     0.293 HD
ENDBRANCH  10  23
BRANCH  11  25
ATOM     25  O   UNL     1       9.673  17.835 -18.575  1.00  0.00    -0.508 OA
ATOM     26  H   UNL     1      10.660  18.053 -18.496  1.00  0.00     0.293 HD
ENDBRANCH  11  25
ENDBRANCH   1   2
BRANCH   1  27
ATOM     27  C   UNL     1       8.140   9.476 -18.166  1.00  0.00     0.339 C 
ATOM     28  C   UNL     1       7.295   8.225 -18.489  1.00  0.00     0.214 C 
ATOM     29  O   UNL     1       9.252   9.142 -17.351  1.00  0.00    -0.332 OA
ATOM     30  C   UNL     1       6.854   7.517 -17.199  1.00  0.00     0.180 C 
ATOM     31  C   UNL     1       8.846   8.622 -16.094  1.00  0.00     0.179 C 
ATOM     32  C   UNL     1       8.075   7.293 -16.284  1.00  0.00     0.177 C 
BRANCH  28  33
ATOM     33  O   UNL     1       6.167   8.574 -19.250  1.00  0.00    -0.384 OA
ATOM     34  H   UNL     1       6.381   8.357 -20.195  1.00  0.00     0.211 HD
ENDBRANCH  28  33
BRANCH  30  35
ATOM     35  O   UNL     1       5.879   8.289 -16.542  1.00  0.00    -0.387 OA
ATOM     36  H   UNL     1       5.509   8.921 -17.212  1.00  0.00     0.211 HD
ENDBRANCH  30  35
BRANCH  31  37
ATOM     37  C   UNL     1      10.108   8.421 -15.243  1.00  0.00     0.191 C 
BRANCH  37  38
ATOM     38  O   UNL     1       9.766   8.165 -13.909  1.00  0.00    -0.394 OA
ATOM     39  H   UNL     1       9.842   7.183 -13.789  1.00  0.00     0.210 HD
ENDBRANCH  37  38
ENDBRANCH  31  37
BRANCH  32  40
ATOM     40  O   UNL     1       7.655   6.790 -15.040  1.00  0.00    -0.387 OA
ATOM     41  H   UNL     1       7.846   7.496 -14.369  1.00  0.00     0.211 HD
ENDBRANCH  32  40
ENDBRANCH   1  27
TORSDOF 12
ENDMDL
MODEL 9
REMARK VINA RESULT:    -5.136      2.965      7.997
REMARK INTER + INTRA:          -9.380
REMARK INTER:                  -8.027
REMARK INTRA:                  -1.353
REMARK UNBOUND:                -1.842
REMARK SMILES O=c1c(O[C@H]2O[C@H](CO)[C@@H](O)[C@@H](O)[C@H]2O)c(-c2ccc(O)c(O)c2)oc2cc(O)cc(O)c12
REMARK SMILES IDX 4 1 3 2 16 3 25 4 2 5 26 6 1 7 33 8 27 9 31 10 28 11 30 12
REMARK SMILES IDX 17 13 18 14 19 15 20 16 24 17 22 18 21 19 23 21 32 23 29 25
REMARK SMILES IDX 5 27 14 28 6 29 12 30 7 31 10 32 15 33 13 35 8 37 9 38 11 40
REMARK H PARENT 21 20 23 22 32 24 29 26 15 34 13 36 9 39 11 41
REMARK Flexibility Score: inf
ROOT
ATOM      1  O   UNL     1       8.535  11.529 -17.731  1.00  0.00    -0.454 OA
ENDROOT
BRANCH   1   2
ATOM      2  C   UNL     1       8.211  12.892 -17.773  1.00  0.00     0.214 A 
ATOM      3  C   UNL     1       7.658  13.563 -16.661  1.00  0.00     0.180 A 
ATOM      4  O   UNL     1       7.453  14.874 -16.717  1.00  0.00    -0.452 OA
ATOM      5  C   UNL     1       8.453  13.614 -18.946  1.00  0.00     0.239 A 
ATOM      6  C   UNL     1       7.704  15.605 -17.798  1.00  0.00     0.146 A 
ATOM      7  O   UNL     1       8.909  13.011 -19.955  1.00  0.00    -0.285 OA
ATOM      8  C   UNL     1       8.205  15.001 -18.975  1.00  0.00     0.111 A 
ATOM      9  C   UNL     1       7.457  16.980 -17.763  1.00  0.00     0.094 A 
ATOM     10  C   UNL     1       8.445  15.806 -20.115  1.00  0.00     0.134 A 
ATOM     11  C   UNL     1       7.697  17.771 -18.892  1.00  0.00     0.123 A 
ATOM     12  C   UNL     1       8.188  17.183 -20.060  1.00  0.00     0.093 A 
BRANCH   3  13
ATOM     13  C   UNL     1       7.273  12.849 -15.424  1.00  0.00     0.025 A 
ATOM     14  C   UNL     1       6.233  11.905 -15.428  1.00  0.00     0.016 A 
ATOM     15  C   UNL     1       5.875  11.246 -14.250  1.00  0.00     0.051 A 
ATOM     16  C   UNL     1       6.538  11.535 -13.049  1.00  0.00     0.157 A 
ATOM     17  C   UNL     1       7.919  13.154 -14.216  1.00  0.00     0.062 A 
ATOM     18  C   UNL     1       7.562  12.497 -13.033  1.00  0.00     0.158 A 
BRANCH  16  19
ATOM     19  O   UNL     1       6.181  10.872 -11.875  1.00  0.00    -0.504 OA
ATOM     20  H   UNL     1       6.583   9.976 -11.629  1.00  0.00     0.293 HD
ENDBRANCH  16  19
BRANCH  18  21
ATOM     21  O   UNL     1       8.237  12.812 -11.853  1.00  0.00    -0.504 OA
ATOM     22  H   UNL     1       8.024  12.356 -10.974  1.00  0.00     0.293 HD
ENDBRANCH  18  21
ENDBRANCH   3  13
BRANCH  10  23
ATOM     23  O   UNL     1       8.937  15.249 -21.296  1.00  0.00    -0.507 OA
ATOM     24  H   UNL     1       9.471  14.388 -21.298  1.00  0.00     0.293 HD
ENDBRANCH  10  23
BRANCH  11  25
ATOM     25  O   UNL     1       7.451  19.142 -18.864  1.00  0.00    -0.508 OA
ATOM     26  H   UNL     1       7.357  19.646 -17.989  1.00  0.00     0.293 HD
ENDBRANCH  11  25
ENDBRANCH   1   2
BRANCH   1  27
ATOM     27  C   UNL     1       9.817  11.044 -17.315  1.00  0.00     0.339 C 
ATOM     28  C   UNL     1      10.262   9.844 -18.176  1.00  0.00     0.214 C 
ATOM     29  O   UNL     1       9.808  10.708 -15.937  1.00  0.00    -0.332 OA
ATOM     30  C   UNL     1       9.377   8.618 -17.902  1.00  0.00     0.180 C 
ATOM     31  C   UNL     1       8.880   9.672 -15.654  1.00  0.00     0.179 C 
ATOM     32  C   UNL     1       9.288   8.368 -16.383  1.00  0.00     0.177 C 
BRANCH  28  33
ATOM     33  O   UNL     1      10.214  10.169 -19.541  1.00  0.00    -0.384 OA
ATOM     34  H   UNL     1      10.755  10.994 -19.658  1.00  0.00     0.211 HD
ENDBRANCH  28  33
BRANCH  30  35
ATOM     35  O   UNL     1       8.096   8.826 -18.444  1.00  0.00    -0.387 OA
ATOM     36  H   UNL     1       8.007   9.800 -18.613  1.00  0.00     0.211 HD
ENDBRANCH  30  35
BRANCH  31  37
ATOM     37  C   UNL     1       8.849   9.477 -14.132  1.00  0.00     0.191 C 
BRANCH  37  38
ATOM     38  O   UNL     1       9.379   8.227 -13.785  1.00  0.00    -0.394 OA
ATOM     39  H   UNL     1       9.984   8.388 -13.015  1.00  0.00     0.210 HD
ENDBRANCH  37  38
ENDBRANCH  31  37
BRANCH  32  40
ATOM     40  O   UNL     1       8.357   7.350 -16.119  1.00  0.00    -0.387 OA
ATOM     41  H   UNL     1       8.743   6.790 -15.396  1.00  0.00     0.211 HD
ENDBRANCH  32  40
ENDBRANCH   1  27
TORSDOF 12
ENDMDL
