MODEL 1
REMARK VINA RESULT:    -4.709      0.000      0.000
REMARK INTER + INTRA:         -10.838
REMARK INTER:                  -8.563
REMARK INTRA:                  -2.276
REMARK UNBOUND:                -2.276
REMARK SMILES CCCCCCCCCCCCCCCC(=O)[O-]
REMARK SMILES IDX 9 1 10 2 11 3 12 4 13 5 14 6 15 7 16 8 17 9 18 10 8 11 7 12
REMARK SMILES IDX 6 13 5 14 4 15 3 16 2 17 1 18
REMARK H PARENT
REMARK Flexibility Score: inf
ROOT
ATOM      1  C   UNL     1      61.777  28.811  24.343  1.00  0.00     0.000 C 
ENDROOT
BRANCH   1   2
ATOM      2  C   UNL     1      62.281  29.831  25.377  1.00  0.00     0.000 C 
BRANCH   2   3
ATOM      3  C   UNL     1      63.395  30.737  24.823  1.00  0.00     0.000 C 
BRANCH   3   4
ATOM      4  C   UNL     1      64.801  30.192  25.123  1.00  0.00     0.000 C 
BRANCH   4   5
ATOM      5  C   UNL     1      64.767  28.844  25.860  1.00  0.00     0.000 C 
BRANCH   5   6
ATOM      6  C   UNL     1      65.535  27.771  25.077  1.00  0.00     0.006 C 
BRANCH   6   7
ATOM      7  C   UNL     1      64.822  26.417  25.156  1.00  0.00     0.053 C 
BRANCH   7   8
ATOM      8  C   UNL     1      64.586  25.868  23.785  1.00  0.00     0.041 C 
ATOM      9  O   UNL     1      65.432  26.060  22.872  1.00  0.00    -0.550 OA
ATOM     10  O   UNL     1      63.409  25.188  23.501  1.00  0.00    -0.550 OA
ENDBRANCH   7   8
ENDBRANCH   6   7
ENDBRANCH   5   6
ENDBRANCH   4   5
ENDBRANCH   3   4
ENDBRANCH   2   3
ENDBRANCH   1   2
BRANCH   1  11
ATOM     11  C   UNL     1      61.310  27.493  24.987  1.00  0.00     0.000 C 
BRANCH  11  12
ATOM     12  C   UNL     1      60.829  27.684  26.434  1.00  0.00    -0.000 C 
BRANCH  12  13
ATOM     13  C   UNL     1      61.776  27.047  27.463  1.00  0.00    -0.000 C 
BRANCH  13  14
ATOM     14  C   UNL     1      61.419  27.495  28.886  1.00  0.00    -0.000 C 
BRANCH  14  15
ATOM     15  C   UNL     1      61.541  29.020  29.030  1.00  0.00    -0.000 C 
BRANCH  15  16
ATOM     16  C   UNL     1      63.001  29.499  29.033  1.00  0.00    -0.000 C 
BRANCH  16  17
ATOM     17  C   UNL     1      63.133  30.996  28.713  1.00  0.00    -0.003 C 
ATOM     18  C   UNL     1      64.595  31.431  28.713  1.00  0.00     0.004 C 
ENDBRANCH  16  17
ENDBRANCH  15  16
ENDBRANCH  14  15
ENDBRANCH  13  14
ENDBRANCH  12  13
ENDBRANCH  11  12
ENDBRANCH   1  11
TORSDOF 14
ENDMDL
MODEL 2
REMARK VINA RESULT:    -4.552      1.083      3.289
REMARK INTER + INTRA:         -10.554
REMARK INTER:                  -8.471
REMARK INTRA:                  -2.083
REMARK UNBOUND:                -2.276
REMARK SMILES CCCCCCCCCCCCCCCC(=O)[O-]
REMARK SMILES IDX 9 1 10 2 11 3 12 4 13 5 14 6 15 7 16 8 17 9 18 10 8 11 7 12
REMARK SMILES IDX 6 13 5 14 4 15 3 16 2 17 1 18
REMARK H PARENT
REMARK Flexibility Score: inf
ROOT
ATOM      1  C   UNL     1      64.053  30.875  27.657  1.00  0.00     0.000 C 
ENDROOT
BRANCH   1   2
ATOM      2  C   UNL     1      65.499  30.836  28.178  1.00  0.00     0.000 C 
BRANCH   2   3
ATOM      3  C   UNL     1      66.468  30.165  27.189  1.00  0.00     0.000 C 
BRANCH   3   4
ATOM      4  C   UNL     1      65.738  29.345  26.113  1.00  0.00     0.000 C 
BRANCH   4   5
ATOM      5  C   UNL     1      66.517  29.278  24.790  1.00  0.00     0.000 C 
BRANCH   5   6
ATOM      6  C   UNL     1      65.947  28.190  23.871  1.00  0.00     0.006 C 
BRANCH   6   7
ATOM      7  C   UNL     1      65.178  27.138  24.676  1.00  0.00     0.053 C 
BRANCH   7   8
ATOM      8  C   UNL     1      64.820  25.973  23.809  1.00  0.00     0.041 C 
ATOM      9  O   UNL     1      65.600  25.605  22.890  1.00  0.00    -0.550 OA
ATOM     10  O   UNL     1      63.605  25.324  23.980  1.00  0.00    -0.550 OA
ENDBRANCH   7   8
ENDBRANCH   6   7
ENDBRANCH   5   6
ENDBRANCH   4   5
ENDBRANCH   3   4
ENDBRANCH   2   3
ENDBRANCH   1   2
BRANCH   1  11
ATOM     11  C   UNL     1      63.012  30.873  28.791  1.00  0.00     0.000 C 
BRANCH  11  12
ATOM     12  C   UNL     1      62.082  29.650  28.734  1.00  0.00    -0.000 C 
BRANCH  12  13
ATOM     13  C   UNL     1      62.791  28.388  28.220  1.00  0.00    -0.000 C 
BRANCH  13  14
ATOM     14  C   UNL     1      61.793  27.432  27.556  1.00  0.00    -0.000 C 
BRANCH  14  15
ATOM     15  C   UNL     1      60.972  28.155  26.477  1.00  0.00    -0.000 C 
BRANCH  15  16
ATOM     16  C   UNL     1      61.119  27.511  25.090  1.00  0.00    -0.000 C 
BRANCH  16  17
ATOM     17  C   UNL     1      61.855  28.417  24.092  1.00  0.00    -0.003 C 
ATOM     18  C   UNL     1      62.207  29.759  24.725  1.00  0.00     0.004 C 
ENDBRANCH  16  17
ENDBRANCH  15  16
ENDBRANCH  14  15
ENDBRANCH  13  14
ENDBRANCH  12  13
ENDBRANCH  11  12
ENDBRANCH   1  11
TORSDOF 14
ENDMDL
MODEL 3
REMARK VINA RESULT:    -4.513      1.523      3.439
REMARK INTER + INTRA:         -10.482
REMARK INTER:                  -8.445
REMARK INTRA:                  -2.037
REMARK UNBOUND:                -2.276
REMARK SMILES CCCCCCCCCCCCCCCC(=O)[O-]
REMARK SMILES IDX 9 1 10 2 11 3 12 4 13 5 14 6 15 7 16 8 17 9 18 10 8 11 7 12
REMARK SMILES IDX 6 13 5 14 4 15 3 16 2 17 1 18
REMARK H PARENT
REMARK Flexibility Score: inf
ROOT
ATOM      1  C   UNL     1      63.138  30.663  26.545  1.00  0.00     0.000 C 
ENDROOT
BRANCH   1   2
ATOM      2  C   UNL     1      64.231  30.246  25.548  1.00  0.00     0.000 C 
BRANCH   2   3
ATOM      3  C   UNL     1      65.061  29.048  26.043  1.00  0.00     0.000 C 
BRANCH   3   4
ATOM      4  C   UNL     1      65.703  28.260  24.889  1.00  0.00     0.000 C 
BRANCH   4   5
ATOM      5  C   UNL     1      65.175  26.820  24.791  1.00  0.00     0.000 C 
BRANCH   5   6
ATOM      6  C   UNL     1      64.740  26.491  23.358  1.00  0.00     0.006 C 
BRANCH   6   7
ATOM      7  C   UNL     1      65.791  25.634  22.647  1.00  0.00     0.053 C 
BRANCH   7   8
ATOM      8  C   UNL     1      66.439  26.408  21.543  1.00  0.00     0.041 C 
ATOM      9  O   UNL     1      66.914  27.552  21.766  1.00  0.00    -0.550 OA
ATOM     10  O   UNL     1      66.473  25.888  20.255  1.00  0.00    -0.550 OA
ENDBRANCH   7   8
ENDBRANCH   6   7
ENDBRANCH   5   6
ENDBRANCH   4   5
ENDBRANCH   3   4
ENDBRANCH   2   3
ENDBRANCH   1   2
BRANCH   1  11
ATOM     11  C   UNL     1      63.685  30.882  27.968  1.00  0.00     0.000 C 
BRANCH  11  12
ATOM     12  C   UNL     1      62.728  30.360  29.052  1.00  0.00    -0.000 C 
BRANCH  12  13
ATOM     13  C   UNL     1      62.523  28.838  28.980  1.00  0.00    -0.000 C 
BRANCH  13  14
ATOM     14  C   UNL     1      61.049  28.497  28.729  1.00  0.00    -0.000 C 
BRANCH  14  15
ATOM     15  C   UNL     1      60.915  27.251  27.840  1.00  0.00    -0.000 C 
BRANCH  15  16
ATOM     16  C   UNL     1      62.083  27.101  26.853  1.00  0.00    -0.000 C 
BRANCH  16  17
ATOM     17  C   UNL     1      61.618  27.050  25.390  1.00  0.00    -0.003 C 
ATOM     18  C   UNL     1      60.821  28.298  25.024  1.00  0.00     0.004 C 
ENDBRANCH  16  17
ENDBRANCH  15  16
ENDBRANCH  14  15
ENDBRANCH  13  14
ENDBRANCH  12  13
ENDBRANCH  11  12
ENDBRANCH   1  11
TORSDOF 14
ENDMDL
MODEL 4
REMARK VINA RESULT:    -4.495     13.034     15.168
REMARK INTER + INTRA:         -10.450
REMARK INTER:                  -8.431
REMARK INTRA:                  -2.019
REMARK UNBOUND:                -2.276
REMARK SMILES CCCCCCCCCCCCCCCC(=O)[O-]
REMARK SMILES IDX 9 1 10 2 11 3 12 4 13 5 14 6 15 7 16 8 17 9 18 10 8 11 7 12
REMARK SMILES IDX 6 13 5 14 4 15 3 16 2 17 1 18
REMARK H PARENT
REMARK Flexibility Score: inf
ROOT
ATOM      1  C   UNL     1      63.386  29.266   9.936  1.00  0.00     0.000 C 
ENDROOT
BRANCH   1   2
ATOM      2  C   UNL     1      64.428  30.174   9.261  1.00  0.00     0.000 C 
BRANCH   2   3
ATOM      3  C   UNL     1      64.652  31.490  10.027  1.00  0.00     0.000 C 
BRANCH   3   4
ATOM      4  C   UNL     1      64.471  31.327  11.545  1.00  0.00     0.000 C 
BRANCH   4   5
ATOM      5  C   UNL     1      63.921  32.595  12.215  1.00  0.00     0.000 C 
BRANCH   5   6
ATOM      6  C   UNL     1      62.494  32.371  12.730  1.00  0.00     0.006 C 
BRANCH   6   7
ATOM      7  C   UNL     1      62.326  32.931  14.145  1.00  0.00     0.053 C 
BRANCH   7   8
ATOM      8  C   UNL     1      60.879  33.158  14.450  1.00  0.00     0.041 C 
ATOM      9  O   UNL     1      59.990  32.611  13.746  1.00  0.00    -0.550 OA
ATOM     10  O   UNL     1      60.511  34.014  15.480  1.00  0.00    -0.550 OA
ENDBRANCH   7   8
ENDBRANCH   6   7
ENDBRANCH   5   6
ENDBRANCH   4   5
ENDBRANCH   3   4
ENDBRANCH   2   3
ENDBRANCH   1   2
BRANCH   1  11
ATOM     11  C   UNL     1      62.424  28.613   8.927  1.00  0.00     0.000 C 
BRANCH  11  12
ATOM     12  C   UNL     1      60.986  28.519   9.462  1.00  0.00    -0.000 C 
BRANCH  12  13
ATOM     13  C   UNL     1      60.377  29.895   9.776  1.00  0.00    -0.000 C 
BRANCH  13  14
ATOM     14  C   UNL     1      59.949  29.980  11.246  1.00  0.00    -0.000 C 
BRANCH  14  15
ATOM     15  C   UNL     1      59.415  28.628  11.744  1.00  0.00    -0.000 C 
BRANCH  15  16
ATOM     16  C   UNL     1      60.148  28.128  12.997  1.00  0.00    -0.000 C 
BRANCH  16  17
ATOM     17  C   UNL     1      61.126  29.168  13.565  1.00  0.00    -0.003 C 
ATOM     18  C   UNL     1      62.572  28.711  13.396  1.00  0.00     0.004 C 
ENDBRANCH  16  17
ENDBRANCH  15  16
ENDBRANCH  14  15
ENDBRANCH  13  14
ENDBRANCH  12  13
ENDBRANCH  11  12
ENDBRANCH   1  11
TORSDOF 14
ENDMDL
MODEL 5
REMARK VINA RESULT:    -4.456      1.230      4.518
REMARK INTER + INTRA:         -10.378
REMARK INTER:                  -8.262
REMARK INTRA:                  -2.116
REMARK UNBOUND:                -2.276
REMARK SMILES CCCCCCCCCCCCCCCC(=O)[O-]
REMARK SMILES IDX 9 1 10 2 11 3 12 4 13 5 14 6 15 7 16 8 17 9 18 10 8 11 7 12
REMARK SMILES IDX 6 13 5 14 4 15 3 16 2 17 1 18
REMARK H PARENT
REMARK Flexibility Score: inf
ROOT
ATOM      1  C   UNL     1      62.815  30.195  28.194  1.00  0.00     0.000 C 
ENDROOT
BRANCH   1   2
ATOM      2  C   UNL     1      62.376  28.947  28.976  1.00  0.00     0.000 C 
BRANCH   2   3
ATOM      3  C   UNL     1      61.015  28.402  28.507  1.00  0.00     0.000 C 
BRANCH   3   4
ATOM      4  C   UNL     1      61.154  27.343  27.401  1.00  0.00     0.000 C 
BRANCH   4   5
ATOM      5  C   UNL     1      60.858  27.906  26.002  1.00  0.00     0.000 C 
BRANCH   5   6
ATOM      6  C   UNL     1      61.864  27.377  24.972  1.00  0.00     0.006 C 
BRANCH   6   7
ATOM      7  C   UNL     1      63.131  26.857  25.658  1.00  0.00     0.053 C 
BRANCH   7   8
ATOM      8  C   UNL     1      63.940  26.032  24.708  1.00  0.00     0.041 C 
ATOM      9  O   UNL     1      63.367  25.294  23.864  1.00  0.00    -0.550 OA
ATOM     10  O   UNL     1      65.326  26.039  24.787  1.00  0.00    -0.550 OA
ENDBRANCH   7   8
ENDBRANCH   6   7
ENDBRANCH   5   6
ENDBRANCH   4   5
ENDBRANCH   3   4
ENDBRANCH   2   3
ENDBRANCH   1   2
BRANCH   1  11
ATOM     11  C   UNL     1      63.632  31.178  29.053  1.00  0.00     0.000 C 
BRANCH  11  12
ATOM     12  C   UNL     1      64.952  31.591  28.380  1.00  0.00    -0.000 C 
BRANCH  12  13
ATOM     13  C   UNL     1      66.012  30.479  28.421  1.00  0.00    -0.000 C 
BRANCH  13  14
ATOM     14  C   UNL     1      66.628  30.261  27.033  1.00  0.00    -0.000 C 
BRANCH  14  15
ATOM     15  C   UNL     1      65.714  29.392  26.155  1.00  0.00    -0.000 C 
BRANCH  15  16
ATOM     16  C   UNL     1      65.917  29.650  24.654  1.00  0.00    -0.000 C 
BRANCH  16  17
ATOM     17  C   UNL     1      64.591  29.829  23.900  1.00  0.00    -0.003 C 
ATOM     18  C   UNL     1      63.624  30.706  24.689  1.00  0.00     0.004 C 
ENDBRANCH  16  17
ENDBRANCH  15  16
ENDBRANCH  14  15
ENDBRANCH  13  14
ENDBRANCH  12  13
ENDBRANCH  11  12
ENDBRANCH   1  11
TORSDOF 14
ENDMDL
MODEL 6
REMARK VINA RESULT:    -4.442      1.553      3.351
REMARK INTER + INTRA:         -10.354
REMARK INTER:                  -7.897
REMARK INTRA:                  -2.457
REMARK UNBOUND:                -2.276
REMARK SMILES CCCCCCCCCCCCCCCC(=O)[O-]
REMARK SMILES IDX 9 1 10 2 11 3 12 4 13 5 14 6 15 7 16 8 17 9 18 10 8 11 7 12
REMARK SMILES IDX 6 13 5 14 4 15 3 16 2 17 1 18
REMARK H PARENT
REMARK Flexibility Score: inf
ROOT
ATOM      1  C   UNL     1      61.739  29.633  24.753  1.00  0.00     0.000 C 
ENDROOT
BRANCH   1   2
ATOM      2  C   UNL     1      61.476  28.122  24.849  1.00  0.00     0.000 C 
BRANCH   2   3
ATOM      3  C   UNL     1      62.660  27.280  24.342  1.00  0.00     0.000 C 
BRANCH   3   4
ATOM      4  C   UNL     1      63.445  26.618  25.487  1.00  0.00     0.000 C 
BRANCH   4   5
ATOM      5  C   UNL     1      64.913  26.351  25.120  1.00  0.00     0.000 C 
BRANCH   5   6
ATOM      6  C   UNL     1      65.245  26.919  23.735  1.00  0.00     0.006 C 
BRANCH   6   7
ATOM      7  C   UNL     1      65.669  25.806  22.772  1.00  0.00     0.053 C 
BRANCH   7   8
ATOM      8  C   UNL     1      66.413  26.378  21.607  1.00  0.00     0.041 C 
ATOM      9  O   UNL     1      66.455  25.752  20.514  1.00  0.00    -0.550 OA
ATOM     10  O   UNL     1      67.102  27.576  21.740  1.00  0.00    -0.550 OA
ENDBRANCH   7   8
ENDBRANCH   6   7
ENDBRANCH   5   6
ENDBRANCH   4   5
ENDBRANCH   3   4
ENDBRANCH   2   3
ENDBRANCH   1   2
BRANCH   1  11
ATOM     11  C   UNL     1      63.089  29.960  24.089  1.00  0.00     0.000 C 
BRANCH  11  12
ATOM     12  C   UNL     1      63.982  30.845  24.975  1.00  0.00    -0.000 C 
BRANCH  12  13
ATOM     13  C   UNL     1      65.235  30.110  25.475  1.00  0.00    -0.000 C 
BRANCH  13  14
ATOM     14  C   UNL     1      65.113  29.773  26.966  1.00  0.00    -0.000 C 
BRANCH  14  15
ATOM     15  C   UNL     1      63.969  30.565  27.618  1.00  0.00    -0.000 C 
BRANCH  15  16
ATOM     16  C   UNL     1      63.287  29.791  28.756  1.00  0.00    -0.000 C 
BRANCH  16  17
ATOM     17  C   UNL     1      61.878  29.307  28.380  1.00  0.00    -0.003 C 
ATOM     18  C   UNL     1      61.747  27.799  28.571  1.00  0.00     0.004 C 
ENDBRANCH  16  17
ENDBRANCH  15  16
ENDBRANCH  14  15
ENDBRANCH  13  14
ENDBRANCH  12  13
ENDBRANCH  11  12
ENDBRANCH   1  11
TORSDOF 14
ENDMDL
MODEL 7
REMARK VINA RESULT:    -4.439      1.375      3.950
REMARK INTER + INTRA:         -10.348
REMARK INTER:                  -8.057
REMARK INTRA:                  -2.291
REMARK UNBOUND:                -2.276
REMARK SMILES CCCCCCCCCCCCCCCC(=O)[O-]
REMARK SMILES IDX 9 1 10 2 11 3 12 4 13 5 14 6 15 7 16 8 17 9 18 10 8 11 7 12
REMARK SMILES IDX 6 13 5 14 4 15 3 16 2 17 1 18
REMARK H PARENT
REMARK Flexibility Score: inf
ROOT
ATOM      1  C   UNL     1      61.960  29.099  28.211  1.00  0.00     0.000 C 
ENDROOT
BRANCH   1   2
ATOM      2  C   UNL     1      62.252  27.665  27.738  1.00  0.00     0.000 C 
BRANCH   2   3
ATOM      3  C   UNL     1      61.274  27.188  26.651  1.00  0.00     0.000 C 
BRANCH   3   4
ATOM      4  C   UNL     1      61.869  27.291  25.237  1.00  0.00     0.000 C 
BRANCH   4   5
ATOM      5  C   UNL     1      63.203  26.541  25.100  1.00  0.00     0.000 C 
BRANCH   5   6
ATOM      6  C   UNL     1      63.701  26.564  23.650  1.00  0.00     0.006 C 
BRANCH   6   7
ATOM      7  C   UNL     1      65.012  25.786  23.506  1.00  0.00     0.053 C 
BRANCH   7   8
ATOM      8  C   UNL     1      65.970  26.533  22.633  1.00  0.00     0.041 C 
ATOM      9  O   UNL     1      66.373  27.678  22.968  1.00  0.00    -0.550 OA
ATOM     10  O   UNL     1      66.381  25.986  21.424  1.00  0.00    -0.550 OA
ENDBRANCH   7   8
ENDBRANCH   6   7
ENDBRANCH   5   6
ENDBRANCH   4   5
ENDBRANCH   3   4
ENDBRANCH   2   3
ENDBRANCH   1   2
BRANCH   1  11
ATOM     11  C   UNL     1      63.064  29.661  29.124  1.00  0.00     0.000 C 
BRANCH  11  12
ATOM     12  C   UNL     1      63.211  31.186  29.000  1.00  0.00    -0.000 C 
BRANCH  12  13
ATOM     13  C   UNL     1      64.651  31.620  28.683  1.00  0.00    -0.000 C 
BRANCH  13  14
ATOM     14  C   UNL     1      65.551  30.400  28.452  1.00  0.00    -0.000 C 
BRANCH  14  15
ATOM     15  C   UNL     1      66.094  30.381  27.014  1.00  0.00    -0.000 C 
BRANCH  15  16
ATOM     16  C   UNL     1      65.378  29.353  26.125  1.00  0.00    -0.000 C 
BRANCH  16  17
ATOM     17  C   UNL     1      64.722  29.991  24.892  1.00  0.00    -0.003 C 
ATOM     18  C   UNL     1      63.392  30.645  25.254  1.00  0.00     0.004 C 
ENDBRANCH  16  17
ENDBRANCH  15  16
ENDBRANCH  14  15
ENDBRANCH  13  14
ENDBRANCH  12  13
ENDBRANCH  11  12
ENDBRANCH   1  11
TORSDOF 14
ENDMDL
MODEL 8
REMARK VINA RESULT:    -4.410     12.359     14.601
REMARK INTER + INTRA:         -10.296
REMARK INTER:                  -8.201
REMARK INTRA:                  -2.095
REMARK UNBOUND:                -2.276
REMARK SMILES CCCCCCCCCCCCCCCC(=O)[O-]
REMARK SMILES IDX 9 1 10 2 11 3 12 4 13 5 14 6 15 7 16 8 17 9 18 10 8 11 7 12
REMARK SMILES IDX 6 13 5 14 4 15 3 16 2 17 1 18
REMARK H PARENT
REMARK Flexibility Score: inf
ROOT
ATOM      1  C   UNL     1      60.675  29.503  10.307  1.00  0.00     0.000 C 
ENDROOT
BRANCH   1   2
ATOM      2  C   UNL     1      59.624  28.632  11.015  1.00  0.00     0.000 C 
BRANCH   2   3
ATOM      3  C   UNL     1      59.582  28.870  12.535  1.00  0.00     0.000 C 
BRANCH   3   4
ATOM      4  C   UNL     1      60.895  28.473  13.230  1.00  0.00     0.000 C 
BRANCH   4   5
ATOM      5  C   UNL     1      61.462  29.597  14.110  1.00  0.00     0.000 C 
BRANCH   5   6
ATOM      6  C   UNL     1      60.688  30.904  13.899  1.00  0.00     0.006 C 
BRANCH   6   7
ATOM      7  C   UNL     1      60.676  31.748  15.177  1.00  0.00     0.053 C 
BRANCH   7   8
ATOM      8  C   UNL     1      60.660  33.206  14.841  1.00  0.00     0.041 C 
ATOM      9  O   UNL     1      60.563  33.578  13.642  1.00  0.00    -0.550 OA
ATOM     10  O   UNL     1      60.804  34.153  15.847  1.00  0.00    -0.550 OA
ENDBRANCH   7   8
ENDBRANCH   6   7
ENDBRANCH   5   6
ENDBRANCH   4   5
ENDBRANCH   3   4
ENDBRANCH   2   3
ENDBRANCH   1   2
BRANCH   1  11
ATOM     11  C   UNL     1      61.593  28.688   9.378  1.00  0.00     0.000 C 
BRANCH  11  12
ATOM     12  C   UNL     1      63.044  29.196   9.393  1.00  0.00    -0.000 C 
BRANCH  12  13
ATOM     13  C   UNL     1      63.572  29.443  10.815  1.00  0.00    -0.000 C 
BRANCH  13  14
ATOM     14  C   UNL     1      64.214  30.832  10.926  1.00  0.00    -0.000 C 
BRANCH  14  15
ATOM     15  C   UNL     1      63.376  31.756  11.824  1.00  0.00    -0.000 C 
BRANCH  15  16
ATOM     16  C   UNL     1      64.227  32.816  12.540  1.00  0.00    -0.000 C 
BRANCH  16  17
ATOM     17  C   UNL     1      64.195  32.667  14.068  1.00  0.00    -0.003 C 
ATOM     18  C   UNL     1      64.276  34.027  14.754  1.00  0.00     0.004 C 
ENDBRANCH  16  17
ENDBRANCH  15  16
ENDBRANCH  14  15
ENDBRANCH  13  14
ENDBRANCH  12  13
ENDBRANCH  11  12
ENDBRANCH   1  11
TORSDOF 14
ENDMDL
