MODEL 1
REMARK VINA RESULT:    -7.957      0.000      0.000
REMARK INTER + INTRA:          -9.670
REMARK INTER:                  -9.353
REMARK INTRA:                  -0.317
REMARK UNBOUND:                -0.317
REMARK SMILES O=c1cc(-c2ccc(O)c(O)c2)oc2cc(O)cc(O)c12
REMARK SMILES IDX 4 1 3 2 2 3 1 4 21 5 19 6 18 7 16 8 15 9 14 10 13 11 5 12
REMARK SMILES IDX 6 13 7 14 8 15 12 16 10 17 9 18 11 20 20 22 17 24
REMARK H PARENT 9 19 11 21 20 23 17 25
REMARK Flexibility Score: inf
ROOT
ATOM      1  C   UNL     1      -1.209  -7.457  27.773  1.00  0.00     0.138 A 
ATOM      2  C   UNL     1      -0.284  -7.766  28.779  1.00  0.00     0.100 A 
ATOM      3  C   UNL     1       0.911  -7.049  28.863  1.00  0.00     0.197 A 
ATOM      4  O   UNL     1       1.694  -7.308  29.813  1.00  0.00    -0.289 OA
ATOM      5  C   UNL     1       1.192  -6.037  27.914  1.00  0.00     0.107 A 
ATOM      6  C   UNL     1       2.394  -5.270  27.877  1.00  0.00     0.134 A 
ATOM      7  C   UNL     1       2.511  -4.216  26.961  1.00  0.00     0.093 A 
ATOM      8  C   UNL     1       1.495  -3.941  26.044  1.00  0.00     0.123 A 
ATOM      9  C   UNL     1       0.340  -4.720  26.036  1.00  0.00     0.094 A 
ATOM     10  C   UNL     1       0.178  -5.756  26.959  1.00  0.00     0.146 A 
ATOM     11  O   UNL     1      -0.946  -6.465  26.928  1.00  0.00    -0.456 OA
ENDROOT
BRANCH   1  12
ATOM     12  C   UNL     1      -2.494  -8.188  27.637  1.00  0.00     0.021 A 
ATOM     13  C   UNL     1      -2.897  -9.072  28.650  1.00  0.00     0.016 A 
ATOM     14  C   UNL     1      -4.104  -9.765  28.548  1.00  0.00     0.051 A 
ATOM     15  C   UNL     1      -4.940  -9.586  27.441  1.00  0.00     0.157 A 
ATOM     16  C   UNL     1      -3.341  -7.995  26.530  1.00  0.00     0.062 A 
ATOM     17  C   UNL     1      -4.557  -8.685  26.421  1.00  0.00     0.158 A 
BRANCH  15  18
ATOM     18  O   UNL     1      -6.131 -10.313  27.398  1.00  0.00    -0.504 OA
ATOM     19  H   UNL     1      -6.884 -10.204  28.062  1.00  0.00     0.293 HD
ENDBRANCH  15  18
BRANCH  17  20
ATOM     20  O   UNL     1      -5.346  -8.441  25.295  1.00  0.00    -0.504 OA
ATOM     21  H   UNL     1      -5.003  -8.478  24.347  1.00  0.00     0.293 HD
ENDBRANCH  17  20
ENDBRANCH   1  12
BRANCH   6  22
ATOM     22  O   UNL     1       3.503  -5.515  28.691  1.00  0.00    -0.507 OA
ATOM     23  H   UNL     1       4.286  -4.888  28.804  1.00  0.00     0.293 HD
ENDBRANCH   6  22
BRANCH   8  24
ATOM     24  O   UNL     1       1.627  -2.900  25.127  1.00  0.00    -0.508 OA
ATOM     25  H   UNL     1       2.098  -3.031  24.240  1.00  0.00     0.293 HD
ENDBRANCH   8  24
TORSDOF 5
ENDMDL
MODEL 2
REMARK VINA RESULT:    -7.905      3.556      6.296
REMARK INTER + INTRA:          -9.608
REMARK INTER:                  -9.299
REMARK INTRA:                  -0.309
REMARK UNBOUND:                -0.317
REMARK SMILES O=c1cc(-c2ccc(O)c(O)c2)oc2cc(O)cc(O)c12
REMARK SMILES IDX 4 1 3 2 2 3 1 4 21 5 19 6 18 7 16 8 15 9 14 10 13 11 5 12
REMARK SMILES IDX 6 13 7 14 8 15 12 16 10 17 9 18 11 20 20 22 17 24
REMARK H PARENT 9 19 11 21 20 23 17 25
REMARK Flexibility Score: inf
ROOT
ATOM      1  C   UNL     1       2.790  -2.937  26.432  1.00  0.00     0.138 A 
ATOM      2  C   UNL     1       3.805  -2.492  27.291  1.00  0.00     0.100 A 
ATOM      3  C   UNL     1       4.539  -1.352  26.960  1.00  0.00     0.197 A 
ATOM      4  O   UNL     1       5.401  -0.942  27.779  1.00  0.00    -0.289 OA
ATOM      5  C   UNL     1       4.274  -0.674  25.746  1.00  0.00     0.107 A 
ATOM      6  C   UNL     1       4.986   0.474  25.286  1.00  0.00     0.134 A 
ATOM      7  C   UNL     1       4.560   1.130  24.124  1.00  0.00     0.093 A 
ATOM      8  C   UNL     1       3.485   0.645  23.376  1.00  0.00     0.123 A 
ATOM      9  C   UNL     1       2.817  -0.506  23.788  1.00  0.00     0.094 A 
ATOM     10  C   UNL     1       3.197  -1.164  24.960  1.00  0.00     0.146 A 
ATOM     11  O   UNL     1       2.525  -2.250  25.326  1.00  0.00    -0.456 OA
ENDROOT
BRANCH   1  12
ATOM     12  C   UNL     1       1.979  -4.143  26.735  1.00  0.00     0.021 A 
ATOM     13  C   UNL     1       2.514  -5.148  27.557  1.00  0.00     0.016 A 
ATOM     14  C   UNL     1       1.768  -6.288  27.861  1.00  0.00     0.051 A 
ATOM     15  C   UNL     1       0.471  -6.447  27.363  1.00  0.00     0.157 A 
ATOM     16  C   UNL     1       0.669  -4.295  26.245  1.00  0.00     0.062 A 
ATOM     17  C   UNL     1      -0.089  -5.436  26.549  1.00  0.00     0.158 A 
BRANCH  15  18
ATOM     18  O   UNL     1      -0.219  -7.613  27.701  1.00  0.00    -0.504 OA
ATOM     19  H   UNL     1      -1.096  -7.891  27.284  1.00  0.00     0.293 HD
ENDBRANCH  15  18
BRANCH  17  20
ATOM     20  O   UNL     1      -1.382  -5.516  26.028  1.00  0.00    -0.504 OA
ATOM     21  H   UNL     1      -1.805  -6.371  25.698  1.00  0.00     0.293 HD
ENDBRANCH  17  20
ENDBRANCH   1  12
BRANCH   6  22
ATOM     22  O   UNL     1       6.125   0.991  25.911  1.00  0.00    -0.507 OA
ATOM     23  H   UNL     1       6.176   1.264  26.881  1.00  0.00     0.293 HD
ENDBRANCH   6  22
BRANCH   8  24
ATOM     24  O   UNL     1       3.076   1.297  22.213  1.00  0.00    -0.508 OA
ATOM     25  H   UNL     1       2.148   1.164  21.830  1.00  0.00     0.293 HD
ENDBRANCH   8  24
TORSDOF 5
ENDMDL
MODEL 3
REMARK VINA RESULT:    -7.735      3.223      8.537
REMARK INTER + INTRA:          -9.408
REMARK INTER:                  -9.122
REMARK INTRA:                  -0.286
REMARK UNBOUND:                -0.317
REMARK SMILES O=c1cc(-c2ccc(O)c(O)c2)oc2cc(O)cc(O)c12
REMARK SMILES IDX 4 1 3 2 2 3 1 4 21 5 19 6 18 7 16 8 15 9 14 10 13 11 5 12
REMARK SMILES IDX 6 13 7 14 8 15 12 16 10 17 9 18 11 20 20 22 17 24
REMARK H PARENT 9 19 11 21 20 23 17 25
REMARK Flexibility Score: inf
ROOT
ATOM      1  C   UNL     1       3.218  -2.716  25.994  1.00  0.00     0.138 A 
ATOM      2  C   UNL     1       4.086  -3.481  26.785  1.00  0.00     0.100 A 
ATOM      3  C   UNL     1       3.616  -4.639  27.406  1.00  0.00     0.197 A 
ATOM      4  O   UNL     1       4.433  -5.337  28.059  1.00  0.00    -0.289 OA
ATOM      5  C   UNL     1       2.259  -5.016  27.257  1.00  0.00     0.107 A 
ATOM      6  C   UNL     1       1.660  -6.153  27.876  1.00  0.00     0.134 A 
ATOM      7  C   UNL     1       0.337  -6.491  27.562  1.00  0.00     0.093 A 
ATOM      8  C   UNL     1      -0.425  -5.699  26.699  1.00  0.00     0.123 A 
ATOM      9  C   UNL     1       0.136  -4.557  26.132  1.00  0.00     0.094 A 
ATOM     10  C   UNL     1       1.463  -4.211  26.398  1.00  0.00     0.146 A 
ATOM     11  O   UNL     1       1.963  -3.122  25.825  1.00  0.00    -0.456 OA
ENDROOT
BRANCH   1  12
ATOM     12  C   UNL     1       3.665  -1.476  25.312  1.00  0.00     0.021 A 
ATOM     13  C   UNL     1       4.329  -0.483  26.048  1.00  0.00     0.016 A 
ATOM     14  C   UNL     1       4.765   0.689  25.427  1.00  0.00     0.051 A 
ATOM     15  C   UNL     1       4.558   0.892  24.059  1.00  0.00     0.157 A 
ATOM     16  C   UNL     1       3.469  -1.279  23.932  1.00  0.00     0.062 A 
ATOM     17  C   UNL     1       3.907  -0.107  23.300  1.00  0.00     0.158 A 
BRANCH  15  18
ATOM     18  O   UNL     1       5.014   2.088  23.501  1.00  0.00    -0.504 OA
ATOM     19  H   UNL     1       5.732   2.143  22.793  1.00  0.00     0.293 HD
ENDBRANCH  15  18
BRANCH  17  20
ATOM     20  O   UNL     1       3.680   0.018  21.927  1.00  0.00    -0.504 OA
ATOM     21  H   UNL     1       3.390   0.874  21.479  1.00  0.00     0.293 HD
ENDBRANCH  17  20
ENDBRANCH   1  12
BRANCH   6  22
ATOM     22  O   UNL     1       2.304  -6.961  28.817  1.00  0.00    -0.507 OA
ATOM     23  H   UNL     1       1.836  -7.510  29.522  1.00  0.00     0.293 HD
ENDBRANCH   6  22
BRANCH   8  24
ATOM     24  O   UNL     1      -1.744  -6.036  26.405  1.00  0.00    -0.508 OA
ATOM     25  H   UNL     1      -2.410  -6.256  27.135  1.00  0.00     0.293 HD
ENDBRANCH   8  24
TORSDOF 5
ENDMDL
MODEL 4
REMARK VINA RESULT:    -7.283      1.247      2.688
REMARK INTER + INTRA:          -8.877
REMARK INTER:                  -8.589
REMARK INTRA:                  -0.288
REMARK UNBOUND:                -0.317
REMARK SMILES O=c1cc(-c2ccc(O)c(O)c2)oc2cc(O)cc(O)c12
REMARK SMILES IDX 4 1 3 2 2 3 1 4 21 5 19 6 18 7 16 8 15 9 14 10 13 11 5 12
REMARK SMILES IDX 6 13 7 14 8 15 12 16 10 17 9 18 11 20 20 22 17 24
REMARK H PARENT 9 19 11 21 20 23 17 25
REMARK Flexibility Score: inf
ROOT
ATOM      1  C   UNL     1      -1.101  -7.234  27.463  1.00  0.00     0.138 A 
ATOM      2  C   UNL     1      -1.018  -6.029  26.751  1.00  0.00     0.100 A 
ATOM      3  C   UNL     1       0.178  -5.309  26.751  1.00  0.00     0.197 A 
ATOM      4  O   UNL     1       0.241  -4.263  26.053  1.00  0.00    -0.289 OA
ATOM      5  C   UNL     1       1.285  -5.783  27.493  1.00  0.00     0.107 A 
ATOM      6  C   UNL     1       2.539  -5.111  27.599  1.00  0.00     0.134 A 
ATOM      7  C   UNL     1       3.601  -5.734  28.268  1.00  0.00     0.093 A 
ATOM      8  C   UNL     1       3.435  -6.976  28.885  1.00  0.00     0.123 A 
ATOM      9  C   UNL     1       2.197  -7.615  28.833  1.00  0.00     0.094 A 
ATOM     10  C   UNL     1       1.129  -7.036  28.145  1.00  0.00     0.146 A 
ATOM     11  O   UNL     1      -0.029  -7.685  28.107  1.00  0.00    -0.456 OA
ENDROOT
BRANCH   1  12
ATOM     12  C   UNL     1      -2.347  -8.040  27.498  1.00  0.00     0.021 A 
ATOM     13  C   UNL     1      -2.619  -8.845  28.615  1.00  0.00     0.016 A 
ATOM     14  C   UNL     1      -3.788  -9.606  28.674  1.00  0.00     0.051 A 
ATOM     15  C   UNL     1      -4.714  -9.575  27.626  1.00  0.00     0.157 A 
ATOM     16  C   UNL     1      -3.286  -7.996  26.450  1.00  0.00     0.062 A 
ATOM     17  C   UNL     1      -4.463  -8.755  26.502  1.00  0.00     0.158 A 
BRANCH  15  18
ATOM     18  O   UNL     1      -5.860 -10.364  27.745  1.00  0.00    -0.504 OA
ATOM     19  H   UNL     1      -5.845 -11.359  27.916  1.00  0.00     0.293 HD
ENDBRANCH  15  18
BRANCH  17  20
ATOM     20  O   UNL     1      -5.349  -8.659  25.426  1.00  0.00    -0.504 OA
ATOM     21  H   UNL     1      -5.188  -8.084  24.613  1.00  0.00     0.293 HD
ENDBRANCH  17  20
ENDBRANCH   1  12
BRANCH   6  22
ATOM     22  O   UNL     1       2.786  -3.832  27.093  1.00  0.00    -0.507 OA
ATOM     23  H   UNL     1       3.165  -3.637  26.178  1.00  0.00     0.293 HD
ENDBRANCH   6  22
BRANCH   8  24
ATOM     24  O   UNL     1       4.493  -7.582  29.561  1.00  0.00    -0.508 OA
ATOM     25  H   UNL     1       5.207  -8.103  29.068  1.00  0.00     0.293 HD
ENDBRANCH   8  24
TORSDOF 5
ENDMDL
MODEL 5
REMARK VINA RESULT:    -7.141      2.001      7.261
REMARK INTER + INTRA:          -8.710
REMARK INTER:                  -8.400
REMARK INTRA:                  -0.310
REMARK UNBOUND:                -0.317
REMARK SMILES O=c1cc(-c2ccc(O)c(O)c2)oc2cc(O)cc(O)c12
REMARK SMILES IDX 4 1 3 2 2 3 1 4 21 5 19 6 18 7 16 8 15 9 14 10 13 11 5 12
REMARK SMILES IDX 6 13 7 14 8 15 12 16 10 17 9 18 11 20 20 22 17 24
REMARK H PARENT 9 19 11 21 20 23 17 25
REMARK Flexibility Score: inf
ROOT
ATOM      1  C   UNL     1       1.849  -4.652  27.085  1.00  0.00     0.138 A 
ATOM      2  C   UNL     1       2.472  -5.446  28.058  1.00  0.00     0.100 A 
ATOM      3  C   UNL     1       1.775  -6.512  28.629  1.00  0.00     0.197 A 
ATOM      4  O   UNL     1       2.381  -7.244  29.454  1.00  0.00    -0.289 OA
ATOM      5  C   UNL     1       0.436  -6.763  28.245  1.00  0.00     0.107 A 
ATOM      6  C   UNL     1      -0.384  -7.795  28.790  1.00  0.00     0.134 A 
ATOM      7  C   UNL     1      -1.657  -8.022  28.250  1.00  0.00     0.093 A 
ATOM      8  C   UNL     1      -2.159  -7.216  27.226  1.00  0.00     0.123 A 
ATOM      9  C   UNL     1      -1.386  -6.171  26.724  1.00  0.00     0.094 A 
ATOM     10  C   UNL     1      -0.100  -5.941  27.219  1.00  0.00     0.146 A 
ATOM     11  O   UNL     1       0.609  -4.943  26.702  1.00  0.00    -0.456 OA
ENDROOT
BRANCH   1  12
ATOM     12  C   UNL     1       2.543  -3.506  26.446  1.00  0.00     0.021 A 
ATOM     13  C   UNL     1       3.606  -2.881  27.115  1.00  0.00     0.016 A 
ATOM     14  C   UNL     1       4.279  -1.806  26.530  1.00  0.00     0.051 A 
ATOM     15  C   UNL     1       3.913  -1.338  25.264  1.00  0.00     0.157 A 
ATOM     16  C   UNL     1       2.184  -3.046  25.165  1.00  0.00     0.062 A 
ATOM     17  C   UNL     1       2.856  -1.969  24.570  1.00  0.00     0.158 A 
BRANCH  15  18
ATOM     18  O   UNL     1       4.623  -0.256  24.739  1.00  0.00    -0.504 OA
ATOM     19  H   UNL     1       5.487  -0.344  24.225  1.00  0.00     0.293 HD
ENDBRANCH  15  18
BRANCH  17  20
ATOM     20  O   UNL     1       2.445  -1.568  23.296  1.00  0.00    -0.504 OA
ATOM     21  H   UNL     1       2.627  -0.655  22.906  1.00  0.00     0.293 HD
ENDBRANCH  17  20
ENDBRANCH   1  12
BRANCH   6  22
ATOM     22  O   UNL     1      -0.012  -8.602  29.870  1.00  0.00    -0.507 OA
ATOM     23  H   UNL     1       0.917  -8.959  30.029  1.00  0.00     0.293 HD
ENDBRANCH   6  22
BRANCH   8  24
ATOM     24  O   UNL     1      -3.432  -7.441  26.704  1.00  0.00    -0.508 OA
ATOM     25  H   UNL     1      -3.930  -6.721  26.193  1.00  0.00     0.293 HD
ENDBRANCH   8  24
TORSDOF 5
ENDMDL
MODEL 6
REMARK VINA RESULT:    -7.015      1.828      2.671
REMARK INTER + INTRA:          -8.563
REMARK INTER:                  -8.249
REMARK INTRA:                  -0.314
REMARK UNBOUND:                -0.317
REMARK SMILES O=c1cc(-c2ccc(O)c(O)c2)oc2cc(O)cc(O)c12
REMARK SMILES IDX 4 1 3 2 2 3 1 4 21 5 19 6 18 7 16 8 15 9 14 10 13 11 5 12
REMARK SMILES IDX 6 13 7 14 8 15 12 16 10 17 9 18 11 20 20 22 17 24
REMARK H PARENT 9 19 11 21 20 23 17 25
REMARK Flexibility Score: inf
ROOT
ATOM      1  C   UNL     1       0.493  -5.558  27.952  1.00  0.00     0.138 A 
ATOM      2  C   UNL     1       1.284  -5.189  29.049  1.00  0.00     0.100 A 
ATOM      3  C   UNL     1       2.278  -4.222  28.889  1.00  0.00     0.197 A 
ATOM      4  O   UNL     1       2.931  -3.868  29.905  1.00  0.00    -0.289 OA
ATOM      5  C   UNL     1       2.501  -3.646  27.616  1.00  0.00     0.107 A 
ATOM      6  C   UNL     1       3.512  -2.682  27.327  1.00  0.00     0.134 A 
ATOM      7  C   UNL     1       3.563  -2.096  26.055  1.00  0.00     0.093 A 
ATOM      8  C   UNL     1       2.676  -2.483  25.047  1.00  0.00     0.123 A 
ATOM      9  C   UNL     1       1.720  -3.463  25.305  1.00  0.00     0.094 A 
ATOM     10  C   UNL     1       1.622  -4.042  26.572  1.00  0.00     0.146 A 
ATOM     11  O   UNL     1       0.686  -4.961  26.780  1.00  0.00    -0.456 OA
ENDROOT
BRANCH   1  12
ATOM     12  C   UNL     1      -0.577  -6.581  28.066  1.00  0.00     0.021 A 
ATOM     13  C   UNL     1      -0.579  -7.461  29.159  1.00  0.00     0.016 A 
ATOM     14  C   UNL     1      -1.579  -8.426  29.291  1.00  0.00     0.051 A 
ATOM     15  C   UNL     1      -2.602  -8.529  28.343  1.00  0.00     0.157 A 
ATOM     16  C   UNL     1      -1.614  -6.673  27.119  1.00  0.00     0.062 A 
ATOM     17  C   UNL     1      -2.624  -7.638  27.245  1.00  0.00     0.158 A 
BRANCH  15  18
ATOM     18  O   UNL     1      -3.568  -9.519  28.530  1.00  0.00    -0.504 OA
ATOM     19  H   UNL     1      -4.272  -9.759  27.847  1.00  0.00     0.293 HD
ENDBRANCH  15  18
BRANCH  17  20
ATOM     20  O   UNL     1      -3.621  -7.669  26.268  1.00  0.00    -0.504 OA
ATOM     21  H   UNL     1      -4.610  -7.679  26.471  1.00  0.00     0.293 HD
ENDBRANCH  17  20
ENDBRANCH   1  12
BRANCH   6  22
ATOM     22  O   UNL     1       4.499  -2.288  28.235  1.00  0.00    -0.507 OA
ATOM     23  H   UNL     1       5.474  -2.541  28.173  1.00  0.00     0.293 HD
ENDBRANCH   6  22
BRANCH   8  24
ATOM     24  O   UNL     1       2.744  -1.905  23.781  1.00  0.00    -0.508 OA
ATOM     25  H   UNL     1       2.532  -0.925  23.634  1.00  0.00     0.293 HD
ENDBRANCH   8  24
TORSDOF 5
ENDMDL
MODEL 7
REMARK VINA RESULT:    -6.777     10.596     12.910
REMARK INTER + INTRA:          -8.283
REMARK INTER:                  -7.968
REMARK INTRA:                  -0.315
REMARK UNBOUND:                -0.317
REMARK SMILES O=c1cc(-c2ccc(O)c(O)c2)oc2cc(O)cc(O)c12
REMARK SMILES IDX 4 1 3 2 2 3 1 4 21 5 19 6 18 7 16 8 15 9 14 10 13 11 5 12
REMARK SMILES IDX 6 13 7 14 8 15 12 16 10 17 9 18 11 20 20 22 17 24
REMARK H PARENT 9 19 11 21 20 23 17 25
REMARK Flexibility Score: inf
ROOT
ATOM      1  C   UNL     1       0.037  -5.714  15.700  1.00  0.00     0.138 A 
ATOM      2  C   UNL     1      -0.865  -6.787  15.701  1.00  0.00     0.100 A 
ATOM      3  C   UNL     1      -0.499  -7.996  16.294  1.00  0.00     0.197 A 
ATOM      4  O   UNL     1      -1.352  -8.920  16.333  1.00  0.00    -0.289 OA
ATOM      5  C   UNL     1       0.789  -8.140  16.861  1.00  0.00     0.107 A 
ATOM      6  C   UNL     1       1.286  -9.338  17.456  1.00  0.00     0.134 A 
ATOM      7  C   UNL     1       2.536  -9.328  18.088  1.00  0.00     0.093 A 
ATOM      8  C   UNL     1       3.331  -8.179  18.095  1.00  0.00     0.123 A 
ATOM      9  C   UNL     1       2.877  -7.020  17.470  1.00  0.00     0.094 A 
ATOM     10  C   UNL     1       1.621  -6.988  16.860  1.00  0.00     0.146 A 
ATOM     11  O   UNL     1       1.221  -5.858  16.288  1.00  0.00    -0.456 OA
ENDROOT
BRANCH   1  12
ATOM     12  C   UNL     1      -0.300  -4.406  15.083  1.00  0.00     0.021 A 
ATOM     13  C   UNL     1      -1.637  -4.111  14.776  1.00  0.00     0.016 A 
ATOM     14  C   UNL     1      -1.979  -2.885  14.203  1.00  0.00     0.051 A 
ATOM     15  C   UNL     1      -0.999  -1.925  13.931  1.00  0.00     0.157 A 
ATOM     16  C   UNL     1       0.686  -3.436  14.824  1.00  0.00     0.062 A 
ATOM     17  C   UNL     1       0.350  -2.201  14.251  1.00  0.00     0.158 A 
BRANCH  15  18
ATOM     18  O   UNL     1      -1.407  -0.722  13.351  1.00  0.00    -0.504 OA
ATOM     19  H   UNL     1      -2.214  -0.196  13.652  1.00  0.00     0.293 HD
ENDBRANCH  15  18
BRANCH  17  20
ATOM     20  O   UNL     1       1.381  -1.286  14.024  1.00  0.00    -0.504 OA
ATOM     21  H   UNL     1       2.154  -1.138  14.656  1.00  0.00     0.293 HD
ENDBRANCH  17  20
ENDBRANCH   1  12
BRANCH   6  22
ATOM     22  O   UNL     1       0.610 -10.562  17.430  1.00  0.00    -0.507 OA
ATOM     23  H   UNL     1      -0.377 -10.679  17.604  1.00  0.00     0.293 HD
ENDBRANCH   6  22
BRANCH   8  24
ATOM     24  O   UNL     1       4.579  -8.183  18.715  1.00  0.00    -0.508 OA
ATOM     25  H   UNL     1       4.766  -7.615  19.532  1.00  0.00     0.293 HD
ENDBRANCH   8  24
TORSDOF 5
ENDMDL
MODEL 8
REMARK VINA RESULT:    -6.776      4.201     10.091
REMARK INTER + INTRA:          -8.281
REMARK INTER:                  -8.003
REMARK INTRA:                  -0.278
REMARK UNBOUND:                -0.317
REMARK SMILES O=c1cc(-c2ccc(O)c(O)c2)oc2cc(O)cc(O)c12
REMARK SMILES IDX 4 1 3 2 2 3 1 4 21 5 19 6 18 7 16 8 15 9 14 10 13 11 5 12
REMARK SMILES IDX 6 13 7 14 8 15 12 16 10 17 9 18 11 20 20 22 17 24
REMARK H PARENT 9 19 11 21 20 23 17 25
REMARK Flexibility Score: inf
ROOT
ATOM      1  C   UNL     1      -6.755  -9.986  26.012  1.00  0.00     0.138 A 
ATOM      2  C   UNL     1      -6.886 -10.359  24.667  1.00  0.00     0.100 A 
ATOM      3  C   UNL     1      -8.136 -10.737  24.173  1.00  0.00     0.197 A 
ATOM      4  O   UNL     1      -8.233 -11.007  22.949  1.00  0.00    -0.289 OA
ATOM      5  C   UNL     1      -9.253 -10.771  25.041  1.00  0.00     0.107 A 
ATOM      6  C   UNL     1     -10.566 -11.180  24.658  1.00  0.00     0.134 A 
ATOM      7  C   UNL     1     -11.619 -11.062  25.574  1.00  0.00     0.093 A 
ATOM      8  C   UNL     1     -11.396 -10.606  26.875  1.00  0.00     0.123 A 
ATOM      9  C   UNL     1     -10.107 -10.256  27.275  1.00  0.00     0.094 A 
ATOM     10  C   UNL     1      -9.042 -10.331  26.375  1.00  0.00     0.146 A 
ATOM     11  O   UNL     1      -7.832  -9.973  26.792  1.00  0.00    -0.456 OA
ENDROOT
BRANCH   1  12
ATOM     12  C   UNL     1      -5.451  -9.575  26.589  1.00  0.00     0.021 A 
ATOM     13  C   UNL     1      -4.775  -8.468  26.053  1.00  0.00     0.016 A 
ATOM     14  C   UNL     1      -3.551  -8.059  26.584  1.00  0.00     0.051 A 
ATOM     15  C   UNL     1      -2.978  -8.737  27.664  1.00  0.00     0.157 A 
ATOM     16  C   UNL     1      -4.882 -10.249  27.686  1.00  0.00     0.062 A 
ATOM     17  C   UNL     1      -3.654  -9.843  28.226  1.00  0.00     0.158 A 
BRANCH  15  18
ATOM     18  O   UNL     1      -1.748  -8.280  28.143  1.00  0.00    -0.504 OA
ATOM     19  H   UNL     1      -1.088  -8.857  28.643  1.00  0.00     0.293 HD
ENDBRANCH  15  18
BRANCH  17  20
ATOM     20  O   UNL     1      -3.153 -10.560  29.316  1.00  0.00    -0.504 OA
ATOM     21  H   UNL     1      -3.596 -11.378  29.705  1.00  0.00     0.293 HD
ENDBRANCH  17  20
ENDBRANCH   1  12
BRANCH   6  22
ATOM     22  O   UNL     1     -10.882 -11.728  23.411  1.00  0.00    -0.507 OA
ATOM     23  H   UNL     1     -10.207 -11.985  22.707  1.00  0.00     0.293 HD
ENDBRANCH   6  22
BRANCH   8  24
ATOM     24  O   UNL     1     -12.447 -10.506  27.784  1.00  0.00    -0.508 OA
ATOM     25  H   UNL     1     -12.352  -9.991  28.650  1.00  0.00     0.293 HD
ENDBRANCH   8  24
TORSDOF 5
ENDMDL
MODEL 9
REMARK VINA RESULT:    -6.750     11.766     13.876
REMARK INTER + INTRA:          -8.251
REMARK INTER:                  -7.964
REMARK INTRA:                  -0.288
REMARK UNBOUND:                -0.317
REMARK SMILES O=c1cc(-c2ccc(O)c(O)c2)oc2cc(O)cc(O)c12
REMARK SMILES IDX 4 1 3 2 2 3 1 4 21 5 19 6 18 7 16 8 15 9 14 10 13 11 5 12
REMARK SMILES IDX 6 13 7 14 8 15 12 16 10 17 9 18 11 20 20 22 17 24
REMARK H PARENT 9 19 11 21 20 23 17 25
REMARK Flexibility Score: inf
ROOT
ATOM      1  C   UNL     1      -5.383  -3.114  15.925  1.00  0.00     0.138 A 
ATOM      2  C   UNL     1      -6.185  -3.623  14.894  1.00  0.00     0.100 A 
ATOM      3  C   UNL     1      -5.869  -4.854  14.316  1.00  0.00     0.197 A 
ATOM      4  O   UNL     1      -6.642  -5.313  13.437  1.00  0.00    -0.289 OA
ATOM      5  C   UNL     1      -4.725  -5.563  14.753  1.00  0.00     0.107 A 
ATOM      6  C   UNL     1      -4.283  -6.805  14.209  1.00  0.00     0.134 A 
ATOM      7  C   UNL     1      -3.201  -7.471  14.800  1.00  0.00     0.093 A 
ATOM      8  C   UNL     1      -2.510  -6.910  15.877  1.00  0.00     0.123 A 
ATOM      9  C   UNL     1      -2.901  -5.671  16.380  1.00  0.00     0.094 A 
ATOM     10  C   UNL     1      -3.997  -4.998  15.835  1.00  0.00     0.146 A 
ATOM     11  O   UNL     1      -4.345  -3.826  16.354  1.00  0.00    -0.456 OA
ENDROOT
BRANCH   1  12
ATOM     12  C   UNL     1      -5.673  -1.811  16.574  1.00  0.00     0.021 A 
ATOM     13  C   UNL     1      -5.891  -0.676  15.778  1.00  0.00     0.016 A 
ATOM     14  C   UNL     1      -6.173   0.559  16.366  1.00  0.00     0.051 A 
ATOM     15  C   UNL     1      -6.251   0.687  17.756  1.00  0.00     0.157 A 
ATOM     16  C   UNL     1      -5.766  -1.687  17.972  1.00  0.00     0.062 A 
ATOM     17  C   UNL     1      -6.051  -0.451  18.570  1.00  0.00     0.158 A 
BRANCH  15  18
ATOM     18  O   UNL     1      -6.530   1.951  18.280  1.00  0.00    -0.504 OA
ATOM     19  H   UNL     1      -6.297   2.818  17.818  1.00  0.00     0.293 HD
ENDBRANCH  15  18
BRANCH  17  20
ATOM     20  O   UNL     1      -6.130  -0.404  19.964  1.00  0.00    -0.504 OA
ATOM     21  H   UNL     1      -5.337  -0.255  20.570  1.00  0.00     0.293 HD
ENDBRANCH  17  20
ENDBRANCH   1  12
BRANCH   6  22
ATOM     22  O   UNL     1      -4.848  -7.411  13.083  1.00  0.00    -0.507 OA
ATOM     23  H   UNL     1      -5.518  -6.974  12.468  1.00  0.00     0.293 HD
ENDBRANCH   6  22
BRANCH   8  24
ATOM     24  O   UNL     1      -1.426  -7.573  16.449  1.00  0.00    -0.508 OA
ATOM     25  H   UNL     1      -1.314  -8.576  16.364  1.00  0.00     0.293 HD
ENDBRANCH   8  24
TORSDOF 5
ENDMDL
