MODEL 1
REMARK VINA RESULT:    -7.044      0.000      0.000
REMARK INTER + INTRA:          -9.016
REMARK INTER:                  -8.691
REMARK INTRA:                  -0.325
REMARK UNBOUND:                -0.325
REMARK SMILES Oc1cc(O)c2cc(O)c(-c3cc(O)c(O)c(O)c3)[o+]c2c1
REMARK SMILES IDX 10 1 20 2 21 3 22 4 2 5 3 6 4 7 6 8 7 9 8 10 11 11 12 12
REMARK SMILES IDX 13 13 19 14 15 15 17 16 14 17 16 19 18 21 9 23 1 25 5 27
REMARK H PARENT 14 18 16 20 18 22 9 24 1 26 5 28
REMARK Flexibility Score: inf
ROOT
ATOM      1  C   UNL     1     181.063 -18.331  25.558  1.00  0.00     0.402 A 
ATOM      2  O   UNL     1     182.279 -17.802  25.675  1.00  0.00    -0.202 OA
ATOM      3  C   UNL     1     182.497 -16.563  26.103  1.00  0.00     0.368 A 
ATOM      4  C   UNL     1     183.810 -16.096  26.194  1.00  0.00     0.162 A 
ATOM      5  C   UNL     1     184.070 -14.802  26.644  1.00  0.00     0.128 A 
ATOM      6  C   UNL     1     183.008 -13.965  27.007  1.00  0.00     0.093 A 
ATOM      7  C   UNL     1     181.683 -14.408  26.924  1.00  0.00     0.136 A 
ATOM      8  C   UNL     1     181.415 -15.724  26.464  1.00  0.00     0.125 A 
ATOM      9  C   UNL     1     180.119 -16.249  26.337  1.00  0.00     0.078 A 
ATOM     10  C   UNL     1     179.934 -17.554  25.873  1.00  0.00     0.223 A 
ENDROOT
BRANCH   1  11
ATOM     11  C   UNL     1     180.951 -19.728  25.078  1.00  0.00     0.091 A 
ATOM     12  C   UNL     1     180.597 -20.774  25.947  1.00  0.00     0.068 A 
ATOM     13  C   UNL     1     180.517 -22.093  25.479  1.00  0.00     0.162 A 
ATOM     14  C   UNL     1     181.257 -20.025  23.741  1.00  0.00     0.068 A 
ATOM     15  C   UNL     1     180.805 -22.377  24.133  1.00  0.00     0.200 A 
ATOM     16  C   UNL     1     181.180 -21.338  23.265  1.00  0.00     0.162 A 
BRANCH  13  17
ATOM     17  O   UNL     1     180.160 -23.122  26.349  1.00  0.00    -0.504 OA
ATOM     18  H   UNL     1     179.464 -22.988  27.073  1.00  0.00     0.293 HD
ENDBRANCH  13  17
BRANCH  15  19
ATOM     19  O   UNL     1     180.726 -23.685  23.649  1.00  0.00    -0.502 OA
ATOM     20  H   UNL     1     179.972 -24.311  23.906  1.00  0.00     0.293 HD
ENDBRANCH  15  19
BRANCH  16  21
ATOM     21  O   UNL     1     181.478 -21.589  21.926  1.00  0.00    -0.504 OA
ATOM     22  H   UNL     1     180.767 -21.584  21.205  1.00  0.00     0.293 HD
ENDBRANCH  16  21
ENDBRANCH   1  11
BRANCH  10  23
ATOM     23  O   UNL     1     178.645 -18.059  25.698  1.00  0.00    -0.500 OA
ATOM     24  H   UNL     1     178.211 -18.108  24.783  1.00  0.00     0.294 HD
ENDBRANCH  10  23
BRANCH   5  25
ATOM     25  O   UNL     1     185.387 -14.355  26.728  1.00  0.00    -0.507 OA
ATOM     26  H   UNL     1     185.726 -13.595  26.149  1.00  0.00     0.293 HD
ENDBRANCH   5  25
BRANCH   7  27
ATOM     27  O   UNL     1     180.680 -13.514  27.308  1.00  0.00    -0.507 OA
ATOM     28  H   UNL     1     179.915 -13.225  26.716  1.00  0.00     0.293 HD
ENDBRANCH   7  27
TORSDOF 7
ENDMDL
MODEL 2
REMARK VINA RESULT:    -7.011      3.201      4.089
REMARK INTER + INTRA:          -8.975
REMARK INTER:                  -8.648
REMARK INTRA:                  -0.327
REMARK UNBOUND:                -0.325
REMARK SMILES Oc1cc(O)c2cc(O)c(-c3cc(O)c(O)c(O)c3)[o+]c2c1
REMARK SMILES IDX 10 1 20 2 21 3 22 4 2 5 3 6 4 7 6 8 7 9 8 10 11 11 12 12
REMARK SMILES IDX 13 13 19 14 15 15 17 16 14 17 16 19 18 21 9 23 1 25 5 27
REMARK H PARENT 14 18 16 20 18 22 9 24 1 26 5 28
REMARK Flexibility Score: inf
ROOT
ATOM      1  C   UNL     1     183.768 -19.219  23.948  1.00  0.00     0.402 A 
ATOM      2  O   UNL     1     185.044 -19.359  23.596  1.00  0.00    -0.202 OA
ATOM      3  C   UNL     1     185.888 -18.339  23.491  1.00  0.00     0.368 A 
ATOM      4  C   UNL     1     187.211 -18.586  23.117  1.00  0.00     0.162 A 
ATOM      5  C   UNL     1     188.121 -17.536  23.001  1.00  0.00     0.128 A 
ATOM      6  C   UNL     1     187.707 -16.224  23.262  1.00  0.00     0.093 A 
ATOM      7  C   UNL     1     186.386 -15.949  23.638  1.00  0.00     0.136 A 
ATOM      8  C   UNL     1     185.457 -17.016  23.754  1.00  0.00     0.125 A 
ATOM      9  C   UNL     1     184.112 -16.833  24.113  1.00  0.00     0.078 A 
ATOM     10  C   UNL     1     183.255 -17.933  24.202  1.00  0.00     0.223 A 
ENDROOT
BRANCH   1  11
ATOM     11  C   UNL     1     182.929 -20.436  24.041  1.00  0.00     0.091 A 
ATOM     12  C   UNL     1     182.529 -20.955  25.283  1.00  0.00     0.068 A 
ATOM     13  C   UNL     1     181.753 -22.121  25.351  1.00  0.00     0.162 A 
ATOM     14  C   UNL     1     182.570 -21.117  22.868  1.00  0.00     0.068 A 
ATOM     15  C   UNL     1     181.380 -22.784  24.170  1.00  0.00     0.200 A 
ATOM     16  C   UNL     1     181.795 -22.280  22.926  1.00  0.00     0.162 A 
BRANCH  13  17
ATOM     17  O   UNL     1     181.357 -22.625  26.589  1.00  0.00    -0.504 OA
ATOM     18  H   UNL     1     182.032 -22.862  27.307  1.00  0.00     0.293 HD
ENDBRANCH  13  17
BRANCH  15  19
ATOM     19  O   UNL     1     180.603 -23.944  24.219  1.00  0.00    -0.502 OA
ATOM     20  H   UNL     1     179.675 -23.955  24.623  1.00  0.00     0.293 HD
ENDBRANCH  15  19
BRANCH  16  21
ATOM     21  O   UNL     1     181.448 -22.920  21.736  1.00  0.00    -0.504 OA
ATOM     22  H   UNL     1     181.062 -23.857  21.721  1.00  0.00     0.293 HD
ENDBRANCH  16  21
ENDBRANCH   1  11
BRANCH  10  23
ATOM     23  O   UNL     1     181.907 -17.747  24.509  1.00  0.00    -0.500 OA
ATOM     24  H   UNL     1     181.509 -18.075  25.382  1.00  0.00     0.294 HD
ENDBRANCH  10  23
BRANCH   5  25
ATOM     25  O   UNL     1     189.436 -17.803  22.626  1.00  0.00    -0.507 OA
ATOM     26  H   UNL     1     190.158 -17.096  22.688  1.00  0.00     0.293 HD
ENDBRANCH   5  25
BRANCH   7  27
ATOM     27  O   UNL     1     186.052 -14.615  23.884  1.00  0.00    -0.507 OA
ATOM     28  H   UNL     1     186.697 -13.842  23.817  1.00  0.00     0.293 HD
ENDBRANCH   7  27
TORSDOF 7
ENDMDL
MODEL 3
REMARK VINA RESULT:    -6.967      3.113      4.333
REMARK INTER + INTRA:          -8.920
REMARK INTER:                  -8.641
REMARK INTRA:                  -0.280
REMARK UNBOUND:                -0.325
REMARK SMILES Oc1cc(O)c2cc(O)c(-c3cc(O)c(O)c(O)c3)[o+]c2c1
REMARK SMILES IDX 10 1 20 2 21 3 22 4 2 5 3 6 4 7 6 8 7 9 8 10 11 11 12 12
REMARK SMILES IDX 13 13 19 14 15 15 17 16 14 17 16 19 18 21 9 23 1 25 5 27
REMARK H PARENT 14 18 16 20 18 22 9 24 1 26 5 28
REMARK Flexibility Score: inf
ROOT
ATOM      1  C   UNL     1     183.727 -19.222  23.930  1.00  0.00     0.402 A 
ATOM      2  O   UNL     1     185.010 -19.323  23.593  1.00  0.00    -0.202 OA
ATOM      3  C   UNL     1     185.833 -18.281  23.535  1.00  0.00     0.368 A 
ATOM      4  C   UNL     1     187.167 -18.487  23.172  1.00  0.00     0.162 A 
ATOM      5  C   UNL     1     188.054 -17.414  23.107  1.00  0.00     0.128 A 
ATOM      6  C   UNL     1     187.608 -16.121  23.407  1.00  0.00     0.093 A 
ATOM      7  C   UNL     1     186.277 -15.888  23.773  1.00  0.00     0.136 A 
ATOM      8  C   UNL     1     185.370 -16.978  23.838  1.00  0.00     0.125 A 
ATOM      9  C   UNL     1     184.016 -16.837  24.183  1.00  0.00     0.078 A 
ATOM     10  C   UNL     1     183.182 -17.958  24.221  1.00  0.00     0.223 A 
ENDROOT
BRANCH   1  11
ATOM     11  C   UNL     1     182.913 -20.460  23.968  1.00  0.00     0.091 A 
ATOM     12  C   UNL     1     182.550 -21.132  22.789  1.00  0.00     0.068 A 
ATOM     13  C   UNL     1     181.762 -22.290  22.844  1.00  0.00     0.162 A 
ATOM     14  C   UNL     1     182.449 -20.943  25.201  1.00  0.00     0.068 A 
ATOM     15  C   UNL     1     181.319 -22.778  24.085  1.00  0.00     0.200 A 
ATOM     16  C   UNL     1     181.663 -22.097  25.265  1.00  0.00     0.162 A 
BRANCH  13  17
ATOM     17  O   UNL     1     181.412 -22.952  21.668  1.00  0.00    -0.504 OA
ATOM     18  H   UNL     1     181.718 -23.900  21.480  1.00  0.00     0.293 HD
ENDBRANCH  13  17
BRANCH  15  19
ATOM     19  O   UNL     1     180.537 -23.933  24.158  1.00  0.00    -0.502 OA
ATOM     20  H   UNL     1     180.933 -24.841  24.370  1.00  0.00     0.293 HD
ENDBRANCH  15  19
BRANCH  16  21
ATOM     21  O   UNL     1     181.232 -22.553  26.511  1.00  0.00    -0.504 OA
ATOM     22  H   UNL     1     180.394 -23.110  26.621  1.00  0.00     0.293 HD
ENDBRANCH  16  21
ENDBRANCH   1  11
BRANCH  10  23
ATOM     23  O   UNL     1     181.826 -17.812  24.514  1.00  0.00    -0.500 OA
ATOM     24  H   UNL     1     181.424 -18.173  25.372  1.00  0.00     0.294 HD
ENDBRANCH  10  23
BRANCH   5  25
ATOM     25  O   UNL     1     189.380 -17.640  22.743  1.00  0.00    -0.507 OA
ATOM     26  H   UNL     1     189.650 -18.458  22.211  1.00  0.00     0.293 HD
ENDBRANCH   5  25
BRANCH   7  27
ATOM     27  O   UNL     1     185.910 -14.571  24.061  1.00  0.00    -0.507 OA
ATOM     28  H   UNL     1     186.518 -13.889  24.489  1.00  0.00     0.293 HD
ENDBRANCH   7  27
TORSDOF 7
ENDMDL
MODEL 4
REMARK VINA RESULT:    -6.744      3.172      6.825
REMARK INTER + INTRA:          -8.645
REMARK INTER:                  -8.313
REMARK INTRA:                  -0.333
REMARK UNBOUND:                -0.325
REMARK SMILES Oc1cc(O)c2cc(O)c(-c3cc(O)c(O)c(O)c3)[o+]c2c1
REMARK SMILES IDX 10 1 20 2 21 3 22 4 2 5 3 6 4 7 6 8 7 9 8 10 11 11 12 12
REMARK SMILES IDX 13 13 19 14 15 15 17 16 14 17 16 19 18 21 9 23 1 25 5 27
REMARK H PARENT 14 18 16 20 18 22 9 24 1 26 5 28
REMARK Flexibility Score: inf
ROOT
ATOM      1  C   UNL     1     182.823 -20.108  24.644  1.00  0.00     0.402 A 
ATOM      2  O   UNL     1     182.891 -20.667  25.850  1.00  0.00    -0.202 OA
ATOM      3  C   UNL     1     181.952 -21.474  26.333  1.00  0.00     0.368 A 
ATOM      4  C   UNL     1     182.113 -22.016  27.611  1.00  0.00     0.162 A 
ATOM      5  C   UNL     1     181.146 -22.869  28.142  1.00  0.00     0.128 A 
ATOM      6  C   UNL     1     180.007 -23.184  27.392  1.00  0.00     0.093 A 
ATOM      7  C   UNL     1     179.822 -22.654  26.110  1.00  0.00     0.136 A 
ATOM      8  C   UNL     1     180.803 -21.784  25.567  1.00  0.00     0.125 A 
ATOM      9  C   UNL     1     180.695 -21.197  24.296  1.00  0.00     0.078 A 
ATOM     10  C   UNL     1     181.701 -20.345  23.830  1.00  0.00     0.223 A 
ENDROOT
BRANCH   1  11
ATOM     11  C   UNL     1     183.940 -19.234  24.214  1.00  0.00     0.091 A 
ATOM     12  C   UNL     1     185.168 -19.771  23.793  1.00  0.00     0.068 A 
ATOM     13  C   UNL     1     186.220 -18.926  23.411  1.00  0.00     0.162 A 
ATOM     14  C   UNL     1     183.789 -17.840  24.279  1.00  0.00     0.068 A 
ATOM     15  C   UNL     1     186.053 -17.532  23.459  1.00  0.00     0.200 A 
ATOM     16  C   UNL     1     184.833 -16.991  23.899  1.00  0.00     0.162 A 
BRANCH  13  17
ATOM     17  O   UNL     1     187.433 -19.470  22.990  1.00  0.00    -0.504 OA
ATOM     18  H   UNL     1     188.088 -18.937  22.430  1.00  0.00     0.293 HD
ENDBRANCH  13  17
BRANCH  15  19
ATOM     19  O   UNL     1     187.089 -16.677  23.077  1.00  0.00    -0.502 OA
ATOM     20  H   UNL     1     187.428 -16.632  22.124  1.00  0.00     0.293 HD
ENDBRANCH  15  19
BRANCH  16  21
ATOM     21  O   UNL     1     184.639 -15.611  23.965  1.00  0.00    -0.504 OA
ATOM     22  H   UNL     1     185.196 -14.962  23.423  1.00  0.00     0.293 HD
ENDBRANCH  16  21
ENDBRANCH   1  11
BRANCH  10  23
ATOM     23  O   UNL     1     181.571 -19.721  22.588  1.00  0.00    -0.500 OA
ATOM     24  H   UNL     1     180.804 -19.089  22.388  1.00  0.00     0.294 HD
ENDBRANCH  10  23
BRANCH   5  25
ATOM     25  O   UNL     1     181.324 -23.398  29.419  1.00  0.00    -0.507 OA
ATOM     26  H   UNL     1     181.314 -24.398  29.583  1.00  0.00     0.293 HD
ENDBRANCH   5  25
BRANCH   7  27
ATOM     27  O   UNL     1     178.661 -23.020  25.424  1.00  0.00    -0.507 OA
ATOM     28  H   UNL     1     178.278 -23.953  25.405  1.00  0.00     0.293 HD
ENDBRANCH   7  27
TORSDOF 7
ENDMDL
MODEL 5
REMARK VINA RESULT:    -6.712     11.186     13.233
REMARK INTER + INTRA:          -8.606
REMARK INTER:                  -8.304
REMARK INTRA:                  -0.302
REMARK UNBOUND:                -0.325
REMARK SMILES Oc1cc(O)c2cc(O)c(-c3cc(O)c(O)c(O)c3)[o+]c2c1
REMARK SMILES IDX 10 1 20 2 21 3 22 4 2 5 3 6 4 7 6 8 7 9 8 10 11 11 12 12
REMARK SMILES IDX 13 13 19 14 15 15 17 16 14 17 16 19 18 21 9 23 1 25 5 27
REMARK H PARENT 14 18 16 20 18 22 9 24 1 26 5 28
REMARK Flexibility Score: inf
ROOT
ATOM      1  C   UNL     1     183.034 -25.066  35.438  1.00  0.00     0.402 A 
ATOM      2  O   UNL     1     182.659 -26.088  36.206  1.00  0.00    -0.202 OA
ATOM      3  C   UNL     1     182.590 -26.017  37.531  1.00  0.00     0.368 A 
ATOM      4  C   UNL     1     182.184 -27.143  38.251  1.00  0.00     0.162 A 
ATOM      5  C   UNL     1     182.099 -27.097  39.642  1.00  0.00     0.128 A 
ATOM      6  C   UNL     1     182.422 -25.917  40.322  1.00  0.00     0.093 A 
ATOM      7  C   UNL     1     182.832 -24.776  39.624  1.00  0.00     0.136 A 
ATOM      8  C   UNL     1     182.923 -24.819  38.208  1.00  0.00     0.125 A 
ATOM      9  C   UNL     1     183.337 -23.728  37.427  1.00  0.00     0.078 A 
ATOM     10  C   UNL     1     183.405 -23.848  36.035  1.00  0.00     0.223 A 
ENDROOT
BRANCH   1  11
ATOM     11  C   UNL     1     183.060 -25.266  33.971  1.00  0.00     0.091 A 
ATOM     12  C   UNL     1     184.064 -26.034  33.356  1.00  0.00     0.068 A 
ATOM     13  C   UNL     1     184.085 -26.194  31.963  1.00  0.00     0.162 A 
ATOM     14  C   UNL     1     182.097 -24.634  33.170  1.00  0.00     0.068 A 
ATOM     15  C   UNL     1     183.103 -25.574  31.172  1.00  0.00     0.200 A 
ATOM     16  C   UNL     1     182.110 -24.789  31.781  1.00  0.00     0.162 A 
BRANCH  13  17
ATOM     17  O   UNL     1     185.082 -26.961  31.364  1.00  0.00    -0.504 OA
ATOM     18  H   UNL     1     186.017 -27.014  31.750  1.00  0.00     0.293 HD
ENDBRANCH  13  17
BRANCH  15  19
ATOM     19  O   UNL     1     183.106 -25.727  29.784  1.00  0.00    -0.502 OA
ATOM     20  H   UNL     1     182.602 -25.098  29.170  1.00  0.00     0.293 HD
ENDBRANCH  15  19
BRANCH  16  21
ATOM     21  O   UNL     1     181.126 -24.155  31.022  1.00  0.00    -0.504 OA
ATOM     22  H   UNL     1     180.138 -24.303  31.187  1.00  0.00     0.293 HD
ENDBRANCH  16  21
ENDBRANCH   1  11
BRANCH  10  23
ATOM     23  O   UNL     1     183.864 -22.781  35.263  1.00  0.00    -0.500 OA
ATOM     24  H   UNL     1     183.379 -22.483  34.424  1.00  0.00     0.294 HD
ENDBRANCH  10  23
BRANCH   5  25
ATOM     25  O   UNL     1     181.692 -28.231  40.343  1.00  0.00    -0.507 OA
ATOM     26  H   UNL     1     182.135 -28.503  41.212  1.00  0.00     0.293 HD
ENDBRANCH   5  25
BRANCH   7  27
ATOM     27  O   UNL     1     183.134 -23.636  40.374  1.00  0.00    -0.507 OA
ATOM     28  H   UNL     1     184.070 -23.322  40.585  1.00  0.00     0.293 HD
ENDBRANCH   7  27
TORSDOF 7
ENDMDL
MODEL 6
REMARK VINA RESULT:    -6.706      1.305      2.711
REMARK INTER + INTRA:          -8.599
REMARK INTER:                  -8.445
REMARK INTRA:                  -0.153
REMARK UNBOUND:                -0.325
REMARK SMILES Oc1cc(O)c2cc(O)c(-c3cc(O)c(O)c(O)c3)[o+]c2c1
REMARK SMILES IDX 10 1 20 2 21 3 22 4 2 5 3 6 4 7 6 8 7 9 8 10 11 11 12 12
REMARK SMILES IDX 13 13 19 14 15 15 17 16 14 17 16 19 18 21 9 23 1 25 5 27
REMARK H PARENT 14 18 16 20 18 22 9 24 1 26 5 28
REMARK Flexibility Score: inf
ROOT
ATOM      1  C   UNL     1     182.515 -18.766  24.746  1.00  0.00     0.402 A 
ATOM      2  O   UNL     1     181.712 -17.923  25.392  1.00  0.00    -0.202 OA
ATOM      3  C   UNL     1     182.060 -16.678  25.702  1.00  0.00     0.368 A 
ATOM      4  C   UNL     1     181.147 -15.866  26.380  1.00  0.00     0.162 A 
ATOM      5  C   UNL     1     181.483 -14.555  26.716  1.00  0.00     0.128 A 
ATOM      6  C   UNL     1     182.742 -14.048  26.371  1.00  0.00     0.093 A 
ATOM      7  C   UNL     1     183.674 -14.841  25.692  1.00  0.00     0.136 A 
ATOM      8  C   UNL     1     183.337 -16.177  25.351  1.00  0.00     0.125 A 
ATOM      9  C   UNL     1     184.212 -17.048  24.682  1.00  0.00     0.078 A 
ATOM     10  C   UNL     1     183.810 -18.353  24.384  1.00  0.00     0.223 A 
ENDROOT
BRANCH   1  11
ATOM     11  C   UNL     1     182.008 -20.126  24.448  1.00  0.00     0.091 A 
ATOM     12  C   UNL     1     181.604 -20.996  25.474  1.00  0.00     0.068 A 
ATOM     13  C   UNL     1     181.147 -22.287  25.174  1.00  0.00     0.162 A 
ATOM     14  C   UNL     1     181.979 -20.576  23.120  1.00  0.00     0.068 A 
ATOM     15  C   UNL     1     181.102 -22.722  23.838  1.00  0.00     0.200 A 
ATOM     16  C   UNL     1     181.524 -21.861  22.811  1.00  0.00     0.162 A 
BRANCH  13  17
ATOM     17  O   UNL     1     180.744 -23.141  26.200  1.00  0.00    -0.504 OA
ATOM     18  H   UNL     1     181.263 -23.212  27.067  1.00  0.00     0.293 HD
ENDBRANCH  13  17
BRANCH  15  19
ATOM     19  O   UNL     1     180.645 -24.002  23.522  1.00  0.00    -0.502 OA
ATOM     20  H   UNL     1     179.697 -24.301  23.717  1.00  0.00     0.293 HD
ENDBRANCH  15  19
BRANCH  16  21
ATOM     21  O   UNL     1     181.499 -22.266  21.476  1.00  0.00    -0.504 OA
ATOM     22  H   UNL     1     181.956 -21.738  20.743  1.00  0.00     0.293 HD
ENDBRANCH  16  21
ENDBRANCH   1  11
BRANCH  10  23
ATOM     23  O   UNL     1     184.697 -19.235  23.765  1.00  0.00    -0.500 OA
ATOM     24  H   UNL     1     185.263 -18.952  22.973  1.00  0.00     0.294 HD
ENDBRANCH  10  23
BRANCH   5  25
ATOM     25  O   UNL     1     180.559 -13.761  27.392  1.00  0.00    -0.507 OA
ATOM     26  H   UNL     1     180.571 -12.751  27.314  1.00  0.00     0.293 HD
ENDBRANCH   5  25
BRANCH   7  27
ATOM     27  O   UNL     1     184.907 -14.262  25.381  1.00  0.00    -0.507 OA
ATOM     28  H   UNL     1     185.234 -14.084  24.443  1.00  0.00     0.293 HD
ENDBRANCH   7  27
TORSDOF 7
ENDMDL
MODEL 7
REMARK VINA RESULT:    -6.706     11.148     13.791
REMARK INTER + INTRA:          -8.598
REMARK INTER:                  -8.239
REMARK INTRA:                  -0.360
REMARK UNBOUND:                -0.325
REMARK SMILES Oc1cc(O)c2cc(O)c(-c3cc(O)c(O)c(O)c3)[o+]c2c1
REMARK SMILES IDX 10 1 20 2 21 3 22 4 2 5 3 6 4 7 6 8 7 9 8 10 11 11 12 12
REMARK SMILES IDX 13 13 19 14 15 15 17 16 14 17 16 19 18 21 9 23 1 25 5 27
REMARK H PARENT 14 18 16 20 18 22 9 24 1 26 5 28
REMARK Flexibility Score: inf
ROOT
ATOM      1  C   UNL     1     183.396 -25.706  35.631  1.00  0.00     0.402 A 
ATOM      2  O   UNL     1     182.633 -25.088  34.733  1.00  0.00    -0.202 OA
ATOM      3  C   UNL     1     182.824 -25.187  33.422  1.00  0.00     0.368 A 
ATOM      4  C   UNL     1     181.967 -24.502  32.556  1.00  0.00     0.162 A 
ATOM      5  C   UNL     1     182.141 -24.590  31.175  1.00  0.00     0.128 A 
ATOM      6  C   UNL     1     183.180 -25.370  30.652  1.00  0.00     0.093 A 
ATOM      7  C   UNL     1     184.051 -26.065  31.498  1.00  0.00     0.136 A 
ATOM      8  C   UNL     1     183.879 -25.976  32.904  1.00  0.00     0.125 A 
ATOM      9  C   UNL     1     184.712 -26.628  33.827  1.00  0.00     0.078 A 
ATOM     10  C   UNL     1     184.482 -26.489  35.199  1.00  0.00     0.223 A 
ENDROOT
BRANCH   1  11
ATOM     11  C   UNL     1     183.075 -25.525  37.066  1.00  0.00     0.091 A 
ATOM     12  C   UNL     1     182.403 -26.519  37.796  1.00  0.00     0.068 A 
ATOM     13  C   UNL     1     182.089 -26.321  39.148  1.00  0.00     0.162 A 
ATOM     14  C   UNL     1     183.399 -24.315  37.698  1.00  0.00     0.068 A 
ATOM     15  C   UNL     1     182.437 -25.114  39.778  1.00  0.00     0.200 A 
ATOM     16  C   UNL     1     183.091 -24.108  39.046  1.00  0.00     0.162 A 
BRANCH  13  17
ATOM     17  O   UNL     1     181.426 -27.316  39.864  1.00  0.00    -0.504 OA
ATOM     18  H   UNL     1     180.416 -27.399  39.850  1.00  0.00     0.293 HD
ENDBRANCH  13  17
BRANCH  15  19
ATOM     19  O   UNL     1     182.136 -24.902  41.125  1.00  0.00    -0.502 OA
ATOM     20  H   UNL     1     182.816 -25.050  41.860  1.00  0.00     0.293 HD
ENDBRANCH  15  19
BRANCH  16  21
ATOM     21  O   UNL     1     183.442 -22.897  39.641  1.00  0.00    -0.504 OA
ATOM     22  H   UNL     1     182.958 -22.534  40.454  1.00  0.00     0.293 HD
ENDBRANCH  16  21
ENDBRANCH   1  11
BRANCH  10  23
ATOM     23  O   UNL     1     185.339 -27.096  36.117  1.00  0.00    -0.500 OA
ATOM     24  H   UNL     1     185.345 -26.831  37.096  1.00  0.00     0.294 HD
ENDBRANCH  10  23
BRANCH   5  25
ATOM     25  O   UNL     1     181.277 -23.899  30.328  1.00  0.00    -0.507 OA
ATOM     26  H   UNL     1     181.144 -22.898  30.410  1.00  0.00     0.293 HD
ENDBRANCH   5  25
BRANCH   7  27
ATOM     27  O   UNL     1     185.061 -26.824  30.899  1.00  0.00    -0.507 OA
ATOM     28  H   UNL     1     186.034 -26.561  30.873  1.00  0.00     0.293 HD
ENDBRANCH   7  27
TORSDOF 7
ENDMDL
MODEL 8
REMARK VINA RESULT:    -6.586      1.117      3.177
REMARK INTER + INTRA:          -8.451
REMARK INTER:                  -8.117
REMARK INTRA:                  -0.333
REMARK UNBOUND:                -0.325
REMARK SMILES Oc1cc(O)c2cc(O)c(-c3cc(O)c(O)c(O)c3)[o+]c2c1
REMARK SMILES IDX 10 1 20 2 21 3 22 4 2 5 3 6 4 7 6 8 7 9 8 10 11 11 12 12
REMARK SMILES IDX 13 13 19 14 15 15 17 16 14 17 16 19 18 21 9 23 1 25 5 27
REMARK H PARENT 14 18 16 20 18 22 9 24 1 26 5 28
REMARK Flexibility Score: inf
ROOT
ATOM      1  C   UNL     1     181.900 -18.661  25.181  1.00  0.00     0.402 A 
ATOM      2  O   UNL     1     180.898 -17.839  25.482  1.00  0.00    -0.202 OA
ATOM      3  C   UNL     1     181.078 -16.592  25.904  1.00  0.00     0.368 A 
ATOM      4  C   UNL     1     179.962 -15.803  26.193  1.00  0.00     0.162 A 
ATOM      5  C   UNL     1     180.121 -14.490  26.634  1.00  0.00     0.128 A 
ATOM      6  C   UNL     1     181.406 -13.958  26.789  1.00  0.00     0.093 A 
ATOM      7  C   UNL     1     182.541 -14.727  26.507  1.00  0.00     0.136 A 
ATOM      8  C   UNL     1     182.383 -16.065  26.060  1.00  0.00     0.125 A 
ATOM      9  C   UNL     1     183.463 -16.913  25.766  1.00  0.00     0.078 A 
ATOM     10  C   UNL     1     183.228 -18.222  25.334  1.00  0.00     0.223 A 
ENDROOT
BRANCH   1  11
ATOM     11  C   UNL     1     181.569 -20.026  24.711  1.00  0.00     0.091 A 
ATOM     12  C   UNL     1     181.722 -20.392  23.363  1.00  0.00     0.068 A 
ATOM     13  C   UNL     1     181.383 -21.682  22.933  1.00  0.00     0.162 A 
ATOM     14  C   UNL     1     181.041 -20.959  25.616  1.00  0.00     0.068 A 
ATOM     15  C   UNL     1     180.875 -22.616  23.851  1.00  0.00     0.200 A 
ATOM     16  C   UNL     1     180.701 -22.248  25.196  1.00  0.00     0.162 A 
BRANCH  13  17
ATOM     17  O   UNL     1     181.543 -22.036  21.594  1.00  0.00    -0.504 OA
ATOM     18  H   UNL     1     181.788 -22.980  21.319  1.00  0.00     0.293 HD
ENDBRANCH  13  17
BRANCH  15  19
ATOM     19  O   UNL     1     180.536 -23.907  23.440  1.00  0.00    -0.502 OA
ATOM     20  H   UNL     1     179.575 -24.196  23.304  1.00  0.00     0.293 HD
ENDBRANCH  15  19
BRANCH  16  21
ATOM     21  O   UNL     1     180.191 -23.151  26.130  1.00  0.00    -0.504 OA
ATOM     22  H   UNL     1     180.183 -22.952  27.123  1.00  0.00     0.293 HD
ENDBRANCH  16  21
ENDBRANCH   1  11
BRANCH  10  23
ATOM     23  O   UNL     1     184.300 -19.082  25.090  1.00  0.00    -0.500 OA
ATOM     24  H   UNL     1     184.308 -20.035  25.435  1.00  0.00     0.294 HD
ENDBRANCH  10  23
BRANCH   5  25
ATOM     25  O   UNL     1     178.995 -13.719  26.917  1.00  0.00    -0.507 OA
ATOM     26  H   UNL     1     178.396 -13.367  26.181  1.00  0.00     0.293 HD
ENDBRANCH   5  25
BRANCH   7  27
ATOM     27  O   UNL     1     183.789 -14.123  26.683  1.00  0.00    -0.507 OA
ATOM     28  H   UNL     1     183.926 -13.192  27.046  1.00  0.00     0.293 HD
ENDBRANCH   7  27
TORSDOF 7
ENDMDL
MODEL 9
REMARK VINA RESULT:    -6.574      2.337      6.763
REMARK INTER + INTRA:          -8.436
REMARK INTER:                  -8.177
REMARK INTRA:                  -0.258
REMARK UNBOUND:                -0.325
REMARK SMILES Oc1cc(O)c2cc(O)c(-c3cc(O)c(O)c(O)c3)[o+]c2c1
REMARK SMILES IDX 10 1 20 2 21 3 22 4 2 5 3 6 4 7 6 8 7 9 8 10 11 11 12 12
REMARK SMILES IDX 13 13 19 14 15 15 17 16 14 17 16 19 18 21 9 23 1 25 5 27
REMARK H PARENT 14 18 16 20 18 22 9 24 1 26 5 28
REMARK Flexibility Score: inf
ROOT
ATOM      1  C   UNL     1     180.624 -18.180  25.973  1.00  0.00     0.402 A 
ATOM      2  O   UNL     1     181.884 -18.608  25.929  1.00  0.00    -0.202 OA
ATOM      3  C   UNL     1     182.263 -19.694  25.263  1.00  0.00     0.368 A 
ATOM      4  C   UNL     1     183.611 -20.062  25.274  1.00  0.00     0.162 A 
ATOM      5  C   UNL     1     184.038 -21.194  24.581  1.00  0.00     0.128 A 
ATOM      6  C   UNL     1     183.113 -21.967  23.871  1.00  0.00     0.093 A 
ATOM      7  C   UNL     1     181.757 -21.620  23.845  1.00  0.00     0.136 A 
ATOM      8  C   UNL     1     181.317 -20.469  24.551  1.00  0.00     0.125 A 
ATOM      9  C   UNL     1     179.977 -20.053  24.590  1.00  0.00     0.078 A 
ATOM     10  C   UNL     1     179.619 -18.910  25.312  1.00  0.00     0.223 A 
ENDROOT
BRANCH   1  11
ATOM     11  C   UNL     1     180.329 -16.949  26.742  1.00  0.00     0.091 A 
ATOM     12  C   UNL     1     179.858 -15.787  26.108  1.00  0.00     0.068 A 
ATOM     13  C   UNL     1     179.605 -14.624  26.850  1.00  0.00     0.162 A 
ATOM     14  C   UNL     1     180.576 -16.922  28.123  1.00  0.00     0.068 A 
ATOM     15  C   UNL     1     179.834 -14.614  28.236  1.00  0.00     0.200 A 
ATOM     16  C   UNL     1     180.325 -15.767  28.870  1.00  0.00     0.162 A 
BRANCH  13  17
ATOM     17  O   UNL     1     179.133 -13.479  26.212  1.00  0.00    -0.504 OA
ATOM     18  H   UNL     1     178.701 -12.721  26.728  1.00  0.00     0.293 HD
ENDBRANCH  13  17
BRANCH  15  19
ATOM     19  O   UNL     1     179.583 -13.466  28.990  1.00  0.00    -0.502 OA
ATOM     20  H   UNL     1     180.177 -12.646  28.941  1.00  0.00     0.293 HD
ENDBRANCH  15  19
BRANCH  16  21
ATOM     21  O   UNL     1     180.570 -15.785  30.244  1.00  0.00    -0.504 OA
ATOM     22  H   UNL     1     181.329 -16.320  30.649  1.00  0.00     0.293 HD
ENDBRANCH  16  21
ENDBRANCH   1  11
BRANCH  10  23
ATOM     23  O   UNL     1     178.281 -18.524  25.394  1.00  0.00    -0.500 OA
ATOM     24  H   UNL     1     177.562 -18.975  24.839  1.00  0.00     0.294 HD
ENDBRANCH  10  23
BRANCH   5  25
ATOM     25  O   UNL     1     185.387 -21.545  24.605  1.00  0.00    -0.507 OA
ATOM     26  H   UNL     1     185.685 -22.506  24.492  1.00  0.00     0.293 HD
ENDBRANCH   5  25
BRANCH   7  27
ATOM     27  O   UNL     1     180.896 -22.440  23.110  1.00  0.00    -0.507 OA
ATOM     28  H   UNL     1     181.192 -23.238  22.568  1.00  0.00     0.293 HD
ENDBRANCH   7  27
TORSDOF 7
ENDMDL
