MODEL 1
REMARK VINA RESULT:    -5.275      0.000      0.000
REMARK INTER + INTRA:          -6.478
REMARK INTER:                  -6.201
REMARK INTRA:                  -0.277
REMARK UNBOUND:                -0.277
REMARK SMILES O=c1cc(-c2ccc(O)c(O)c2)oc2cc(O)cc(O)c12
REMARK SMILES IDX 4 1 3 2 2 3 1 4 21 5 19 6 18 7 16 8 15 9 14 10 13 11 5 12
REMARK SMILES IDX 6 13 7 14 8 15 12 16 10 17 9 18 11 20 20 22 17 24
REMARK H PARENT 9 19 11 21 20 23 17 25
REMARK Flexibility Score: inf
ROOT
ATOM      1  C   UNL     1       0.468  -3.189 -10.786  1.00  0.00     0.138 A 
ATOM      2  C   UNL     1       0.030  -1.859 -10.840  1.00  0.00     0.100 A 
ATOM      3  C   UNL     1      -1.309  -1.583 -11.116  1.00  0.00     0.197 A 
ATOM      4  O   UNL     1      -1.658  -0.378 -11.219  1.00  0.00    -0.289 OA
ATOM      5  C   UNL     1      -2.221  -2.647 -11.311  1.00  0.00     0.107 A 
ATOM      6  C   UNL     1      -3.617  -2.487 -11.559  1.00  0.00     0.134 A 
ATOM      7  C   UNL     1      -4.400  -3.610 -11.851  1.00  0.00     0.093 A 
ATOM      8  C   UNL     1      -3.852  -4.892 -11.844  1.00  0.00     0.123 A 
ATOM      9  C   UNL     1      -2.499  -5.067 -11.550  1.00  0.00     0.094 A 
ATOM     10  C   UNL     1      -1.684  -3.962 -11.289  1.00  0.00     0.146 A 
ATOM     11  O   UNL     1      -0.398  -4.169 -11.026  1.00  0.00    -0.456 OA
ENDROOT
BRANCH   1  12
ATOM     12  C   UNL     1       1.881  -3.540 -10.494  1.00  0.00     0.021 A 
ATOM     13  C   UNL     1       2.217  -4.613  -9.647  1.00  0.00     0.016 A 
ATOM     14  C   UNL     1       3.555  -4.926  -9.398  1.00  0.00     0.051 A 
ATOM     15  C   UNL     1       4.580  -4.181  -9.994  1.00  0.00     0.157 A 
ATOM     16  C   UNL     1       2.916  -2.805 -11.101  1.00  0.00     0.062 A 
ATOM     17  C   UNL     1       4.258  -3.117 -10.851  1.00  0.00     0.158 A 
BRANCH  15  18
ATOM     18  O   UNL     1       5.915  -4.498  -9.742  1.00  0.00    -0.504 OA
ATOM     19  H   UNL     1       6.644  -4.296 -10.415  1.00  0.00     0.293 HD
ENDBRANCH  15  18
BRANCH  17  20
ATOM     20  O   UNL     1       5.254  -2.359 -11.464  1.00  0.00    -0.504 OA
ATOM     21  H   UNL     1       5.603  -2.576 -12.390  1.00  0.00     0.293 HD
ENDBRANCH  17  20
ENDBRANCH   1  12
BRANCH   6  22
ATOM     22  O   UNL     1      -4.283  -1.258 -11.506  1.00  0.00    -0.507 OA
ATOM     23  H   UNL     1      -5.279  -1.147 -11.394  1.00  0.00     0.293 HD
ENDBRANCH   6  22
BRANCH   8  24
ATOM     24  O   UNL     1      -4.665  -5.988 -12.124  1.00  0.00    -0.508 OA
ATOM     25  H   UNL     1      -4.655  -6.818 -11.543  1.00  0.00     0.293 HD
ENDBRANCH   8  24
TORSDOF 5
ENDMDL
MODEL 2
REMARK VINA RESULT:    -5.176      1.846      6.920
REMARK INTER + INTRA:          -6.361
REMARK INTER:                  -6.085
REMARK INTRA:                  -0.276
REMARK UNBOUND:                -0.277
REMARK SMILES O=c1cc(-c2ccc(O)c(O)c2)oc2cc(O)cc(O)c12
REMARK SMILES IDX 4 1 3 2 2 3 1 4 21 5 19 6 18 7 16 8 15 9 14 10 13 11 5 12
REMARK SMILES IDX 6 13 7 14 8 15 12 16 10 17 9 18 11 20 20 22 17 24
REMARK H PARENT 9 19 11 21 20 23 17 25
REMARK Flexibility Score: inf
ROOT
ATOM      1  C   UNL     1       1.271  -2.564 -11.090  1.00  0.00     0.138 A 
ATOM      2  C   UNL     1       2.388  -1.886 -11.598  1.00  0.00     0.100 A 
ATOM      3  C   UNL     1       3.665  -2.415 -11.402  1.00  0.00     0.197 A 
ATOM      4  O   UNL     1       4.651  -1.751 -11.815  1.00  0.00    -0.289 OA
ATOM      5  C   UNL     1       3.820  -3.645 -10.721  1.00  0.00     0.107 A 
ATOM      6  C   UNL     1       5.068  -4.299 -10.498  1.00  0.00     0.134 A 
ATOM      7  C   UNL     1       5.111  -5.455  -9.710  1.00  0.00     0.093 A 
ATOM      8  C   UNL     1       3.946  -6.015  -9.187  1.00  0.00     0.123 A 
ATOM      9  C   UNL     1       2.712  -5.414  -9.443  1.00  0.00     0.094 A 
ATOM     10  C   UNL     1       2.641  -4.239 -10.197  1.00  0.00     0.146 A 
ATOM     11  O   UNL     1       1.449  -3.690 -10.407  1.00  0.00    -0.456 OA
ENDROOT
BRANCH   1  12
ATOM     12  C   UNL     1      -0.109  -2.048 -11.271  1.00  0.00     0.021 A 
ATOM     13  C   UNL     1      -1.177  -2.898 -11.616  1.00  0.00     0.016 A 
ATOM     14  C   UNL     1      -2.468  -2.386 -11.770  1.00  0.00     0.051 A 
ATOM     15  C   UNL     1      -2.717  -1.022 -11.575  1.00  0.00     0.157 A 
ATOM     16  C   UNL     1      -0.371  -0.681 -11.063  1.00  0.00     0.062 A 
ATOM     17  C   UNL     1      -1.663  -0.167 -11.217  1.00  0.00     0.158 A 
BRANCH  15  18
ATOM     18  O   UNL     1      -4.008  -0.516 -11.730  1.00  0.00    -0.504 OA
ATOM     19  H   UNL     1      -4.201   0.262 -12.348  1.00  0.00     0.293 HD
ENDBRANCH  15  18
BRANCH  17  20
ATOM     20  O   UNL     1      -1.878   1.195 -11.011  1.00  0.00    -0.504 OA
ATOM     21  H   UNL     1      -2.466   1.746 -11.625  1.00  0.00     0.293 HD
ENDBRANCH  17  20
ENDBRANCH   1  12
BRANCH   6  22
ATOM     22  O   UNL     1       6.282  -3.872 -11.045  1.00  0.00    -0.507 OA
ATOM     23  H   UNL     1       6.858  -3.135 -10.667  1.00  0.00     0.293 HD
ENDBRANCH   6  22
BRANCH   8  24
ATOM     24  O   UNL     1       4.024  -7.175  -8.420  1.00  0.00    -0.508 OA
ATOM     25  H   UNL     1       3.194  -7.683  -8.142  1.00  0.00     0.293 HD
ENDBRANCH   8  24
TORSDOF 5
ENDMDL
MODEL 3
REMARK VINA RESULT:    -5.058      6.902      8.438
REMARK INTER + INTRA:          -6.222
REMARK INTER:                  -5.946
REMARK INTRA:                  -0.277
REMARK UNBOUND:                -0.277
REMARK SMILES O=c1cc(-c2ccc(O)c(O)c2)oc2cc(O)cc(O)c12
REMARK SMILES IDX 4 1 3 2 2 3 1 4 21 5 19 6 18 7 16 8 15 9 14 10 13 11 5 12
REMARK SMILES IDX 6 13 7 14 8 15 12 16 10 17 9 18 11 20 20 22 17 24
REMARK H PARENT 9 19 11 21 20 23 17 25
REMARK Flexibility Score: inf
ROOT
ATOM      1  C   UNL     1      -5.830  -6.818  -8.853  1.00  0.00     0.138 A 
ATOM      2  C   UNL     1      -5.636  -5.933  -9.922  1.00  0.00     0.100 A 
ATOM      3  C   UNL     1      -6.370  -4.748  -9.980  1.00  0.00     0.197 A 
ATOM      4  O   UNL     1      -6.219  -4.005 -10.985  1.00  0.00    -0.289 OA
ATOM      5  C   UNL     1      -7.281  -4.433  -8.944  1.00  0.00     0.107 A 
ATOM      6  C   UNL     1      -8.053  -3.235  -8.876  1.00  0.00     0.134 A 
ATOM      7  C   UNL     1      -9.007  -3.085  -7.863  1.00  0.00     0.093 A 
ATOM      8  C   UNL     1      -9.176  -4.061  -6.882  1.00  0.00     0.123 A 
ATOM      9  C   UNL     1      -8.388  -5.213  -6.906  1.00  0.00     0.094 A 
ATOM     10  C   UNL     1      -7.451  -5.408  -7.925  1.00  0.00     0.146 A 
ATOM     11  O   UNL     1      -6.731  -6.524  -7.921  1.00  0.00    -0.456 OA
ENDROOT
BRANCH   1  12
ATOM     12  C   UNL     1      -5.075  -8.091  -8.741  1.00  0.00     0.021 A 
ATOM     13  C   UNL     1      -3.676  -8.111  -8.588  1.00  0.00     0.016 A 
ATOM     14  C   UNL     1      -2.993  -9.324  -8.475  1.00  0.00     0.051 A 
ATOM     15  C   UNL     1      -3.692 -10.537  -8.505  1.00  0.00     0.157 A 
ATOM     16  C   UNL     1      -5.772  -9.313  -8.755  1.00  0.00     0.062 A 
ATOM     17  C   UNL     1      -5.089 -10.530  -8.643  1.00  0.00     0.158 A 
BRANCH  15  18
ATOM     18  O   UNL     1      -3.006 -11.745  -8.392  1.00  0.00    -0.504 OA
ATOM     19  H   UNL     1      -2.978 -12.260  -7.521  1.00  0.00     0.293 HD
ENDBRANCH  15  18
BRANCH  17  20
ATOM     20  O   UNL     1      -5.816 -11.719  -8.671  1.00  0.00    -0.504 OA
ATOM     21  H   UNL     1      -5.389 -12.616  -8.472  1.00  0.00     0.293 HD
ENDBRANCH  17  20
ENDBRANCH   1  12
BRANCH   6  22
ATOM     22  O   UNL     1      -7.905  -2.160  -9.758  1.00  0.00    -0.507 OA
ATOM     23  H   UNL     1      -7.021  -1.770 -10.050  1.00  0.00     0.293 HD
ENDBRANCH   6  22
BRANCH   8  24
ATOM     24  O   UNL     1     -10.125  -3.871  -5.879  1.00  0.00    -0.508 OA
ATOM     25  H   UNL     1      -9.994  -3.181  -5.150  1.00  0.00     0.293 HD
ENDBRANCH   8  24
TORSDOF 5
ENDMDL
MODEL 4
REMARK VINA RESULT:    -5.031      6.307      9.656
REMARK INTER + INTRA:          -6.190
REMARK INTER:                  -5.892
REMARK INTRA:                  -0.299
REMARK UNBOUND:                -0.277
REMARK SMILES O=c1cc(-c2ccc(O)c(O)c2)oc2cc(O)cc(O)c12
REMARK SMILES IDX 4 1 3 2 2 3 1 4 21 5 19 6 18 7 16 8 15 9 14 10 13 11 5 12
REMARK SMILES IDX 6 13 7 14 8 15 12 16 10 17 9 18 11 20 20 22 17 24
REMARK H PARENT 9 19 11 21 20 23 17 25
REMARK Flexibility Score: inf
ROOT
ATOM      1  C   UNL     1      -6.057  -6.133  -8.867  1.00  0.00     0.138 A 
ATOM      2  C   UNL     1      -4.754  -5.886  -9.318  1.00  0.00     0.100 A 
ATOM      3  C   UNL     1      -3.902  -6.956  -9.592  1.00  0.00     0.197 A 
ATOM      4  O   UNL     1      -2.718  -6.701  -9.935  1.00  0.00    -0.289 OA
ATOM      5  C   UNL     1      -4.370  -8.283  -9.441  1.00  0.00     0.107 A 
ATOM      6  C   UNL     1      -3.604  -9.452  -9.729  1.00  0.00     0.134 A 
ATOM      7  C   UNL     1      -4.133 -10.714  -9.431  1.00  0.00     0.093 A 
ATOM      8  C   UNL     1      -5.420 -10.853  -8.913  1.00  0.00     0.123 A 
ATOM      9  C   UNL     1      -6.199  -9.718  -8.678  1.00  0.00     0.094 A 
ATOM     10  C   UNL     1      -5.686  -8.443  -8.932  1.00  0.00     0.146 A 
ATOM     11  O   UNL     1      -6.454  -7.388  -8.682  1.00  0.00    -0.456 OA
ENDROOT
BRANCH   1  12
ATOM     12  C   UNL     1      -7.005  -5.032  -8.563  1.00  0.00     0.021 A 
ATOM     13  C   UNL     1      -7.091  -3.885  -9.375  1.00  0.00     0.016 A 
ATOM     14  C   UNL     1      -8.000  -2.868  -9.070  1.00  0.00     0.051 A 
ATOM     15  C   UNL     1      -8.842  -2.981  -7.958  1.00  0.00     0.157 A 
ATOM     16  C   UNL     1      -7.865  -5.144  -7.455  1.00  0.00     0.062 A 
ATOM     17  C   UNL     1      -8.776  -4.126  -7.148  1.00  0.00     0.158 A 
BRANCH  15  18
ATOM     18  O   UNL     1      -9.747  -1.963  -7.657  1.00  0.00    -0.504 OA
ATOM     19  H   UNL     1     -10.324  -1.538  -8.373  1.00  0.00     0.293 HD
ENDBRANCH  15  18
BRANCH  17  20
ATOM     20  O   UNL     1      -9.603  -4.272  -6.036  1.00  0.00    -0.504 OA
ATOM     21  H   UNL     1     -10.179  -5.093  -5.898  1.00  0.00     0.293 HD
ENDBRANCH  17  20
ENDBRANCH   1  12
BRANCH   6  22
ATOM     22  O   UNL     1      -2.340  -9.431 -10.325  1.00  0.00    -0.507 OA
ATOM     23  H   UNL     1      -1.936  -8.633 -10.792  1.00  0.00     0.293 HD
ENDBRANCH   6  22
BRANCH   8  24
ATOM     24  O   UNL     1      -5.919 -12.125  -8.643  1.00  0.00    -0.508 OA
ATOM     25  H   UNL     1      -6.393 -12.669  -9.353  1.00  0.00     0.293 HD
ENDBRANCH   8  24
TORSDOF 5
ENDMDL
MODEL 5
REMARK VINA RESULT:    -5.013      4.016      7.355
REMARK INTER + INTRA:          -6.169
REMARK INTER:                  -5.854
REMARK INTRA:                  -0.314
REMARK UNBOUND:                -0.277
REMARK SMILES O=c1cc(-c2ccc(O)c(O)c2)oc2cc(O)cc(O)c12
REMARK SMILES IDX 4 1 3 2 2 3 1 4 21 5 19 6 18 7 16 8 15 9 14 10 13 11 5 12
REMARK SMILES IDX 6 13 7 14 8 15 12 16 10 17 9 18 11 20 20 22 17 24
REMARK H PARENT 9 19 11 21 20 23 17 25
REMARK Flexibility Score: inf
ROOT
ATOM      1  C   UNL     1       4.924  -7.014  -8.757  1.00  0.00     0.138 A 
ATOM      2  C   UNL     1       6.030  -6.381  -9.339  1.00  0.00     0.100 A 
ATOM      3  C   UNL     1       5.854  -5.187 -10.039  1.00  0.00     0.197 A 
ATOM      4  O   UNL     1       6.856  -4.675 -10.603  1.00  0.00    -0.289 OA
ATOM      5  C   UNL     1       4.566  -4.609 -10.130  1.00  0.00     0.107 A 
ATOM      6  C   UNL     1       4.273  -3.374 -10.783  1.00  0.00     0.134 A 
ATOM      7  C   UNL     1       2.942  -2.959 -10.909  1.00  0.00     0.093 A 
ATOM      8  C   UNL     1       1.899  -3.701 -10.356  1.00  0.00     0.123 A 
ATOM      9  C   UNL     1       2.178  -4.883  -9.668  1.00  0.00     0.094 A 
ATOM     10  C   UNL     1       3.493  -5.342  -9.554  1.00  0.00     0.146 A 
ATOM     11  O   UNL     1       3.716  -6.478  -8.904  1.00  0.00    -0.456 OA
ENDROOT
BRANCH   1  12
ATOM     12  C   UNL     1       5.055  -8.285  -8.000  1.00  0.00     0.021 A 
ATOM     13  C   UNL     1       6.220  -9.072  -8.072  1.00  0.00     0.016 A 
ATOM     14  C   UNL     1       6.320 -10.258  -7.341  1.00  0.00     0.051 A 
ATOM     15  C   UNL     1       5.264 -10.676  -6.521  1.00  0.00     0.157 A 
ATOM     16  C   UNL     1       4.004  -8.704  -7.163  1.00  0.00     0.062 A 
ATOM     17  C   UNL     1       4.102  -9.893  -6.431  1.00  0.00     0.158 A 
BRANCH  15  18
ATOM     18  O   UNL     1       5.368 -11.861  -5.794  1.00  0.00    -0.504 OA
ATOM     19  H   UNL     1       6.090 -12.543  -5.992  1.00  0.00     0.293 HD
ENDBRANCH  15  18
BRANCH  17  20
ATOM     20  O   UNL     1       3.035 -10.278  -5.621  1.00  0.00    -0.504 OA
ATOM     21  H   UNL     1       2.915  -9.918  -4.682  1.00  0.00     0.293 HD
ENDBRANCH  17  20
ENDBRANCH   1  12
BRANCH   6  22
ATOM     22  O   UNL     1       5.246  -2.513 -11.298  1.00  0.00    -0.507 OA
ATOM     23  H   UNL     1       5.060  -1.610 -11.706  1.00  0.00     0.293 HD
ENDBRANCH   6  22
BRANCH   8  24
ATOM     24  O   UNL     1       0.588  -3.249 -10.488  1.00  0.00    -0.508 OA
ATOM     25  H   UNL     1       0.312  -2.640 -11.248  1.00  0.00     0.293 HD
ENDBRANCH   8  24
TORSDOF 5
ENDMDL
MODEL 6
REMARK VINA RESULT:    -4.933      6.385      8.087
REMARK INTER + INTRA:          -6.075
REMARK INTER:                  -5.801
REMARK INTRA:                  -0.274
REMARK UNBOUND:                -0.277
REMARK SMILES O=c1cc(-c2ccc(O)c(O)c2)oc2cc(O)cc(O)c12
REMARK SMILES IDX 4 1 3 2 2 3 1 4 21 5 19 6 18 7 16 8 15 9 14 10 13 11 5 12
REMARK SMILES IDX 6 13 7 14 8 15 12 16 10 17 9 18 11 20 20 22 17 24
REMARK H PARENT 9 19 11 21 20 23 17 25
REMARK Flexibility Score: inf
ROOT
ATOM      1  C   UNL     1      -5.770  -6.795  -8.853  1.00  0.00     0.138 A 
ATOM      2  C   UNL     1      -6.860  -6.501  -8.022  1.00  0.00     0.100 A 
ATOM      3  C   UNL     1      -7.535  -5.289  -8.170  1.00  0.00     0.197 A 
ATOM      4  O   UNL     1      -8.469  -5.028  -7.369  1.00  0.00    -0.289 OA
ATOM      5  C   UNL     1      -7.133  -4.379  -9.177  1.00  0.00     0.107 A 
ATOM      6  C   UNL     1      -7.772  -3.132  -9.447  1.00  0.00     0.134 A 
ATOM      7  C   UNL     1      -7.215  -2.261 -10.391  1.00  0.00     0.093 A 
ATOM      8  C   UNL     1      -6.080  -2.617 -11.118  1.00  0.00     0.123 A 
ATOM      9  C   UNL     1      -5.478  -3.858 -10.901  1.00  0.00     0.094 A 
ATOM     10  C   UNL     1      -5.989  -4.734  -9.941  1.00  0.00     0.146 A 
ATOM     11  O   UNL     1      -5.380  -5.899  -9.754  1.00  0.00    -0.456 OA
ENDROOT
BRANCH   1  12
ATOM     12  C   UNL     1      -5.018  -8.070  -8.740  1.00  0.00     0.021 A 
ATOM     13  C   UNL     1      -3.612  -8.095  -8.666  1.00  0.00     0.016 A 
ATOM     14  C   UNL     1      -2.931  -9.309  -8.550  1.00  0.00     0.051 A 
ATOM     15  C   UNL     1      -3.639 -10.517  -8.498  1.00  0.00     0.157 A 
ATOM     16  C   UNL     1      -5.722  -9.286  -8.672  1.00  0.00     0.062 A 
ATOM     17  C   UNL     1      -5.041 -10.504  -8.557  1.00  0.00     0.158 A 
BRANCH  15  18
ATOM     18  O   UNL     1      -2.954 -11.726  -8.383  1.00  0.00    -0.504 OA
ATOM     19  H   UNL     1      -2.494 -11.995  -7.521  1.00  0.00     0.293 HD
ENDBRANCH  15  18
BRANCH  17  20
ATOM     20  O   UNL     1      -5.776 -11.687  -8.503  1.00  0.00    -0.504 OA
ATOM     21  H   UNL     1      -5.813 -12.333  -9.282  1.00  0.00     0.293 HD
ENDBRANCH  17  20
ENDBRANCH   1  12
BRANCH   6  22
ATOM     22  O   UNL     1      -8.959  -2.714  -8.837  1.00  0.00    -0.507 OA
ATOM     23  H   UNL     1      -9.026  -1.987  -8.142  1.00  0.00     0.293 HD
ENDBRANCH   6  22
BRANCH   8  24
ATOM     24  O   UNL     1      -5.562  -1.732 -12.062  1.00  0.00    -0.508 OA
ATOM     25  H   UNL     1      -5.496  -1.981 -13.041  1.00  0.00     0.293 HD
ENDBRANCH   8  24
TORSDOF 5
ENDMDL
MODEL 7
REMARK VINA RESULT:    -4.929      5.904      8.927
REMARK INTER + INTRA:          -6.071
REMARK INTER:                  -5.774
REMARK INTRA:                  -0.296
REMARK UNBOUND:                -0.277
REMARK SMILES O=c1cc(-c2ccc(O)c(O)c2)oc2cc(O)cc(O)c12
REMARK SMILES IDX 4 1 3 2 2 3 1 4 21 5 19 6 18 7 16 8 15 9 14 10 13 11 5 12
REMARK SMILES IDX 6 13 7 14 8 15 12 16 10 17 9 18 11 20 20 22 17 24
REMARK H PARENT 9 19 11 21 20 23 17 25
REMARK Flexibility Score: inf
ROOT
ATOM      1  C   UNL     1      -5.023  -6.948  -9.689  1.00  0.00     0.138 A 
ATOM      2  C   UNL     1      -3.723  -7.428  -9.481  1.00  0.00     0.100 A 
ATOM      3  C   UNL     1      -3.528  -8.756  -9.101  1.00  0.00     0.197 A 
ATOM      4  O   UNL     1      -2.354  -9.139  -8.861  1.00  0.00    -0.289 OA
ATOM      5  C   UNL     1      -4.642  -9.617  -8.959  1.00  0.00     0.107 A 
ATOM      6  C   UNL     1      -4.562 -10.999  -8.615  1.00  0.00     0.134 A 
ATOM      7  C   UNL     1      -5.739 -11.724  -8.389  1.00  0.00     0.093 A 
ATOM      8  C   UNL     1      -6.991 -11.133  -8.552  1.00  0.00     0.123 A 
ATOM      9  C   UNL     1      -7.082  -9.796  -8.941  1.00  0.00     0.094 A 
ATOM     10  C   UNL     1      -5.926  -9.037  -9.140  1.00  0.00     0.146 A 
ATOM     11  O   UNL     1      -6.055  -7.763  -9.496  1.00  0.00    -0.456 OA
ENDROOT
BRANCH   1  12
ATOM     12  C   UNL     1      -5.287  -5.545 -10.096  1.00  0.00     0.021 A 
ATOM     13  C   UNL     1      -4.515  -4.904 -11.084  1.00  0.00     0.016 A 
ATOM     14  C   UNL     1      -4.792  -3.585 -11.453  1.00  0.00     0.051 A 
ATOM     15  C   UNL     1      -5.846  -2.887 -10.852  1.00  0.00     0.157 A 
ATOM     16  C   UNL     1      -6.354  -4.842  -9.507  1.00  0.00     0.062 A 
ATOM     17  C   UNL     1      -6.632  -3.520  -9.876  1.00  0.00     0.158 A 
BRANCH  15  18
ATOM     18  O   UNL     1      -6.119  -1.571 -11.224  1.00  0.00    -0.504 OA
ATOM     19  H   UNL     1      -6.858  -1.348 -11.880  1.00  0.00     0.293 HD
ENDBRANCH  15  18
BRANCH  17  20
ATOM     20  O   UNL     1      -7.692  -2.856  -9.261  1.00  0.00    -0.504 OA
ATOM     21  H   UNL     1      -7.549  -2.043  -8.674  1.00  0.00     0.293 HD
ENDBRANCH  17  20
ENDBRANCH   1  12
BRANCH   6  22
ATOM     22  O   UNL     1      -3.363 -11.710  -8.509  1.00  0.00    -0.507 OA
ATOM     23  H   UNL     1      -3.210 -12.497  -7.896  1.00  0.00     0.293 HD
ENDBRANCH   6  22
BRANCH   8  24
ATOM     24  O   UNL     1      -8.141 -11.889  -8.333  1.00  0.00    -0.508 OA
ATOM     25  H   UNL     1      -8.136 -12.696  -7.723  1.00  0.00     0.293 HD
ENDBRANCH   8  24
TORSDOF 5
ENDMDL
MODEL 8
REMARK VINA RESULT:    -4.748      6.040      7.510
REMARK INTER + INTRA:          -5.858
REMARK INTER:                  -5.573
REMARK INTRA:                  -0.285
REMARK UNBOUND:                -0.277
REMARK SMILES O=c1cc(-c2ccc(O)c(O)c2)oc2cc(O)cc(O)c12
REMARK SMILES IDX 4 1 3 2 2 3 1 4 21 5 19 6 18 7 16 8 15 9 14 10 13 11 5 12
REMARK SMILES IDX 6 13 7 14 8 15 12 16 10 17 9 18 11 20 20 22 17 24
REMARK H PARENT 9 19 11 21 20 23 17 25
REMARK Flexibility Score: inf
ROOT
ATOM      1  C   UNL     1      -5.276  -6.692  -9.561  1.00  0.00     0.138 A 
ATOM      2  C   UNL     1      -4.680  -5.899 -10.550  1.00  0.00     0.100 A 
ATOM      3  C   UNL     1      -5.173  -4.618 -10.800  1.00  0.00     0.197 A 
ATOM      4  O   UNL     1      -4.657  -3.955 -11.737  1.00  0.00    -0.289 OA
ATOM      5  C   UNL     1      -6.251  -4.118 -10.032  1.00  0.00     0.107 A 
ATOM      6  C   UNL     1      -6.811  -2.812 -10.170  1.00  0.00     0.134 A 
ATOM      7  C   UNL     1      -7.951  -2.469  -9.435  1.00  0.00     0.093 A 
ATOM      8  C   UNL     1      -8.517  -3.359  -8.523  1.00  0.00     0.123 A 
ATOM      9  C   UNL     1      -7.945  -4.620  -8.340  1.00  0.00     0.094 A 
ATOM     10  C   UNL     1      -6.827  -5.005  -9.084  1.00  0.00     0.146 A 
ATOM     11  O   UNL     1      -6.322  -6.218  -8.891  1.00  0.00    -0.456 OA
ENDROOT
BRANCH   1  12
ATOM     12  C   UNL     1      -4.790  -8.060  -9.253  1.00  0.00     0.021 A 
ATOM     13  C   UNL     1      -5.667  -9.081  -8.840  1.00  0.00     0.016 A 
ATOM     14  C   UNL     1      -5.183 -10.363  -8.566  1.00  0.00     0.051 A 
ATOM     15  C   UNL     1      -3.820 -10.651  -8.707  1.00  0.00     0.157 A 
ATOM     16  C   UNL     1      -3.424  -8.362  -9.406  1.00  0.00     0.062 A 
ATOM     17  C   UNL     1      -2.937  -9.645  -9.132  1.00  0.00     0.158 A 
BRANCH  15  18
ATOM     18  O   UNL     1      -3.342 -11.932  -8.433  1.00  0.00    -0.504 OA
ATOM     19  H   UNL     1      -2.350 -12.120  -8.348  1.00  0.00     0.293 HD
ENDBRANCH  15  18
BRANCH  17  20
ATOM     20  O   UNL     1      -1.576  -9.900  -9.287  1.00  0.00    -0.504 OA
ATOM     21  H   UNL     1      -1.039  -9.508 -10.052  1.00  0.00     0.293 HD
ENDBRANCH  17  20
ENDBRANCH   1  12
BRANCH   6  22
ATOM     22  O   UNL     1      -6.274  -1.815 -10.991  1.00  0.00    -0.507 OA
ATOM     23  H   UNL     1      -6.063  -1.927 -11.971  1.00  0.00     0.293 HD
ENDBRANCH   6  22
BRANCH   8  24
ATOM     24  O   UNL     1      -9.643  -2.978  -7.797  1.00  0.00    -0.508 OA
ATOM     25  H   UNL     1      -9.565  -2.586  -6.866  1.00  0.00     0.293 HD
ENDBRANCH   8  24
TORSDOF 5
ENDMDL
