MODEL 1
REMARK VINA RESULT:    -7.974      0.000      0.000
REMARK INTER + INTRA:          -9.966
REMARK INTER:                  -9.606
REMARK INTRA:                  -0.361
REMARK UNBOUND:                -0.361
REMARK SMILES O=c1c(O)c(-c2ccc(O)cc2O)oc2cc(O)cc(O)c12
REMARK SMILES IDX 5 1 3 2 2 3 1 4 22 5 20 6 19 7 17 8 16 9 15 10 14 11 6 12
REMARK SMILES IDX 8 13 7 14 9 15 11 16 12 17 10 18 13 20 4 22 21 24 18 26
REMARK H PARENT 10 19 13 21 4 23 21 25 18 27
REMARK Flexibility Score: inf
ROOT
ATOM      1  C   UNL     1      15.983   3.084  81.710  1.00  0.00     0.184 A 
ATOM      2  C   UNL     1      15.093   2.655  82.707  1.00  0.00     0.208 A 
ATOM      3  C   UNL     1      14.959   1.280  82.954  1.00  0.00     0.238 A 
ATOM      4  O   UNL     1      14.201   0.904  83.885  1.00  0.00    -0.285 OA
ATOM      5  C   UNL     1      15.707   0.352  82.189  1.00  0.00     0.111 A 
ATOM      6  C   UNL     1      15.621  -1.066  82.327  1.00  0.00     0.134 A 
ATOM      7  C   UNL     1      16.502  -1.884  81.607  1.00  0.00     0.093 A 
ATOM      8  C   UNL     1      17.420  -1.338  80.707  1.00  0.00     0.123 A 
ATOM      9  C   UNL     1      17.471   0.042  80.522  1.00  0.00     0.094 A 
ATOM     10  C   UNL     1      16.631   0.886  81.253  1.00  0.00     0.146 A 
ATOM     11  O   UNL     1      16.719   2.196  81.054  1.00  0.00    -0.451 OA
ENDROOT
BRANCH   1  12
ATOM     12  C   UNL     1      16.158   4.516  81.388  1.00  0.00     0.063 A 
ATOM     13  C   UNL     1      15.589   6.413  79.978  1.00  0.00     0.047 A 
ATOM     14  C   UNL     1      15.451   5.062  80.305  1.00  0.00     0.020 A 
ATOM     15  C   UNL     1      16.421   7.240  80.737  1.00  0.00     0.119 A 
ATOM     16  C   UNL     1      17.113   6.711  81.834  1.00  0.00     0.093 A 
ATOM     17  C   UNL     1      16.976   5.356  82.172  1.00  0.00     0.130 A 
BRANCH  15  18
ATOM     18  O   UNL     1      16.552   8.583  80.395  1.00  0.00    -0.508 OA
ATOM     19  H   UNL     1      15.756   9.211  80.402  1.00  0.00     0.293 HD
ENDBRANCH  15  18
BRANCH  17  20
ATOM     20  O   UNL     1      17.631   4.852  83.297  1.00  0.00    -0.507 OA
ATOM     21  H   UNL     1      17.635   5.351  84.179  1.00  0.00     0.293 HD
ENDBRANCH  17  20
ENDBRANCH   1  12
BRANCH   2  22
ATOM     22  O   UNL     1      14.382   3.594  83.459  1.00  0.00    -0.502 OA
ATOM     23  H   UNL     1      14.082   3.413  84.410  1.00  0.00     0.293 HD
ENDBRANCH   2  22
BRANCH   6  24
ATOM     24  O   UNL     1      14.679  -1.717  83.129  1.00  0.00    -0.507 OA
ATOM     25  H   UNL     1      13.903  -2.258  82.780  1.00  0.00     0.293 HD
ENDBRANCH   6  24
BRANCH   8  26
ATOM     26  O   UNL     1      18.282  -2.160  79.984  1.00  0.00    -0.508 OA
ATOM     27  H   UNL     1      18.345  -3.154  80.169  1.00  0.00     0.293 HD
ENDBRANCH   8  26
TORSDOF 6
ENDMDL
MODEL 2
REMARK VINA RESULT:    -7.886      4.168      5.767
REMARK INTER + INTRA:          -9.861
REMARK INTER:                  -9.524
REMARK INTRA:                  -0.337
REMARK UNBOUND:                -0.361
REMARK SMILES O=c1c(O)c(-c2ccc(O)cc2O)oc2cc(O)cc(O)c12
REMARK SMILES IDX 5 1 3 2 2 3 1 4 22 5 20 6 19 7 17 8 16 9 15 10 14 11 6 12
REMARK SMILES IDX 8 13 7 14 9 15 11 16 12 17 10 18 13 20 4 22 21 24 18 26
REMARK H PARENT 10 19 13 21 4 23 21 25 18 27
REMARK Flexibility Score: inf
ROOT
ATOM      1  C   UNL     1      18.415   3.794  77.607  1.00  0.00     0.184 A 
ATOM      2  C   UNL     1      19.083   3.953  76.382  1.00  0.00     0.208 A 
ATOM      3  C   UNL     1      19.541   2.813  75.704  1.00  0.00     0.238 A 
ATOM      4  O   UNL     1      20.091   2.958  74.581  1.00  0.00    -0.285 OA
ATOM      5  C   UNL     1      19.338   1.530  76.268  1.00  0.00     0.111 A 
ATOM      6  C   UNL     1      19.796   0.309  75.687  1.00  0.00     0.134 A 
ATOM      7  C   UNL     1      19.427  -0.912  76.266  1.00  0.00     0.093 A 
ATOM      8  C   UNL     1      18.672  -0.953  77.441  1.00  0.00     0.123 A 
ATOM      9  C   UNL     1      18.270   0.235  78.048  1.00  0.00     0.094 A 
ATOM     10  C   UNL     1      18.592   1.467  77.474  1.00  0.00     0.146 A 
ATOM     11  O   UNL     1      18.181   2.576  78.079  1.00  0.00    -0.451 OA
ENDROOT
BRANCH   1  12
ATOM     12  C   UNL     1      17.922   4.953  78.379  1.00  0.00     0.063 A 
ATOM     13  C   UNL     1      16.449   6.883  78.518  1.00  0.00     0.047 A 
ATOM     14  C   UNL     1      16.940   5.781  77.813  1.00  0.00     0.020 A 
ATOM     15  C   UNL     1      16.919   7.162  79.804  1.00  0.00     0.119 A 
ATOM     16  C   UNL     1      17.882   6.329  80.388  1.00  0.00     0.093 A 
ATOM     17  C   UNL     1      18.377   5.218  79.688  1.00  0.00     0.130 A 
BRANCH  15  18
ATOM     18  O   UNL     1      16.423   8.265  80.492  1.00  0.00    -0.508 OA
ATOM     19  H   UNL     1      16.865   9.175  80.424  1.00  0.00     0.293 HD
ENDBRANCH  15  18
BRANCH  17  20
ATOM     20  O   UNL     1      19.299   4.367  80.299  1.00  0.00    -0.507 OA
ATOM     21  H   UNL     1      19.764   4.620  81.164  1.00  0.00     0.293 HD
ENDBRANCH  17  20
ENDBRANCH   1  12
BRANCH   2  22
ATOM     22  O   UNL     1      19.252   5.230  75.840  1.00  0.00    -0.502 OA
ATOM     23  H   UNL     1      20.164   5.603  75.604  1.00  0.00     0.293 HD
ENDBRANCH   2  22
BRANCH   6  24
ATOM     24  O   UNL     1      20.630   0.242  74.568  1.00  0.00    -0.507 OA
ATOM     25  H   UNL     1      20.317   0.312  73.612  1.00  0.00     0.293 HD
ENDBRANCH   6  24
BRANCH   8  26
ATOM     26  O   UNL     1      18.322  -2.172  78.019  1.00  0.00    -0.508 OA
ATOM     27  H   UNL     1      18.275  -2.288  79.025  1.00  0.00     0.293 HD
ENDBRANCH   8  26
TORSDOF 6
ENDMDL
MODEL 3
REMARK VINA RESULT:    -7.813      4.036      5.436
REMARK INTER + INTRA:          -9.772
REMARK INTER:                  -9.427
REMARK INTRA:                  -0.346
REMARK UNBOUND:                -0.361
REMARK SMILES O=c1c(O)c(-c2ccc(O)cc2O)oc2cc(O)cc(O)c12
REMARK SMILES IDX 5 1 3 2 2 3 1 4 22 5 20 6 19 7 17 8 16 9 15 10 14 11 6 12
REMARK SMILES IDX 8 13 7 14 9 15 11 16 12 17 10 18 13 20 4 22 21 24 18 26
REMARK H PARENT 10 19 13 21 4 23 21 25 18 27
REMARK Flexibility Score: inf
ROOT
ATOM      1  C   UNL     1      14.221   4.117  79.339  1.00  0.00     0.184 A 
ATOM      2  C   UNL     1      14.895   3.119  80.060  1.00  0.00     0.208 A 
ATOM      3  C   UNL     1      15.878   2.357  79.411  1.00  0.00     0.238 A 
ATOM      4  O   UNL     1      16.517   1.500  80.076  1.00  0.00    -0.285 OA
ATOM      5  C   UNL     1      16.163   2.594  78.043  1.00  0.00     0.111 A 
ATOM      6  C   UNL     1      17.111   1.855  77.274  1.00  0.00     0.134 A 
ATOM      7  C   UNL     1      17.405   2.260  75.966  1.00  0.00     0.093 A 
ATOM      8  C   UNL     1      16.736   3.336  75.378  1.00  0.00     0.123 A 
ATOM      9  C   UNL     1      15.767   4.028  76.101  1.00  0.00     0.094 A 
ATOM     10  C   UNL     1      15.478   3.670  77.420  1.00  0.00     0.146 A 
ATOM     11  O   UNL     1      14.554   4.361  78.078  1.00  0.00    -0.451 OA
ENDROOT
BRANCH   1  12
ATOM     12  C   UNL     1      13.164   4.944  79.959  1.00  0.00     0.063 A 
ATOM     13  C   UNL     1      12.528   6.597  81.625  1.00  0.00     0.047 A 
ATOM     14  C   UNL     1      13.502   5.798  81.020  1.00  0.00     0.020 A 
ATOM     15  C   UNL     1      11.208   6.564  81.168  1.00  0.00     0.119 A 
ATOM     16  C   UNL     1      10.865   5.733  80.094  1.00  0.00     0.093 A 
ATOM     17  C   UNL     1      11.838   4.931  79.478  1.00  0.00     0.130 A 
BRANCH  15  18
ATOM     18  O   UNL     1      10.248   7.363  81.783  1.00  0.00    -0.508 OA
ATOM     19  H   UNL     1       9.771   7.063  82.626  1.00  0.00     0.293 HD
ENDBRANCH  15  18
BRANCH  17  20
ATOM     20  O   UNL     1      11.494   4.145  78.378  1.00  0.00    -0.507 OA
ATOM     21  H   UNL     1      11.792   4.384  77.439  1.00  0.00     0.293 HD
ENDBRANCH  17  20
ENDBRANCH   1  12
BRANCH   2  22
ATOM     22  O   UNL     1      14.607   2.920  81.413  1.00  0.00    -0.502 OA
ATOM     23  H   UNL     1      15.260   3.164  82.148  1.00  0.00     0.293 HD
ENDBRANCH   2  22
BRANCH   6  24
ATOM     24  O   UNL     1      17.766   0.709  77.734  1.00  0.00    -0.507 OA
ATOM     25  H   UNL     1      17.305  -0.136  78.035  1.00  0.00     0.293 HD
ENDBRANCH   6  24
BRANCH   8  26
ATOM     26  O   UNL     1      17.023   3.723  74.070  1.00  0.00    -0.508 OA
ATOM     27  H   UNL     1      17.478   3.094  73.419  1.00  0.00     0.293 HD
ENDBRANCH   8  26
TORSDOF 6
ENDMDL
MODEL 4
REMARK VINA RESULT:    -7.803      4.984      7.983
REMARK INTER + INTRA:          -9.760
REMARK INTER:                  -9.742
REMARK INTRA:                  -0.018
REMARK UNBOUND:                -0.361
REMARK SMILES O=c1c(O)c(-c2ccc(O)cc2O)oc2cc(O)cc(O)c12
REMARK SMILES IDX 5 1 3 2 2 3 1 4 22 5 20 6 19 7 17 8 16 9 15 10 14 11 6 12
REMARK SMILES IDX 8 13 7 14 9 15 11 16 12 17 10 18 13 20 4 22 21 24 18 26
REMARK H PARENT 10 19 13 21 4 23 21 25 18 27
REMARK Flexibility Score: inf
ROOT
ATOM      1  C   UNL     1      15.159   4.488  76.965  1.00  0.00     0.184 A 
ATOM      2  C   UNL     1      16.239   5.382  76.900  1.00  0.00     0.208 A 
ATOM      3  C   UNL     1      16.425   6.302  77.944  1.00  0.00     0.238 A 
ATOM      4  O   UNL     1      17.425   7.065  77.907  1.00  0.00    -0.285 OA
ATOM      5  C   UNL     1      15.517   6.324  79.031  1.00  0.00     0.111 A 
ATOM      6  C   UNL     1      15.586   7.240  80.124  1.00  0.00     0.134 A 
ATOM      7  C   UNL     1      14.712   7.087  81.209  1.00  0.00     0.093 A 
ATOM      8  C   UNL     1      13.732   6.093  81.209  1.00  0.00     0.123 A 
ATOM      9  C   UNL     1      13.619   5.231  80.121  1.00  0.00     0.094 A 
ATOM     10  C   UNL     1      14.499   5.335  79.041  1.00  0.00     0.146 A 
ATOM     11  O   UNL     1      14.364   4.487  78.027  1.00  0.00    -0.451 OA
ENDROOT
BRANCH   1  12
ATOM     12  C   UNL     1      14.898   3.506  75.892  1.00  0.00     0.063 A 
ATOM     13  C   UNL     1      15.769   1.884  74.303  1.00  0.00     0.047 A 
ATOM     14  C   UNL     1      15.981   2.823  75.316  1.00  0.00     0.020 A 
ATOM     15  C   UNL     1      14.473   1.604  73.863  1.00  0.00     0.119 A 
ATOM     16  C   UNL     1      13.383   2.263  74.447  1.00  0.00     0.093 A 
ATOM     17  C   UNL     1      13.587   3.203  75.468  1.00  0.00     0.130 A 
BRANCH  15  18
ATOM     18  O   UNL     1      14.278   0.670  72.850  1.00  0.00    -0.508 OA
ATOM     19  H   UNL     1      13.852  -0.231  73.035  1.00  0.00     0.293 HD
ENDBRANCH  15  18
BRANCH  17  20
ATOM     20  O   UNL     1      12.491   3.816  76.077  1.00  0.00    -0.507 OA
ATOM     21  H   UNL     1      11.680   3.284  76.372  1.00  0.00     0.293 HD
ENDBRANCH  17  20
ENDBRANCH   1  12
BRANCH   2  22
ATOM     22  O   UNL     1      17.129   5.325  75.825  1.00  0.00    -0.502 OA
ATOM     23  H   UNL     1      16.826   5.130  74.878  1.00  0.00     0.293 HD
ENDBRANCH   2  22
BRANCH   6  24
ATOM     24  O   UNL     1      16.466   8.324  80.180  1.00  0.00    -0.507 OA
ATOM     25  H   UNL     1      16.191   9.293  80.120  1.00  0.00     0.293 HD
ENDBRANCH   6  24
BRANCH   8  26
ATOM     26  O   UNL     1      12.857   5.957  82.286  1.00  0.00    -0.508 OA
ATOM     27  H   UNL     1      13.123   6.237  83.223  1.00  0.00     0.293 HD
ENDBRANCH   8  26
TORSDOF 6
ENDMDL
MODEL 5
REMARK VINA RESULT:    -7.797      4.997      6.372
REMARK INTER + INTRA:          -9.753
REMARK INTER:                  -9.371
REMARK INTRA:                  -0.382
REMARK UNBOUND:                -0.361
REMARK SMILES O=c1c(O)c(-c2ccc(O)cc2O)oc2cc(O)cc(O)c12
REMARK SMILES IDX 5 1 3 2 2 3 1 4 22 5 20 6 19 7 17 8 16 9 15 10 14 11 6 12
REMARK SMILES IDX 8 13 7 14 9 15 11 16 12 17 10 18 13 20 4 22 21 24 18 26
REMARK H PARENT 10 19 13 21 4 23 21 25 18 27
REMARK Flexibility Score: inf
ROOT
ATOM      1  C   UNL     1      17.374   5.090  77.812  1.00  0.00     0.184 A 
ATOM      2  C   UNL     1      16.325   4.298  77.321  1.00  0.00     0.208 A 
ATOM      3  C   UNL     1      16.517   3.572  76.135  1.00  0.00     0.238 A 
ATOM      4  O   UNL     1      15.593   2.822  75.728  1.00  0.00    -0.285 OA
ATOM      5  C   UNL     1      17.753   3.663  75.449  1.00  0.00     0.111 A 
ATOM      6  C   UNL     1      18.045   3.002  74.217  1.00  0.00     0.134 A 
ATOM      7  C   UNL     1      19.343   3.059  73.694  1.00  0.00     0.093 A 
ATOM      8  C   UNL     1      20.341   3.806  74.324  1.00  0.00     0.123 A 
ATOM      9  C   UNL     1      20.051   4.502  75.495  1.00  0.00     0.094 A 
ATOM     10  C   UNL     1      18.775   4.434  76.061  1.00  0.00     0.146 A 
ATOM     11  O   UNL     1      18.542   5.104  77.184  1.00  0.00    -0.451 OA
ENDROOT
BRANCH   1  12
ATOM     12  C   UNL     1      17.230   5.891  79.046  1.00  0.00     0.063 A 
ATOM     13  C   UNL     1      16.141   7.722  80.220  1.00  0.00     0.047 A 
ATOM     14  C   UNL     1      16.306   6.948  79.068  1.00  0.00     0.020 A 
ATOM     15  C   UNL     1      16.885   7.440  81.368  1.00  0.00     0.119 A 
ATOM     16  C   UNL     1      17.792   6.373  81.365  1.00  0.00     0.093 A 
ATOM     17  C   UNL     1      17.960   5.589  80.215  1.00  0.00     0.130 A 
BRANCH  15  18
ATOM     18  O   UNL     1      16.712   8.223  82.507  1.00  0.00    -0.508 OA
ATOM     19  H   UNL     1      16.833   9.229  82.481  1.00  0.00     0.293 HD
ENDBRANCH  15  18
BRANCH  17  20
ATOM     20  O   UNL     1      18.831   4.498  80.239  1.00  0.00    -0.507 OA
ATOM     21  H   UNL     1      19.780   4.583  80.582  1.00  0.00     0.293 HD
ENDBRANCH  17  20
ENDBRANCH   1  12
BRANCH   2  22
ATOM     22  O   UNL     1      15.123   4.213  78.029  1.00  0.00    -0.502 OA
ATOM     23  H   UNL     1      14.612   5.033  78.333  1.00  0.00     0.293 HD
ENDBRANCH   2  22
BRANCH   6  24
ATOM     24  O   UNL     1      17.097   2.307  73.460  1.00  0.00    -0.507 OA
ATOM     25  H   UNL     1      16.220   2.691  73.144  1.00  0.00     0.293 HD
ENDBRANCH   6  24
BRANCH   8  26
ATOM     26  O   UNL     1      21.627   3.869  73.789  1.00  0.00    -0.508 OA
ATOM     27  H   UNL     1      22.442   3.617  74.336  1.00  0.00     0.293 HD
ENDBRANCH   8  26
TORSDOF 6
ENDMDL
MODEL 6
REMARK VINA RESULT:    -7.781      4.729      6.524
REMARK INTER + INTRA:          -9.734
REMARK INTER:                  -9.440
REMARK INTRA:                  -0.293
REMARK UNBOUND:                -0.361
REMARK SMILES O=c1c(O)c(-c2ccc(O)cc2O)oc2cc(O)cc(O)c12
REMARK SMILES IDX 5 1 3 2 2 3 1 4 22 5 20 6 19 7 17 8 16 9 15 10 14 11 6 12
REMARK SMILES IDX 8 13 7 14 9 15 11 16 12 17 10 18 13 20 4 22 21 24 18 26
REMARK H PARENT 10 19 13 21 4 23 21 25 18 27
REMARK Flexibility Score: inf
ROOT
ATOM      1  C   UNL     1      17.069   5.302  79.101  1.00  0.00     0.184 A 
ATOM      2  C   UNL     1      17.201   6.047  80.284  1.00  0.00     0.208 A 
ATOM      3  C   UNL     1      16.046   6.400  80.999  1.00  0.00     0.238 A 
ATOM      4  O   UNL     1      16.173   7.021  82.086  1.00  0.00    -0.285 OA
ATOM      5  C   UNL     1      14.773   6.016  80.511  1.00  0.00     0.111 A 
ATOM      6  C   UNL     1      13.532   6.353  81.132  1.00  0.00     0.134 A 
ATOM      7  C   UNL     1      12.341   5.811  80.634  1.00  0.00     0.093 A 
ATOM      8  C   UNL     1      12.340   4.997  79.499  1.00  0.00     0.123 A 
ATOM      9  C   UNL     1      13.538   4.709  78.851  1.00  0.00     0.094 A 
ATOM     10  C   UNL     1      14.747   5.206  79.345  1.00  0.00     0.146 A 
ATOM     11  O   UNL     1      15.869   4.900  78.704  1.00  0.00    -0.451 OA
ENDROOT
BRANCH   1  12
ATOM     12  C   UNL     1      18.244   4.913  78.294  1.00  0.00     0.063 A 
ATOM     13  C   UNL     1      20.371   3.743  78.150  1.00  0.00     0.047 A 
ATOM     14  C   UNL     1      19.249   4.133  78.887  1.00  0.00     0.020 A 
ATOM     15  C   UNL     1      20.495   4.113  76.808  1.00  0.00     0.119 A 
ATOM     16  C   UNL     1      19.486   4.871  76.200  1.00  0.00     0.093 A 
ATOM     17  C   UNL     1      18.355   5.263  76.932  1.00  0.00     0.130 A 
BRANCH  15  18
ATOM     18  O   UNL     1      21.620   3.720  76.089  1.00  0.00    -0.508 OA
ATOM     19  H   UNL     1      22.552   4.007  76.365  1.00  0.00     0.293 HD
ENDBRANCH  15  18
BRANCH  17  20
ATOM     20  O   UNL     1      17.333   5.975  76.302  1.00  0.00    -0.507 OA
ATOM     21  H   UNL     1      16.460   5.533  76.039  1.00  0.00     0.293 HD
ENDBRANCH  17  20
ENDBRANCH   1  12
BRANCH   2  22
ATOM     22  O   UNL     1      18.471   6.396  80.752  1.00  0.00    -0.502 OA
ATOM     23  H   UNL     1      18.987   5.818  81.405  1.00  0.00     0.293 HD
ENDBRANCH   2  22
BRANCH   6  24
ATOM     24  O   UNL     1      13.415   7.230  82.214  1.00  0.00    -0.507 OA
ATOM     25  H   UNL     1      13.971   7.185  83.054  1.00  0.00     0.293 HD
ENDBRANCH   6  24
BRANCH   8  26
ATOM     26  O   UNL     1      11.147   4.473  79.001  1.00  0.00    -0.508 OA
ATOM     27  H   UNL     1      10.669   3.710  79.465  1.00  0.00     0.293 HD
ENDBRANCH   8  26
TORSDOF 6
ENDMDL
MODEL 7
REMARK VINA RESULT:    -7.771      4.316      6.556
REMARK INTER + INTRA:          -9.722
REMARK INTER:                  -9.343
REMARK INTRA:                  -0.379
REMARK UNBOUND:                -0.361
REMARK SMILES O=c1c(O)c(-c2ccc(O)cc2O)oc2cc(O)cc(O)c12
REMARK SMILES IDX 5 1 3 2 2 3 1 4 22 5 20 6 19 7 17 8 16 9 15 10 14 11 6 12
REMARK SMILES IDX 8 13 7 14 9 15 11 16 12 17 10 18 13 20 4 22 21 24 18 26
REMARK H PARENT 10 19 13 21 4 23 21 25 18 27
REMARK Flexibility Score: inf
ROOT
ATOM      1  C   UNL     1      18.525   4.162  78.550  1.00  0.00     0.184 A 
ATOM      2  C   UNL     1      17.928   2.995  79.050  1.00  0.00     0.208 A 
ATOM      3  C   UNL     1      17.191   3.064  80.242  1.00  0.00     0.238 A 
ATOM      4  O   UNL     1      16.612   2.026  80.657  1.00  0.00    -0.285 OA
ATOM      5  C   UNL     1      17.075   4.299  80.927  1.00  0.00     0.111 A 
ATOM      6  C   UNL     1      16.386   4.477  82.164  1.00  0.00     0.134 A 
ATOM      7  C   UNL     1      16.226   5.767  82.685  1.00  0.00     0.093 A 
ATOM      8  C   UNL     1      16.786   6.876  82.047  1.00  0.00     0.123 A 
ATOM      9  C   UNL     1      17.510   6.706  80.870  1.00  0.00     0.094 A 
ATOM     10  C   UNL     1      17.656   5.436  80.306  1.00  0.00     0.146 A 
ATOM     11  O   UNL     1      18.346   5.318  79.177  1.00  0.00    -0.451 OA
ENDROOT
BRANCH   1  12
ATOM     12  C   UNL     1      19.328   4.154  77.309  1.00  0.00     0.063 A 
ATOM     13  C   UNL     1      21.304   3.385  76.118  1.00  0.00     0.047 A 
ATOM     14  C   UNL     1      20.524   3.419  77.277  1.00  0.00     0.020 A 
ATOM     15  C   UNL     1      20.892   4.072  74.972  1.00  0.00     0.119 A 
ATOM     16  C   UNL     1      19.689   4.789  74.986  1.00  0.00     0.093 A 
ATOM     17  C   UNL     1      18.898   4.824  76.144  1.00  0.00     0.130 A 
BRANCH  15  18
ATOM     18  O   UNL     1      21.682   4.032  73.827  1.00  0.00    -0.508 OA
ATOM     19  H   UNL     1      21.923   4.876  73.319  1.00  0.00     0.293 HD
ENDBRANCH  15  18
BRANCH  17  20
ATOM     20  O   UNL     1      17.677   5.500  76.131  1.00  0.00    -0.507 OA
ATOM     21  H   UNL     1      17.229   5.771  75.264  1.00  0.00     0.293 HD
ENDBRANCH  17  20
ENDBRANCH   1  12
BRANCH   2  22
ATOM     22  O   UNL     1      18.042   1.794  78.343  1.00  0.00    -0.502 OA
ATOM     23  H   UNL     1      17.741   1.700  77.380  1.00  0.00     0.293 HD
ENDBRANCH   2  22
BRANCH   6  24
ATOM     24  O   UNL     1      15.870   3.426  82.928  1.00  0.00    -0.507 OA
ATOM     25  H   UNL     1      15.210   2.741  82.592  1.00  0.00     0.293 HD
ENDBRANCH   6  24
BRANCH   8  26
ATOM     26  O   UNL     1      16.634   8.155  82.581  1.00  0.00    -0.508 OA
ATOM     27  H   UNL     1      17.434   8.745  82.779  1.00  0.00     0.293 HD
ENDBRANCH   8  26
TORSDOF 6
ENDMDL
MODEL 8
REMARK VINA RESULT:    -7.754      4.727      6.548
REMARK INTER + INTRA:          -9.701
REMARK INTER:                  -9.285
REMARK INTRA:                  -0.417
REMARK UNBOUND:                -0.361
REMARK SMILES O=c1c(O)c(-c2ccc(O)cc2O)oc2cc(O)cc(O)c12
REMARK SMILES IDX 5 1 3 2 2 3 1 4 22 5 20 6 19 7 17 8 16 9 15 10 14 11 6 12
REMARK SMILES IDX 8 13 7 14 9 15 11 16 12 17 10 18 13 20 4 22 21 24 18 26
REMARK H PARENT 10 19 13 21 4 23 21 25 18 27
REMARK Flexibility Score: inf
ROOT
ATOM      1  C   UNL     1      17.668   5.492  78.694  1.00  0.00     0.184 A 
ATOM      2  C   UNL     1      18.781   4.899  79.312  1.00  0.00     0.208 A 
ATOM      3  C   UNL     1      19.789   4.343  78.509  1.00  0.00     0.238 A 
ATOM      4  O   UNL     1      20.809   3.862  79.066  1.00  0.00    -0.285 OA
ATOM      5  C   UNL     1      19.661   4.374  77.098  1.00  0.00     0.111 A 
ATOM      6  C   UNL     1      20.602   3.805  76.188  1.00  0.00     0.134 A 
ATOM      7  C   UNL     1      20.439   4.007  74.811  1.00  0.00     0.093 A 
ATOM      8  C   UNL     1      19.335   4.701  74.311  1.00  0.00     0.123 A 
ATOM      9  C   UNL     1      18.380   5.210  75.188  1.00  0.00     0.094 A 
ATOM     10  C   UNL     1      18.534   5.055  76.568  1.00  0.00     0.146 A 
ATOM     11  O   UNL     1      17.606   5.564  77.371  1.00  0.00    -0.451 OA
ENDROOT
BRANCH   1  12
ATOM     12  C   UNL     1      16.565   6.080  79.482  1.00  0.00     0.063 A 
ATOM     13  C   UNL     1      15.723   7.927  80.821  1.00  0.00     0.047 A 
ATOM     14  C   UNL     1      16.747   7.340  80.074  1.00  0.00     0.020 A 
ATOM     15  C   UNL     1      14.498   7.272  80.973  1.00  0.00     0.119 A 
ATOM     16  C   UNL     1      14.297   6.025  80.367  1.00  0.00     0.093 A 
ATOM     17  C   UNL     1      15.319   5.431  79.612  1.00  0.00     0.130 A 
BRANCH  15  18
ATOM     18  O   UNL     1      13.489   7.868  81.724  1.00  0.00    -0.508 OA
ATOM     19  H   UNL     1      12.900   7.325  82.345  1.00  0.00     0.293 HD
ENDBRANCH  15  18
BRANCH  17  20
ATOM     20  O   UNL     1      15.090   4.212  78.972  1.00  0.00    -0.507 OA
ATOM     21  H   UNL     1      15.852   3.645  78.620  1.00  0.00     0.293 HD
ENDBRANCH  17  20
ENDBRANCH   1  12
BRANCH   2  22
ATOM     22  O   UNL     1      18.890   4.901  80.705  1.00  0.00    -0.502 OA
ATOM     23  H   UNL     1      18.904   5.756  81.248  1.00  0.00     0.293 HD
ENDBRANCH   2  22
BRANCH   6  24
ATOM     24  O   UNL     1      21.688   3.017  76.579  1.00  0.00    -0.507 OA
ATOM     25  H   UNL     1      22.557   3.376  76.944  1.00  0.00     0.293 HD
ENDBRANCH   6  24
BRANCH   8  26
ATOM     26  O   UNL     1      19.173   4.885  72.938  1.00  0.00    -0.508 OA
ATOM     27  H   UNL     1      19.183   4.103  72.294  1.00  0.00     0.293 HD
ENDBRANCH   8  26
TORSDOF 6
ENDMDL
MODEL 9
REMARK VINA RESULT:    -7.474      5.105      6.627
REMARK INTER + INTRA:          -9.364
REMARK INTER:                  -9.080
REMARK INTRA:                  -0.284
REMARK UNBOUND:                -0.361
REMARK SMILES O=c1c(O)c(-c2ccc(O)cc2O)oc2cc(O)cc(O)c12
REMARK SMILES IDX 5 1 3 2 2 3 1 4 22 5 20 6 19 7 17 8 16 9 15 10 14 11 6 12
REMARK SMILES IDX 8 13 7 14 9 15 11 16 12 17 10 18 13 20 4 22 21 24 18 26
REMARK H PARENT 10 19 13 21 4 23 21 25 18 27
REMARK Flexibility Score: inf
ROOT
ATOM      1  C   UNL     1      17.216   4.503  77.187  1.00  0.00     0.184 A 
ATOM      2  C   UNL     1      18.383   4.241  76.451  1.00  0.00     0.208 A 
ATOM      3  C   UNL     1      18.306   3.402  75.329  1.00  0.00     0.238 A 
ATOM      4  O   UNL     1      19.343   3.214  74.642  1.00  0.00    -0.285 OA
ATOM      5  C   UNL     1      17.065   2.822  74.968  1.00  0.00     0.111 A 
ATOM      6  C   UNL     1      16.878   1.924  73.874  1.00  0.00     0.134 A 
ATOM      7  C   UNL     1      15.584   1.514  73.531  1.00  0.00     0.093 A 
ATOM      8  C   UNL     1      14.478   1.918  74.282  1.00  0.00     0.123 A 
ATOM      9  C   UNL     1      14.656   2.746  75.387  1.00  0.00     0.094 A 
ATOM     10  C   UNL     1      15.931   3.201  75.733  1.00  0.00     0.146 A 
ATOM     11  O   UNL     1      16.056   3.999  76.787  1.00  0.00    -0.451 OA
ENDROOT
BRANCH   1  12
ATOM     12  C   UNL     1      17.232   5.364  78.388  1.00  0.00     0.063 A 
ATOM     13  C   UNL     1      16.482   7.392  79.499  1.00  0.00     0.047 A 
ATOM     14  C   UNL     1      16.493   6.557  78.379  1.00  0.00     0.020 A 
ATOM     15  C   UNL     1      17.195   7.039  80.647  1.00  0.00     0.119 A 
ATOM     16  C   UNL     1      17.918   5.839  80.675  1.00  0.00     0.093 A 
ATOM     17  C   UNL     1      17.930   4.993  79.556  1.00  0.00     0.130 A 
BRANCH  15  18
ATOM     18  O   UNL     1      17.178   7.883  81.754  1.00  0.00    -0.508 OA
ATOM     19  H   UNL     1      17.654   8.779  81.745  1.00  0.00     0.293 HD
ENDBRANCH  15  18
BRANCH  17  20
ATOM     20  O   UNL     1      18.613   3.777  79.613  1.00  0.00    -0.507 OA
ATOM     21  H   UNL     1      18.220   2.928  79.222  1.00  0.00     0.293 HD
ENDBRANCH  17  20
ENDBRANCH   1  12
BRANCH   2  22
ATOM     22  O   UNL     1      19.590   4.842  76.819  1.00  0.00    -0.502 OA
ATOM     23  H   UNL     1      19.913   4.868  77.779  1.00  0.00     0.293 HD
ENDBRANCH   2  22
BRANCH   6  24
ATOM     24  O   UNL     1      17.924   1.389  73.117  1.00  0.00    -0.507 OA
ATOM     25  H   UNL     1      18.771   1.882  72.877  1.00  0.00     0.293 HD
ENDBRANCH   6  24
BRANCH   8  26
ATOM     26  O   UNL     1      13.194   1.492  73.942  1.00  0.00    -0.508 OA
ATOM     27  H   UNL     1      12.403   2.126  73.963  1.00  0.00     0.293 HD
ENDBRANCH   8  26
TORSDOF 6
ENDMDL
