MODEL 1
REMARK VINA RESULT:    -6.450      0.000      0.000
REMARK INTER + INTRA:          -7.656
REMARK INTER:                  -7.393
REMARK INTRA:                  -0.263
REMARK UNBOUND:                -0.263
REMARK SMILES O=C([O-])C=Cc1ccc(O)cc1
REMARK SMILES IDX 6 1 7 2 12 3 8 4 11 5 9 6 5 7 4 8 2 9 1 10 3 11 10 12
REMARK H PARENT 10 13
REMARK Flexibility Score: inf
ROOT
ATOM      1  C   UNL     1     128.290 133.778 108.304  1.00  0.00    -0.025 A 
ATOM      2  C   UNL     1     128.685 134.620 107.248  1.00  0.00     0.012 A 
ATOM      3  C   UNL     1     127.122 134.078 109.020  1.00  0.00     0.012 A 
ATOM      4  C   UNL     1     127.949 135.771 106.953  1.00  0.00     0.047 A 
ATOM      5  C   UNL     1     126.388 135.231 108.723  1.00  0.00     0.047 A 
ATOM      6  C   UNL     1     126.802 136.083 107.690  1.00  0.00     0.115 A 
ENDROOT
BRANCH   1   7
ATOM      7  C   UNL     1     129.019 132.529 108.600  1.00  0.00     0.010 C 
ATOM      8  C   UNL     1     129.956 132.380 109.551  1.00  0.00     0.025 C 
BRANCH   8   9
ATOM      9  C   UNL     1     130.301 133.376 110.584  1.00  0.00     0.064 C 
ATOM     10  O   UNL     1     131.290 134.145 110.455  1.00  0.00    -0.545 OA
ATOM     11  O   UNL     1     129.476 133.514 111.692  1.00  0.00    -0.545 OA
ENDBRANCH   8   9
ENDBRANCH   1   7
BRANCH   6  12
ATOM     12  O   UNL     1     126.079 137.234 107.385  1.00  0.00    -0.508 OA
ATOM     13  H   UNL     1     125.237 137.480 107.891  1.00  0.00     0.293 HD
ENDBRANCH   6  12
TORSDOF 3
ENDMDL
MODEL 2
REMARK VINA RESULT:    -6.431      0.122      1.404
REMARK INTER + INTRA:          -7.633
REMARK INTER:                  -7.379
REMARK INTRA:                  -0.254
REMARK UNBOUND:                -0.263
REMARK SMILES O=C([O-])C=Cc1ccc(O)cc1
REMARK SMILES IDX 6 1 7 2 12 3 8 4 11 5 9 6 5 7 4 8 2 9 1 10 3 11 10 12
REMARK H PARENT 10 13
REMARK Flexibility Score: inf
ROOT
ATOM      1  C   UNL     1     128.269 133.736 108.229  1.00  0.00    -0.025 A 
ATOM      2  C   UNL     1     127.130 134.060 108.988  1.00  0.00     0.012 A 
ATOM      3  C   UNL     1     128.693 134.613 107.220  1.00  0.00     0.012 A 
ATOM      4  C   UNL     1     126.399 135.217 108.702  1.00  0.00     0.047 A 
ATOM      5  C   UNL     1     127.960 135.770 106.935  1.00  0.00     0.047 A 
ATOM      6  C   UNL     1     126.808 136.072 107.674  1.00  0.00     0.115 A 
ENDROOT
BRANCH   1   7
ATOM      7  C   UNL     1     129.089 132.549 108.547  1.00  0.00     0.010 C 
ATOM      8  C   UNL     1     130.019 132.482 109.513  1.00  0.00     0.025 C 
BRANCH   8   9
ATOM      9  C   UNL     1     130.271 133.510 110.541  1.00  0.00     0.064 C 
ATOM     10  O   UNL     1     131.114 134.429 110.362  1.00  0.00    -0.545 OA
ATOM     11  O   UNL     1     129.513 133.504 111.704  1.00  0.00    -0.545 OA
ENDBRANCH   8   9
ENDBRANCH   1   7
BRANCH   6  12
ATOM     12  O   UNL     1     126.069 137.221 107.400  1.00  0.00    -0.508 OA
ATOM     13  H   UNL     1     126.520 138.089 107.134  1.00  0.00     0.293 HD
ENDBRANCH   6  12
TORSDOF 3
ENDMDL
MODEL 3
REMARK VINA RESULT:    -5.772      1.468      4.808
REMARK INTER + INTRA:          -6.878
REMARK INTER:                  -6.650
REMARK INTRA:                  -0.228
REMARK UNBOUND:                -0.263
REMARK SMILES O=C([O-])C=Cc1ccc(O)cc1
REMARK SMILES IDX 6 1 7 2 12 3 8 4 11 5 9 6 5 7 4 8 2 9 1 10 3 11 10 12
REMARK H PARENT 10 13
REMARK Flexibility Score: inf
ROOT
ATOM      1  C   UNL     1     127.799 133.872 109.235  1.00  0.00    -0.025 A 
ATOM      2  C   UNL     1     128.427 134.131 110.467  1.00  0.00     0.012 A 
ATOM      3  C   UNL     1     128.318 132.875 108.396  1.00  0.00     0.012 A 
ATOM      4  C   UNL     1     129.586 133.437 110.825  1.00  0.00     0.047 A 
ATOM      5  C   UNL     1     129.478 132.183 108.756  1.00  0.00     0.047 A 
ATOM      6  C   UNL     1     130.117 132.465 109.971  1.00  0.00     0.115 A 
ENDROOT
BRANCH   1   7
ATOM      7  C   UNL     1     126.543 134.553 108.859  1.00  0.00     0.010 C 
ATOM      8  C   UNL     1     126.453 135.660 108.103  1.00  0.00     0.025 C 
BRANCH   8   9
ATOM      9  C   UNL     1     127.564 136.294 107.367  1.00  0.00     0.064 C 
ATOM     10  O   UNL     1     128.055 137.395 107.734  1.00  0.00    -0.545 OA
ATOM     11  O   UNL     1     128.127 135.628 106.287  1.00  0.00    -0.545 OA
ENDBRANCH   8   9
ENDBRANCH   1   7
BRANCH   6  12
ATOM     12  O   UNL     1     131.274 131.782 110.341  1.00  0.00    -0.508 OA
ATOM     13  H   UNL     1     131.436 131.495 111.299  1.00  0.00     0.293 HD
ENDBRANCH   6  12
TORSDOF 3
ENDMDL
MODEL 4
REMARK VINA RESULT:    -5.676      2.415      3.599
REMARK INTER + INTRA:          -6.768
REMARK INTER:                  -6.547
REMARK INTRA:                  -0.221
REMARK UNBOUND:                -0.263
REMARK SMILES O=C([O-])C=Cc1ccc(O)cc1
REMARK SMILES IDX 6 1 7 2 12 3 8 4 11 5 9 6 5 7 4 8 2 9 1 10 3 11 10 12
REMARK H PARENT 10 13
REMARK Flexibility Score: inf
ROOT
ATOM      1  C   UNL     1     126.263 134.456 108.977  1.00  0.00    -0.025 A 
ATOM      2  C   UNL     1     126.361 135.773 108.491  1.00  0.00     0.012 A 
ATOM      3  C   UNL     1     127.269 133.532 108.661  1.00  0.00     0.012 A 
ATOM      4  C   UNL     1     127.422 136.139 107.658  1.00  0.00     0.047 A 
ATOM      5  C   UNL     1     128.331 133.900 107.828  1.00  0.00     0.047 A 
ATOM      6  C   UNL     1     128.407 135.205 107.322  1.00  0.00     0.115 A 
ENDROOT
BRANCH   1   7
ATOM      7  C   UNL     1     125.181 134.060 109.901  1.00  0.00     0.010 C 
ATOM      8  C   UNL     1     125.144 134.328 111.216  1.00  0.00     0.025 C 
BRANCH   8   9
ATOM      9  C   UNL     1     126.077 135.211 111.943  1.00  0.00     0.064 C 
ATOM     10  O   UNL     1     125.905 136.458 111.987  1.00  0.00    -0.545 OA
ATOM     11  O   UNL     1     127.128 134.647 112.652  1.00  0.00    -0.545 OA
ENDBRANCH   8   9
ENDBRANCH   1   7
BRANCH   6  12
ATOM     12  O   UNL     1     129.459 135.584 106.490  1.00  0.00    -0.508 OA
ATOM     13  H   UNL     1     129.411 135.461 105.486  1.00  0.00     0.293 HD
ENDBRANCH   6  12
TORSDOF 3
ENDMDL
MODEL 5
REMARK VINA RESULT:    -5.603     10.345     12.778
REMARK INTER + INTRA:          -6.685
REMARK INTER:                  -6.505
REMARK INTRA:                  -0.180
REMARK UNBOUND:                -0.263
REMARK SMILES O=C([O-])C=Cc1ccc(O)cc1
REMARK SMILES IDX 6 1 7 2 12 3 8 4 11 5 9 6 5 7 4 8 2 9 1 10 3 11 10 12
REMARK H PARENT 10 13
REMARK Flexibility Score: inf
ROOT
ATOM      1  C   UNL     1     130.904 134.971 120.672  1.00  0.00    -0.025 A 
ATOM      2  C   UNL     1     130.629 133.938 121.586  1.00  0.00     0.012 A 
ATOM      3  C   UNL     1     130.860 136.303 121.109  1.00  0.00     0.012 A 
ATOM      4  C   UNL     1     130.263 134.240 122.901  1.00  0.00     0.047 A 
ATOM      5  C   UNL     1     130.493 136.603 122.425  1.00  0.00     0.047 A 
ATOM      6  C   UNL     1     130.190 135.571 123.323  1.00  0.00     0.115 A 
ENDROOT
BRANCH   1   7
ATOM      7  C   UNL     1     131.346 134.676 119.294  1.00  0.00     0.010 C 
ATOM      8  C   UNL     1     130.559 134.219 118.306  1.00  0.00     0.025 C 
BRANCH   8   9
ATOM      9  C   UNL     1     129.090 134.097 118.359  1.00  0.00     0.064 C 
ATOM     10  O   UNL     1     128.350 135.106 118.507  1.00  0.00    -0.545 OA
ATOM     11  O   UNL     1     128.507 132.852 118.174  1.00  0.00    -0.545 OA
ENDBRANCH   8   9
ENDBRANCH   1   7
BRANCH   6  12
ATOM     12  O   UNL     1     129.823 135.857 124.637  1.00  0.00    -0.508 OA
ATOM     13  H   UNL     1     129.750 136.811 124.970  1.00  0.00     0.293 HD
ENDBRANCH   6  12
TORSDOF 3
ENDMDL
MODEL 6
REMARK VINA RESULT:    -5.585      2.319      2.813
REMARK INTER + INTRA:          -6.664
REMARK INTER:                  -6.424
REMARK INTRA:                  -0.241
REMARK UNBOUND:                -0.263
REMARK SMILES O=C([O-])C=Cc1ccc(O)cc1
REMARK SMILES IDX 6 1 7 2 12 3 8 4 11 5 9 6 5 7 4 8 2 9 1 10 3 11 10 12
REMARK H PARENT 10 13
REMARK Flexibility Score: inf
ROOT
ATOM      1  C   UNL     1     129.515 133.608 109.863  1.00  0.00    -0.025 A 
ATOM      2  C   UNL     1     129.687 134.942 109.450  1.00  0.00     0.012 A 
ATOM      3  C   UNL     1     129.125 132.644 108.922  1.00  0.00     0.012 A 
ATOM      4  C   UNL     1     129.422 135.310 108.128  1.00  0.00     0.047 A 
ATOM      5  C   UNL     1     128.860 133.014 107.599  1.00  0.00     0.047 A 
ATOM      6  C   UNL     1     129.005 134.351 107.200  1.00  0.00     0.115 A 
ENDROOT
BRANCH   1   7
ATOM      7  C   UNL     1     129.841 133.185 111.240  1.00  0.00     0.010 C 
ATOM      8  C   UNL     1     131.039 132.745 111.655  1.00  0.00     0.025 C 
BRANCH   8   9
ATOM      9  C   UNL     1     132.288 132.769 110.869  1.00  0.00     0.064 C 
ATOM     10  O   UNL     1     132.487 131.960 109.924  1.00  0.00    -0.545 OA
ATOM     11  O   UNL     1     133.234 133.750 111.131  1.00  0.00    -0.545 OA
ENDBRANCH   8   9
ENDBRANCH   1   7
BRANCH   6  12
ATOM     12  O   UNL     1     128.743 134.732 105.886  1.00  0.00    -0.508 OA
ATOM     13  H   UNL     1     128.299 134.100 105.230  1.00  0.00     0.293 HD
ENDBRANCH   6  12
TORSDOF 3
ENDMDL
MODEL 7
REMARK VINA RESULT:    -5.548      4.467      6.062
REMARK INTER + INTRA:          -6.622
REMARK INTER:                  -6.358
REMARK INTRA:                  -0.264
REMARK UNBOUND:                -0.263
REMARK SMILES O=C([O-])C=Cc1ccc(O)cc1
REMARK SMILES IDX 6 1 7 2 12 3 8 4 11 5 9 6 5 7 4 8 2 9 1 10 3 11 10 12
REMARK H PARENT 10 13
REMARK Flexibility Score: inf
ROOT
ATOM      1  C   UNL     1     130.572 132.933 112.898  1.00  0.00    -0.025 A 
ATOM      2  C   UNL     1     130.224 133.312 111.589  1.00  0.00     0.012 A 
ATOM      3  C   UNL     1     131.688 132.107 113.099  1.00  0.00     0.012 A 
ATOM      4  C   UNL     1     130.950 132.826 110.498  1.00  0.00     0.047 A 
ATOM      5  C   UNL     1     132.413 131.622 112.007  1.00  0.00     0.047 A 
ATOM      6  C   UNL     1     132.043 131.977 110.702  1.00  0.00     0.115 A 
ENDROOT
BRANCH   1   7
ATOM      7  C   UNL     1     129.854 133.477 114.068  1.00  0.00     0.010 C 
ATOM      8  C   UNL     1     130.238 134.541 114.792  1.00  0.00     0.025 C 
BRANCH   8   9
ATOM      9  C   UNL     1     131.339 135.464 114.452  1.00  0.00     0.064 C 
ATOM     10  O   UNL     1     131.225 136.315 113.530  1.00  0.00    -0.545 OA
ATOM     11  O   UNL     1     132.501 135.440 115.211  1.00  0.00    -0.545 OA
ENDBRANCH   8   9
ENDBRANCH   1   7
BRANCH   6  12
ATOM     12  O   UNL     1     132.758 131.499 109.606  1.00  0.00    -0.508 OA
ATOM     13  H   UNL     1     133.186 132.129 108.938  1.00  0.00     0.293 HD
ENDBRANCH   6  12
TORSDOF 3
ENDMDL
MODEL 8
REMARK VINA RESULT:    -5.543      2.314      3.935
REMARK INTER + INTRA:          -6.615
REMARK INTER:                  -6.535
REMARK INTRA:                  -0.081
REMARK UNBOUND:                -0.263
REMARK SMILES O=C([O-])C=Cc1ccc(O)cc1
REMARK SMILES IDX 6 1 7 2 12 3 8 4 11 5 9 6 5 7 4 8 2 9 1 10 3 11 10 12
REMARK H PARENT 10 13
REMARK Flexibility Score: inf
ROOT
ATOM      1  C   UNL     1     127.989 133.872 109.840  1.00  0.00    -0.025 A 
ATOM      2  C   UNL     1     129.000 133.935 110.817  1.00  0.00     0.012 A 
ATOM      3  C   UNL     1     126.816 134.619 110.018  1.00  0.00     0.012 A 
ATOM      4  C   UNL     1     128.812 134.692 111.977  1.00  0.00     0.047 A 
ATOM      5  C   UNL     1     126.630 135.375 111.179  1.00  0.00     0.047 A 
ATOM      6  C   UNL     1     127.627 135.411 112.164  1.00  0.00     0.115 A 
ENDROOT
BRANCH   1   7
ATOM      7  C   UNL     1     128.187 133.123 108.582  1.00  0.00     0.010 C 
ATOM      8  C   UNL     1     128.480 133.667 107.390  1.00  0.00     0.025 C 
BRANCH   8   9
ATOM      9  C   UNL     1     128.832 135.080 107.150  1.00  0.00     0.064 C 
ATOM     10  O   UNL     1     129.719 135.663 107.828  1.00  0.00    -0.545 OA
ATOM     11  O   UNL     1     128.219 135.762 106.108  1.00  0.00    -0.545 OA
ENDBRANCH   8   9
ENDBRANCH   1   7
BRANCH   6  12
ATOM     12  O   UNL     1     127.453 136.161 113.325  1.00  0.00    -0.508 OA
ATOM     13  H   UNL     1     126.937 137.032 113.320  1.00  0.00     0.293 HD
ENDBRANCH   6  12
TORSDOF 3
ENDMDL
MODEL 9
REMARK VINA RESULT:    -5.537      2.284      5.239
REMARK INTER + INTRA:          -6.609
REMARK INTER:                  -6.315
REMARK INTRA:                  -0.294
REMARK UNBOUND:                -0.263
REMARK SMILES O=C([O-])C=Cc1ccc(O)cc1
REMARK SMILES IDX 6 1 7 2 12 3 8 4 11 5 9 6 5 7 4 8 2 9 1 10 3 11 10 12
REMARK H PARENT 10 13
REMARK Flexibility Score: inf
ROOT
ATOM      1  C   UNL     1     129.781 133.660 110.562  1.00  0.00    -0.025 A 
ATOM      2  C   UNL     1     130.240 132.336 110.444  1.00  0.00     0.012 A 
ATOM      3  C   UNL     1     130.703 134.686 110.817  1.00  0.00     0.012 A 
ATOM      4  C   UNL     1     131.594 132.040 110.631  1.00  0.00     0.047 A 
ATOM      5  C   UNL     1     132.056 134.388 111.004  1.00  0.00     0.047 A 
ATOM      6  C   UNL     1     132.504 133.063 110.915  1.00  0.00     0.115 A 
ENDROOT
BRANCH   1   7
ATOM      7  C   UNL     1     128.366 134.004 110.315  1.00  0.00     0.010 C 
ATOM      8  C   UNL     1     127.842 134.338 109.125  1.00  0.00     0.025 C 
BRANCH   8   9
ATOM      9  C   UNL     1     128.534 134.252 107.824  1.00  0.00     0.064 C 
ATOM     10  O   UNL     1     129.176 135.228 107.353  1.00  0.00    -0.545 OA
ATOM     11  O   UNL     1     128.534 133.047 107.136  1.00  0.00    -0.545 OA
ENDBRANCH   8   9
ENDBRANCH   1   7
BRANCH   6  12
ATOM     12  O   UNL     1     133.851 132.754 111.100  1.00  0.00    -0.508 OA
ATOM     13  H   UNL     1     134.139 131.959 111.658  1.00  0.00     0.293 HD
ENDBRANCH   6  12
TORSDOF 3
ENDMDL
