MODEL 1
REMARK VINA RESULT:    -7.710      0.000      0.000
REMARK INTER + INTRA:          -9.161
REMARK INTER:                  -9.288
REMARK INTRA:                   0.128
REMARK UNBOUND:                 0.128
REMARK SMILES Oc1cc(O)c2cc(O)c(-c3ccc(O)c(O)c3)[o+]c2c1.[Cl-]
REMARK SMILES IDX 10 1 19 2 20 3 21 4 2 5 3 6 4 7 6 8 7 9 8 10 11 11 12 12
REMARK SMILES IDX 13 13 14 14 18 15 16 16 15 17 17 19 9 21 1 23 5 25
REMARK H PARENT 15 18 17 20 9 22 1 24 5 26
REMARK Flexibility Score: inf
ROOT
ATOM      1  C   UNL     1      29.971  58.102  -4.928  1.00  0.00     0.402 A 
ATOM      2  O   UNL     1      29.420  57.710  -3.782  1.00  0.00    -0.202 OA
ATOM      3  C   UNL     1      29.885  58.066  -2.590  1.00  0.00     0.368 A 
ATOM      4  C   UNL     1      29.240  57.602  -1.442  1.00  0.00     0.162 A 
ATOM      5  C   UNL     1      29.708  57.957  -0.176  1.00  0.00     0.128 A 
ATOM      6  C   UNL     1      30.831  58.782  -0.055  1.00  0.00     0.093 A 
ATOM      7  C   UNL     1      31.496  59.261  -1.190  1.00  0.00     0.136 A 
ATOM      8  C   UNL     1      31.022  58.905  -2.480  1.00  0.00     0.125 A 
ATOM      9  C   UNL     1      31.616  59.348  -3.672  1.00  0.00     0.078 A 
ATOM     10  C   UNL     1      31.088  58.958  -4.906  1.00  0.00     0.223 A 
ENDROOT
BRANCH   1  11
ATOM     11  C   UNL     1      29.365  57.628  -6.194  1.00  0.00     0.087 A 
ATOM     12  C   UNL     1      28.943  56.294  -6.301  1.00  0.00     0.022 A 
ATOM     13  C   UNL     1      28.386  55.821  -7.490  1.00  0.00     0.051 A 
ATOM     14  C   UNL     1      28.258  56.665  -8.597  1.00  0.00     0.157 A 
ATOM     15  C   UNL     1      29.254  58.472  -7.314  1.00  0.00     0.068 A 
ATOM     16  C   UNL     1      28.698  57.997  -8.511  1.00  0.00     0.158 A 
BRANCH  14  17
ATOM     17  O   UNL     1      27.696  56.165  -9.772  1.00  0.00    -0.504 OA
ATOM     18  H   UNL     1      27.584  55.172  -9.933  1.00  0.00     0.293 HD
ENDBRANCH  14  17
BRANCH  16  19
ATOM     19  O   UNL     1      28.585  58.841  -9.615  1.00  0.00    -0.504 OA
ATOM     20  H   UNL     1      27.928  58.650 -10.364  1.00  0.00     0.293 HD
ENDBRANCH  16  19
ENDBRANCH   1  11
BRANCH  10  21
ATOM     21  O   UNL     1      31.648  59.438  -6.090  1.00  0.00    -0.500 OA
ATOM     22  H   UNL     1      31.307  59.144  -6.999  1.00  0.00     0.294 HD
ENDBRANCH  10  21
BRANCH   5  23
ATOM     23  O   UNL     1      29.050  57.484   0.957  1.00  0.00    -0.507 OA
ATOM     24  H   UNL     1      29.036  58.013   1.821  1.00  0.00     0.293 HD
ENDBRANCH   5  23
BRANCH   7  25
ATOM     25  O   UNL     1      32.613  60.078  -0.987  1.00  0.00    -0.507 OA
ATOM     26  H   UNL     1      33.547  59.735  -0.813  1.00  0.00     0.293 HD
ENDBRANCH   7  25
TORSDOF 6
ENDMDL
MODEL 2
REMARK VINA RESULT:    -7.674      2.059      7.397
REMARK INTER + INTRA:          -9.116
REMARK INTER:                  -8.781
REMARK INTRA:                  -0.335
REMARK UNBOUND:                 0.128
REMARK SMILES Oc1cc(O)c2cc(O)c(-c3ccc(O)c(O)c3)[o+]c2c1.[Cl-]
REMARK SMILES IDX 10 1 19 2 20 3 21 4 2 5 3 6 4 7 6 8 7 9 8 10 11 11 12 12
REMARK SMILES IDX 13 13 14 14 18 15 16 16 15 17 17 19 9 21 1 23 5 25
REMARK H PARENT 15 18 17 20 9 22 1 24 5 26
REMARK Flexibility Score: inf
ROOT
ATOM      1  C   UNL     1      30.464  58.589  -1.086  1.00  0.00     0.402 A 
ATOM      2  O   UNL     1      29.833  57.730  -1.882  1.00  0.00    -0.202 OA
ATOM      3  C   UNL     1      29.959  57.732  -3.205  1.00  0.00     0.368 A 
ATOM      4  C   UNL     1      29.253  56.791  -3.957  1.00  0.00     0.162 A 
ATOM      5  C   UNL     1      29.363  56.772  -5.348  1.00  0.00     0.128 A 
ATOM      6  C   UNL     1      30.186  57.702  -5.994  1.00  0.00     0.093 A 
ATOM      7  C   UNL     1      30.904  58.655  -5.263  1.00  0.00     0.136 A 
ATOM      8  C   UNL     1      30.797  58.676  -3.848  1.00  0.00     0.125 A 
ATOM      9  C   UNL     1      31.489  59.586  -3.033  1.00  0.00     0.078 A 
ATOM     10  C   UNL     1      31.336  59.542  -1.644  1.00  0.00     0.223 A 
ENDROOT
BRANCH   1  11
ATOM     11  C   UNL     1      30.233  58.491   0.373  1.00  0.00     0.087 A 
ATOM     12  C   UNL     1      31.118  57.742   1.164  1.00  0.00     0.022 A 
ATOM     13  C   UNL     1      30.909  57.620   2.539  1.00  0.00     0.051 A 
ATOM     14  C   UNL     1      29.805  58.230   3.144  1.00  0.00     0.157 A 
ATOM     15  C   UNL     1      29.113  59.088   0.979  1.00  0.00     0.068 A 
ATOM     16  C   UNL     1      28.899  58.965   2.360  1.00  0.00     0.158 A 
BRANCH  14  17
ATOM     17  O   UNL     1      29.624  58.094   4.520  1.00  0.00    -0.504 OA
ATOM     18  H   UNL     1      28.718  58.207   4.957  1.00  0.00     0.293 HD
ENDBRANCH  14  17
BRANCH  16  19
ATOM     19  O   UNL     1      27.791  59.564   2.955  1.00  0.00    -0.504 OA
ATOM     20  H   UNL     1      27.793  59.833   3.933  1.00  0.00     0.293 HD
ENDBRANCH  16  19
ENDBRANCH   1  11
BRANCH  10  21
ATOM     21  O   UNL     1      32.062  60.413  -0.832  1.00  0.00    -0.500 OA
ATOM     22  H   UNL     1      31.663  60.817   0.007  1.00  0.00     0.294 HD
ENDBRANCH  10  21
BRANCH   5  23
ATOM     23  O   UNL     1      28.651  55.825  -6.080  1.00  0.00    -0.507 OA
ATOM     24  H   UNL     1      29.009  54.889  -6.225  1.00  0.00     0.293 HD
ENDBRANCH   5  23
BRANCH   7  25
ATOM     25  O   UNL     1      31.701  59.552  -5.982  1.00  0.00    -0.507 OA
ATOM     26  H   UNL     1      31.374  60.427  -6.364  1.00  0.00     0.293 HD
ENDBRANCH   7  25
TORSDOF 6
ENDMDL
MODEL 3
REMARK VINA RESULT:    -7.619      2.311      7.691
REMARK INTER + INTRA:          -9.051
REMARK INTER:                  -8.702
REMARK INTRA:                  -0.349
REMARK UNBOUND:                 0.128
REMARK SMILES Oc1cc(O)c2cc(O)c(-c3ccc(O)c(O)c3)[o+]c2c1.[Cl-]
REMARK SMILES IDX 10 1 19 2 20 3 21 4 2 5 3 6 4 7 6 8 7 9 8 10 11 11 12 12
REMARK SMILES IDX 13 13 14 14 18 15 16 16 15 17 17 19 9 21 1 23 5 25
REMARK H PARENT 15 18 17 20 9 22 1 24 5 26
REMARK Flexibility Score: inf
ROOT
ATOM      1  C   UNL     1      28.972  57.432  -1.195  1.00  0.00     0.402 A 
ATOM      2  O   UNL     1      29.801  58.161  -1.937  1.00  0.00    -0.202 OA
ATOM      3  C   UNL     1      29.924  58.012  -3.252  1.00  0.00     0.368 A 
ATOM      4  C   UNL     1      30.824  58.823  -3.946  1.00  0.00     0.162 A 
ATOM      5  C   UNL     1      30.977  58.688  -5.327  1.00  0.00     0.128 A 
ATOM      6  C   UNL     1      30.225  57.733  -6.020  1.00  0.00     0.093 A 
ATOM      7  C   UNL     1      29.316  56.908  -5.348  1.00  0.00     0.136 A 
ATOM      8  C   UNL     1      29.156  57.044  -3.944  1.00  0.00     0.125 A 
ATOM      9  C   UNL     1      28.259  56.270  -3.189  1.00  0.00     0.078 A 
ATOM     10  C   UNL     1      28.153  56.467  -1.809  1.00  0.00     0.223 A 
ENDROOT
BRANCH   1  11
ATOM     11  C   UNL     1      28.933  57.686   0.264  1.00  0.00     0.087 A 
ATOM     12  C   UNL     1      29.747  56.927   1.119  1.00  0.00     0.022 A 
ATOM     13  C   UNL     1      29.713  57.136   2.499  1.00  0.00     0.051 A 
ATOM     14  C   UNL     1      28.855  58.093   3.049  1.00  0.00     0.157 A 
ATOM     15  C   UNL     1      28.056  58.634   0.820  1.00  0.00     0.068 A 
ATOM     16  C   UNL     1      28.018  58.844   2.207  1.00  0.00     0.158 A 
BRANCH  14  17
ATOM     17  O   UNL     1      28.845  58.281   4.431  1.00  0.00    -0.504 OA
ATOM     18  H   UNL     1      27.984  58.379   4.954  1.00  0.00     0.293 HD
ENDBRANCH  14  17
BRANCH  16  19
ATOM     19  O   UNL     1      27.151  59.790   2.750  1.00  0.00    -0.504 OA
ATOM     20  H   UNL     1      26.955  60.665   2.276  1.00  0.00     0.293 HD
ENDBRANCH  16  19
ENDBRANCH   1  11
BRANCH  10  21
ATOM     21  O   UNL     1      27.228  55.733  -1.067  1.00  0.00    -0.500 OA
ATOM     22  H   UNL     1      26.446  55.260  -1.507  1.00  0.00     0.294 HD
ENDBRANCH  10  21
BRANCH   5  23
ATOM     23  O   UNL     1      31.880  59.506  -6.001  1.00  0.00    -0.507 OA
ATOM     24  H   UNL     1      32.782  59.162  -6.307  1.00  0.00     0.293 HD
ENDBRANCH   5  23
BRANCH   7  25
ATOM     25  O   UNL     1      28.605  55.976  -6.110  1.00  0.00    -0.507 OA
ATOM     26  H   UNL     1      27.782  56.193  -6.654  1.00  0.00     0.293 HD
ENDBRANCH   7  25
TORSDOF 6
ENDMDL
MODEL 4
REMARK VINA RESULT:    -7.436     15.696     16.482
REMARK INTER + INTRA:          -8.829
REMARK INTER:                  -8.803
REMARK INTRA:                  -0.027
REMARK UNBOUND:                 0.128
REMARK SMILES Oc1cc(O)c2cc(O)c(-c3ccc(O)c(O)c3)[o+]c2c1.[Cl-]
REMARK SMILES IDX 10 1 19 2 20 3 21 4 2 5 3 6 4 7 6 8 7 9 8 10 11 11 12 12
REMARK SMILES IDX 13 13 14 14 18 15 16 16 15 17 17 19 9 21 1 23 5 25
REMARK H PARENT 15 18 17 20 9 22 1 24 5 26
REMARK Flexibility Score: inf
ROOT
ATOM      1  C   UNL     1      39.870  63.989   6.540  1.00  0.00     0.402 A 
ATOM      2  O   UNL     1      39.321  62.871   7.009  1.00  0.00    -0.202 OA
ATOM      3  C   UNL     1      40.011  61.758   7.234  1.00  0.00     0.368 A 
ATOM      4  C   UNL     1      39.345  60.633   7.724  1.00  0.00     0.162 A 
ATOM      5  C   UNL     1      40.043  59.449   7.967  1.00  0.00     0.128 A 
ATOM      6  C   UNL     1      41.418  59.388   7.716  1.00  0.00     0.093 A 
ATOM      7  C   UNL     1      42.109  60.501   7.224  1.00  0.00     0.136 A 
ATOM      8  C   UNL     1      41.403  61.708   6.979  1.00  0.00     0.125 A 
ATOM      9  C   UNL     1      42.015  62.877   6.499  1.00  0.00     0.078 A 
ATOM     10  C   UNL     1      41.253  64.031   6.286  1.00  0.00     0.223 A 
ENDROOT
BRANCH   1  11
ATOM     11  C   UNL     1      38.993  65.161   6.321  1.00  0.00     0.087 A 
ATOM     12  C   UNL     1      38.044  65.506   7.297  1.00  0.00     0.022 A 
ATOM     13  C   UNL     1      37.194  66.597   7.104  1.00  0.00     0.051 A 
ATOM     14  C   UNL     1      37.264  67.349   5.928  1.00  0.00     0.157 A 
ATOM     15  C   UNL     1      39.049  65.907   5.130  1.00  0.00     0.068 A 
ATOM     16  C   UNL     1      38.194  67.001   4.933  1.00  0.00     0.158 A 
BRANCH  14  17
ATOM     17  O   UNL     1      36.403  68.434   5.764  1.00  0.00    -0.504 OA
ATOM     18  H   UNL     1      36.742  69.388   5.724  1.00  0.00     0.293 HD
ENDBRANCH  14  17
BRANCH  16  19
ATOM     19  O   UNL     1      38.260  67.739   3.752  1.00  0.00    -0.504 OA
ATOM     20  H   UNL     1      38.664  68.669   3.729  1.00  0.00     0.293 HD
ENDBRANCH  16  19
ENDBRANCH   1  11
BRANCH  10  21
ATOM     21  O   UNL     1      41.869  65.206   5.857  1.00  0.00    -0.500 OA
ATOM     22  H   UNL     1      41.341  66.055   5.689  1.00  0.00     0.294 HD
ENDBRANCH  10  21
BRANCH   5  23
ATOM     23  O   UNL     1      39.361  58.338   8.457  1.00  0.00    -0.507 OA
ATOM     24  H   UNL     1      39.133  57.550   7.862  1.00  0.00     0.293 HD
ENDBRANCH   5  23
BRANCH   7  25
ATOM     25  O   UNL     1      43.481  60.359   6.996  1.00  0.00    -0.507 OA
ATOM     26  H   UNL     1      43.990  60.832   6.263  1.00  0.00     0.293 HD
ENDBRANCH   7  25
TORSDOF 6
ENDMDL
MODEL 5
REMARK VINA RESULT:    -7.204     14.060     16.398
REMARK INTER + INTRA:          -8.551
REMARK INTER:                  -8.217
REMARK INTRA:                  -0.334
REMARK UNBOUND:                 0.128
REMARK SMILES Oc1cc(O)c2cc(O)c(-c3ccc(O)c(O)c3)[o+]c2c1.[Cl-]
REMARK SMILES IDX 10 1 19 2 20 3 21 4 2 5 3 6 4 7 6 8 7 9 8 10 11 11 12 12
REMARK SMILES IDX 13 13 14 14 18 15 16 16 15 17 17 19 9 21 1 23 5 25
REMARK H PARENT 15 18 17 20 9 22 1 24 5 26
REMARK Flexibility Score: inf
ROOT
ATOM      1  C   UNL     1      39.999  60.083   6.476  1.00  0.00     0.402 A 
ATOM      2  O   UNL     1      41.161  59.444   6.372  1.00  0.00    -0.202 OA
ATOM      3  C   UNL     1      41.263  58.171   6.004  1.00  0.00     0.368 A 
ATOM      4  C   UNL     1      42.528  57.585   5.927  1.00  0.00     0.162 A 
ATOM      5  C   UNL     1      42.666  56.249   5.546  1.00  0.00     0.128 A 
ATOM      6  C   UNL     1      41.530  55.491   5.242  1.00  0.00     0.093 A 
ATOM      7  C   UNL     1      40.251  56.055   5.312  1.00  0.00     0.136 A 
ATOM      8  C   UNL     1      40.106  57.414   5.696  1.00  0.00     0.125 A 
ATOM      9  C   UNL     1      38.866  58.066   5.781  1.00  0.00     0.078 A 
ATOM     10  C   UNL     1      38.804  59.410   6.162  1.00  0.00     0.223 A 
ENDROOT
BRANCH   1  11
ATOM     11  C   UNL     1      40.015  61.500   6.906  1.00  0.00     0.087 A 
ATOM     12  C   UNL     1      39.738  61.819   8.245  1.00  0.00     0.022 A 
ATOM     13  C   UNL     1      39.730  63.149   8.669  1.00  0.00     0.051 A 
ATOM     14  C   UNL     1      39.982  64.182   7.761  1.00  0.00     0.157 A 
ATOM     15  C   UNL     1      40.249  62.541   5.990  1.00  0.00     0.068 A 
ATOM     16  C   UNL     1      40.239  63.879   6.413  1.00  0.00     0.158 A 
BRANCH  14  17
ATOM     17  O   UNL     1      39.969  65.502   8.215  1.00  0.00    -0.504 OA
ATOM     18  H   UNL     1      40.579  66.210   7.825  1.00  0.00     0.293 HD
ENDBRANCH  14  17
BRANCH  16  19
ATOM     19  O   UNL     1      40.477  64.905   5.501  1.00  0.00    -0.504 OA
ATOM     20  H   UNL     1      39.716  65.398   5.047  1.00  0.00     0.293 HD
ENDBRANCH  16  19
ENDBRANCH   1  11
BRANCH  10  21
ATOM     21  O   UNL     1      37.576  60.071   6.198  1.00  0.00    -0.500 OA
ATOM     22  H   UNL     1      36.712  59.580   6.399  1.00  0.00     0.294 HD
ENDBRANCH  10  21
BRANCH   5  23
ATOM     23  O   UNL     1      43.937  55.684   5.474  1.00  0.00    -0.507 OA
ATOM     24  H   UNL     1      44.660  56.079   4.884  1.00  0.00     0.293 HD
ENDBRANCH   5  23
BRANCH   7  25
ATOM     25  O   UNL     1      39.166  55.231   4.997  1.00  0.00    -0.507 OA
ATOM     26  H   UNL     1      38.277  55.565   4.653  1.00  0.00     0.293 HD
ENDBRANCH   7  25
TORSDOF 6
ENDMDL
MODEL 6
REMARK VINA RESULT:    -7.159      2.572      7.549
REMARK INTER + INTRA:          -8.496
REMARK INTER:                  -8.148
REMARK INTRA:                  -0.348
REMARK UNBOUND:                 0.128
REMARK SMILES Oc1cc(O)c2cc(O)c(-c3ccc(O)c(O)c3)[o+]c2c1.[Cl-]
REMARK SMILES IDX 10 1 19 2 20 3 21 4 2 5 3 6 4 7 6 8 7 9 8 10 11 11 12 12
REMARK SMILES IDX 13 13 14 14 18 15 16 16 15 17 17 19 9 21 1 23 5 25
REMARK H PARENT 15 18 17 20 9 22 1 24 5 26
REMARK Flexibility Score: inf
ROOT
ATOM      1  C   UNL     1      28.785  57.729  -0.657  1.00  0.00     0.402 A 
ATOM      2  O   UNL     1      28.471  57.004  -1.728  1.00  0.00    -0.202 OA
ATOM      3  C   UNL     1      29.011  57.201  -2.926  1.00  0.00     0.368 A 
ATOM      4  C   UNL     1      28.616  56.389  -3.991  1.00  0.00     0.162 A 
ATOM      5  C   UNL     1      29.163  56.575  -5.262  1.00  0.00     0.128 A 
ATOM      6  C   UNL     1      30.113  57.581  -5.470  1.00  0.00     0.093 A 
ATOM      7  C   UNL     1      30.526  58.408  -4.419  1.00  0.00     0.136 A 
ATOM      8  C   UNL     1      29.974  58.221  -3.125  1.00  0.00     0.125 A 
ATOM      9  C   UNL     1      30.337  58.993  -2.010  1.00  0.00     0.078 A 
ATOM     10  C   UNL     1      29.752  58.745  -0.764  1.00  0.00     0.223 A 
ENDROOT
BRANCH   1  11
ATOM     11  C   UNL     1      28.106  57.419   0.622  1.00  0.00     0.087 A 
ATOM     12  C   UNL     1      26.919  58.091   0.954  1.00  0.00     0.022 A 
ATOM     13  C   UNL     1      26.271  57.828   2.163  1.00  0.00     0.051 A 
ATOM     14  C   UNL     1      26.806  56.904   3.066  1.00  0.00     0.157 A 
ATOM     15  C   UNL     1      28.653  56.504   1.539  1.00  0.00     0.068 A 
ATOM     16  C   UNL     1      28.005  56.240   2.755  1.00  0.00     0.158 A 
BRANCH  14  17
ATOM     17  O   UNL     1      26.135  56.660   4.265  1.00  0.00    -0.504 OA
ATOM     18  H   UNL     1      26.155  55.755   4.717  1.00  0.00     0.293 HD
ENDBRANCH  14  17
BRANCH  16  19
ATOM     19  O   UNL     1      28.551  55.328   3.657  1.00  0.00    -0.504 OA
ATOM     20  H   UNL     1      29.391  55.540   4.183  1.00  0.00     0.293 HD
ENDBRANCH  16  19
ENDBRANCH   1  11
BRANCH  10  21
ATOM     21  O   UNL     1      30.150  59.479   0.353  1.00  0.00    -0.500 OA
ATOM     22  H   UNL     1      30.981  59.238   0.881  1.00  0.00     0.294 HD
ENDBRANCH  10  21
BRANCH   5  23
ATOM     23  O   UNL     1      28.756  55.754  -6.311  1.00  0.00    -0.507 OA
ATOM     24  H   UNL     1      29.381  55.071  -6.722  1.00  0.00     0.293 HD
ENDBRANCH   5  23
BRANCH   7  25
ATOM     25  O   UNL     1      31.476  59.392  -4.709  1.00  0.00    -0.507 OA
ATOM     26  H   UNL     1      32.101  59.800  -4.028  1.00  0.00     0.293 HD
ENDBRANCH   7  25
TORSDOF 6
ENDMDL
MODEL 7
REMARK VINA RESULT:    -7.048     14.779     17.380
REMARK INTER + INTRA:          -8.363
REMARK INTER:                  -8.079
REMARK INTRA:                  -0.284
REMARK UNBOUND:                 0.128
REMARK SMILES Oc1cc(O)c2cc(O)c(-c3ccc(O)c(O)c3)[o+]c2c1.[Cl-]
REMARK SMILES IDX 10 1 19 2 20 3 21 4 2 5 3 6 4 7 6 8 7 9 8 10 11 11 12 12
REMARK SMILES IDX 13 13 14 14 18 15 16 16 15 17 17 19 9 21 1 23 5 25
REMARK H PARENT 15 18 17 20 9 22 1 24 5 26
REMARK Flexibility Score: inf
ROOT
ATOM      1  C   UNL     1      41.094  62.464   6.809  1.00  0.00     0.402 A 
ATOM      2  O   UNL     1      42.141  62.371   5.993  1.00  0.00    -0.202 OA
ATOM      3  C   UNL     1      42.815  63.427   5.548  1.00  0.00     0.368 A 
ATOM      4  C   UNL     1      43.901  63.229   4.693  1.00  0.00     0.162 A 
ATOM      5  C   UNL     1      44.625  64.318   4.207  1.00  0.00     0.128 A 
ATOM      6  C   UNL     1      44.261  65.617   4.578  1.00  0.00     0.093 A 
ATOM      7  C   UNL     1      43.177  65.843   5.435  1.00  0.00     0.136 A 
ATOM      8  C   UNL     1      42.439  64.737   5.933  1.00  0.00     0.125 A 
ATOM      9  C   UNL     1      41.347  64.866   6.806  1.00  0.00     0.078 A 
ATOM     10  C   UNL     1      40.673  63.728   7.259  1.00  0.00     0.223 A 
ENDROOT
BRANCH   1  11
ATOM     11  C   UNL     1      40.420  61.213   7.227  1.00  0.00     0.087 A 
ATOM     12  C   UNL     1      41.091  60.316   8.073  1.00  0.00     0.022 A 
ATOM     13  C   UNL     1      40.482  59.123   8.465  1.00  0.00     0.051 A 
ATOM     14  C   UNL     1      39.202  58.797   8.006  1.00  0.00     0.157 A 
ATOM     15  C   UNL     1      39.140  60.876   6.750  1.00  0.00     0.068 A 
ATOM     16  C   UNL     1      38.528  59.676   7.141  1.00  0.00     0.158 A 
BRANCH  14  17
ATOM     17  O   UNL     1      38.618  57.598   8.417  1.00  0.00    -0.504 OA
ATOM     18  H   UNL     1      39.019  56.698   8.184  1.00  0.00     0.293 HD
ENDBRANCH  14  17
BRANCH  16  19
ATOM     19  O   UNL     1      37.257  59.351   6.669  1.00  0.00    -0.504 OA
ATOM     20  H   UNL     1      37.076  58.473   6.195  1.00  0.00     0.293 HD
ENDBRANCH  16  19
ENDBRANCH   1  11
BRANCH  10  21
ATOM     21  O   UNL     1      39.620  63.854   8.165  1.00  0.00    -0.500 OA
ATOM     22  H   UNL     1      38.666  63.623   7.910  1.00  0.00     0.294 HD
ENDBRANCH  10  21
BRANCH   5  23
ATOM     23  O   UNL     1      45.705  64.100   3.355  1.00  0.00    -0.507 OA
ATOM     24  H   UNL     1      46.045  63.166   3.159  1.00  0.00     0.293 HD
ENDBRANCH   5  23
BRANCH   7  25
ATOM     25  O   UNL     1      42.874  67.169   5.756  1.00  0.00    -0.507 OA
ATOM     26  H   UNL     1      42.028  67.465   6.221  1.00  0.00     0.293 HD
ENDBRANCH   7  25
TORSDOF 6
ENDMDL
MODEL 8
REMARK VINA RESULT:    -7.021      5.417      7.614
REMARK INTER + INTRA:          -8.331
REMARK INTER:                  -7.987
REMARK INTRA:                  -0.343
REMARK UNBOUND:                 0.128
REMARK SMILES Oc1cc(O)c2cc(O)c(-c3ccc(O)c(O)c3)[o+]c2c1.[Cl-]
REMARK SMILES IDX 10 1 19 2 20 3 21 4 2 5 3 6 4 7 6 8 7 9 8 10 11 11 12 12
REMARK SMILES IDX 13 13 14 14 18 15 16 16 15 17 17 19 9 21 1 23 5 25
REMARK H PARENT 15 18 17 20 9 22 1 24 5 26
REMARK Flexibility Score: inf
ROOT
ATOM      1  C   UNL     1      29.952  57.294   1.440  1.00  0.00     0.402 A 
ATOM      2  O   UNL     1      30.225  57.390   2.738  1.00  0.00    -0.202 OA
ATOM      3  C   UNL     1      29.503  56.797   3.681  1.00  0.00     0.368 A 
ATOM      4  C   UNL     1      29.867  56.958   5.020  1.00  0.00     0.162 A 
ATOM      5  C   UNL     1      29.124  56.349   6.033  1.00  0.00     0.128 A 
ATOM      6  C   UNL     1      28.007  55.572   5.706  1.00  0.00     0.093 A 
ATOM      7  C   UNL     1      27.621  55.395   4.372  1.00  0.00     0.136 A 
ATOM      8  C   UNL     1      28.375  56.010   3.339  1.00  0.00     0.125 A 
ATOM      9  C   UNL     1      28.070  55.877   1.975  1.00  0.00     0.078 A 
ATOM     10  C   UNL     1      28.864  56.510   1.014  1.00  0.00     0.223 A 
ENDROOT
BRANCH   1  11
ATOM     11  C   UNL     1      30.828  58.012   0.485  1.00  0.00     0.087 A 
ATOM     12  C   UNL     1      32.075  57.464   0.145  1.00  0.00     0.022 A 
ATOM     13  C   UNL     1      32.924  58.133  -0.738  1.00  0.00     0.051 A 
ATOM     14  C   UNL     1      32.552  59.365  -1.283  1.00  0.00     0.157 A 
ATOM     15  C   UNL     1      30.462  59.261  -0.048  1.00  0.00     0.068 A 
ATOM     16  C   UNL     1      31.316  59.936  -0.934  1.00  0.00     0.158 A 
BRANCH  14  17
ATOM     17  O   UNL     1      33.421  60.008  -2.165  1.00  0.00    -0.504 OA
ATOM     18  H   UNL     1      33.679  60.981  -2.051  1.00  0.00     0.293 HD
ENDBRANCH  14  17
BRANCH  16  19
ATOM     19  O   UNL     1      30.944  61.170  -1.463  1.00  0.00    -0.504 OA
ATOM     20  H   UNL     1      31.524  61.654  -2.140  1.00  0.00     0.293 HD
ENDBRANCH  16  19
ENDBRANCH   1  11
BRANCH  10  21
ATOM     21  O   UNL     1      28.591  56.337  -0.343  1.00  0.00    -0.500 OA
ATOM     22  H   UNL     1      27.660  56.115  -0.675  1.00  0.00     0.294 HD
ENDBRANCH  10  21
BRANCH   5  23
ATOM     23  O   UNL     1      29.505  56.522   7.361  1.00  0.00    -0.507 OA
ATOM     24  H   UNL     1      29.645  55.731   7.979  1.00  0.00     0.293 HD
ENDBRANCH   5  23
BRANCH   7  25
ATOM     25  O   UNL     1      26.492  54.608   4.128  1.00  0.00    -0.507 OA
ATOM     26  H   UNL     1      25.544  54.956   4.120  1.00  0.00     0.293 HD
ENDBRANCH   7  25
TORSDOF 6
ENDMDL
MODEL 9
REMARK VINA RESULT:    -6.902     13.370     16.418
REMARK INTER + INTRA:          -8.186
REMARK INTER:                  -7.836
REMARK INTRA:                  -0.351
REMARK UNBOUND:                 0.128
REMARK SMILES Oc1cc(O)c2cc(O)c(-c3ccc(O)c(O)c3)[o+]c2c1.[Cl-]
REMARK SMILES IDX 10 1 19 2 20 3 21 4 2 5 3 6 4 7 6 8 7 9 8 10 11 11 12 12
REMARK SMILES IDX 13 13 14 14 18 15 16 16 15 17 17 19 9 21 1 23 5 25
REMARK H PARENT 15 18 17 20 9 22 1 24 5 26
REMARK Flexibility Score: inf
ROOT
ATOM      1  C   UNL     1      40.792  60.093   6.677  1.00  0.00     0.402 A 
ATOM      2  O   UNL     1      39.774  59.394   6.182  1.00  0.00    -0.202 OA
ATOM      3  C   UNL     1      39.879  58.128   5.795  1.00  0.00     0.368 A 
ATOM      4  C   UNL     1      38.753  57.477   5.286  1.00  0.00     0.162 A 
ATOM      5  C   UNL     1      38.833  56.148   4.868  1.00  0.00     0.128 A 
ATOM      6  C   UNL     1      40.050  55.462   4.958  1.00  0.00     0.093 A 
ATOM      7  C   UNL     1      41.193  56.092   5.465  1.00  0.00     0.136 A 
ATOM      8  C   UNL     1      41.115  57.443   5.893  1.00  0.00     0.125 A 
ATOM      9  C   UNL     1      42.205  58.149   6.426  1.00  0.00     0.078 A 
ATOM     10  C   UNL     1      42.048  59.478   6.832  1.00  0.00     0.223 A 
ENDROOT
BRANCH   1  11
ATOM     11  C   UNL     1      40.552  61.502   7.064  1.00  0.00     0.087 A 
ATOM     12  C   UNL     1      40.117  61.796   8.366  1.00  0.00     0.022 A 
ATOM     13  C   UNL     1      39.866  63.116   8.747  1.00  0.00     0.051 A 
ATOM     14  C   UNL     1      40.028  64.160   7.832  1.00  0.00     0.157 A 
ATOM     15  C   UNL     1      40.695  62.552   6.138  1.00  0.00     0.068 A 
ATOM     16  C   UNL     1      40.441  63.878   6.519  1.00  0.00     0.158 A 
BRANCH  14  17
ATOM     17  O   UNL     1      39.772  65.469   8.243  1.00  0.00    -0.504 OA
ATOM     18  H   UNL     1      39.174  65.676   9.033  1.00  0.00     0.293 HD
ENDBRANCH  14  17
BRANCH  16  19
ATOM     19  O   UNL     1      40.591  64.913   5.598  1.00  0.00    -0.504 OA
ATOM     20  H   UNL     1      40.027  65.754   5.648  1.00  0.00     0.293 HD
ENDBRANCH  16  19
ENDBRANCH   1  11
BRANCH  10  21
ATOM     21  O   UNL     1      43.118  60.164   7.407  1.00  0.00    -0.500 OA
ATOM     22  H   UNL     1      43.688  60.808   6.871  1.00  0.00     0.294 HD
ENDBRANCH  10  21
BRANCH   5  23
ATOM     23  O   UNL     1      37.699  55.517   4.364  1.00  0.00    -0.507 OA
ATOM     24  H   UNL     1      37.665  54.512   4.234  1.00  0.00     0.293 HD
ENDBRANCH   5  23
BRANCH   7  25
ATOM     25  O   UNL     1      42.372  55.341   5.519  1.00  0.00    -0.507 OA
ATOM     26  H   UNL     1      43.292  55.732   5.659  1.00  0.00     0.293 HD
ENDBRANCH   7  25
TORSDOF 6
ENDMDL
