MODEL 1
REMARK VINA RESULT:    -5.861      0.000      0.000
REMARK INTER + INTRA:          -7.074
REMARK INTER:                  -6.889
REMARK INTRA:                  -0.185
REMARK UNBOUND:                -0.185
REMARK SMILES O=C([O-])C=Cc1ccc(O)c(O)c1
REMARK SMILES IDX 6 1 13 2 7 3 11 4 8 5 9 6 5 7 4 8 2 9 1 10 3 11 12 12 10 14
REMARK H PARENT 12 13 10 15
REMARK Flexibility Score: inf
ROOT
ATOM      1  C   UNL     1      10.732   9.498  14.073  1.00  0.00    -0.022 A 
ATOM      2  C   UNL     1       9.919   9.098  13.003  1.00  0.00     0.058 A 
ATOM      3  C   UNL     1      10.142   9.786  15.315  1.00  0.00     0.012 A 
ATOM      4  C   UNL     1       8.528   9.037  13.149  1.00  0.00     0.157 A 
ATOM      5  C   UNL     1       8.754   9.727  15.465  1.00  0.00     0.051 A 
ATOM      6  C   UNL     1       7.941   9.357  14.385  1.00  0.00     0.157 A 
ENDROOT
BRANCH   1   7
ATOM      7  C   UNL     1      12.200   9.502  13.904  1.00  0.00     0.010 C 
ATOM      8  C   UNL     1      12.988  10.586  13.985  1.00  0.00     0.025 C 
BRANCH   8   9
ATOM      9  C   UNL     1      12.518  11.981  14.065  1.00  0.00     0.064 C 
ATOM     10  O   UNL     1      12.281  12.613  13.003  1.00  0.00    -0.545 OA
ATOM     11  O   UNL     1      12.262  12.592  15.287  1.00  0.00    -0.545 OA
ENDBRANCH   8   9
ENDBRANCH   1   7
BRANCH   4  12
ATOM     12  O   UNL     1       7.749   8.654  12.058  1.00  0.00    -0.504 OA
ATOM     13  H   UNL     1       7.128   7.855  12.095  1.00  0.00     0.293 HD
ENDBRANCH   4  12
BRANCH   6  14
ATOM     14  O   UNL     1       6.557   9.301  14.538  1.00  0.00    -0.504 OA
ATOM     15  H   UNL     1       5.929   9.461  13.758  1.00  0.00     0.293 HD
ENDBRANCH   6  14
TORSDOF 4
ENDMDL
MODEL 2
REMARK VINA RESULT:    -5.648      1.502      2.491
REMARK INTER + INTRA:          -6.824
REMARK INTER:                  -6.552
REMARK INTRA:                  -0.272
REMARK UNBOUND:                -0.185
REMARK SMILES O=C([O-])C=Cc1ccc(O)c(O)c1
REMARK SMILES IDX 6 1 13 2 7 3 11 4 8 5 9 6 5 7 4 8 2 9 1 10 3 11 12 12 10 14
REMARK H PARENT 12 13 10 15
REMARK Flexibility Score: inf
ROOT
ATOM      1  C   UNL     1      11.062   9.711  13.709  1.00  0.00    -0.022 A 
ATOM      2  C   UNL     1      10.602  10.475  14.791  1.00  0.00     0.058 A 
ATOM      3  C   UNL     1      10.138   8.994  12.931  1.00  0.00     0.012 A 
ATOM      4  C   UNL     1       9.244  10.485  15.129  1.00  0.00     0.157 A 
ATOM      5  C   UNL     1       8.782   9.000  13.265  1.00  0.00     0.051 A 
ATOM      6  C   UNL     1       8.328   9.740  14.366  1.00  0.00     0.157 A 
ENDROOT
BRANCH   1   7
ATOM      7  C   UNL     1      12.493   9.762  13.344  1.00  0.00     0.010 C 
ATOM      8  C   UNL     1      13.074  10.725  12.613  1.00  0.00     0.025 C 
BRANCH   8   9
ATOM      9  C   UNL     1      12.365  11.796  11.889  1.00  0.00     0.064 C 
ATOM     10  O   UNL     1      12.235  12.924  12.430  1.00  0.00    -0.545 OA
ATOM     11  O   UNL     1      11.899  11.609  10.592  1.00  0.00    -0.545 OA
ENDBRANCH   8   9
ENDBRANCH   1   7
BRANCH   4  12
ATOM     12  O   UNL     1       8.824  11.241  16.222  1.00  0.00    -0.504 OA
ATOM     13  H   UNL     1       7.996  11.824  16.187  1.00  0.00     0.293 HD
ENDBRANCH   4  12
BRANCH   6  14
ATOM     14  O   UNL     1       6.975   9.743  14.699  1.00  0.00    -0.504 OA
ATOM     15  H   UNL     1       6.355  10.485  14.396  1.00  0.00     0.293 HD
ENDBRANCH   6  14
TORSDOF 4
ENDMDL
MODEL 3
REMARK VINA RESULT:    -5.617      2.181      2.835
REMARK INTER + INTRA:          -6.788
REMARK INTER:                  -6.502
REMARK INTRA:                  -0.286
REMARK UNBOUND:                -0.185
REMARK SMILES O=C([O-])C=Cc1ccc(O)c(O)c1
REMARK SMILES IDX 6 1 13 2 7 3 11 4 8 5 9 6 5 7 4 8 2 9 1 10 3 11 12 12 10 14
REMARK H PARENT 12 13 10 15
REMARK Flexibility Score: inf
ROOT
ATOM      1  C   UNL     1      11.284  10.603  13.294  1.00  0.00    -0.022 A 
ATOM      2  C   UNL     1      10.733  11.182  14.445  1.00  0.00     0.058 A 
ATOM      3  C   UNL     1      10.647   9.497  12.707  1.00  0.00     0.012 A 
ATOM      4  C   UNL     1       9.589  10.635  15.039  1.00  0.00     0.157 A 
ATOM      5  C   UNL     1       9.506   8.948  13.296  1.00  0.00     0.051 A 
ATOM      6  C   UNL     1       8.973   9.510  14.465  1.00  0.00     0.157 A 
ENDROOT
BRANCH   1   7
ATOM      7  C   UNL     1      12.461  11.232  12.659  1.00  0.00     0.010 C 
ATOM      8  C   UNL     1      13.729  10.813  12.787  1.00  0.00     0.025 C 
BRANCH   8   9
ATOM      9  C   UNL     1      14.198   9.776  13.724  1.00  0.00     0.064 C 
ATOM     10  O   UNL     1      14.398   8.608  13.301  1.00  0.00    -0.545 OA
ATOM     11  O   UNL     1      14.493  10.076  15.050  1.00  0.00    -0.545 OA
ENDBRANCH   8   9
ENDBRANCH   1   7
BRANCH   4  12
ATOM     12  O   UNL     1       9.078  11.225  16.194  1.00  0.00    -0.504 OA
ATOM     13  H   UNL     1       9.370  12.145  16.502  1.00  0.00     0.293 HD
ENDBRANCH   4  12
BRANCH   6  14
ATOM     14  O   UNL     1       7.836   8.958  15.052  1.00  0.00    -0.504 OA
ATOM     15  H   UNL     1       7.829   8.011  15.411  1.00  0.00     0.293 HD
ENDBRANCH   6  14
TORSDOF 4
ENDMDL
MODEL 4
REMARK VINA RESULT:    -5.434      2.488      3.014
REMARK INTER + INTRA:          -6.573
REMARK INTER:                  -6.464
REMARK INTRA:                  -0.109
REMARK UNBOUND:                -0.185
REMARK SMILES O=C([O-])C=Cc1ccc(O)c(O)c1
REMARK SMILES IDX 6 1 13 2 7 3 11 4 8 5 9 6 5 7 4 8 2 9 1 10 3 11 12 12 10 14
REMARK H PARENT 12 13 10 15
REMARK Flexibility Score: inf
ROOT
ATOM      1  C   UNL     1      11.772  10.365  13.186  1.00  0.00    -0.022 A 
ATOM      2  C   UNL     1      10.850   9.406  13.631  1.00  0.00     0.058 A 
ATOM      3  C   UNL     1      11.769  11.644  13.767  1.00  0.00     0.012 A 
ATOM      4  C   UNL     1       9.900   9.732  14.606  1.00  0.00     0.157 A 
ATOM      5  C   UNL     1      10.821  11.973  14.740  1.00  0.00     0.051 A 
ATOM      6  C   UNL     1       9.881  11.022  15.161  1.00  0.00     0.157 A 
ENDROOT
BRANCH   1   7
ATOM      7  C   UNL     1      12.797   9.978  12.195  1.00  0.00     0.010 C 
ATOM      8  C   UNL     1      13.958   9.368  12.476  1.00  0.00     0.025 C 
BRANCH   8   9
ATOM      9  C   UNL     1      14.504   9.149  13.829  1.00  0.00     0.064 C 
ATOM     10  O   UNL     1      14.907   8.002  14.151  1.00  0.00    -0.545 OA
ATOM     11  O   UNL     1      14.650  10.196  14.731  1.00  0.00    -0.545 OA
ENDBRANCH   8   9
ENDBRANCH   1   7
BRANCH   4  12
ATOM     12  O   UNL     1       8.986   8.760  15.012  1.00  0.00    -0.504 OA
ATOM     13  H   UNL     1       8.032   8.989  15.262  1.00  0.00     0.293 HD
ENDBRANCH   4  12
BRANCH   6  14
ATOM     14  O   UNL     1       8.935  11.354  16.130  1.00  0.00    -0.504 OA
ATOM     15  H   UNL     1       9.149  11.307  17.119  1.00  0.00     0.293 HD
ENDBRANCH   6  14
TORSDOF 4
ENDMDL
MODEL 5
REMARK VINA RESULT:    -5.416      2.499      3.955
REMARK INTER + INTRA:          -6.551
REMARK INTER:                  -6.266
REMARK INTRA:                  -0.285
REMARK UNBOUND:                -0.185
REMARK SMILES O=C([O-])C=Cc1ccc(O)c(O)c1
REMARK SMILES IDX 6 1 13 2 7 3 11 4 8 5 9 6 5 7 4 8 2 9 1 10 3 11 12 12 10 14
REMARK H PARENT 12 13 10 15
REMARK Flexibility Score: inf
ROOT
ATOM      1  C   UNL     1      12.960   9.768  13.976  1.00  0.00    -0.022 A 
ATOM      2  C   UNL     1      13.190  10.905  14.763  1.00  0.00     0.058 A 
ATOM      3  C   UNL     1      11.641   9.406  13.659  1.00  0.00     0.012 A 
ATOM      4  C   UNL     1      12.117  11.646  15.274  1.00  0.00     0.157 A 
ATOM      5  C   UNL     1      10.567  10.141  14.167  1.00  0.00     0.051 A 
ATOM      6  C   UNL     1      10.798  11.260  14.980  1.00  0.00     0.157 A 
ENDROOT
BRANCH   1   7
ATOM      7  C   UNL     1      14.112   9.037  13.408  1.00  0.00     0.010 C 
ATOM      8  C   UNL     1      14.742   9.350  12.265  1.00  0.00     0.025 C 
BRANCH   8   9
ATOM      9  C   UNL     1      14.287  10.350  11.282  1.00  0.00     0.064 C 
ATOM     10  O   UNL     1      13.542   9.989  10.335  1.00  0.00    -0.545 OA
ATOM     11  O   UNL     1      14.603  11.698  11.418  1.00  0.00    -0.545 OA
ENDBRANCH   8   9
ENDBRANCH   1   7
BRANCH   4  12
ATOM     12  O   UNL     1      12.381  12.760  16.069  1.00  0.00    -0.504 OA
ATOM     13  H   UNL     1      13.158  12.785  16.719  1.00  0.00     0.293 HD
ENDBRANCH   4  12
BRANCH   6  14
ATOM     14  O   UNL     1       9.725  11.991  15.487  1.00  0.00    -0.504 OA
ATOM     15  H   UNL     1       9.112  11.610  16.197  1.00  0.00     0.293 HD
ENDBRANCH   6  14
TORSDOF 4
ENDMDL
MODEL 6
REMARK VINA RESULT:    -5.285      2.400      3.255
REMARK INTER + INTRA:          -6.397
REMARK INTER:                  -6.103
REMARK INTRA:                  -0.294
REMARK UNBOUND:                -0.185
REMARK SMILES O=C([O-])C=Cc1ccc(O)c(O)c1
REMARK SMILES IDX 6 1 13 2 7 3 11 4 8 5 9 6 5 7 4 8 2 9 1 10 3 11 12 12 10 14
REMARK H PARENT 12 13 10 15
REMARK Flexibility Score: inf
ROOT
ATOM      1  C   UNL     1      12.138  10.273  13.608  1.00  0.00    -0.022 A 
ATOM      2  C   UNL     1      11.165   9.362  14.042  1.00  0.00     0.058 A 
ATOM      3  C   UNL     1      12.040  11.620  13.991  1.00  0.00     0.012 A 
ATOM      4  C   UNL     1      10.074   9.797  14.806  1.00  0.00     0.157 A 
ATOM      5  C   UNL     1      10.954  12.058  14.753  1.00  0.00     0.051 A 
ATOM      6  C   UNL     1       9.965  11.152  15.160  1.00  0.00     0.157 A 
ENDROOT
BRANCH   1   7
ATOM      7  C   UNL     1      13.305   9.777  12.848  1.00  0.00     0.010 C 
ATOM      8  C   UNL     1      13.404   9.745  11.511  1.00  0.00     0.025 C 
BRANCH   8   9
ATOM      9  C   UNL     1      12.306  10.016  10.564  1.00  0.00     0.064 C 
ATOM     10  O   UNL     1      11.574   9.067  10.182  1.00  0.00    -0.545 OA
ATOM     11  O   UNL     1      12.015  11.309  10.141  1.00  0.00    -0.545 OA
ENDBRANCH   8   9
ENDBRANCH   1   7
BRANCH   4  12
ATOM     12  O   UNL     1       9.114   8.868  15.204  1.00  0.00    -0.504 OA
ATOM     13  H   UNL     1       8.721   8.191  14.561  1.00  0.00     0.293 HD
ENDBRANCH   4  12
BRANCH   6  14
ATOM     14  O   UNL     1       8.880  11.592  15.918  1.00  0.00    -0.504 OA
ATOM     15  H   UNL     1       8.432  10.994  16.601  1.00  0.00     0.293 HD
ENDBRANCH   6  14
TORSDOF 4
ENDMDL
MODEL 7
REMARK VINA RESULT:    -5.030      2.380      5.192
REMARK INTER + INTRA:          -6.098
REMARK INTER:                  -5.824
REMARK INTRA:                  -0.274
REMARK UNBOUND:                -0.185
REMARK SMILES O=C([O-])C=Cc1ccc(O)c(O)c1
REMARK SMILES IDX 6 1 13 2 7 3 11 4 8 5 9 6 5 7 4 8 2 9 1 10 3 11 12 12 10 14
REMARK H PARENT 12 13 10 15
REMARK Flexibility Score: inf
ROOT
ATOM      1  C   UNL     1      11.612  11.098  14.263  1.00  0.00    -0.022 A 
ATOM      2  C   UNL     1      12.672  10.913  15.162  1.00  0.00     0.058 A 
ATOM      3  C   UNL     1      11.673  10.500  12.994  1.00  0.00     0.012 A 
ATOM      4  C   UNL     1      13.806  10.184  14.784  1.00  0.00     0.157 A 
ATOM      5  C   UNL     1      12.803   9.772  12.612  1.00  0.00     0.051 A 
ATOM      6  C   UNL     1      13.876   9.614  13.501  1.00  0.00     0.157 A 
ENDROOT
BRANCH   1   7
ATOM      7  C   UNL     1      10.405  11.827  14.708  1.00  0.00     0.010 C 
ATOM      8  C   UNL     1       9.401  11.301  15.426  1.00  0.00     0.025 C 
BRANCH   8   9
ATOM      9  C   UNL     1       9.228   9.869  15.735  1.00  0.00     0.064 C 
ATOM     10  O   UNL     1       8.506   9.161  14.987  1.00  0.00    -0.545 OA
ATOM     11  O   UNL     1       9.901   9.268  16.793  1.00  0.00    -0.545 OA
ENDBRANCH   8   9
ENDBRANCH   1   7
BRANCH   4  12
ATOM     12  O   UNL     1      14.850  10.036  15.696  1.00  0.00    -0.504 OA
ATOM     13  H   UNL     1      14.973  10.666  16.480  1.00  0.00     0.293 HD
ENDBRANCH   4  12
BRANCH   6  14
ATOM     14  O   UNL     1      15.003   8.890  13.117  1.00  0.00    -0.504 OA
ATOM     15  H   UNL     1      15.020   8.350  12.260  1.00  0.00     0.293 HD
ENDBRANCH   6  14
TORSDOF 4
ENDMDL
MODEL 8
REMARK VINA RESULT:    -4.931      2.596      3.986
REMARK INTER + INTRA:          -5.981
REMARK INTER:                  -5.808
REMARK INTRA:                  -0.173
REMARK UNBOUND:                -0.185
REMARK SMILES O=C([O-])C=Cc1ccc(O)c(O)c1
REMARK SMILES IDX 6 1 13 2 7 3 11 4 8 5 9 6 5 7 4 8 2 9 1 10 3 11 12 12 10 14
REMARK H PARENT 12 13 10 15
REMARK Flexibility Score: inf
ROOT
ATOM      1  C   UNL     1      11.983   9.796  12.222  1.00  0.00    -0.022 A 
ATOM      2  C   UNL     1      12.945  10.166  13.172  1.00  0.00     0.058 A 
ATOM      3  C   UNL     1      10.639   9.674  12.615  1.00  0.00     0.012 A 
ATOM      4  C   UNL     1      12.586  10.361  14.511  1.00  0.00     0.157 A 
ATOM      5  C   UNL     1      10.276   9.868  13.950  1.00  0.00     0.051 A 
ATOM      6  C   UNL     1      11.246  10.207  14.905  1.00  0.00     0.157 A 
ENDROOT
BRANCH   1   7
ATOM      7  C   UNL     1      12.382   9.648  10.807  1.00  0.00     0.010 C 
ATOM      8  C   UNL     1      12.764  10.649  10.000  1.00  0.00     0.025 C 
BRANCH   8   9
ATOM      9  C   UNL     1      12.673  12.087  10.316  1.00  0.00     0.064 C 
ATOM     10  O   UNL     1      13.676  12.677  10.792  1.00  0.00    -0.545 OA
ATOM     11  O   UNL     1      11.526  12.821  10.033  1.00  0.00    -0.545 OA
ENDBRANCH   8   9
ENDBRANCH   1   7
BRANCH   4  12
ATOM     12  O   UNL     1      13.572  10.709  15.433  1.00  0.00    -0.504 OA
ATOM     13  H   UNL     1      14.258  11.430  15.240  1.00  0.00     0.293 HD
ENDBRANCH   4  12
BRANCH   6  14
ATOM     14  O   UNL     1      10.881  10.397  16.237  1.00  0.00    -0.504 OA
ATOM     15  H   UNL     1      10.647  11.314  16.598  1.00  0.00     0.293 HD
ENDBRANCH   6  14
TORSDOF 4
ENDMDL
MODEL 9
REMARK VINA RESULT:    -4.904      2.535      4.989
REMARK INTER + INTRA:          -5.949
REMARK INTER:                  -5.664
REMARK INTRA:                  -0.285
REMARK UNBOUND:                -0.185
REMARK SMILES O=C([O-])C=Cc1ccc(O)c(O)c1
REMARK SMILES IDX 6 1 13 2 7 3 11 4 8 5 9 6 5 7 4 8 2 9 1 10 3 11 12 12 10 14
REMARK H PARENT 12 13 10 15
REMARK Flexibility Score: inf
ROOT
ATOM      1  C   UNL     1      12.164  10.931  14.036  1.00  0.00    -0.022 A 
ATOM      2  C   UNL     1      12.189  10.428  12.727  1.00  0.00     0.058 A 
ATOM      3  C   UNL     1      13.287  10.755  14.862  1.00  0.00     0.012 A 
ATOM      4  C   UNL     1      13.298   9.712  12.261  1.00  0.00     0.157 A 
ATOM      5  C   UNL     1      14.395  10.040  14.401  1.00  0.00     0.051 A 
ATOM      6  C   UNL     1      14.405   9.512  13.102  1.00  0.00     0.157 A 
ENDROOT
BRANCH   1   7
ATOM      7  C   UNL     1      11.003  11.728  14.483  1.00  0.00     0.010 C 
ATOM      8  C   UNL     1       9.964  11.257  15.190  1.00  0.00     0.025 C 
BRANCH   8   9
ATOM      9  C   UNL     1       9.700   9.836  15.481  1.00  0.00     0.064 C 
ATOM     10  O   UNL     1       9.850   9.410  16.655  1.00  0.00    -0.545 OA
ATOM     11  O   UNL     1       9.220   8.972  14.503  1.00  0.00    -0.545 OA
ENDBRANCH   8   9
ENDBRANCH   1   7
BRANCH   4  12
ATOM     12  O   UNL     1      13.281   9.210  10.960  1.00  0.00    -0.504 OA
ATOM     13  H   UNL     1      13.753   8.349  10.709  1.00  0.00     0.293 HD
ENDBRANCH   4  12
BRANCH   6  14
ATOM     14  O   UNL     1      15.512   8.797  12.645  1.00  0.00    -0.504 OA
ATOM     15  H   UNL     1      15.808   7.936  13.089  1.00  0.00     0.293 HD
ENDBRANCH   6  14
TORSDOF 4
ENDMDL
