MODEL 1
REMARK VINA RESULT:    -4.992      0.000      0.000
REMARK INTER + INTRA:         -13.649
REMARK INTER:                 -10.828
REMARK INTRA:                  -2.821
REMARK UNBOUND:                -2.821
REMARK SMILES CCCCCCCCCCCCCCCCCCCCCC(=O)[O-]
REMARK SMILES IDX 12 1 11 2 10 3 9 4 8 5 7 6 6 7 5 8 4 9 3 10 2 11 1 12 13 13
REMARK SMILES IDX 14 14 15 15 16 16 17 17 18 18 19 19 20 20 21 21 22 22 23 23
REMARK SMILES IDX 24 24
REMARK H PARENT
REMARK Flexibility Score: inf
ROOT
ATOM      1  C   UNL     1      34.222  56.857  33.373  1.00  0.00     0.000 C 
ENDROOT
BRANCH   1   2
ATOM      2  C   UNL     1      32.860  56.756  32.665  1.00  0.00     0.000 C 
BRANCH   2   3
ATOM      3  C   UNL     1      32.425  55.294  32.442  1.00  0.00     0.000 C 
BRANCH   3   4
ATOM      4  C   UNL     1      33.394  54.493  31.549  1.00  0.00    -0.000 C 
BRANCH   4   5
ATOM      5  C   UNL     1      33.058  54.633  30.054  1.00  0.00    -0.000 C 
BRANCH   5   6
ATOM      6  C   UNL     1      33.245  53.320  29.274  1.00  0.00    -0.000 C 
BRANCH   6   7
ATOM      7  C   UNL     1      33.539  52.082  30.140  1.00  0.00    -0.000 C 
BRANCH   7   8
ATOM      8  C   UNL     1      32.408  51.041  30.104  1.00  0.00    -0.000 C 
BRANCH   8   9
ATOM      9  C   UNL     1      32.354  50.241  31.415  1.00  0.00    -0.000 C 
BRANCH   9  10
ATOM     10  C   UNL     1      32.773  51.075  32.635  1.00  0.00    -0.000 C 
BRANCH  10  11
ATOM     11  C   UNL     1      31.616  51.303  33.620  1.00  0.00    -0.003 C 
ATOM     12  C   UNL     1      30.515  52.151  32.987  1.00  0.00     0.004 C 
ENDBRANCH  10  11
ENDBRANCH   9  10
ENDBRANCH   8   9
ENDBRANCH   7   8
ENDBRANCH   6   7
ENDBRANCH   5   6
ENDBRANCH   4   5
ENDBRANCH   3   4
ENDBRANCH   2   3
ENDBRANCH   1   2
BRANCH   1  13
ATOM     13  C   UNL     1      35.263  57.644  32.554  1.00  0.00     0.000 C 
BRANCH  13  14
ATOM     14  C   UNL     1      34.799  58.063  31.144  1.00  0.00     0.000 C 
BRANCH  14  15
ATOM     15  C   UNL     1      35.332  57.191  29.990  1.00  0.00     0.000 C 
BRANCH  15  16
ATOM     16  C   UNL     1      36.316  57.903  29.043  1.00  0.00     0.000 C 
BRANCH  16  17
ATOM     17  C   UNL     1      36.594  57.101  27.764  1.00  0.00     0.000 C 
BRANCH  17  18
ATOM     18  C   UNL     1      35.365  56.285  27.343  1.00  0.00     0.000 C 
BRANCH  18  19
ATOM     19  C   UNL     1      34.547  57.041  26.286  1.00  0.00     0.000 C 
BRANCH  19  20
ATOM     20  C   UNL     1      33.069  56.610  26.250  1.00  0.00     0.006 C 
BRANCH  20  21
ATOM     21  C   UNL     1      32.853  55.097  26.088  1.00  0.00     0.053 C 
BRANCH  21  22
ATOM     22  C   UNL     1      31.475  54.675  26.495  1.00  0.00     0.041 C 
ATOM     23  O   UNL     1      31.008  53.574  26.104  1.00  0.00    -0.550 OA
ATOM     24  O   UNL     1      30.720  55.484  27.335  1.00  0.00    -0.550 OA
ENDBRANCH  21  22
ENDBRANCH  20  21
ENDBRANCH  19  20
ENDBRANCH  18  19
ENDBRANCH  17  18
ENDBRANCH  16  17
ENDBRANCH  15  16
ENDBRANCH  14  15
ENDBRANCH  13  14
ENDBRANCH   1  13
TORSDOF 20
ENDMDL
MODEL 2
REMARK VINA RESULT:    -4.989      2.004      5.704
REMARK INTER + INTRA:         -13.644
REMARK INTER:                 -10.337
REMARK INTRA:                  -3.307
REMARK UNBOUND:                -2.821
REMARK SMILES CCCCCCCCCCCCCCCCCCCCCC(=O)[O-]
REMARK SMILES IDX 12 1 11 2 10 3 9 4 8 5 7 6 6 7 5 8 4 9 3 10 2 11 1 12 13 13
REMARK SMILES IDX 14 14 15 15 16 16 17 17 18 18 19 19 20 20 21 21 22 22 23 23
REMARK SMILES IDX 24 24
REMARK H PARENT
REMARK Flexibility Score: inf
ROOT
ATOM      1  C   UNL     1      32.196  55.876  33.837  1.00  0.00     0.000 C 
ENDROOT
BRANCH   1   2
ATOM      2  C   UNL     1      32.533  56.653  32.553  1.00  0.00     0.000 C 
BRANCH   2   3
ATOM      3  C   UNL     1      33.032  55.729  31.425  1.00  0.00     0.000 C 
BRANCH   3   4
ATOM      4  C   UNL     1      34.332  56.218  30.757  1.00  0.00    -0.000 C 
BRANCH   4   5
ATOM      5  C   UNL     1      34.541  57.732  30.930  1.00  0.00    -0.000 C 
BRANCH   5   6
ATOM      6  C   UNL     1      35.794  58.250  30.202  1.00  0.00    -0.000 C 
BRANCH   6   7
ATOM      7  C   UNL     1      36.240  57.410  28.992  1.00  0.00    -0.000 C 
BRANCH   7   8
ATOM      8  C   UNL     1      35.516  57.796  27.692  1.00  0.00    -0.000 C 
BRANCH   8   9
ATOM      9  C   UNL     1      35.049  56.546  26.930  1.00  0.00    -0.000 C 
BRANCH   9  10
ATOM     10  C   UNL     1      33.536  56.548  26.660  1.00  0.00    -0.000 C 
BRANCH  10  11
ATOM     11  C   UNL     1      32.762  55.643  27.630  1.00  0.00    -0.003 C 
ATOM     12  C   UNL     1      31.355  55.358  27.111  1.00  0.00     0.004 C 
ENDBRANCH  10  11
ENDBRANCH   9  10
ENDBRANCH   8   9
ENDBRANCH   7   8
ENDBRANCH   6   7
ENDBRANCH   5   6
ENDBRANCH   4   5
ENDBRANCH   3   4
ENDBRANCH   2   3
ENDBRANCH   1   2
BRANCH   1  13
ATOM     13  C   UNL     1      33.307  55.966  34.899  1.00  0.00     0.000 C 
BRANCH  13  14
ATOM     14  C   UNL     1      34.444  56.956  34.569  1.00  0.00     0.000 C 
BRANCH  14  15
ATOM     15  C   UNL     1      35.796  56.307  34.210  1.00  0.00     0.000 C 
BRANCH  15  16
ATOM     16  C   UNL     1      35.924  54.822  34.596  1.00  0.00     0.000 C 
BRANCH  16  17
ATOM     17  C   UNL     1      35.842  53.884  33.383  1.00  0.00     0.000 C 
BRANCH  17  18
ATOM     18  C   UNL     1      34.741  52.832  33.570  1.00  0.00     0.000 C 
BRANCH  18  19
ATOM     19  C   UNL     1      34.817  51.765  32.469  1.00  0.00     0.000 C 
BRANCH  19  20
ATOM     20  C   UNL     1      33.993  52.131  31.221  1.00  0.00     0.006 C 
BRANCH  20  21
ATOM     21  C   UNL     1      32.474  52.174  31.453  1.00  0.00     0.053 C 
BRANCH  21  22
ATOM     22  C   UNL     1      31.704  51.773  30.233  1.00  0.00     0.041 C 
ATOM     23  O   UNL     1      32.008  52.247  29.107  1.00  0.00    -0.550 OA
ATOM     24  O   UNL     1      30.673  50.847  30.336  1.00  0.00    -0.550 OA
ENDBRANCH  21  22
ENDBRANCH  20  21
ENDBRANCH  19  20
ENDBRANCH  18  19
ENDBRANCH  17  18
ENDBRANCH  16  17
ENDBRANCH  15  16
ENDBRANCH  14  15
ENDBRANCH  13  14
ENDBRANCH   1  13
TORSDOF 20
ENDMDL
MODEL 3
REMARK VINA RESULT:    -4.931      2.253      5.625
REMARK INTER + INTRA:         -13.518
REMARK INTER:                 -10.619
REMARK INTRA:                  -2.899
REMARK UNBOUND:                -2.821
REMARK SMILES CCCCCCCCCCCCCCCCCCCCCC(=O)[O-]
REMARK SMILES IDX 12 1 11 2 10 3 9 4 8 5 7 6 6 7 5 8 4 9 3 10 2 11 1 12 13 13
REMARK SMILES IDX 14 14 15 15 16 16 17 17 18 18 19 19 20 20 21 21 22 22 23 23
REMARK SMILES IDX 24 24
REMARK H PARENT
REMARK Flexibility Score: inf
ROOT
ATOM      1  C   UNL     1      36.131  56.606  26.984  1.00  0.00     0.000 C 
ENDROOT
BRANCH   1   2
ATOM      2  C   UNL     1      36.779  57.096  28.291  1.00  0.00     0.000 C 
BRANCH   2   3
ATOM      3  C   UNL     1      35.838  58.007  29.104  1.00  0.00     0.000 C 
BRANCH   3   4
ATOM      4  C   UNL     1      35.083  57.268  30.226  1.00  0.00    -0.000 C 
BRANCH   4   5
ATOM      5  C   UNL     1      35.226  57.973  31.586  1.00  0.00    -0.000 C 
BRANCH   5   6
ATOM      6  C   UNL     1      35.210  56.993  32.772  1.00  0.00    -0.000 C 
BRANCH   6   7
ATOM      7  C   UNL     1      34.304  57.403  33.946  1.00  0.00    -0.000 C 
BRANCH   7   8
ATOM      8  C   UNL     1      33.135  56.432  34.172  1.00  0.00    -0.000 C 
BRANCH   8   9
ATOM      9  C   UNL     1      32.540  55.965  32.835  1.00  0.00    -0.000 C 
BRANCH   9  10
ATOM     10  C   UNL     1      32.241  54.459  32.813  1.00  0.00    -0.000 C 
BRANCH  10  11
ATOM     11  C   UNL     1      33.213  53.651  33.685  1.00  0.00    -0.003 C 
ATOM     12  C   UNL     1      34.513  53.363  32.938  1.00  0.00     0.004 C 
ENDBRANCH  10  11
ENDBRANCH   9  10
ENDBRANCH   8   9
ENDBRANCH   7   8
ENDBRANCH   6   7
ENDBRANCH   5   6
ENDBRANCH   4   5
ENDBRANCH   3   4
ENDBRANCH   2   3
ENDBRANCH   1   2
BRANCH   1  13
ATOM     13  C   UNL     1      34.891  57.430  26.588  1.00  0.00     0.000 C 
BRANCH  13  14
ATOM     14  C   UNL     1      33.600  56.609  26.395  1.00  0.00     0.000 C 
BRANCH  14  15
ATOM     15  C   UNL     1      33.577  55.241  27.108  1.00  0.00     0.000 C 
BRANCH  15  16
ATOM     16  C   UNL     1      32.774  55.211  28.422  1.00  0.00     0.000 C 
BRANCH  16  17
ATOM     17  C   UNL     1      33.245  54.109  29.380  1.00  0.00     0.000 C 
BRANCH  17  18
ATOM     18  C   UNL     1      32.679  52.742  28.974  1.00  0.00     0.000 C 
BRANCH  18  19
ATOM     19  C   UNL     1      32.905  51.708  30.086  1.00  0.00     0.000 C 
BRANCH  19  20
ATOM     20  C   UNL     1      31.647  50.875  30.395  1.00  0.00     0.006 C 
BRANCH  20  21
ATOM     21  C   UNL     1      30.994  51.190  31.750  1.00  0.00     0.053 C 
BRANCH  21  22
ATOM     22  C   UNL     1      29.533  50.865  31.764  1.00  0.00     0.041 C 
ATOM     23  O   UNL     1      28.927  50.624  30.687  1.00  0.00    -0.550 OA
ATOM     24  O   UNL     1      28.848  50.793  32.971  1.00  0.00    -0.550 OA
ENDBRANCH  21  22
ENDBRANCH  20  21
ENDBRANCH  19  20
ENDBRANCH  18  19
ENDBRANCH  17  18
ENDBRANCH  16  17
ENDBRANCH  15  16
ENDBRANCH  14  15
ENDBRANCH  13  14
ENDBRANCH   1  13
TORSDOF 20
ENDMDL
MODEL 4
REMARK VINA RESULT:    -4.895      2.935      6.088
REMARK INTER + INTRA:         -13.439
REMARK INTER:                  -9.957
REMARK INTRA:                  -3.482
REMARK UNBOUND:                -2.821
REMARK SMILES CCCCCCCCCCCCCCCCCCCCCC(=O)[O-]
REMARK SMILES IDX 12 1 11 2 10 3 9 4 8 5 7 6 6 7 5 8 4 9 3 10 2 11 1 12 13 13
REMARK SMILES IDX 14 14 15 15 16 16 17 17 18 18 19 19 20 20 21 21 22 22 23 23
REMARK SMILES IDX 24 24
REMARK H PARENT
REMARK Flexibility Score: inf
ROOT
ATOM      1  C   UNL     1      35.992  56.597  27.650  1.00  0.00     0.000 C 
ENDROOT
BRANCH   1   2
ATOM      2  C   UNL     1      36.499  57.336  28.900  1.00  0.00     0.000 C 
BRANCH   2   3
ATOM      3  C   UNL     1      35.371  58.092  29.629  1.00  0.00     0.000 C 
BRANCH   3   4
ATOM      4  C   UNL     1      34.950  57.437  30.960  1.00  0.00    -0.000 C 
BRANCH   4   5
ATOM      5  C   UNL     1      34.151  56.140  30.742  1.00  0.00    -0.000 C 
BRANCH   5   6
ATOM      6  C   UNL     1      32.710  56.230  31.275  1.00  0.00    -0.000 C 
BRANCH   6   7
ATOM      7  C   UNL     1      32.570  56.846  32.678  1.00  0.00    -0.000 C 
BRANCH   7   8
ATOM      8  C   UNL     1      32.276  55.802  33.767  1.00  0.00    -0.000 C 
BRANCH   8   9
ATOM      9  C   UNL     1      33.336  55.852  34.878  1.00  0.00    -0.000 C 
BRANCH   9  10
ATOM     10  C   UNL     1      34.566  56.685  34.486  1.00  0.00    -0.000 C 
BRANCH  10  11
ATOM     11  C   UNL     1      35.808  55.819  34.229  1.00  0.00    -0.003 C 
ATOM     12  C   UNL     1      35.771  54.542  35.066  1.00  0.00     0.004 C 
ENDBRANCH  10  11
ENDBRANCH   9  10
ENDBRANCH   8   9
ENDBRANCH   7   8
ENDBRANCH   6   7
ENDBRANCH   5   6
ENDBRANCH   4   5
ENDBRANCH   3   4
ENDBRANCH   2   3
ENDBRANCH   1   2
BRANCH   1  13
ATOM     13  C   UNL     1      34.744  57.255  27.032  1.00  0.00     0.000 C 
BRANCH  13  14
ATOM     14  C   UNL     1      33.729  56.272  26.413  1.00  0.00     0.000 C 
BRANCH  14  15
ATOM     15  C   UNL     1      32.849  55.512  27.426  1.00  0.00     0.000 C 
BRANCH  15  16
ATOM     16  C   UNL     1      33.308  54.073  27.730  1.00  0.00     0.000 C 
BRANCH  16  17
ATOM     17  C   UNL     1      32.465  53.399  28.821  1.00  0.00     0.000 C 
BRANCH  17  18
ATOM     18  C   UNL     1      33.340  52.549  29.751  1.00  0.00     0.000 C 
BRANCH  18  19
ATOM     19  C   UNL     1      32.776  52.551  31.179  1.00  0.00     0.000 C 
BRANCH  19  20
ATOM     20  C   UNL     1      33.835  52.901  32.242  1.00  0.00     0.006 C 
BRANCH  20  21
ATOM     21  C   UNL     1      34.010  51.838  33.338  1.00  0.00     0.053 C 
BRANCH  21  22
ATOM     22  C   UNL     1      35.091  50.857  33.007  1.00  0.00     0.041 C 
ATOM     23  O   UNL     1      36.273  51.251  32.831  1.00  0.00    -0.550 OA
ATOM     24  O   UNL     1      34.799  49.501  32.930  1.00  0.00    -0.550 OA
ENDBRANCH  21  22
ENDBRANCH  20  21
ENDBRANCH  19  20
ENDBRANCH  18  19
ENDBRANCH  17  18
ENDBRANCH  16  17
ENDBRANCH  15  16
ENDBRANCH  14  15
ENDBRANCH  13  14
ENDBRANCH   1  13
TORSDOF 20
ENDMDL
MODEL 5
REMARK VINA RESULT:    -4.881      1.958      6.151
REMARK INTER + INTRA:         -13.408
REMARK INTER:                 -10.716
REMARK INTRA:                  -2.692
REMARK UNBOUND:                -2.821
REMARK SMILES CCCCCCCCCCCCCCCCCCCCCC(=O)[O-]
REMARK SMILES IDX 12 1 11 2 10 3 9 4 8 5 7 6 6 7 5 8 4 9 3 10 2 11 1 12 13 13
REMARK SMILES IDX 14 14 15 15 16 16 17 17 18 18 19 19 20 20 21 21 22 22 23 23
REMARK SMILES IDX 24 24
REMARK H PARENT
REMARK Flexibility Score: inf
ROOT
ATOM      1  C   UNL     1      31.956  55.311  27.757  1.00  0.00     0.000 C 
ENDROOT
BRANCH   1   2
ATOM      2  C   UNL     1      32.187  56.270  26.576  1.00  0.00     0.000 C 
BRANCH   2   3
ATOM      3  C   UNL     1      33.598  56.126  25.974  1.00  0.00     0.000 C 
BRANCH   3   4
ATOM      4  C   UNL     1      34.610  57.150  26.525  1.00  0.00    -0.000 C 
BRANCH   4   5
ATOM      5  C   UNL     1      35.445  56.577  27.684  1.00  0.00    -0.000 C 
BRANCH   5   6
ATOM      6  C   UNL     1      36.131  57.669  28.523  1.00  0.00    -0.000 C 
BRANCH   6   7
ATOM      7  C   UNL     1      35.564  57.857  29.941  1.00  0.00    -0.000 C 
BRANCH   7   8
ATOM      8  C   UNL     1      34.582  56.747  30.348  1.00  0.00    -0.000 C 
BRANCH   8   9
ATOM      9  C   UNL     1      34.790  56.338  31.814  1.00  0.00    -0.000 C 
BRANCH   9  10
ATOM     10  C   UNL     1      33.837  57.067  32.774  1.00  0.00    -0.000 C 
BRANCH  10  11
ATOM     11  C   UNL     1      32.406  56.510  32.721  1.00  0.00    -0.003 C 
ATOM     12  C   UNL     1      32.151  55.541  33.872  1.00  0.00     0.004 C 
ENDBRANCH  10  11
ENDBRANCH   9  10
ENDBRANCH   8   9
ENDBRANCH   7   8
ENDBRANCH   6   7
ENDBRANCH   5   6
ENDBRANCH   4   5
ENDBRANCH   3   4
ENDBRANCH   2   3
ENDBRANCH   1   2
BRANCH   1  13
ATOM     13  C   UNL     1      32.661  53.955  27.571  1.00  0.00     0.000 C 
BRANCH  13  14
ATOM     14  C   UNL     1      33.425  53.443  28.809  1.00  0.00     0.000 C 
BRANCH  14  15
ATOM     15  C   UNL     1      32.766  53.762  30.167  1.00  0.00     0.000 C 
BRANCH  15  16
ATOM     16  C   UNL     1      33.274  52.914  31.347  1.00  0.00     0.000 C 
BRANCH  16  17
ATOM     17  C   UNL     1      33.287  51.411  31.036  1.00  0.00     0.000 C 
BRANCH  17  18
ATOM     18  C   UNL     1      31.992  50.737  31.509  1.00  0.00     0.000 C 
BRANCH  18  19
ATOM     19  C   UNL     1      30.951  50.708  30.382  1.00  0.00     0.000 C 
BRANCH  19  20
ATOM     20  C   UNL     1      31.494  50.094  29.078  1.00  0.00     0.006 C 
BRANCH  20  21
ATOM     21  C   UNL     1      30.632  48.959  28.503  1.00  0.00     0.053 C 
BRANCH  21  22
ATOM     22  C   UNL     1      29.970  49.347  27.218  1.00  0.00     0.041 C 
ATOM     23  O   UNL     1      29.614  50.539  27.023  1.00  0.00    -0.550 OA
ATOM     24  O   UNL     1      29.778  48.399  26.221  1.00  0.00    -0.550 OA
ENDBRANCH  21  22
ENDBRANCH  20  21
ENDBRANCH  19  20
ENDBRANCH  18  19
ENDBRANCH  17  18
ENDBRANCH  16  17
ENDBRANCH  15  16
ENDBRANCH  14  15
ENDBRANCH  13  14
ENDBRANCH   1  13
TORSDOF 20
ENDMDL
MODEL 6
REMARK VINA RESULT:    -4.827      2.009      6.445
REMARK INTER + INTRA:         -13.291
REMARK INTER:                 -10.671
REMARK INTRA:                  -2.621
REMARK UNBOUND:                -2.821
REMARK SMILES CCCCCCCCCCCCCCCCCCCCCC(=O)[O-]
REMARK SMILES IDX 12 1 11 2 10 3 9 4 8 5 7 6 6 7 5 8 4 9 3 10 2 11 1 12 13 13
REMARK SMILES IDX 14 14 15 15 16 16 17 17 18 18 19 19 20 20 21 21 22 22 23 23
REMARK SMILES IDX 24 24
REMARK H PARENT
REMARK Flexibility Score: inf
ROOT
ATOM      1  C   UNL     1      31.604  55.133  27.360  1.00  0.00     0.000 C 
ENDROOT
BRANCH   1   2
ATOM      2  C   UNL     1      32.276  56.305  26.624  1.00  0.00     0.000 C 
BRANCH   2   3
ATOM      3  C   UNL     1      33.773  56.048  26.362  1.00  0.00     0.000 C 
BRANCH   3   4
ATOM      4  C   UNL     1      34.696  57.139  26.939  1.00  0.00    -0.000 C 
BRANCH   4   5
ATOM      5  C   UNL     1      36.029  56.563  27.449  1.00  0.00    -0.000 C 
BRANCH   5   6
ATOM      6  C   UNL     1      36.558  57.296  28.694  1.00  0.00    -0.000 C 
BRANCH   6   7
ATOM      7  C   UNL     1      35.476  57.809  29.660  1.00  0.00    -0.000 C 
BRANCH   7   8
ATOM      8  C   UNL     1      34.827  56.688  30.487  1.00  0.00    -0.000 C 
BRANCH   8   9
ATOM      9  C   UNL     1      34.229  57.241  31.790  1.00  0.00    -0.000 C 
BRANCH   9  10
ATOM     10  C   UNL     1      32.847  56.649  32.106  1.00  0.00    -0.000 C 
BRANCH  10  11
ATOM     11  C   UNL     1      32.842  55.815  33.396  1.00  0.00    -0.003 C 
ATOM     12  C   UNL     1      33.575  56.540  34.522  1.00  0.00     0.004 C 
ENDBRANCH  10  11
ENDBRANCH   9  10
ENDBRANCH   8   9
ENDBRANCH   7   8
ENDBRANCH   6   7
ENDBRANCH   5   6
ENDBRANCH   4   5
ENDBRANCH   3   4
ENDBRANCH   2   3
ENDBRANCH   1   2
BRANCH   1  13
ATOM     13  C   UNL     1      32.200  53.766  26.976  1.00  0.00     0.000 C 
BRANCH  13  14
ATOM     14  C   UNL     1      32.611  52.878  28.168  1.00  0.00     0.000 C 
BRANCH  14  15
ATOM     15  C   UNL     1      33.181  53.633  29.385  1.00  0.00     0.000 C 
BRANCH  15  16
ATOM     16  C   UNL     1      32.648  53.157  30.749  1.00  0.00     0.000 C 
BRANCH  16  17
ATOM     17  C   UNL     1      33.764  52.675  31.687  1.00  0.00     0.000 C 
BRANCH  17  18
ATOM     18  C   UNL     1      33.211  51.747  32.776  1.00  0.00     0.000 C 
BRANCH  18  19
ATOM     19  C   UNL     1      31.889  52.292  33.335  1.00  0.00     0.000 C 
BRANCH  19  20
ATOM     20  C   UNL     1      30.761  51.243  33.336  1.00  0.00     0.006 C 
BRANCH  20  21
ATOM     21  C   UNL     1      30.818  50.247  32.167  1.00  0.00     0.053 C 
BRANCH  21  22
ATOM     22  C   UNL     1      29.835  50.581  31.090  1.00  0.00     0.041 C 
ATOM     23  O   UNL     1      30.218  50.702  29.897  1.00  0.00    -0.550 OA
ATOM     24  O   UNL     1      28.487  50.724  31.398  1.00  0.00    -0.550 OA
ENDBRANCH  21  22
ENDBRANCH  20  21
ENDBRANCH  19  20
ENDBRANCH  18  19
ENDBRANCH  17  18
ENDBRANCH  16  17
ENDBRANCH  15  16
ENDBRANCH  14  15
ENDBRANCH  13  14
ENDBRANCH   1  13
TORSDOF 20
ENDMDL
MODEL 7
REMARK VINA RESULT:    -4.825      3.336      7.057
REMARK INTER + INTRA:         -13.288
REMARK INTER:                 -10.169
REMARK INTRA:                  -3.118
REMARK UNBOUND:                -2.821
REMARK SMILES CCCCCCCCCCCCCCCCCCCCCC(=O)[O-]
REMARK SMILES IDX 12 1 11 2 10 3 9 4 8 5 7 6 6 7 5 8 4 9 3 10 2 11 1 12 13 13
REMARK SMILES IDX 14 14 15 15 16 16 17 17 18 18 19 19 20 20 21 21 22 22 23 23
REMARK SMILES IDX 24 24
REMARK H PARENT
REMARK Flexibility Score: inf
ROOT
ATOM      1  C   UNL     1      32.150  54.398  27.485  1.00  0.00     0.000 C 
ENDROOT
BRANCH   1   2
ATOM      2  C   UNL     1      32.448  55.882  27.213  1.00  0.00     0.000 C 
BRANCH   2   3
ATOM      3  C   UNL     1      33.446  56.075  26.055  1.00  0.00     0.000 C 
BRANCH   3   4
ATOM      4  C   UNL     1      34.597  57.045  26.388  1.00  0.00    -0.000 C 
BRANCH   4   5
ATOM      5  C   UNL     1      35.432  56.566  27.588  1.00  0.00    -0.000 C 
BRANCH   5   6
ATOM      6  C   UNL     1      35.931  57.725  28.469  1.00  0.00    -0.000 C 
BRANCH   6   7
ATOM      7  C   UNL     1      35.563  57.618  29.959  1.00  0.00    -0.000 C 
BRANCH   7   8
ATOM      8  C   UNL     1      34.373  56.682  30.220  1.00  0.00    -0.000 C 
BRANCH   8   9
ATOM      9  C   UNL     1      34.448  56.074  31.629  1.00  0.00    -0.000 C 
BRANCH   9  10
ATOM     10  C   UNL     1      33.062  55.812  32.236  1.00  0.00    -0.000 C 
BRANCH  10  11
ATOM     11  C   UNL     1      33.022  56.066  33.750  1.00  0.00    -0.003 C 
ATOM     12  C   UNL     1      31.975  55.185  34.428  1.00  0.00     0.004 C 
ENDBRANCH  10  11
ENDBRANCH   9  10
ENDBRANCH   8   9
ENDBRANCH   7   8
ENDBRANCH   6   7
ENDBRANCH   5   6
ENDBRANCH   4   5
ENDBRANCH   3   4
ENDBRANCH   2   3
ENDBRANCH   1   2
BRANCH   1  13
ATOM     13  C   UNL     1      33.289  53.690  28.243  1.00  0.00     0.000 C 
BRANCH  13  14
ATOM     14  C   UNL     1      32.922  53.203  29.660  1.00  0.00     0.000 C 
BRANCH  14  15
ATOM     15  C   UNL     1      32.296  51.796  29.729  1.00  0.00     0.000 C 
BRANCH  15  16
ATOM     16  C   UNL     1      31.493  51.508  31.012  1.00  0.00     0.000 C 
BRANCH  16  17
ATOM     17  C   UNL     1      31.937  52.377  32.197  1.00  0.00     0.000 C 
BRANCH  17  18
ATOM     18  C   UNL     1      32.247  51.517  33.429  1.00  0.00     0.000 C 
BRANCH  18  19
ATOM     19  C   UNL     1      33.758  51.473  33.695  1.00  0.00     0.000 C 
BRANCH  19  20
ATOM     20  C   UNL     1      34.544  52.504  32.863  1.00  0.00     0.006 C 
BRANCH  20  21
ATOM     21  C   UNL     1      35.908  52.891  33.455  1.00  0.00     0.053 C 
BRANCH  21  22
ATOM     22  C   UNL     1      36.708  51.693  33.863  1.00  0.00     0.041 C 
ATOM     23  O   UNL     1      37.000  51.509  35.074  1.00  0.00    -0.550 OA
ATOM     24  O   UNL     1      37.100  50.762  32.910  1.00  0.00    -0.550 OA
ENDBRANCH  21  22
ENDBRANCH  20  21
ENDBRANCH  19  20
ENDBRANCH  18  19
ENDBRANCH  17  18
ENDBRANCH  16  17
ENDBRANCH  15  16
ENDBRANCH  14  15
ENDBRANCH  13  14
ENDBRANCH   1  13
TORSDOF 20
ENDMDL
MODEL 8
REMARK VINA RESULT:    -4.789      2.109      6.210
REMARK INTER + INTRA:         -13.211
REMARK INTER:                  -9.945
REMARK INTRA:                  -3.265
REMARK UNBOUND:                -2.821
REMARK SMILES CCCCCCCCCCCCCCCCCCCCCC(=O)[O-]
REMARK SMILES IDX 12 1 11 2 10 3 9 4 8 5 7 6 6 7 5 8 4 9 3 10 2 11 1 12 13 13
REMARK SMILES IDX 14 14 15 15 16 16 17 17 18 18 19 19 20 20 21 21 22 22 23 23
REMARK SMILES IDX 24 24
REMARK H PARENT
REMARK Flexibility Score: inf
ROOT
ATOM      1  C   UNL     1      33.355  55.711  26.077  1.00  0.00     0.000 C 
ENDROOT
BRANCH   1   2
ATOM      2  C   UNL     1      34.042  56.937  26.703  1.00  0.00     0.000 C 
BRANCH   2   3
ATOM      3  C   UNL     1      35.410  56.588  27.320  1.00  0.00     0.000 C 
BRANCH   3   4
ATOM      4  C   UNL     1      35.818  57.518  28.480  1.00  0.00    -0.000 C 
BRANCH   4   5
ATOM      5  C   UNL     1      34.853  57.415  29.674  1.00  0.00    -0.000 C 
BRANCH   5   6
ATOM      6  C   UNL     1      35.456  56.652  30.866  1.00  0.00    -0.000 C 
BRANCH   6   7
ATOM      7  C   UNL     1      34.458  55.796  31.666  1.00  0.00    -0.000 C 
BRANCH   7   8
ATOM      8  C   UNL     1      33.061  56.429  31.759  1.00  0.00    -0.000 C 
BRANCH   8   9
ATOM      9  C   UNL     1      32.540  56.402  33.204  1.00  0.00    -0.000 C 
BRANCH   9  10
ATOM     10  C   UNL     1      33.635  56.050  34.223  1.00  0.00    -0.000 C 
BRANCH  10  11
ATOM     11  C   UNL     1      34.108  57.269  35.027  1.00  0.00    -0.003 C 
ATOM     12  C   UNL     1      35.501  57.713  34.585  1.00  0.00     0.004 C 
ENDBRANCH  10  11
ENDBRANCH   9  10
ENDBRANCH   8   9
ENDBRANCH   7   8
ENDBRANCH   6   7
ENDBRANCH   5   6
ENDBRANCH   4   5
ENDBRANCH   3   4
ENDBRANCH   2   3
ENDBRANCH   1   2
BRANCH   1  13
ATOM     13  C   UNL     1      32.086  55.284  26.839  1.00  0.00     0.000 C 
BRANCH  13  14
ATOM     14  C   UNL     1      32.273  55.093  28.358  1.00  0.00     0.000 C 
BRANCH  14  15
ATOM     15  C   UNL     1      33.195  53.926  28.765  1.00  0.00     0.000 C 
BRANCH  15  16
ATOM     16  C   UNL     1      32.628  53.006  29.863  1.00  0.00     0.000 C 
BRANCH  16  17
ATOM     17  C   UNL     1      33.725  52.276  30.650  1.00  0.00     0.000 C 
BRANCH  17  18
ATOM     18  C   UNL     1      33.308  52.060  32.111  1.00  0.00     0.000 C 
BRANCH  18  19
ATOM     19  C   UNL     1      32.055  52.882  32.445  1.00  0.00     0.000 C 
BRANCH  19  20
ATOM     20  C   UNL     1      30.920  52.029  33.042  1.00  0.00     0.006 C 
BRANCH  20  21
ATOM     21  C   UNL     1      30.752  50.648  32.389  1.00  0.00     0.053 C 
BRANCH  21  22
ATOM     22  C   UNL     1      29.731  50.661  31.294  1.00  0.00     0.041 C 
ATOM     23  O   UNL     1      30.083  50.484  30.098  1.00  0.00    -0.550 OA
ATOM     24  O   UNL     1      28.386  50.831  31.599  1.00  0.00    -0.550 OA
ENDBRANCH  21  22
ENDBRANCH  20  21
ENDBRANCH  19  20
ENDBRANCH  18  19
ENDBRANCH  17  18
ENDBRANCH  16  17
ENDBRANCH  15  16
ENDBRANCH  14  15
ENDBRANCH  13  14
ENDBRANCH   1  13
TORSDOF 20
ENDMDL
MODEL 9
REMARK VINA RESULT:    -4.767      3.055      5.363
REMARK INTER + INTRA:         -13.161
REMARK INTER:                 -10.011
REMARK INTRA:                  -3.150
REMARK UNBOUND:                -2.821
REMARK SMILES CCCCCCCCCCCCCCCCCCCCCC(=O)[O-]
REMARK SMILES IDX 12 1 11 2 10 3 9 4 8 5 7 6 6 7 5 8 4 9 3 10 2 11 1 12 13 13
REMARK SMILES IDX 14 14 15 15 16 16 17 17 18 18 19 19 20 20 21 21 22 22 23 23
REMARK SMILES IDX 24 24
REMARK H PARENT
REMARK Flexibility Score: inf
ROOT
ATOM      1  C   UNL     1      31.877  55.288  27.548  1.00  0.00     0.000 C 
ENDROOT
BRANCH   1   2
ATOM      2  C   UNL     1      32.467  53.869  27.621  1.00  0.00     0.000 C 
BRANCH   2   3
ATOM      3  C   UNL     1      33.357  53.670  28.863  1.00  0.00     0.000 C 
BRANCH   3   4
ATOM      4  C   UNL     1      33.379  54.888  29.807  1.00  0.00    -0.000 C 
BRANCH   4   5
ATOM      5  C   UNL     1      32.800  54.558  31.194  1.00  0.00    -0.000 C 
BRANCH   5   6
ATOM      6  C   UNL     1      33.779  53.763  32.077  1.00  0.00    -0.000 C 
BRANCH   6   7
ATOM      7  C   UNL     1      33.119  52.830  33.108  1.00  0.00    -0.000 C 
BRANCH   7   8
ATOM      8  C   UNL     1      31.587  52.791  32.990  1.00  0.00    -0.000 C 
BRANCH   8   9
ATOM      9  C   UNL     1      31.110  51.424  32.474  1.00  0.00    -0.000 C 
BRANCH   9  10
ATOM     10  C   UNL     1      31.091  51.344  30.940  1.00  0.00    -0.000 C 
BRANCH  10  11
ATOM     11  C   UNL     1      32.164  50.396  30.384  1.00  0.00    -0.003 C 
ATOM     12  C   UNL     1      32.749  49.521  31.490  1.00  0.00     0.004 C 
ENDBRANCH  10  11
ENDBRANCH   9  10
ENDBRANCH   8   9
ENDBRANCH   7   8
ENDBRANCH   6   7
ENDBRANCH   5   6
ENDBRANCH   4   5
ENDBRANCH   3   4
ENDBRANCH   2   3
ENDBRANCH   1   2
BRANCH   1  13
ATOM     13  C   UNL     1      32.286  56.038  26.266  1.00  0.00     0.000 C 
BRANCH  13  14
ATOM     14  C   UNL     1      33.807  56.163  26.043  1.00  0.00     0.000 C 
BRANCH  14  15
ATOM     15  C   UNL     1      34.539  57.109  27.016  1.00  0.00     0.000 C 
BRANCH  15  16
ATOM     16  C   UNL     1      35.918  56.610  27.488  1.00  0.00     0.000 C 
BRANCH  16  17
ATOM     17  C   UNL     1      36.372  57.272  28.796  1.00  0.00     0.000 C 
BRANCH  17  18
ATOM     18  C   UNL     1      35.186  57.898  29.541  1.00  0.00     0.000 C 
BRANCH  18  19
ATOM     19  C   UNL     1      35.588  58.290  30.970  1.00  0.00     0.000 C 
BRANCH  19  20
ATOM     20  C   UNL     1      34.692  57.644  32.044  1.00  0.00     0.006 C 
BRANCH  20  21
ATOM     21  C   UNL     1      35.454  56.824  33.097  1.00  0.00     0.053 C 
BRANCH  21  22
ATOM     22  C   UNL     1      35.728  57.612  34.339  1.00  0.00     0.041 C 
ATOM     23  O   UNL     1      35.047  58.637  34.602  1.00  0.00    -0.550 OA
ATOM     24  O   UNL     1      36.713  57.193  35.225  1.00  0.00    -0.550 OA
ENDBRANCH  21  22
ENDBRANCH  20  21
ENDBRANCH  19  20
ENDBRANCH  18  19
ENDBRANCH  17  18
ENDBRANCH  16  17
ENDBRANCH  15  16
ENDBRANCH  14  15
ENDBRANCH  13  14
ENDBRANCH   1  13
TORSDOF 20
ENDMDL
