MODEL 1
REMARK VINA RESULT:    -7.865      0.000      0.000
REMARK INTER + INTRA:         -11.805
REMARK INTER:                 -10.854
REMARK INTRA:                  -0.951
REMARK UNBOUND:                -0.951
REMARK SMILES CC[C@@H](CC[C@@H](C)[C@@H]1CC[C@@H]2[C@H]3CC=C4C[C@H](O)CC[C@]4(C)[C@@H]3CC[C@@]21C)C(C)C
REMARK SMILES IDX 5 1 4 2 3 3 2 4 1 5 28 6 29 7 30 8 6 9 7 10 8 11 9 12 26 13
REMARK SMILES IDX 10 14 11 15 25 16 27 17 12 18 24 19 23 20 13 21 21 22 14 23
REMARK SMILES IDX 15 24 20 25 22 26 16 27 19 28 17 29 18 30
REMARK H PARENT 18 31
REMARK Flexibility Score: inf
ROOT
ATOM      1  C   UNL     1     120.379 129.078 128.603  1.00  0.00     0.004 C 
ENDROOT
BRANCH   1   2
ATOM      2  C   UNL     1     120.744 130.495 129.109  1.00  0.00     0.004 C 
BRANCH   2   3
ATOM      3  C   UNL     1     120.938 131.576 127.998  1.00  0.00    -0.009 C 
BRANCH   3   4
ATOM      4  C   UNL     1     122.414 132.064 127.973  1.00  0.00     0.000 C 
ATOM      5  C   UNL     1     122.640 133.357 128.756  1.00  0.00     0.004 C 
ENDBRANCH   3   4
BRANCH   3   6
ATOM      6  C   UNL     1     119.978 132.815 128.100  1.00  0.00    -0.014 C 
ATOM      7  C   UNL     1     118.625 132.518 128.772  1.00  0.00     0.007 C 
ATOM      8  C   UNL     1     119.751 133.533 126.762  1.00  0.00     0.007 C 
ENDBRANCH   3   6
ENDBRANCH   2   3
ENDBRANCH   1   2
BRANCH   1   9
ATOM      9  C   UNL     1     119.294 128.305 129.401  1.00  0.00    -0.011 C 
ATOM     10  C   UNL     1     118.572 129.213 130.406  1.00  0.00     0.008 C 
BRANCH   9  11
ATOM     11  C   UNL     1     118.354 127.425 128.489  1.00  0.00    -0.002 C 
ATOM     12  C   UNL     1     116.886 127.833 128.417  1.00  0.00     0.005 C 
ATOM     13  C   UNL     1     118.310 125.897 128.802  1.00  0.00    -0.026 C 
ATOM     14  C   UNL     1     116.206 126.672 127.718  1.00  0.00     0.005 C 
ATOM     15  C   UNL     1     117.014 125.407 128.068  1.00  0.00    -0.001 C 
ATOM     16  C   UNL     1     118.203 125.606 130.331  1.00  0.00     0.007 C 
ATOM     17  C   UNL     1     119.583 125.231 128.228  1.00  0.00     0.012 C 
ATOM     18  C   UNL     1     116.146 124.402 128.887  1.00  0.00     0.000 C 
ATOM     19  C   UNL     1     117.930 124.129 130.678  1.00  0.00     0.005 C 
ATOM     20  C   UNL     1     117.038 123.386 129.640  1.00  0.00     0.003 C 
ATOM     21  C   UNL     1     115.165 123.651 127.973  1.00  0.00     0.031 C 
ATOM     22  C   UNL     1     116.262 122.075 130.157  1.00  0.00    -0.008 C 
ATOM     23  C   UNL     1     114.261 122.827 128.832  1.00  0.00    -0.027 C 
ATOM     24  C   UNL     1     114.748 122.140 129.881  1.00  0.00    -0.065 C 
ATOM     25  C   UNL     1     116.440 121.823 131.684  1.00  0.00     0.014 C 
ATOM     26  C   UNL     1     116.832 120.857 129.379  1.00  0.00     0.016 C 
ATOM     27  C   UNL     1     113.764 121.549 130.873  1.00  0.00     0.063 C 
ATOM     28  C   UNL     1     115.720 120.565 132.211  1.00  0.00     0.033 C 
ATOM     29  C   UNL     1     114.333 120.309 131.570  1.00  0.00     0.118 C 
BRANCH  29  30
ATOM     30  O   UNL     1     113.422 119.888 132.549  1.00  0.00    -0.393 OA
ATOM     31  H   UNL     1     113.923 119.836 133.404  1.00  0.00     0.210 HD
ENDBRANCH  29  30
ENDBRANCH   9  11
ENDBRANCH   1   9
TORSDOF 7
ENDMDL
MODEL 2
REMARK VINA RESULT:    -7.650      1.802      3.402
REMARK INTER + INTRA:         -11.508
REMARK INTER:                 -10.413
REMARK INTRA:                  -1.095
REMARK UNBOUND:                -0.951
REMARK SMILES CC[C@@H](CC[C@@H](C)[C@@H]1CC[C@@H]2[C@H]3CC=C4C[C@H](O)CC[C@]4(C)[C@@H]3CC[C@@]21C)C(C)C
REMARK SMILES IDX 5 1 4 2 3 3 2 4 1 5 28 6 29 7 30 8 6 9 7 10 8 11 9 12 26 13
REMARK SMILES IDX 10 14 11 15 25 16 27 17 12 18 24 19 23 20 13 21 21 22 14 23
REMARK SMILES IDX 15 24 20 25 22 26 16 27 19 28 17 29 18 30
REMARK H PARENT 18 31
REMARK Flexibility Score: inf
ROOT
ATOM      1  C   UNL     1     119.489 129.933 129.868  1.00  0.00     0.004 C 
ENDROOT
BRANCH   1   2
ATOM      2  C   UNL     1     120.763 130.766 129.587  1.00  0.00     0.004 C 
BRANCH   2   3
ATOM      3  C   UNL     1     120.524 132.280 129.283  1.00  0.00    -0.009 C 
BRANCH   3   4
ATOM      4  C   UNL     1     119.170 132.473 128.543  1.00  0.00     0.000 C 
ATOM      5  C   UNL     1     119.301 133.243 127.229  1.00  0.00     0.004 C 
ENDBRANCH   3   4
BRANCH   3   6
ATOM      6  C   UNL     1     121.669 132.986 128.473  1.00  0.00    -0.014 C 
ATOM      7  C   UNL     1     122.819 132.051 128.052  1.00  0.00     0.007 C 
ATOM      8  C   UNL     1     122.236 134.233 129.165  1.00  0.00     0.007 C 
ENDBRANCH   3   6
ENDBRANCH   2   3
ENDBRANCH   1   2
BRANCH   1   9
ATOM      9  C   UNL     1     119.304 128.632 129.040  1.00  0.00    -0.011 C 
ATOM     10  C   UNL     1     120.393 128.479 127.969  1.00  0.00     0.008 C 
BRANCH   9  11
ATOM     11  C   UNL     1     119.047 127.355 129.931  1.00  0.00    -0.002 C 
ATOM     12  C   UNL     1     120.073 126.230 129.832  1.00  0.00     0.005 C 
ATOM     13  C   UNL     1     117.675 126.636 129.740  1.00  0.00    -0.026 C 
ATOM     14  C   UNL     1     119.427 125.066 130.558  1.00  0.00     0.005 C 
ATOM     15  C   UNL     1     117.903 125.228 130.389  1.00  0.00    -0.001 C 
ATOM     16  C   UNL     1     117.288 126.479 128.237  1.00  0.00     0.007 C 
ATOM     17  C   UNL     1     116.582 127.442 130.483  1.00  0.00     0.012 C 
ATOM     18  C   UNL     1     117.305 124.036 129.578  1.00  0.00     0.000 C 
ATOM     19  C   UNL     1     116.061 125.582 127.988  1.00  0.00     0.005 C 
ATOM     20  C   UNL     1     115.918 124.403 128.997  1.00  0.00     0.003 C 
ATOM     21  C   UNL     1     117.181 122.781 130.456  1.00  0.00     0.031 C 
ATOM     22  C   UNL     1     115.042 123.141 128.519  1.00  0.00    -0.008 C 
ATOM     23  C   UNL     1     116.755 121.642 129.588  1.00  0.00    -0.027 C 
ATOM     24  C   UNL     1     115.808 121.811 128.648  1.00  0.00    -0.065 C 
ATOM     25  C   UNL     1     114.564 123.255 127.041  1.00  0.00     0.014 C 
ATOM     26  C   UNL     1     113.796 123.061 129.444  1.00  0.00     0.016 C 
ATOM     27  C   UNL     1     115.609 120.713 127.621  1.00  0.00     0.063 C 
ATOM     28  C   UNL     1     113.709 122.068 126.555  1.00  0.00     0.033 C 
ATOM     29  C   UNL     1     114.174 120.688 127.083  1.00  0.00     0.118 C 
BRANCH  29  30
ATOM     30  O   UNL     1     114.095 119.731 126.061  1.00  0.00    -0.393 OA
ATOM     31  H   UNL     1     114.979 119.716 125.612  1.00  0.00     0.210 HD
ENDBRANCH  29  30
ENDBRANCH   9  11
ENDBRANCH   1   9
TORSDOF 7
ENDMDL
MODEL 3
REMARK VINA RESULT:    -7.513      3.404      8.745
REMARK INTER + INTRA:         -11.319
REMARK INTER:                 -10.314
REMARK INTRA:                  -1.005
REMARK UNBOUND:                -0.951
REMARK SMILES CC[C@@H](CC[C@@H](C)[C@@H]1CC[C@@H]2[C@H]3CC=C4C[C@H](O)CC[C@]4(C)[C@@H]3CC[C@@]21C)C(C)C
REMARK SMILES IDX 5 1 4 2 3 3 2 4 1 5 28 6 29 7 30 8 6 9 7 10 8 11 9 12 26 13
REMARK SMILES IDX 10 14 11 15 25 16 27 17 12 18 24 19 23 20 13 21 21 22 14 23
REMARK SMILES IDX 15 24 20 25 22 26 16 27 19 28 17 29 18 30
REMARK H PARENT 18 31
REMARK Flexibility Score: inf
ROOT
ATOM      1  C   UNL     1     115.814 121.289 132.909  1.00  0.00     0.004 C 
ENDROOT
BRANCH   1   2
ATOM      2  C   UNL     1     117.040 120.700 133.647  1.00  0.00     0.004 C 
BRANCH   2   3
ATOM      3  C   UNL     1     118.301 120.446 132.761  1.00  0.00    -0.009 C 
BRANCH   3   4
ATOM      4  C   UNL     1     119.152 119.287 133.354  1.00  0.00     0.000 C 
ATOM      5  C   UNL     1     118.383 118.413 134.344  1.00  0.00     0.004 C 
ENDBRANCH   3   4
BRANCH   3   6
ATOM      6  C   UNL     1     119.216 121.701 132.529  1.00  0.00    -0.014 C 
ATOM      7  C   UNL     1     119.451 122.051 131.047  1.00  0.00     0.007 C 
ATOM      8  C   UNL     1     120.558 121.633 133.270  1.00  0.00     0.007 C 
ENDBRANCH   3   6
ENDBRANCH   2   3
ENDBRANCH   1   2
BRANCH   1   9
ATOM      9  C   UNL     1     115.047 120.337 131.951  1.00  0.00    -0.011 C 
ATOM     10  C   UNL     1     113.587 120.147 132.385  1.00  0.00     0.008 C 
BRANCH   9  11
ATOM     11  C   UNL     1     115.259 120.681 130.425  1.00  0.00    -0.002 C 
ATOM     12  C   UNL     1     116.525 120.139 129.768  1.00  0.00     0.005 C 
ATOM     13  C   UNL     1     115.250 122.194 130.043  1.00  0.00    -0.026 C 
ATOM     14  C   UNL     1     116.588 120.849 128.429  1.00  0.00     0.005 C 
ATOM     15  C   UNL     1     115.908 122.219 128.621  1.00  0.00    -0.001 C 
ATOM     16  C   UNL     1     116.081 123.064 131.036  1.00  0.00     0.007 C 
ATOM     17  C   UNL     1     113.785 122.691 130.009  1.00  0.00     0.012 C 
ATOM     18  C   UNL     1     116.927 123.380 128.400  1.00  0.00     0.000 C 
ATOM     19  C   UNL     1     116.290 124.521 130.581  1.00  0.00     0.005 C 
ATOM     20  C   UNL     1     116.416 124.694 129.038  1.00  0.00     0.003 C 
ATOM     21  C   UNL     1     117.191 123.601 126.902  1.00  0.00     0.031 C 
ATOM     22  C   UNL     1     117.161 126.021 128.515  1.00  0.00    -0.008 C 
ATOM     23  C   UNL     1     118.285 124.610 126.763  1.00  0.00    -0.027 C 
ATOM     24  C   UNL     1     118.314 125.705 127.544  1.00  0.00    -0.065 C 
ATOM     25  C   UNL     1     117.756 126.882 129.670  1.00  0.00     0.014 C 
ATOM     26  C   UNL     1     116.114 126.872 127.744  1.00  0.00     0.016 C 
ATOM     27  C   UNL     1     119.576 126.547 127.556  1.00  0.00     0.063 C 
ATOM     28  C   UNL     1     118.465 128.169 129.204  1.00  0.00     0.033 C 
ATOM     29  C   UNL     1     119.281 128.012 127.896  1.00  0.00     0.118 C 
BRANCH  29  30
ATOM     30  O   UNL     1     120.497 128.701 128.003  1.00  0.00    -0.393 OA
ATOM     31  H   UNL     1     120.337 129.620 127.665  1.00  0.00     0.210 HD
ENDBRANCH  29  30
ENDBRANCH   9  11
ENDBRANCH   1   9
TORSDOF 7
ENDMDL
MODEL 4
REMARK VINA RESULT:    -7.449      4.067      6.991
REMARK INTER + INTRA:         -11.231
REMARK INTER:                 -10.370
REMARK INTRA:                  -0.861
REMARK UNBOUND:                -0.951
REMARK SMILES CC[C@@H](CC[C@@H](C)[C@@H]1CC[C@@H]2[C@H]3CC=C4C[C@H](O)CC[C@]4(C)[C@@H]3CC[C@@]21C)C(C)C
REMARK SMILES IDX 5 1 4 2 3 3 2 4 1 5 28 6 29 7 30 8 6 9 7 10 8 11 9 12 26 13
REMARK SMILES IDX 10 14 11 15 25 16 27 17 12 18 24 19 23 20 13 21 21 22 14 23
REMARK SMILES IDX 15 24 20 25 22 26 16 27 19 28 17 29 18 30
REMARK H PARENT 18 31
REMARK Flexibility Score: inf
ROOT
ATOM      1  C   UNL     1     115.280 122.788 127.297  1.00  0.00     0.004 C 
ENDROOT
BRANCH   1   2
ATOM      2  C   UNL     1     115.111 124.256 127.759  1.00  0.00     0.004 C 
BRANCH   2   3
ATOM      3  C   UNL     1     116.422 125.104 127.797  1.00  0.00    -0.009 C 
BRANCH   3   4
ATOM      4  C   UNL     1     117.594 124.315 127.147  1.00  0.00     0.000 C 
ATOM      5  C   UNL     1     118.732 125.209 126.657  1.00  0.00     0.004 C 
ENDBRANCH   3   4
BRANCH   3   6
ATOM      6  C   UNL     1     116.853 125.601 129.223  1.00  0.00    -0.014 C 
ATOM      7  C   UNL     1     116.231 124.808 130.387  1.00  0.00     0.007 C 
ATOM      8  C   UNL     1     116.642 127.105 129.443  1.00  0.00     0.007 C 
ENDBRANCH   3   6
ENDBRANCH   2   3
ENDBRANCH   1   2
BRANCH   1   9
ATOM      9  C   UNL     1     114.082 121.832 127.545  1.00  0.00    -0.011 C 
ATOM     10  C   UNL     1     113.951 120.783 126.432  1.00  0.00     0.008 C 
BRANCH   9  11
ATOM     11  C   UNL     1     114.029 121.266 129.017  1.00  0.00    -0.002 C 
ATOM     12  C   UNL     1     113.651 122.251 130.120  1.00  0.00     0.005 C 
ATOM     13  C   UNL     1     115.326 120.579 129.548  1.00  0.00    -0.026 C 
ATOM     14  C   UNL     1     113.953 121.509 131.407  1.00  0.00     0.005 C 
ATOM     15  C   UNL     1     115.114 120.542 131.101  1.00  0.00    -0.001 C 
ATOM     16  C   UNL     1     116.613 121.389 129.201  1.00  0.00     0.007 C 
ATOM     17  C   UNL     1     115.421 119.157 128.946  1.00  0.00     0.012 C 
ATOM     18  C   UNL     1     116.380 120.911 131.937  1.00  0.00     0.000 C 
ATOM     19  C   UNL     1     117.891 120.876 129.892  1.00  0.00     0.005 C 
ATOM     20  C   UNL     1     117.653 120.288 131.315  1.00  0.00     0.003 C 
ATOM     21  C   UNL     1     116.233 120.442 133.392  1.00  0.00     0.031 C 
ATOM     22  C   UNL     1     118.922 120.246 132.304  1.00  0.00    -0.008 C 
ATOM     23  C   UNL     1     117.398 120.961 134.172  1.00  0.00    -0.027 C 
ATOM     24  C   UNL     1     118.639 120.929 133.655  1.00  0.00    -0.065 C 
ATOM     25  C   UNL     1     120.188 120.925 131.701  1.00  0.00     0.014 C 
ATOM     26  C   UNL     1     119.242 118.751 132.588  1.00  0.00     0.016 C 
ATOM     27  C   UNL     1     119.733 121.708 134.360  1.00  0.00     0.063 C 
ATOM     28  C   UNL     1     121.428 120.888 132.618  1.00  0.00     0.033 C 
ATOM     29  C   UNL     1     121.116 121.094 134.121  1.00  0.00     0.118 C 
BRANCH  29  30
ATOM     30  O   UNL     1     122.083 121.927 134.702  1.00  0.00    -0.393 OA
ATOM     31  H   UNL     1     121.966 122.826 134.301  1.00  0.00     0.210 HD
ENDBRANCH  29  30
ENDBRANCH   9  11
ENDBRANCH   1   9
TORSDOF 7
ENDMDL
MODEL 5
REMARK VINA RESULT:    -7.390      3.216      8.837
REMARK INTER + INTRA:         -11.149
REMARK INTER:                  -9.652
REMARK INTRA:                  -1.497
REMARK UNBOUND:                -0.951
REMARK SMILES CC[C@@H](CC[C@@H](C)[C@@H]1CC[C@@H]2[C@H]3CC=C4C[C@H](O)CC[C@]4(C)[C@@H]3CC[C@@]21C)C(C)C
REMARK SMILES IDX 5 1 4 2 3 3 2 4 1 5 28 6 29 7 30 8 6 9 7 10 8 11 9 12 26 13
REMARK SMILES IDX 10 14 11 15 25 16 27 17 12 18 24 19 23 20 13 21 21 22 14 23
REMARK SMILES IDX 15 24 20 25 22 26 16 27 19 28 17 29 18 30
REMARK H PARENT 18 31
REMARK Flexibility Score: inf
ROOT
ATOM      1  C   UNL     1     116.168 119.289 128.637  1.00  0.00     0.004 C 
ENDROOT
BRANCH   1   2
ATOM      2  C   UNL     1     115.214 119.551 129.827  1.00  0.00     0.004 C 
BRANCH   2   3
ATOM      3  C   UNL     1     115.664 120.675 130.815  1.00  0.00    -0.009 C 
BRANCH   3   4
ATOM      4  C   UNL     1     116.668 120.106 131.857  1.00  0.00     0.000 C 
ATOM      5  C   UNL     1     117.237 121.169 132.797  1.00  0.00     0.004 C 
ENDBRANCH   3   4
BRANCH   3   6
ATOM      6  C   UNL     1     114.495 121.410 131.563  1.00  0.00    -0.014 C 
ATOM      7  C   UNL     1     113.599 120.485 132.408  1.00  0.00     0.007 C 
ATOM      8  C   UNL     1     113.628 122.284 130.646  1.00  0.00     0.007 C 
ENDBRANCH   3   6
ENDBRANCH   2   3
ENDBRANCH   1   2
BRANCH   1   9
ATOM      9  C   UNL     1     117.609 119.854 128.755  1.00  0.00    -0.011 C 
ATOM     10  C   UNL     1     118.655 118.733 128.847  1.00  0.00     0.008 C 
BRANCH   9  11
ATOM     11  C   UNL     1     117.925 120.988 127.705  1.00  0.00    -0.002 C 
ATOM     12  C   UNL     1     119.395 121.232 127.376  1.00  0.00     0.005 C 
ATOM     13  C   UNL     1     117.366 122.410 128.024  1.00  0.00    -0.026 C 
ATOM     14  C   UNL     1     119.394 122.525 126.583  1.00  0.00     0.005 C 
ATOM     15  C   UNL     1     118.192 123.351 127.082  1.00  0.00    -0.001 C 
ATOM     16  C   UNL     1     117.582 122.814 129.514  1.00  0.00     0.007 C 
ATOM     17  C   UNL     1     115.855 122.440 127.685  1.00  0.00     0.012 C 
ATOM     18  C   UNL     1     118.670 124.678 127.751  1.00  0.00     0.000 C 
ATOM     19  C   UNL     1     117.254 124.287 129.826  1.00  0.00     0.005 C 
ATOM     20  C   UNL     1     117.565 125.270 128.658  1.00  0.00     0.003 C 
ATOM     21  C   UNL     1     119.077 125.713 126.690  1.00  0.00     0.031 C 
ATOM     22  C   UNL     1     117.782 126.816 129.049  1.00  0.00    -0.008 C 
ATOM     23  C   UNL     1     119.670 126.893 127.390  1.00  0.00    -0.027 C 
ATOM     24  C   UNL     1     119.113 127.376 128.514  1.00  0.00    -0.065 C 
ATOM     25  C   UNL     1     117.762 127.065 130.586  1.00  0.00     0.014 C 
ATOM     26  C   UNL     1     116.630 127.629 128.395  1.00  0.00     0.016 C 
ATOM     27  C   UNL     1     119.898 128.387 129.329  1.00  0.00     0.063 C 
ATOM     28  C   UNL     1     117.953 128.539 130.995  1.00  0.00     0.033 C 
ATOM     29  C   UNL     1     118.976 129.315 130.128  1.00  0.00     0.118 C 
BRANCH  29  30
ATOM     30  O   UNL     1     119.766 130.141 130.940  1.00  0.00    -0.393 OA
ATOM     31  H   UNL     1     120.709 129.987 130.675  1.00  0.00     0.210 HD
ENDBRANCH  29  30
ENDBRANCH   9  11
ENDBRANCH   1   9
TORSDOF 7
ENDMDL
MODEL 6
REMARK VINA RESULT:    -7.198      3.884      9.786
REMARK INTER + INTRA:         -10.884
REMARK INTER:                  -9.138
REMARK INTRA:                  -1.746
REMARK UNBOUND:                -0.951
REMARK SMILES CC[C@@H](CC[C@@H](C)[C@@H]1CC[C@@H]2[C@H]3CC=C4C[C@H](O)CC[C@]4(C)[C@@H]3CC[C@@]21C)C(C)C
REMARK SMILES IDX 5 1 4 2 3 3 2 4 1 5 28 6 29 7 30 8 6 9 7 10 8 11 9 12 26 13
REMARK SMILES IDX 10 14 11 15 25 16 27 17 12 18 24 19 23 20 13 21 21 22 14 23
REMARK SMILES IDX 15 24 20 25 22 26 16 27 19 28 17 29 18 30
REMARK H PARENT 18 31
REMARK Flexibility Score: inf
ROOT
ATOM      1  C   UNL     1     117.018 118.229 128.333  1.00  0.00     0.004 C 
ENDROOT
BRANCH   1   2
ATOM      2  C   UNL     1     117.886 117.049 127.833  1.00  0.00     0.004 C 
BRANCH   2   3
ATOM      3  C   UNL     1     118.087 116.971 126.286  1.00  0.00    -0.009 C 
BRANCH   3   4
ATOM      4  C   UNL     1     117.713 115.555 125.764  1.00  0.00     0.000 C 
ATOM      5  C   UNL     1     118.647 115.044 124.667  1.00  0.00     0.004 C 
ENDBRANCH   3   4
BRANCH   3   6
ATOM      6  C   UNL     1     119.525 117.351 125.781  1.00  0.00    -0.014 C 
ATOM      7  C   UNL     1     120.592 117.414 126.890  1.00  0.00     0.007 C 
ATOM      8  C   UNL     1     119.566 118.636 124.943  1.00  0.00     0.007 C 
ENDBRANCH   3   6
ENDBRANCH   2   3
ENDBRANCH   1   2
BRANCH   1   9
ATOM      9  C   UNL     1     117.768 119.447 128.935  1.00  0.00    -0.011 C 
ATOM     10  C   UNL     1     118.970 119.013 129.785  1.00  0.00     0.008 C 
BRANCH   9  11
ATOM     11  C   UNL     1     118.062 120.584 127.881  1.00  0.00    -0.002 C 
ATOM     12  C   UNL     1     119.528 120.907 127.607  1.00  0.00     0.005 C 
ATOM     13  C   UNL     1     117.411 121.976 128.156  1.00  0.00    -0.026 C 
ATOM     14  C   UNL     1     119.487 122.187 126.795  1.00  0.00     0.005 C 
ATOM     15  C   UNL     1     118.222 122.951 127.234  1.00  0.00    -0.001 C 
ATOM     16  C   UNL     1     117.545 122.411 129.648  1.00  0.00     0.007 C 
ATOM     17  C   UNL     1     115.917 121.917 127.758  1.00  0.00     0.012 C 
ATOM     18  C   UNL     1     118.597 124.311 127.902  1.00  0.00     0.000 C 
ATOM     19  C   UNL     1     117.123 123.867 129.925  1.00  0.00     0.005 C 
ATOM     20  C   UNL     1     117.425 124.851 128.755  1.00  0.00     0.003 C 
ATOM     21  C   UNL     1     118.988 125.353 126.842  1.00  0.00     0.031 C 
ATOM     22  C   UNL     1     117.540 126.411 129.131  1.00  0.00    -0.008 C 
ATOM     23  C   UNL     1     119.485 126.574 127.547  1.00  0.00    -0.027 C 
ATOM     24  C   UNL     1     118.858 127.039 128.642  1.00  0.00    -0.065 C 
ATOM     25  C   UNL     1     117.444 126.678 130.663  1.00  0.00     0.014 C 
ATOM     26  C   UNL     1     116.372 127.150 128.420  1.00  0.00     0.016 C 
ATOM     27  C   UNL     1     119.552 128.103 129.471  1.00  0.00     0.063 C 
ATOM     28  C   UNL     1     117.536 128.166 131.057  1.00  0.00     0.033 C 
ATOM     29  C   UNL     1     118.548 128.987 130.219  1.00  0.00     0.118 C 
BRANCH  29  30
ATOM     30  O   UNL     1     119.257 129.867 131.050  1.00  0.00    -0.393 OA
ATOM     31  H   UNL     1     118.784 129.884 131.921  1.00  0.00     0.210 HD
ENDBRANCH  29  30
ENDBRANCH   9  11
ENDBRANCH   1   9
TORSDOF 7
ENDMDL
MODEL 7
REMARK VINA RESULT:    -7.103      3.215      9.047
REMARK INTER + INTRA:         -10.753
REMARK INTER:                  -9.586
REMARK INTRA:                  -1.168
REMARK UNBOUND:                -0.951
REMARK SMILES CC[C@@H](CC[C@@H](C)[C@@H]1CC[C@@H]2[C@H]3CC=C4C[C@H](O)CC[C@]4(C)[C@@H]3CC[C@@]21C)C(C)C
REMARK SMILES IDX 5 1 4 2 3 3 2 4 1 5 28 6 29 7 30 8 6 9 7 10 8 11 9 12 26 13
REMARK SMILES IDX 10 14 11 15 25 16 27 17 12 18 24 19 23 20 13 21 21 22 14 23
REMARK SMILES IDX 15 24 20 25 22 26 16 27 19 28 17 29 18 30
REMARK H PARENT 18 31
REMARK Flexibility Score: inf
ROOT
ATOM      1  C   UNL     1     116.791 119.198 127.745  1.00  0.00     0.004 C 
ENDROOT
BRANCH   1   2
ATOM      2  C   UNL     1     115.658 118.790 128.719  1.00  0.00     0.004 C 
BRANCH   2   3
ATOM      3  C   UNL     1     114.420 119.743 128.747  1.00  0.00    -0.009 C 
BRANCH   3   4
ATOM      4  C   UNL     1     114.451 120.703 127.524  1.00  0.00     0.000 C 
ATOM      5  C   UNL     1     113.576 120.237 126.361  1.00  0.00     0.004 C 
ENDBRANCH   3   4
BRANCH   3   6
ATOM      6  C   UNL     1     114.254 120.580 130.065  1.00  0.00    -0.014 C 
ATOM      7  C   UNL     1     113.903 122.062 129.838  1.00  0.00     0.007 C 
ATOM      8  C   UNL     1     115.447 120.466 131.024  1.00  0.00     0.007 C 
ENDBRANCH   3   6
ENDBRANCH   2   3
ENDBRANCH   1   2
BRANCH   1   9
ATOM      9  C   UNL     1     117.908 120.115 128.313  1.00  0.00    -0.011 C 
ATOM     10  C   UNL     1     119.101 119.303 128.836  1.00  0.00     0.008 C 
BRANCH   9  11
ATOM     11  C   UNL     1     118.275 121.317 127.359  1.00  0.00    -0.002 C 
ATOM     12  C   UNL     1     119.759 121.579 127.121  1.00  0.00     0.005 C 
ATOM     13  C   UNL     1     117.700 122.715 127.746  1.00  0.00    -0.026 C 
ATOM     14  C   UNL     1     119.797 122.922 126.419  1.00  0.00     0.005 C 
ATOM     15  C   UNL     1     118.572 123.717 126.913  1.00  0.00    -0.001 C 
ATOM     16  C   UNL     1     117.842 123.017 129.270  1.00  0.00     0.007 C 
ATOM     17  C   UNL     1     116.208 122.773 127.336  1.00  0.00     0.012 C 
ATOM     18  C   UNL     1     119.016 124.993 127.694  1.00  0.00     0.000 C 
ATOM     19  C   UNL     1     117.498 124.466 129.665  1.00  0.00     0.005 C 
ATOM     20  C   UNL     1     117.866 125.525 128.583  1.00  0.00     0.003 C 
ATOM     21  C   UNL     1     119.475 126.096 126.727  1.00  0.00     0.031 C 
ATOM     22  C   UNL     1     118.064 127.040 129.089  1.00  0.00    -0.008 C 
ATOM     23  C   UNL     1     120.031 127.225 127.534  1.00  0.00    -0.027 C 
ATOM     24  C   UNL     1     119.419 127.632 128.660  1.00  0.00    -0.065 C 
ATOM     25  C   UNL     1     117.967 127.184 130.637  1.00  0.00     0.014 C 
ATOM     26  C   UNL     1     116.945 127.900 128.435  1.00  0.00     0.016 C 
ATOM     27  C   UNL     1     120.162 128.582 129.580  1.00  0.00     0.063 C 
ATOM     28  C   UNL     1     118.137 128.627 131.154  1.00  0.00     0.033 C 
ATOM     29  C   UNL     1     119.202 129.456 130.394  1.00  0.00     0.118 C 
BRANCH  29  30
ATOM     30  O   UNL     1     119.950 130.222 131.299  1.00  0.00    -0.393 OA
ATOM     31  H   UNL     1     120.389 130.940 130.773  1.00  0.00     0.210 HD
ENDBRANCH  29  30
ENDBRANCH   9  11
ENDBRANCH   1   9
TORSDOF 7
ENDMDL
MODEL 8
REMARK VINA RESULT:    -6.986      4.623      7.785
REMARK INTER + INTRA:         -10.591
REMARK INTER:                  -8.754
REMARK INTRA:                  -1.837
REMARK UNBOUND:                -0.951
REMARK SMILES CC[C@@H](CC[C@@H](C)[C@@H]1CC[C@@H]2[C@H]3CC=C4C[C@H](O)CC[C@]4(C)[C@@H]3CC[C@@]21C)C(C)C
REMARK SMILES IDX 5 1 4 2 3 3 2 4 1 5 28 6 29 7 30 8 6 9 7 10 8 11 9 12 26 13
REMARK SMILES IDX 10 14 11 15 25 16 27 17 12 18 24 19 23 20 13 21 21 22 14 23
REMARK SMILES IDX 15 24 20 25 22 26 16 27 19 28 17 29 18 30
REMARK H PARENT 18 31
REMARK Flexibility Score: inf
ROOT
ATOM      1  C   UNL     1     116.603 125.261 130.163  1.00  0.00     0.004 C 
ENDROOT
BRANCH   1   2
ATOM      2  C   UNL     1     115.515 124.444 130.902  1.00  0.00     0.004 C 
BRANCH   2   3
ATOM      3  C   UNL     1     115.171 123.056 130.273  1.00  0.00    -0.009 C 
BRANCH   3   4
ATOM      4  C   UNL     1     113.743 123.082 129.660  1.00  0.00     0.000 C 
ATOM      5  C   UNL     1     113.729 122.895 128.143  1.00  0.00     0.004 C 
ENDBRANCH   3   4
BRANCH   3   6
ATOM      6  C   UNL     1     115.300 121.833 131.249  1.00  0.00    -0.014 C 
ATOM      7  C   UNL     1     116.702 121.652 131.861  1.00  0.00     0.007 C 
ATOM      8  C   UNL     1     114.819 120.506 130.643  1.00  0.00     0.007 C 
ENDBRANCH   3   6
ENDBRANCH   2   3
ENDBRANCH   1   2
BRANCH   1   9
ATOM      9  C   UNL     1     116.588 125.207 128.612  1.00  0.00    -0.011 C 
ATOM     10  C   UNL     1     115.916 126.447 128.005  1.00  0.00     0.008 C 
BRANCH   9  11
ATOM     11  C   UNL     1     117.984 124.820 127.985  1.00  0.00    -0.002 C 
ATOM     12  C   UNL     1     118.120 124.957 126.471  1.00  0.00     0.005 C 
ATOM     13  C   UNL     1     118.509 123.382 128.287  1.00  0.00    -0.026 C 
ATOM     14  C   UNL     1     119.430 124.265 126.148  1.00  0.00     0.005 C 
ATOM     15  C   UNL     1     119.626 123.164 127.208  1.00  0.00    -0.001 C 
ATOM     16  C   UNL     1     117.398 122.298 128.137  1.00  0.00     0.007 C 
ATOM     17  C   UNL     1     119.083 123.351 129.724  1.00  0.00     0.012 C 
ATOM     18  C   UNL     1     119.620 121.749 126.548  1.00  0.00     0.000 C 
ATOM     19  C   UNL     1     117.913 120.847 128.202  1.00  0.00     0.005 C 
ATOM     20  C   UNL     1     119.336 120.649 127.598  1.00  0.00     0.003 C 
ATOM     21  C   UNL     1     120.960 121.464 125.851  1.00  0.00     0.031 C 
ATOM     22  C   UNL     1     119.722 119.161 127.124  1.00  0.00    -0.008 C 
ATOM     23  C   UNL     1     120.836 120.172 125.109  1.00  0.00    -0.027 C 
ATOM     24  C   UNL     1     120.213 119.118 125.665  1.00  0.00    -0.065 C 
ATOM     25  C   UNL     1     118.536 118.157 127.240  1.00  0.00     0.014 C 
ATOM     26  C   UNL     1     120.885 118.669 128.030  1.00  0.00     0.016 C 
ATOM     27  C   UNL     1     119.874 117.934 124.780  1.00  0.00     0.063 C 
ATOM     28  C   UNL     1     118.876 116.717 126.806  1.00  0.00     0.033 C 
ATOM     29  C   UNL     1     119.813 116.625 125.575  1.00  0.00     0.118 C 
BRANCH  29  30
ATOM     30  O   UNL     1     119.384 115.600 124.721  1.00  0.00    -0.393 OA
ATOM     31  H   UNL     1     119.790 115.777 123.833  1.00  0.00     0.210 HD
ENDBRANCH  29  30
ENDBRANCH   9  11
ENDBRANCH   1   9
TORSDOF 7
ENDMDL
MODEL 9
REMARK VINA RESULT:    -6.923      4.758      7.962
REMARK INTER + INTRA:         -10.505
REMARK INTER:                  -8.713
REMARK INTRA:                  -1.792
REMARK UNBOUND:                -0.951
REMARK SMILES CC[C@@H](CC[C@@H](C)[C@@H]1CC[C@@H]2[C@H]3CC=C4C[C@H](O)CC[C@]4(C)[C@@H]3CC[C@@]21C)C(C)C
REMARK SMILES IDX 5 1 4 2 3 3 2 4 1 5 28 6 29 7 30 8 6 9 7 10 8 11 9 12 26 13
REMARK SMILES IDX 10 14 11 15 25 16 27 17 12 18 24 19 23 20 13 21 21 22 14 23
REMARK SMILES IDX 15 24 20 25 22 26 16 27 19 28 17 29 18 30
REMARK H PARENT 18 31
REMARK Flexibility Score: inf
ROOT
ATOM      1  C   UNL     1     115.643 124.515 127.773  1.00  0.00     0.004 C 
ENDROOT
BRANCH   1   2
ATOM      2  C   UNL     1     114.457 123.522 127.737  1.00  0.00     0.004 C 
BRANCH   2   3
ATOM      3  C   UNL     1     114.847 122.011 127.656  1.00  0.00    -0.009 C 
BRANCH   3   4
ATOM      4  C   UNL     1     114.020 121.299 126.549  1.00  0.00     0.000 C 
ATOM      5  C   UNL     1     113.490 122.252 125.477  1.00  0.00     0.004 C 
ENDBRANCH   3   4
BRANCH   3   6
ATOM      6  C   UNL     1     114.711 121.216 129.004  1.00  0.00    -0.014 C 
ATOM      7  C   UNL     1     114.434 119.711 128.828  1.00  0.00     0.007 C 
ATOM      8  C   UNL     1     113.694 121.824 129.980  1.00  0.00     0.007 C 
ENDBRANCH   3   6
ENDBRANCH   2   3
ENDBRANCH   1   2
BRANCH   1   9
ATOM      9  C   UNL     1     117.071 123.905 127.771  1.00  0.00    -0.011 C 
ATOM     10  C   UNL     1     117.764 124.083 126.413  1.00  0.00     0.008 C 
BRANCH   9  11
ATOM     11  C   UNL     1     117.930 124.318 129.029  1.00  0.00    -0.002 C 
ATOM     12  C   UNL     1     119.445 124.349 128.847  1.00  0.00     0.005 C 
ATOM     13  C   UNL     1     117.719 123.475 130.325  1.00  0.00    -0.026 C 
ATOM     14  C   UNL     1     119.989 124.497 130.254  1.00  0.00     0.005 C 
ATOM     15  C   UNL     1     118.975 123.820 131.197  1.00  0.00    -0.001 C 
ATOM     16  C   UNL     1     117.668 121.943 130.038  1.00  0.00     0.007 C 
ATOM     17  C   UNL     1     116.404 123.927 131.006  1.00  0.00     0.012 C 
ATOM     18  C   UNL     1     119.618 122.594 131.918  1.00  0.00     0.000 C 
ATOM     19  C   UNL     1     117.688 121.060 131.300  1.00  0.00     0.005 C 
ATOM     20  C   UNL     1     118.530 121.644 132.473  1.00  0.00     0.003 C 
ATOM     21  C   UNL     1     120.538 123.050 133.062  1.00  0.00     0.031 C 
ATOM     22  C   UNL     1     119.058 120.601 133.578  1.00  0.00    -0.008 C 
ATOM     23  C   UNL     1     121.241 121.849 133.606  1.00  0.00    -0.027 C 
ATOM     24  C   UNL     1     120.580 120.693 133.794  1.00  0.00    -0.065 C 
ATOM     25  C   UNL     1     118.733 119.119 133.222  1.00  0.00     0.014 C 
ATOM     26  C   UNL     1     118.367 120.956 134.924  1.00  0.00     0.016 C 
ATOM     27  C   UNL     1     121.388 119.441 134.082  1.00  0.00     0.063 C 
ATOM     28  C   UNL     1     119.213 118.092 134.267  1.00  0.00     0.033 C 
ATOM     29  C   UNL     1     120.588 118.422 134.901  1.00  0.00     0.118 C 
BRANCH  29  30
ATOM     30  O   UNL     1     121.350 117.253 135.029  1.00  0.00    -0.393 OA
ATOM     31  H   UNL     1     122.235 117.440 134.622  1.00  0.00     0.210 HD
ENDBRANCH  29  30
ENDBRANCH   9  11
ENDBRANCH   1   9
TORSDOF 7
ENDMDL
