MODEL 1
REMARK VINA RESULT:    -2.892      0.000      0.000
REMARK INTER + INTRA:         -12.842
REMARK INTER:                  -7.287
REMARK INTRA:                  -5.556
REMARK UNBOUND:                -5.556
REMARK SMILES CCCCCCCCCCCCCCCCCCCCCCCCCCCC(=O)[O-]
REMARK SMILES IDX 15 1 16 2 17 3 18 4 19 5 20 6 21 7 22 8 23 9 24 10 25 11
REMARK SMILES IDX 26 12 27 13 28 14 29 15 30 16 14 17 13 18 12 19 11 20 10 21
REMARK SMILES IDX 9 22 8 23 7 24 6 25 5 26 4 27 3 28 2 29 1 30
REMARK H PARENT
REMARK Flexibility Score: inf
ROOT
ATOM      1  C   UNL     1      56.502  26.986  53.089  1.00  0.00     0.000 C 
ENDROOT
BRANCH   1   2
ATOM      2  C   UNL     1      56.847  25.534  52.701  1.00  0.00     0.000 C 
BRANCH   2   3
ATOM      3  C   UNL     1      56.284  25.111  51.333  1.00  0.00     0.000 C 
BRANCH   3   4
ATOM      4  C   UNL     1      54.764  25.289  51.228  1.00  0.00     0.000 C 
BRANCH   4   5
ATOM      5  C   UNL     1      54.394  26.140  50.005  1.00  0.00     0.000 C 
BRANCH   5   6
ATOM      6  C   UNL     1      53.382  27.257  50.325  1.00  0.00     0.000 C 
BRANCH   6   7
ATOM      7  C   UNL     1      53.975  28.676  50.384  1.00  0.00     0.000 C 
BRANCH   7   8
ATOM      8  C   UNL     1      53.355  29.540  51.496  1.00  0.00     0.000 C 
BRANCH   8   9
ATOM      9  C   UNL     1      53.634  28.983  52.900  1.00  0.00     0.000 C 
BRANCH   9  10
ATOM     10  C   UNL     1      54.235  30.038  53.846  1.00  0.00     0.000 C 
BRANCH  10  11
ATOM     11  C   UNL     1      54.649  31.323  53.095  1.00  0.00     0.000 C 
BRANCH  11  12
ATOM     12  C   UNL     1      55.680  32.173  53.858  1.00  0.00     0.006 C 
BRANCH  12  13
ATOM     13  C   UNL     1      56.649  31.353  54.723  1.00  0.00     0.053 C 
BRANCH  13  14
ATOM     14  C   UNL     1      58.069  31.492  54.267  1.00  0.00     0.041 C 
ATOM     15  O   UNL     1      58.377  32.352  53.401  1.00  0.00    -0.550 OA
ATOM     16  O   UNL     1      59.054  30.666  54.795  1.00  0.00    -0.550 OA
ENDBRANCH  13  14
ENDBRANCH  12  13
ENDBRANCH  11  12
ENDBRANCH  10  11
ENDBRANCH   9  10
ENDBRANCH   8   9
ENDBRANCH   7   8
ENDBRANCH   6   7
ENDBRANCH   5   6
ENDBRANCH   4   5
ENDBRANCH   3   4
ENDBRANCH   2   3
ENDBRANCH   1   2
BRANCH   1  17
ATOM     17  C   UNL     1      57.699  27.937  52.901  1.00  0.00     0.000 C 
BRANCH  17  18
ATOM     18  C   UNL     1      57.474  28.952  51.771  1.00  0.00     0.000 C 
BRANCH  18  19
ATOM     19  C   UNL     1      57.534  28.311  50.377  1.00  0.00     0.000 C 
BRANCH  19  20
ATOM     20  C   UNL     1      58.776  28.794  49.615  1.00  0.00     0.000 C 
BRANCH  20  21
ATOM     21  C   UNL     1      59.758  27.656  49.288  1.00  0.00     0.000 C 
BRANCH  21  22
ATOM     22  C   UNL     1      59.296  26.258  49.744  1.00  0.00    -0.000 C 
BRANCH  22  23
ATOM     23  C   UNL     1      60.393  25.464  50.486  1.00  0.00    -0.000 C 
BRANCH  23  24
ATOM     24  C   UNL     1      60.551  25.929  51.943  1.00  0.00    -0.000 C 
BRANCH  24  25
ATOM     25  C   UNL     1      61.935  26.529  52.239  1.00  0.00    -0.000 C 
BRANCH  25  26
ATOM     26  C   UNL     1      62.099  27.988  51.759  1.00  0.00    -0.000 C 
BRANCH  26  27
ATOM     27  C   UNL     1      61.158  28.952  52.505  1.00  0.00    -0.000 C 
BRANCH  27  28
ATOM     28  C   UNL     1      61.400  30.428  52.137  1.00  0.00    -0.000 C 
BRANCH  28  29
ATOM     29  C   UNL     1      62.735  30.705  51.420  1.00  0.00    -0.003 C 
ATOM     30  C   UNL     1      62.554  31.194  49.984  1.00  0.00     0.004 C 
ENDBRANCH  28  29
ENDBRANCH  27  28
ENDBRANCH  26  27
ENDBRANCH  25  26
ENDBRANCH  24  25
ENDBRANCH  23  24
ENDBRANCH  22  23
ENDBRANCH  21  22
ENDBRANCH  20  21
ENDBRANCH  19  20
ENDBRANCH  18  19
ENDBRANCH  17  18
ENDBRANCH   1  17
TORSDOF 26
ENDMDL
MODEL 2
REMARK VINA RESULT:    -2.870      2.137      7.220
REMARK INTER + INTRA:         -12.788
REMARK INTER:                  -8.062
REMARK INTRA:                  -4.726
REMARK UNBOUND:                -5.556
REMARK SMILES CCCCCCCCCCCCCCCCCCCCCCCCCCCC(=O)[O-]
REMARK SMILES IDX 15 1 16 2 17 3 18 4 19 5 20 6 21 7 22 8 23 9 24 10 25 11
REMARK SMILES IDX 26 12 27 13 28 14 29 15 30 16 14 17 13 18 12 19 11 20 10 21
REMARK SMILES IDX 9 22 8 23 7 24 6 25 5 26 4 27 3 28 2 29 1 30
REMARK H PARENT
REMARK Flexibility Score: inf
ROOT
ATOM      1  C   UNL     1      58.882  28.461  49.566  1.00  0.00     0.000 C 
ENDROOT
BRANCH   1   2
ATOM      2  C   UNL     1      59.555  27.074  49.511  1.00  0.00     0.000 C 
BRANCH   2   3
ATOM      3  C   UNL     1      58.619  25.919  49.912  1.00  0.00     0.000 C 
BRANCH   3   4
ATOM      4  C   UNL     1      59.256  24.954  50.919  1.00  0.00     0.000 C 
BRANCH   4   5
ATOM      5  C   UNL     1      60.722  24.673  50.561  1.00  0.00     0.000 C 
BRANCH   5   6
ATOM      6  C   UNL     1      61.689  24.887  51.741  1.00  0.00     0.000 C 
BRANCH   6   7
ATOM      7  C   UNL     1      63.089  24.275  51.557  1.00  0.00     0.000 C 
BRANCH   7   8
ATOM      8  C   UNL     1      63.716  24.613  50.193  1.00  0.00     0.000 C 
BRANCH   8   9
ATOM      9  C   UNL     1      64.437  25.969  50.196  1.00  0.00     0.000 C 
BRANCH   9  10
ATOM     10  C   UNL     1      63.528  27.121  49.729  1.00  0.00     0.000 C 
BRANCH  10  11
ATOM     11  C   UNL     1      63.648  28.362  50.640  1.00  0.00     0.000 C 
BRANCH  11  12
ATOM     12  C   UNL     1      62.306  28.812  51.243  1.00  0.00     0.006 C 
BRANCH  12  13
ATOM     13  C   UNL     1      61.756  30.114  50.641  1.00  0.00     0.053 C 
BRANCH  13  14
ATOM     14  C   UNL     1      62.812  31.171  50.521  1.00  0.00     0.041 C 
ATOM     15  O   UNL     1      63.182  31.573  49.387  1.00  0.00    -0.550 OA
ATOM     16  O   UNL     1      63.391  31.709  51.664  1.00  0.00    -0.550 OA
ENDBRANCH  13  14
ENDBRANCH  12  13
ENDBRANCH  11  12
ENDBRANCH  10  11
ENDBRANCH   9  10
ENDBRANCH   8   9
ENDBRANCH   7   8
ENDBRANCH   6   7
ENDBRANCH   5   6
ENDBRANCH   4   5
ENDBRANCH   3   4
ENDBRANCH   2   3
ENDBRANCH   1   2
BRANCH   1  17
ATOM     17  C   UNL     1      57.781  28.530  50.640  1.00  0.00     0.000 C 
BRANCH  17  18
ATOM     18  C   UNL     1      58.349  28.684  52.059  1.00  0.00     0.000 C 
BRANCH  18  19
ATOM     19  C   UNL     1      57.794  29.913  52.791  1.00  0.00     0.000 C 
BRANCH  19  20
ATOM     20  C   UNL     1      56.890  29.483  53.956  1.00  0.00     0.000 C 
BRANCH  20  21
ATOM     21  C   UNL     1      56.756  27.956  54.078  1.00  0.00     0.000 C 
BRANCH  21  22
ATOM     22  C   UNL     1      55.348  27.463  54.463  1.00  0.00    -0.000 C 
BRANCH  22  23
ATOM     23  C   UNL     1      54.762  26.444  53.462  1.00  0.00    -0.000 C 
BRANCH  23  24
ATOM     24  C   UNL     1      55.824  25.936  52.472  1.00  0.00    -0.000 C 
BRANCH  24  25
ATOM     25  C   UNL     1      55.219  25.255  51.234  1.00  0.00    -0.000 C 
BRANCH  25  26
ATOM     26  C   UNL     1      54.886  26.230  50.084  1.00  0.00    -0.000 C 
BRANCH  26  27
ATOM     27  C   UNL     1      53.384  26.567  50.028  1.00  0.00    -0.000 C 
BRANCH  27  28
ATOM     28  C   UNL     1      53.106  28.079  50.127  1.00  0.00    -0.000 C 
BRANCH  28  29
ATOM     29  C   UNL     1      54.275  28.916  50.676  1.00  0.00    -0.003 C 
ATOM     30  C   UNL     1      53.859  29.861  51.802  1.00  0.00     0.004 C 
ENDBRANCH  28  29
ENDBRANCH  27  28
ENDBRANCH  26  27
ENDBRANCH  25  26
ENDBRANCH  24  25
ENDBRANCH  23  24
ENDBRANCH  22  23
ENDBRANCH  21  22
ENDBRANCH  20  21
ENDBRANCH  19  20
ENDBRANCH  18  19
ENDBRANCH  17  18
ENDBRANCH   1  17
TORSDOF 26
ENDMDL
MODEL 3
REMARK VINA RESULT:    -2.868      7.353     10.891
REMARK INTER + INTRA:         -12.784
REMARK INTER:                  -7.333
REMARK INTRA:                  -5.451
REMARK UNBOUND:                -5.556
REMARK SMILES CCCCCCCCCCCCCCCCCCCCCCCCCCCC(=O)[O-]
REMARK SMILES IDX 15 1 16 2 17 3 18 4 19 5 20 6 21 7 22 8 23 9 24 10 25 11
REMARK SMILES IDX 26 12 27 13 28 14 29 15 30 16 14 17 13 18 12 19 11 20 10 21
REMARK SMILES IDX 9 22 8 23 7 24 6 25 5 26 4 27 3 28 2 29 1 30
REMARK H PARENT
REMARK Flexibility Score: inf
ROOT
ATOM      1  C   UNL     1      61.222  34.150  59.847  1.00  0.00     0.000 C 
ENDROOT
BRANCH   1   2
ATOM      2  C   UNL     1      60.580  32.918  60.514  1.00  0.00     0.000 C 
BRANCH   2   3
ATOM      3  C   UNL     1      61.505  31.688  60.559  1.00  0.00     0.000 C 
BRANCH   3   4
ATOM      4  C   UNL     1      61.167  30.724  61.703  1.00  0.00     0.000 C 
BRANCH   4   5
ATOM      5  C   UNL     1      62.338  29.773  61.985  1.00  0.00     0.000 C 
BRANCH   5   6
ATOM      6  C   UNL     1      63.605  30.112  61.175  1.00  0.00     0.000 C 
BRANCH   6   7
ATOM      7  C   UNL     1      64.176  28.951  60.342  1.00  0.00     0.000 C 
BRANCH   7   8
ATOM      8  C   UNL     1      63.705  27.571  60.834  1.00  0.00     0.000 C 
BRANCH   8   9
ATOM      9  C   UNL     1      62.997  26.764  59.736  1.00  0.00     0.000 C 
BRANCH   9  10
ATOM     10  C   UNL     1      61.627  27.356  59.358  1.00  0.00     0.000 C 
BRANCH  10  11
ATOM     11  C   UNL     1      60.561  27.092  60.443  1.00  0.00     0.000 C 
BRANCH  11  12
ATOM     12  C   UNL     1      59.297  27.955  60.283  1.00  0.00     0.006 C 
BRANCH  12  13
ATOM     13  C   UNL     1      57.995  27.145  60.188  1.00  0.00     0.053 C 
BRANCH  13  14
ATOM     14  C   UNL     1      57.461  26.773  61.538  1.00  0.00     0.041 C 
ATOM     15  O   UNL     1      57.789  25.682  62.072  1.00  0.00    -0.550 OA
ATOM     16  O   UNL     1      56.597  27.632  62.205  1.00  0.00    -0.550 OA
ENDBRANCH  13  14
ENDBRANCH  12  13
ENDBRANCH  11  12
ENDBRANCH  10  11
ENDBRANCH   9  10
ENDBRANCH   8   9
ENDBRANCH   7   8
ENDBRANCH   6   7
ENDBRANCH   5   6
ENDBRANCH   4   5
ENDBRANCH   3   4
ENDBRANCH   2   3
ENDBRANCH   1   2
BRANCH   1  17
ATOM     17  C   UNL     1      61.486  35.285  60.853  1.00  0.00     0.000 C 
BRANCH  17  18
ATOM     18  C   UNL     1      62.977  35.632  60.974  1.00  0.00     0.000 C 
BRANCH  18  19
ATOM     19  C   UNL     1      63.858  34.395  61.201  1.00  0.00     0.000 C 
BRANCH  19  20
ATOM     20  C   UNL     1      64.931  34.290  60.107  1.00  0.00     0.000 C 
BRANCH  20  21
ATOM     21  C   UNL     1      64.657  33.155  59.106  1.00  0.00     0.000 C 
BRANCH  21  22
ATOM     22  C   UNL     1      64.076  33.616  57.756  1.00  0.00    -0.000 C 
BRANCH  22  23
ATOM     23  C   UNL     1      63.233  32.531  57.050  1.00  0.00    -0.000 C 
BRANCH  23  24
ATOM     24  C   UNL     1      63.643  31.114  57.485  1.00  0.00    -0.000 C 
BRANCH  24  25
ATOM     25  C   UNL     1      62.491  30.099  57.398  1.00  0.00    -0.000 C 
BRANCH  25  26
ATOM     26  C   UNL     1      61.291  30.585  56.557  1.00  0.00    -0.000 C 
BRANCH  26  27
ATOM     27  C   UNL     1      59.964  29.961  57.026  1.00  0.00    -0.000 C 
BRANCH  27  28
ATOM     28  C   UNL     1      59.109  30.931  57.864  1.00  0.00    -0.000 C 
BRANCH  28  29
ATOM     29  C   UNL     1      58.811  32.280  57.184  1.00  0.00    -0.003 C 
ATOM     30  C   UNL     1      57.897  33.181  58.014  1.00  0.00     0.004 C 
ENDBRANCH  28  29
ENDBRANCH  27  28
ENDBRANCH  26  27
ENDBRANCH  25  26
ENDBRANCH  24  25
ENDBRANCH  23  24
ENDBRANCH  22  23
ENDBRANCH  21  22
ENDBRANCH  20  21
ENDBRANCH  19  20
ENDBRANCH  18  19
ENDBRANCH  17  18
ENDBRANCH   1  17
TORSDOF 26
ENDMDL
MODEL 4
REMARK VINA RESULT:    -2.863      8.266     10.972
REMARK INTER + INTRA:         -12.771
REMARK INTER:                  -7.315
REMARK INTRA:                  -5.456
REMARK UNBOUND:                -5.556
REMARK SMILES CCCCCCCCCCCCCCCCCCCCCCCCCCCC(=O)[O-]
REMARK SMILES IDX 15 1 16 2 17 3 18 4 19 5 20 6 21 7 22 8 23 9 24 10 25 11
REMARK SMILES IDX 26 12 27 13 28 14 29 15 30 16 14 17 13 18 12 19 11 20 10 21
REMARK SMILES IDX 9 22 8 23 7 24 6 25 5 26 4 27 3 28 2 29 1 30
REMARK H PARENT
REMARK Flexibility Score: inf
ROOT
ATOM      1  C   UNL     1      60.150  32.097  57.815  1.00  0.00     0.000 C 
ENDROOT
BRANCH   1   2
ATOM      2  C   UNL     1      61.284  31.517  58.684  1.00  0.00     0.000 C 
BRANCH   2   3
ATOM      3  C   UNL     1      60.789  30.571  59.792  1.00  0.00     0.000 C 
BRANCH   3   4
ATOM      4  C   UNL     1      61.225  31.011  61.196  1.00  0.00     0.000 C 
BRANCH   4   5
ATOM      5  C   UNL     1      61.974  29.882  61.918  1.00  0.00     0.000 C 
BRANCH   5   6
ATOM      6  C   UNL     1      63.464  29.800  61.533  1.00  0.00     0.000 C 
BRANCH   6   7
ATOM      7  C   UNL     1      63.873  28.523  60.778  1.00  0.00     0.000 C 
BRANCH   7   8
ATOM      8  C   UNL     1      63.899  28.711  59.251  1.00  0.00     0.000 C 
BRANCH   8   9
ATOM      9  C   UNL     1      63.031  27.680  58.515  1.00  0.00     0.000 C 
BRANCH   9  10
ATOM     10  C   UNL     1      62.288  26.738  59.479  1.00  0.00     0.000 C 
BRANCH  10  11
ATOM     11  C   UNL     1      60.775  27.039  59.536  1.00  0.00     0.000 C 
BRANCH  11  12
ATOM     12  C   UNL     1      60.174  26.899  60.946  1.00  0.00     0.006 C 
BRANCH  12  13
ATOM     13  C   UNL     1      58.695  27.301  61.038  1.00  0.00     0.053 C 
BRANCH  13  14
ATOM     14  C   UNL     1      57.876  26.277  61.764  1.00  0.00     0.041 C 
ATOM     15  O   UNL     1      58.423  25.250  62.243  1.00  0.00    -0.550 OA
ATOM     16  O   UNL     1      56.506  26.456  61.909  1.00  0.00    -0.550 OA
ENDBRANCH  13  14
ENDBRANCH  12  13
ENDBRANCH  11  12
ENDBRANCH  10  11
ENDBRANCH   9  10
ENDBRANCH   8   9
ENDBRANCH   7   8
ENDBRANCH   6   7
ENDBRANCH   5   6
ENDBRANCH   4   5
ENDBRANCH   3   4
ENDBRANCH   2   3
ENDBRANCH   1   2
BRANCH   1  17
ATOM     17  C   UNL     1      59.075  32.805  58.659  1.00  0.00     0.000 C 
BRANCH  17  18
ATOM     18  C   UNL     1      59.429  34.269  58.959  1.00  0.00     0.000 C 
BRANCH  18  19
ATOM     19  C   UNL     1      59.984  34.467  60.377  1.00  0.00     0.000 C 
BRANCH  19  20
ATOM     20  C   UNL     1      60.763  35.787  60.471  1.00  0.00     0.000 C 
BRANCH  20  21
ATOM     21  C   UNL     1      62.193  35.601  61.004  1.00  0.00     0.000 C 
BRANCH  21  22
ATOM     22  C   UNL     1      62.723  34.156  60.932  1.00  0.00    -0.000 C 
BRANCH  22  23
ATOM     23  C   UNL     1      64.184  34.065  60.440  1.00  0.00    -0.000 C 
BRANCH  23  24
ATOM     24  C   UNL     1      64.563  32.632  60.032  1.00  0.00    -0.000 C 
BRANCH  24  25
ATOM     25  C   UNL     1      65.312  32.564  58.690  1.00  0.00    -0.000 C 
BRANCH  25  26
ATOM     26  C   UNL     1      65.450  33.929  57.981  1.00  0.00    -0.000 C 
BRANCH  26  27
ATOM     27  C   UNL     1      64.723  33.952  56.624  1.00  0.00    -0.000 C 
BRANCH  27  28
ATOM     28  C   UNL     1      63.191  34.027  56.766  1.00  0.00    -0.000 C 
BRANCH  28  29
ATOM     29  C   UNL     1      62.659  35.362  57.320  1.00  0.00    -0.003 C 
ATOM     30  C   UNL     1      61.557  35.973  56.455  1.00  0.00     0.004 C 
ENDBRANCH  28  29
ENDBRANCH  27  28
ENDBRANCH  26  27
ENDBRANCH  25  26
ENDBRANCH  24  25
ENDBRANCH  23  24
ENDBRANCH  22  23
ENDBRANCH  21  22
ENDBRANCH  20  21
ENDBRANCH  19  20
ENDBRANCH  18  19
ENDBRANCH  17  18
ENDBRANCH   1  17
TORSDOF 26
ENDMDL
MODEL 5
REMARK VINA RESULT:    -2.820      2.686      7.121
REMARK INTER + INTRA:         -12.661
REMARK INTER:                  -7.738
REMARK INTRA:                  -4.923
REMARK UNBOUND:                -5.556
REMARK SMILES CCCCCCCCCCCCCCCCCCCCCCCCCCCC(=O)[O-]
REMARK SMILES IDX 15 1 16 2 17 3 18 4 19 5 20 6 21 7 22 8 23 9 24 10 25 11
REMARK SMILES IDX 26 12 27 13 28 14 29 15 30 16 14 17 13 18 12 19 11 20 10 21
REMARK SMILES IDX 9 22 8 23 7 24 6 25 5 26 4 27 3 28 2 29 1 30
REMARK H PARENT
REMARK Flexibility Score: inf
ROOT
ATOM      1  C   UNL     1      60.519  25.644  50.486  1.00  0.00     0.000 C 
ENDROOT
BRANCH   1   2
ATOM      2  C   UNL     1      59.296  26.355  49.872  1.00  0.00     0.000 C 
BRANCH   2   3
ATOM      3  C   UNL     1      59.623  27.733  49.269  1.00  0.00     0.000 C 
BRANCH   3   4
ATOM      4  C   UNL     1      58.590  28.807  49.633  1.00  0.00     0.000 C 
BRANCH   4   5
ATOM      5  C   UNL     1      57.937  28.504  50.989  1.00  0.00     0.000 C 
BRANCH   5   6
ATOM      6  C   UNL     1      58.454  29.404  52.128  1.00  0.00     0.000 C 
BRANCH   6   7
ATOM      7  C   UNL     1      59.640  28.832  52.924  1.00  0.00     0.000 C 
BRANCH   7   8
ATOM      8  C   UNL     1      60.901  29.710  52.835  1.00  0.00     0.000 C 
BRANCH   8   9
ATOM      9  C   UNL     1      61.867  29.245  51.736  1.00  0.00     0.000 C 
BRANCH   9  10
ATOM     10  C   UNL     1      61.968  30.252  50.575  1.00  0.00     0.000 C 
BRANCH  10  11
ATOM     11  C   UNL     1      63.429  30.657  50.282  1.00  0.00     0.000 C 
BRANCH  11  12
ATOM     12  C   UNL     1      64.080  29.835  49.155  1.00  0.00     0.006 C 
BRANCH  12  13
ATOM     13  C   UNL     1      64.931  28.657  49.652  1.00  0.00     0.053 C 
BRANCH  13  14
ATOM     14  C   UNL     1      64.472  27.349  49.082  1.00  0.00     0.041 C 
ATOM     15  O   UNL     1      65.300  26.427  48.862  1.00  0.00    -0.550 OA
ATOM     16  O   UNL     1      63.129  27.149  48.790  1.00  0.00    -0.550 OA
ENDBRANCH  13  14
ENDBRANCH  12  13
ENDBRANCH  11  12
ENDBRANCH  10  11
ENDBRANCH   9  10
ENDBRANCH   8   9
ENDBRANCH   7   8
ENDBRANCH   6   7
ENDBRANCH   5   6
ENDBRANCH   4   5
ENDBRANCH   3   4
ENDBRANCH   2   3
ENDBRANCH   1   2
BRANCH   1  17
ATOM     17  C   UNL     1      60.387  25.472  52.010  1.00  0.00     0.000 C 
BRANCH  17  18
ATOM     18  C   UNL     1      59.935  24.060  52.408  1.00  0.00     0.000 C 
BRANCH  18  19
ATOM     19  C   UNL     1      58.422  23.967  52.652  1.00  0.00     0.000 C 
BRANCH  19  20
ATOM     20  C   UNL     1      57.911  25.233  53.356  1.00  0.00     0.000 C 
BRANCH  20  21
ATOM     21  C   UNL     1      56.650  25.817  52.697  1.00  0.00     0.000 C 
BRANCH  21  22
ATOM     22  C   UNL     1      56.041  24.940  51.587  1.00  0.00    -0.000 C 
BRANCH  22  23
ATOM     23  C   UNL     1      55.676  25.733  50.312  1.00  0.00    -0.000 C 
BRANCH  23  24
ATOM     24  C   UNL     1      54.174  25.647  49.993  1.00  0.00    -0.000 C 
BRANCH  24  25
ATOM     25  C   UNL     1      53.474  27.016  50.007  1.00  0.00    -0.000 C 
BRANCH  25  26
ATOM     26  C   UNL     1      54.395  28.185  50.419  1.00  0.00    -0.000 C 
BRANCH  26  27
ATOM     27  C   UNL     1      53.645  29.252  51.239  1.00  0.00    -0.000 C 
BRANCH  27  28
ATOM     28  C   UNL     1      54.543  29.948  52.278  1.00  0.00    -0.000 C 
BRANCH  28  29
ATOM     29  C   UNL     1      54.289  29.526  53.737  1.00  0.00    -0.003 C 
ATOM     30  C   UNL     1      55.431  28.703  54.331  1.00  0.00     0.004 C 
ENDBRANCH  28  29
ENDBRANCH  27  28
ENDBRANCH  26  27
ENDBRANCH  25  26
ENDBRANCH  24  25
ENDBRANCH  23  24
ENDBRANCH  22  23
ENDBRANCH  21  22
ENDBRANCH  20  21
ENDBRANCH  19  20
ENDBRANCH  18  19
ENDBRANCH  17  18
ENDBRANCH   1  17
TORSDOF 26
ENDMDL
MODEL 6
REMARK VINA RESULT:    -2.812      7.325     11.447
REMARK INTER + INTRA:         -12.642
REMARK INTER:                  -7.311
REMARK INTRA:                  -5.330
REMARK UNBOUND:                -5.556
REMARK SMILES CCCCCCCCCCCCCCCCCCCCCCCCCCCC(=O)[O-]
REMARK SMILES IDX 15 1 16 2 17 3 18 4 19 5 20 6 21 7 22 8 23 9 24 10 25 11
REMARK SMILES IDX 26 12 27 13 28 14 29 15 30 16 14 17 13 18 12 19 11 20 10 21
REMARK SMILES IDX 9 22 8 23 7 24 6 25 5 26 4 27 3 28 2 29 1 30
REMARK H PARENT
REMARK Flexibility Score: inf
ROOT
ATOM      1  C   UNL     1      64.394  34.760  61.115  1.00  0.00     0.000 C 
ENDROOT
BRANCH   1   2
ATOM      2  C   UNL     1      63.991  33.309  60.787  1.00  0.00     0.000 C 
BRANCH   2   3
ATOM      3  C   UNL     1      64.817  32.681  59.651  1.00  0.00     0.000 C 
BRANCH   3   4
ATOM      4  C   UNL     1      63.949  32.023  58.570  1.00  0.00     0.000 C 
BRANCH   4   5
ATOM      5  C   UNL     1      62.468  32.379  58.763  1.00  0.00     0.000 C 
BRANCH   5   6
ATOM      6  C   UNL     1      61.542  31.147  58.764  1.00  0.00     0.000 C 
BRANCH   6   7
ATOM      7  C   UNL     1      60.646  31.007  60.008  1.00  0.00     0.000 C 
BRANCH   7   8
ATOM      8  C   UNL     1      61.431  31.110  61.327  1.00  0.00     0.000 C 
BRANCH   8   9
ATOM      9  C   UNL     1      62.067  29.775  61.740  1.00  0.00     0.000 C 
BRANCH   9  10
ATOM     10  C   UNL     1      63.592  29.759  61.534  1.00  0.00     0.000 C 
BRANCH  10  11
ATOM     11  C   UNL     1      64.054  28.543  60.703  1.00  0.00     0.000 C 
BRANCH  11  12
ATOM     12  C   UNL     1      62.941  27.938  59.829  1.00  0.00     0.006 C 
BRANCH  12  13
ATOM     13  C   UNL     1      62.831  26.409  59.927  1.00  0.00     0.053 C 
BRANCH  13  14
ATOM     14  C   UNL     1      62.816  25.934  61.348  1.00  0.00     0.041 C 
ATOM     15  O   UNL     1      63.749  25.211  61.786  1.00  0.00    -0.550 OA
ATOM     16  O   UNL     1      61.767  26.286  62.189  1.00  0.00    -0.550 OA
ENDBRANCH  13  14
ENDBRANCH  12  13
ENDBRANCH  11  12
ENDBRANCH  10  11
ENDBRANCH   9  10
ENDBRANCH   8   9
ENDBRANCH   7   8
ENDBRANCH   6   7
ENDBRANCH   5   6
ENDBRANCH   4   5
ENDBRANCH   3   4
ENDBRANCH   2   3
ENDBRANCH   1   2
BRANCH   1  17
ATOM     17  C   UNL     1      63.170  35.674  61.308  1.00  0.00     0.000 C 
BRANCH  17  18
ATOM     18  C   UNL     1      62.355  35.850  60.018  1.00  0.00     0.000 C 
BRANCH  18  19
ATOM     19  C   UNL     1      60.851  36.003  60.282  1.00  0.00     0.000 C 
BRANCH  19  20
ATOM     20  C   UNL     1      60.218  34.641  60.603  1.00  0.00     0.000 C 
BRANCH  20  21
ATOM     21  C   UNL     1      59.062  34.280  59.656  1.00  0.00     0.000 C 
BRANCH  21  22
ATOM     22  C   UNL     1      58.803  35.307  58.537  1.00  0.00    -0.000 C 
BRANCH  22  23
ATOM     23  C   UNL     1      58.420  34.658  57.189  1.00  0.00    -0.000 C 
BRANCH  23  24
ATOM     24  C   UNL     1      58.985  33.235  57.056  1.00  0.00    -0.000 C 
BRANCH  24  25
ATOM     25  C   UNL     1      57.894  32.165  56.882  1.00  0.00    -0.000 C 
BRANCH  25  26
ATOM     26  C   UNL     1      58.410  30.717  57.024  1.00  0.00    -0.000 C 
BRANCH  26  27
ATOM     27  C   UNL     1      57.663  29.941  58.126  1.00  0.00    -0.000 C 
BRANCH  27  28
ATOM     28  C   UNL     1      57.740  28.414  57.939  1.00  0.00    -0.000 C 
BRANCH  28  29
ATOM     29  C   UNL     1      59.029  27.762  58.471  1.00  0.00    -0.003 C 
ATOM     30  C   UNL     1      59.137  27.804  59.995  1.00  0.00     0.004 C 
ENDBRANCH  28  29
ENDBRANCH  27  28
ENDBRANCH  26  27
ENDBRANCH  25  26
ENDBRANCH  24  25
ENDBRANCH  23  24
ENDBRANCH  22  23
ENDBRANCH  21  22
ENDBRANCH  20  21
ENDBRANCH  19  20
ENDBRANCH  18  19
ENDBRANCH  17  18
ENDBRANCH   1  17
TORSDOF 26
ENDMDL
MODEL 7
REMARK VINA RESULT:    -2.801      7.579     11.131
REMARK INTER + INTRA:         -12.614
REMARK INTER:                  -6.652
REMARK INTRA:                  -5.961
REMARK UNBOUND:                -5.556
REMARK SMILES CCCCCCCCCCCCCCCCCCCCCCCCCCCC(=O)[O-]
REMARK SMILES IDX 15 1 16 2 17 3 18 4 19 5 20 6 21 7 22 8 23 9 24 10 25 11
REMARK SMILES IDX 26 12 27 13 28 14 29 15 30 16 14 17 13 18 12 19 11 20 10 21
REMARK SMILES IDX 9 22 8 23 7 24 6 25 5 26 4 27 3 28 2 29 1 30
REMARK H PARENT
REMARK Flexibility Score: inf
ROOT
ATOM      1  C   UNL     1      64.468  32.098  60.750  1.00  0.00     0.000 C 
ENDROOT
BRANCH   1   2
ATOM      2  C   UNL     1      64.333  33.627  60.901  1.00  0.00     0.000 C 
BRANCH   2   3
ATOM      3  C   UNL     1      62.877  34.124  60.867  1.00  0.00     0.000 C 
BRANCH   3   4
ATOM      4  C   UNL     1      62.754  35.636  61.092  1.00  0.00     0.000 C 
BRANCH   4   5
ATOM      5  C   UNL     1      61.333  36.125  60.776  1.00  0.00     0.000 C 
BRANCH   5   6
ATOM      6  C   UNL     1      60.318  34.977  60.613  1.00  0.00     0.000 C 
BRANCH   6   7
ATOM      7  C   UNL     1      59.442  35.056  59.350  1.00  0.00     0.000 C 
BRANCH   7   8
ATOM      8  C   UNL     1      59.957  36.083  58.326  1.00  0.00     0.000 C 
BRANCH   8   9
ATOM      9  C   UNL     1      60.200  35.464  56.942  1.00  0.00     0.000 C 
BRANCH   9  10
ATOM     10  C   UNL     1      61.270  34.357  56.970  1.00  0.00     0.000 C 
BRANCH  10  11
ATOM     11  C   UNL     1      62.665  34.906  57.336  1.00  0.00     0.000 C 
BRANCH  11  12
ATOM     12  C   UNL     1      63.805  33.905  57.079  1.00  0.00     0.006 C 
BRANCH  12  13
ATOM     13  C   UNL     1      65.064  34.535  56.465  1.00  0.00     0.053 C 
BRANCH  13  14
ATOM     14  C   UNL     1      66.132  34.776  57.488  1.00  0.00     0.041 C 
ATOM     15  O   UNL     1      67.234  34.174  57.410  1.00  0.00    -0.550 OA
ATOM     16  O   UNL     1      65.907  35.664  58.533  1.00  0.00    -0.550 OA
ENDBRANCH  13  14
ENDBRANCH  12  13
ENDBRANCH  11  12
ENDBRANCH  10  11
ENDBRANCH   9  10
ENDBRANCH   8   9
ENDBRANCH   7   8
ENDBRANCH   6   7
ENDBRANCH   5   6
ENDBRANCH   4   5
ENDBRANCH   3   4
ENDBRANCH   2   3
ENDBRANCH   1   2
BRANCH   1  17
ATOM     17  C   UNL     1      65.257  31.706  59.487  1.00  0.00     0.000 C 
BRANCH  17  18
ATOM     18  C   UNL     1      65.480  30.191  59.378  1.00  0.00     0.000 C 
BRANCH  18  19
ATOM     19  C   UNL     1      65.050  29.434  60.643  1.00  0.00     0.000 C 
BRANCH  19  20
ATOM     20  C   UNL     1      64.312  28.140  60.272  1.00  0.00     0.000 C 
BRANCH  20  21
ATOM     21  C   UNL     1      63.030  27.926  61.095  1.00  0.00     0.000 C 
BRANCH  21  22
ATOM     22  C   UNL     1      62.438  29.209  61.708  1.00  0.00    -0.000 C 
BRANCH  22  23
ATOM     23  C   UNL     1      61.120  29.655  61.037  1.00  0.00    -0.000 C 
BRANCH  23  24
ATOM     24  C   UNL     1      61.111  31.163  60.737  1.00  0.00    -0.000 C 
BRANCH  24  25
ATOM     25  C   UNL     1      60.915  31.481  59.245  1.00  0.00    -0.000 C 
BRANCH  25  26
ATOM     26  C   UNL     1      61.950  30.803  58.321  1.00  0.00    -0.000 C 
BRANCH  26  27
ATOM     27  C   UNL     1      61.292  29.806  57.349  1.00  0.00    -0.000 C 
BRANCH  27  28
ATOM     28  C   UNL     1      61.797  28.363  57.541  1.00  0.00    -0.000 C 
BRANCH  28  29
ATOM     29  C   UNL     1      60.789  27.410  58.210  1.00  0.00    -0.003 C 
ATOM     30  C   UNL     1      59.392  28.015  58.349  1.00  0.00     0.004 C 
ENDBRANCH  28  29
ENDBRANCH  27  28
ENDBRANCH  26  27
ENDBRANCH  25  26
ENDBRANCH  24  25
ENDBRANCH  23  24
ENDBRANCH  22  23
ENDBRANCH  21  22
ENDBRANCH  20  21
ENDBRANCH  19  20
ENDBRANCH  18  19
ENDBRANCH  17  18
ENDBRANCH   1  17
TORSDOF 26
ENDMDL
MODEL 8
REMARK VINA RESULT:    -2.800      3.938      7.017
REMARK INTER + INTRA:         -12.611
REMARK INTER:                  -6.778
REMARK INTRA:                  -5.833
REMARK UNBOUND:                -5.556
REMARK SMILES CCCCCCCCCCCCCCCCCCCCCCCCCCCC(=O)[O-]
REMARK SMILES IDX 15 1 16 2 17 3 18 4 19 5 20 6 21 7 22 8 23 9 24 10 25 11
REMARK SMILES IDX 26 12 27 13 28 14 29 15 30 16 14 17 13 18 12 19 11 20 10 21
REMARK SMILES IDX 9 22 8 23 7 24 6 25 5 26 4 27 3 28 2 29 1 30
REMARK H PARENT
REMARK Flexibility Score: inf
ROOT
ATOM      1  C   UNL     1      59.384  27.183  49.608  1.00  0.00     0.000 C 
ENDROOT
BRANCH   1   2
ATOM      2  C   UNL     1      58.528  28.424  49.930  1.00  0.00     0.000 C 
BRANCH   2   3
ATOM      3  C   UNL     1      57.164  28.087  50.557  1.00  0.00     0.000 C 
BRANCH   3   4
ATOM      4  C   UNL     1      57.025  26.605  50.930  1.00  0.00     0.000 C 
BRANCH   4   5
ATOM      5  C   UNL     1      56.727  26.441  52.427  1.00  0.00     0.000 C 
BRANCH   5   6
ATOM      6  C   UNL     1      57.883  26.911  53.332  1.00  0.00     0.000 C 
BRANCH   6   7
ATOM      7  C   UNL     1      59.245  26.256  53.041  1.00  0.00     0.000 C 
BRANCH   7   8
ATOM      8  C   UNL     1      59.417  24.895  53.738  1.00  0.00     0.000 C 
BRANCH   8   9
ATOM      9  C   UNL     1      60.001  23.825  52.803  1.00  0.00     0.000 C 
BRANCH   9  10
ATOM     10  C   UNL     1      59.350  23.840  51.408  1.00  0.00     0.000 C 
BRANCH  10  11
ATOM     11  C   UNL     1      60.281  23.253  50.326  1.00  0.00     0.000 C 
BRANCH  11  12
ATOM     12  C   UNL     1      61.175  22.111  50.839  1.00  0.00     0.006 C 
BRANCH  12  13
ATOM     13  C   UNL     1      60.644  20.707  50.513  1.00  0.00     0.053 C 
BRANCH  13  14
ATOM     14  C   UNL     1      60.089  20.019  51.723  1.00  0.00     0.041 C 
ATOM     15  O   UNL     1      60.754  19.122  52.305  1.00  0.00    -0.550 OA
ATOM     16  O   UNL     1      58.833  20.365  52.206  1.00  0.00    -0.550 OA
ENDBRANCH  13  14
ENDBRANCH  12  13
ENDBRANCH  11  12
ENDBRANCH  10  11
ENDBRANCH   9  10
ENDBRANCH   8   9
ENDBRANCH   7   8
ENDBRANCH   6   7
ENDBRANCH   5   6
ENDBRANCH   4   5
ENDBRANCH   3   4
ENDBRANCH   2   3
ENDBRANCH   1   2
BRANCH   1  17
ATOM     17  C   UNL     1      60.891  27.499  49.616  1.00  0.00     0.000 C 
BRANCH  17  18
ATOM     18  C   UNL     1      61.744  26.294  50.039  1.00  0.00     0.000 C 
BRANCH  18  19
ATOM     19  C   UNL     1      62.371  26.468  51.430  1.00  0.00     0.000 C 
BRANCH  19  20
ATOM     20  C   UNL     1      63.601  25.562  51.584  1.00  0.00     0.000 C 
BRANCH  20  21
ATOM     21  C   UNL     1      63.863  24.692  50.343  1.00  0.00     0.000 C 
BRANCH  21  22
ATOM     22  C   UNL     1      65.240  24.907  49.686  1.00  0.00    -0.000 C 
BRANCH  22  23
ATOM     23  C   UNL     1      65.541  26.389  49.369  1.00  0.00    -0.000 C 
BRANCH  23  24
ATOM     24  C   UNL     1      64.838  26.854  48.084  1.00  0.00    -0.000 C 
BRANCH  24  25
ATOM     25  C   UNL     1      64.311  28.296  48.172  1.00  0.00    -0.000 C 
BRANCH  25  26
ATOM     26  C   UNL     1      64.531  28.959  49.549  1.00  0.00    -0.000 C 
BRANCH  26  27
ATOM     27  C   UNL     1      63.481  30.047  49.842  1.00  0.00    -0.000 C 
BRANCH  27  28
ATOM     28  C   UNL     1      63.034  30.065  51.316  1.00  0.00    -0.000 C 
BRANCH  28  29
ATOM     29  C   UNL     1      61.581  30.518  51.545  1.00  0.00    -0.003 C 
ATOM     30  C   UNL     1      60.856  29.697  52.611  1.00  0.00     0.004 C 
ENDBRANCH  28  29
ENDBRANCH  27  28
ENDBRANCH  26  27
ENDBRANCH  25  26
ENDBRANCH  24  25
ENDBRANCH  23  24
ENDBRANCH  22  23
ENDBRANCH  21  22
ENDBRANCH  20  21
ENDBRANCH  19  20
ENDBRANCH  18  19
ENDBRANCH  17  18
ENDBRANCH   1  17
TORSDOF 26
ENDMDL
MODEL 9
REMARK VINA RESULT:    -2.758      1.598      2.856
REMARK INTER + INTRA:         -12.505
REMARK INTER:                  -6.771
REMARK INTRA:                  -5.734
REMARK UNBOUND:                -5.556
REMARK SMILES CCCCCCCCCCCCCCCCCCCCCCCCCCCC(=O)[O-]
REMARK SMILES IDX 15 1 16 2 17 3 18 4 19 5 20 6 21 7 22 8 23 9 24 10 25 11
REMARK SMILES IDX 26 12 27 13 28 14 29 15 30 16 14 17 13 18 12 19 11 20 10 21
REMARK SMILES IDX 9 22 8 23 7 24 6 25 5 26 4 27 3 28 2 29 1 30
REMARK H PARENT
REMARK Flexibility Score: inf
ROOT
ATOM      1  C   UNL     1      56.871  28.653  50.371  1.00  0.00     0.000 C 
ENDROOT
BRANCH   1   2
ATOM      2  C   UNL     1      55.796  27.651  50.838  1.00  0.00     0.000 C 
BRANCH   2   3
ATOM      3  C   UNL     1      54.358  28.094  50.513  1.00  0.00     0.000 C 
BRANCH   3   4
ATOM      4  C   UNL     1      53.475  26.945  50.008  1.00  0.00     0.000 C 
BRANCH   4   5
ATOM      5  C   UNL     1      54.259  25.625  49.974  1.00  0.00     0.000 C 
BRANCH   5   6
ATOM      6  C   UNL     1      53.650  24.534  50.875  1.00  0.00     0.000 C 
BRANCH   6   7
ATOM      7  C   UNL     1      54.316  24.381  52.254  1.00  0.00     0.000 C 
BRANCH   7   8
ATOM      8  C   UNL     1      53.837  25.431  53.272  1.00  0.00     0.000 C 
BRANCH   8   9
ATOM      9  C   UNL     1      54.999  26.200  53.917  1.00  0.00     0.000 C 
BRANCH   9  10
ATOM     10  C   UNL     1      54.526  27.176  55.010  1.00  0.00     0.000 C 
BRANCH  10  11
ATOM     11  C   UNL     1      54.416  28.625  54.487  1.00  0.00     0.000 C 
BRANCH  11  12
ATOM     12  C   UNL     1      55.778  29.268  54.172  1.00  0.00     0.006 C 
BRANCH  12  13
ATOM     13  C   UNL     1      55.678  30.634  53.476  1.00  0.00     0.053 C 
BRANCH  13  14
ATOM     14  C   UNL     1      56.764  31.570  53.912  1.00  0.00     0.041 C 
ATOM     15  O   UNL     1      57.873  31.576  53.318  1.00  0.00    -0.550 OA
ATOM     16  O   UNL     1      56.551  32.436  54.978  1.00  0.00    -0.550 OA
ENDBRANCH  13  14
ENDBRANCH  12  13
ENDBRANCH  11  12
ENDBRANCH  10  11
ENDBRANCH   9  10
ENDBRANCH   8   9
ENDBRANCH   7   8
ENDBRANCH   6   7
ENDBRANCH   5   6
ENDBRANCH   4   5
ENDBRANCH   3   4
ENDBRANCH   2   3
ENDBRANCH   1   2
BRANCH   1  17
ATOM     17  C   UNL     1      58.072  28.706  51.333  1.00  0.00     0.000 C 
BRANCH  17  18
ATOM     18  C   UNL     1      59.419  28.615  50.600  1.00  0.00     0.000 C 
BRANCH  18  19
ATOM     19  C   UNL     1      59.422  27.552  49.492  1.00  0.00     0.000 C 
BRANCH  19  20
ATOM     20  C   UNL     1      59.725  26.165  50.076  1.00  0.00     0.000 C 
BRANCH  20  21
ATOM     21  C   UNL     1      58.497  25.240  50.092  1.00  0.00     0.000 C 
BRANCH  21  22
ATOM     22  C   UNL     1      57.954  24.918  51.497  1.00  0.00    -0.000 C 
BRANCH  22  23
ATOM     23  C   UNL     1      59.042  24.942  52.593  1.00  0.00    -0.000 C 
BRANCH  23  24
ATOM     24  C   UNL     1      58.714  25.952  53.705  1.00  0.00    -0.000 C 
BRANCH  24  25
ATOM     25  C   UNL     1      59.867  26.927  53.994  1.00  0.00    -0.000 C 
BRANCH  25  26
ATOM     26  C   UNL     1      61.232  26.463  53.441  1.00  0.00    -0.000 C 
BRANCH  26  27
ATOM     27  C   UNL     1      62.050  27.632  52.860  1.00  0.00    -0.000 C 
BRANCH  27  28
ATOM     28  C   UNL     1      63.058  27.180  51.786  1.00  0.00    -0.000 C 
BRANCH  28  29
ATOM     29  C   UNL     1      63.122  28.083  50.541  1.00  0.00    -0.003 C 
ATOM     30  C   UNL     1      63.166  27.296  49.231  1.00  0.00     0.004 C 
ENDBRANCH  28  29
ENDBRANCH  27  28
ENDBRANCH  26  27
ENDBRANCH  25  26
ENDBRANCH  24  25
ENDBRANCH  23  24
ENDBRANCH  22  23
ENDBRANCH  21  22
ENDBRANCH  20  21
ENDBRANCH  19  20
ENDBRANCH  18  19
ENDBRANCH  17  18
ENDBRANCH   1  17
TORSDOF 26
ENDMDL
