MODEL 1
REMARK VINA RESULT:    -6.659      0.000      0.000
REMARK INTER + INTRA:          -8.331
REMARK INTER:                  -8.022
REMARK INTRA:                  -0.310
REMARK UNBOUND:                -0.310
REMARK SMILES O=c1c(O)c(-c2ccc(O)cc2O)oc2cc(O)cc(O)c12
REMARK SMILES IDX 5 1 3 2 2 3 1 4 22 5 20 6 19 7 17 8 16 9 15 10 14 11 6 12
REMARK SMILES IDX 8 13 7 14 9 15 11 16 12 17 10 18 13 20 4 22 21 24 18 26
REMARK H PARENT 10 19 13 21 4 23 21 25 18 27
REMARK Flexibility Score: inf
ROOT
ATOM      1  C   UNL     1      16.016   7.626 -24.876  1.00  0.00     0.184 A 
ATOM      2  C   UNL     1      15.586   7.576 -23.541  1.00  0.00     0.208 A 
ATOM      3  C   UNL     1      16.493   7.170 -22.549  1.00  0.00     0.238 A 
ATOM      4  O   UNL     1      16.118   7.178 -21.348  1.00  0.00    -0.285 OA
ATOM      5  C   UNL     1      17.812   6.804 -22.910  1.00  0.00     0.111 A 
ATOM      6  C   UNL     1      18.803   6.339 -21.994  1.00  0.00     0.134 A 
ATOM      7  C   UNL     1      20.113   6.129 -22.441  1.00  0.00     0.093 A 
ATOM      8  C   UNL     1      20.454   6.306 -23.782  1.00  0.00     0.123 A 
ATOM      9  C   UNL     1      19.479   6.703 -24.698  1.00  0.00     0.094 A 
ATOM     10  C   UNL     1      18.171   6.954 -24.276  1.00  0.00     0.146 A 
ATOM     11  O   UNL     1      17.276   7.341 -25.177  1.00  0.00    -0.451 OA
ENDROOT
BRANCH   1  12
ATOM     12  C   UNL     1      15.106   8.029 -25.970  1.00  0.00     0.063 A 
ATOM     13  C   UNL     1      14.509   9.645 -27.685  1.00  0.00     0.047 A 
ATOM     14  C   UNL     1      15.345   9.238 -26.643  1.00  0.00     0.020 A 
ATOM     15  C   UNL     1      13.433   8.845 -28.077  1.00  0.00     0.119 A 
ATOM     16  C   UNL     1      13.200   7.626 -27.429  1.00  0.00     0.093 A 
ATOM     17  C   UNL     1      14.039   7.206 -26.385  1.00  0.00     0.130 A 
BRANCH  15  18
ATOM     18  O   UNL     1      12.605   9.267 -29.116  1.00  0.00    -0.508 OA
ATOM     19  H   UNL     1      11.910   8.651 -29.523  1.00  0.00     0.293 HD
ENDBRANCH  15  18
BRANCH  17  20
ATOM     20  O   UNL     1      13.826   5.968 -25.780  1.00  0.00    -0.507 OA
ATOM     21  H   UNL     1      12.956   5.461 -25.896  1.00  0.00     0.293 HD
ENDBRANCH  17  20
ENDBRANCH   1  12
BRANCH   2  22
ATOM     22  O   UNL     1      14.283   7.959 -23.211  1.00  0.00    -0.502 OA
ATOM     23  H   UNL     1      13.927   7.916 -22.264  1.00  0.00     0.293 HD
ENDBRANCH   2  22
BRANCH   6  24
ATOM     24  O   UNL     1      18.548   6.044 -20.651  1.00  0.00    -0.507 OA
ATOM     25  H   UNL     1      19.229   6.107 -19.909  1.00  0.00     0.293 HD
ENDBRANCH   6  24
BRANCH   8  26
ATOM     26  O   UNL     1      21.764   6.073 -24.194  1.00  0.00    -0.508 OA
ATOM     27  H   UNL     1      22.519   6.701 -23.942  1.00  0.00     0.293 HD
ENDBRANCH   8  26
TORSDOF 6
ENDMDL
MODEL 2
REMARK VINA RESULT:    -6.013      1.512      6.650
REMARK INTER + INTRA:          -7.554
REMARK INTER:                  -7.241
REMARK INTRA:                  -0.312
REMARK UNBOUND:                -0.310
REMARK SMILES O=c1c(O)c(-c2ccc(O)cc2O)oc2cc(O)cc(O)c12
REMARK SMILES IDX 5 1 3 2 2 3 1 4 22 5 20 6 19 7 17 8 16 9 15 10 14 11 6 12
REMARK SMILES IDX 8 13 7 14 9 15 11 16 12 17 10 18 13 20 4 22 21 24 18 26
REMARK H PARENT 10 19 13 21 4 23 21 25 18 27
REMARK Flexibility Score: inf
ROOT
ATOM      1  C   UNL     1      16.101   7.139 -24.314  1.00  0.00     0.184 A 
ATOM      2  C   UNL     1      15.147   6.116 -24.431  1.00  0.00     0.208 A 
ATOM      3  C   UNL     1      14.162   6.215 -25.426  1.00  0.00     0.238 A 
ATOM      4  O   UNL     1      13.342   5.270 -25.562  1.00  0.00    -0.285 OA
ATOM      5  C   UNL     1      14.135   7.346 -26.279  1.00  0.00     0.111 A 
ATOM      6  C   UNL     1      13.158   7.571 -27.295  1.00  0.00     0.134 A 
ATOM      7  C   UNL     1      13.304   8.659 -28.164  1.00  0.00     0.093 A 
ATOM      8  C   UNL     1      14.354   9.565 -28.015  1.00  0.00     0.123 A 
ATOM      9  C   UNL     1      15.281   9.388 -26.987  1.00  0.00     0.094 A 
ATOM     10  C   UNL     1      15.183   8.293 -26.126  1.00  0.00     0.146 A 
ATOM     11  O   UNL     1      16.091   8.154 -25.168  1.00  0.00    -0.451 OA
ENDROOT
BRANCH   1  12
ATOM     12  C   UNL     1      17.154   7.103 -23.276  1.00  0.00     0.063 A 
ATOM     13  C   UNL     1      17.746   6.982 -20.921  1.00  0.00     0.047 A 
ATOM     14  C   UNL     1      16.776   7.024 -21.926  1.00  0.00     0.020 A 
ATOM     15  C   UNL     1      19.103   7.005 -21.252  1.00  0.00     0.119 A 
ATOM     16  C   UNL     1      19.490   7.059 -22.597  1.00  0.00     0.093 A 
ATOM     17  C   UNL     1      18.523   7.096 -23.613  1.00  0.00     0.130 A 
BRANCH  15  18
ATOM     18  O   UNL     1      20.058   6.966 -20.238  1.00  0.00    -0.508 OA
ATOM     19  H   UNL     1      20.904   7.524 -20.286  1.00  0.00     0.293 HD
ENDBRANCH  15  18
BRANCH  17  20
ATOM     20  O   UNL     1      18.921   7.101 -24.950  1.00  0.00    -0.507 OA
ATOM     21  H   UNL     1      18.409   6.590 -25.660  1.00  0.00     0.293 HD
ENDBRANCH  17  20
ENDBRANCH   1  12
BRANCH   2  22
ATOM     22  O   UNL     1      15.208   5.003 -23.589  1.00  0.00    -0.502 OA
ATOM     23  H   UNL     1      14.767   4.121 -23.820  1.00  0.00     0.293 HD
ENDBRANCH   2  22
BRANCH   6  24
ATOM     24  O   UNL     1      12.020   6.778 -27.474  1.00  0.00    -0.507 OA
ATOM     25  H   UNL     1      11.910   6.089 -28.203  1.00  0.00     0.293 HD
ENDBRANCH   6  24
BRANCH   8  26
ATOM     26  O   UNL     1      14.459  10.645 -28.888  1.00  0.00    -0.508 OA
ATOM     27  H   UNL     1      14.992  10.582 -29.748  1.00  0.00     0.293 HD
ENDBRANCH   8  26
TORSDOF 6
ENDMDL
MODEL 3
REMARK VINA RESULT:    -5.791      1.564      3.149
REMARK INTER + INTRA:          -7.286
REMARK INTER:                  -6.868
REMARK INTRA:                  -0.418
REMARK UNBOUND:                -0.310
REMARK SMILES O=c1c(O)c(-c2ccc(O)cc2O)oc2cc(O)cc(O)c12
REMARK SMILES IDX 5 1 3 2 2 3 1 4 22 5 20 6 19 7 17 8 16 9 15 10 14 11 6 12
REMARK SMILES IDX 8 13 7 14 9 15 11 16 12 17 10 18 13 20 4 22 21 24 18 26
REMARK H PARENT 10 19 13 21 4 23 21 25 18 27
REMARK Flexibility Score: inf
ROOT
ATOM      1  C   UNL     1      16.547   7.270 -24.157  1.00  0.00     0.184 A 
ATOM      2  C   UNL     1      17.908   7.149 -24.475  1.00  0.00     0.208 A 
ATOM      3  C   UNL     1      18.838   6.983 -23.435  1.00  0.00     0.238 A 
ATOM      4  O   UNL     1      20.051   6.821 -23.729  1.00  0.00    -0.285 OA
ATOM      5  C   UNL     1      18.392   6.959 -22.091  1.00  0.00     0.111 A 
ATOM      6  C   UNL     1      19.249   6.838 -20.956  1.00  0.00     0.134 A 
ATOM      7  C   UNL     1      18.689   6.695 -19.680  1.00  0.00     0.093 A 
ATOM      8  C   UNL     1      17.308   6.732 -19.491  1.00  0.00     0.123 A 
ATOM      9  C   UNL     1      16.462   6.911 -20.588  1.00  0.00     0.094 A 
ATOM     10  C   UNL     1      16.989   7.021 -21.877  1.00  0.00     0.146 A 
ATOM     11  O   UNL     1      16.151   7.178 -22.894  1.00  0.00    -0.451 OA
ENDROOT
BRANCH   1  12
ATOM     12  C   UNL     1      15.520   7.463 -25.203  1.00  0.00     0.063 A 
ATOM     13  C   UNL     1      14.501   8.908 -26.872  1.00  0.00     0.047 A 
ATOM     14  C   UNL     1      15.455   8.695 -25.874  1.00  0.00     0.020 A 
ATOM     15  C   UNL     1      13.610   7.891 -27.221  1.00  0.00     0.119 A 
ATOM     16  C   UNL     1      13.681   6.650 -26.576  1.00  0.00     0.093 A 
ATOM     17  C   UNL     1      14.640   6.425 -25.576  1.00  0.00     0.130 A 
BRANCH  15  18
ATOM     18  O   UNL     1      12.661   8.121 -28.216  1.00  0.00    -0.508 OA
ATOM     19  H   UNL     1      11.675   8.216 -27.997  1.00  0.00     0.293 HD
ENDBRANCH  15  18
BRANCH  17  20
ATOM     20  O   UNL     1      14.733   5.171 -24.974  1.00  0.00    -0.507 OA
ATOM     21  H   UNL     1      13.949   4.530 -24.955  1.00  0.00     0.293 HD
ENDBRANCH  17  20
ENDBRANCH   1  12
BRANCH   2  22
ATOM     22  O   UNL     1      18.319   7.157 -25.811  1.00  0.00    -0.502 OA
ATOM     23  H   UNL     1      18.284   6.332 -26.396  1.00  0.00     0.293 HD
ENDBRANCH   2  22
BRANCH   6  24
ATOM     24  O   UNL     1      20.645   6.880 -21.023  1.00  0.00    -0.507 OA
ATOM     25  H   UNL     1      21.252   6.096 -20.839  1.00  0.00     0.293 HD
ENDBRANCH   6  24
BRANCH   8  26
ATOM     26  O   UNL     1      16.786   6.603 -18.206  1.00  0.00    -0.508 OA
ATOM     27  H   UNL     1      15.804   6.765 -18.014  1.00  0.00     0.293 HD
ENDBRANCH   8  26
TORSDOF 6
ENDMDL
MODEL 4
REMARK VINA RESULT:    -5.653      3.791      6.585
REMARK INTER + INTRA:          -7.120
REMARK INTER:                  -6.782
REMARK INTRA:                  -0.338
REMARK UNBOUND:                -0.310
REMARK SMILES O=c1c(O)c(-c2ccc(O)cc2O)oc2cc(O)cc(O)c12
REMARK SMILES IDX 5 1 3 2 2 3 1 4 22 5 20 6 19 7 17 8 16 9 15 10 14 11 6 12
REMARK SMILES IDX 8 13 7 14 9 15 11 16 12 17 10 18 13 20 4 22 21 24 18 26
REMARK H PARENT 10 19 13 21 4 23 21 25 18 27
REMARK Flexibility Score: inf
ROOT
ATOM      1  C   UNL     1      21.414   4.790 -23.330  1.00  0.00     0.184 A 
ATOM      2  C   UNL     1      21.492   4.469 -21.967  1.00  0.00     0.208 A 
ATOM      3  C   UNL     1      22.662   3.865 -21.476  1.00  0.00     0.238 A 
ATOM      4  O   UNL     1      22.749   3.628 -20.243  1.00  0.00    -0.285 OA
ATOM      5  C   UNL     1      23.729   3.577 -22.362  1.00  0.00     0.111 A 
ATOM      6  C   UNL     1      24.944   2.931 -21.984  1.00  0.00     0.134 A 
ATOM      7  C   UNL     1      25.983   2.813 -22.915  1.00  0.00     0.093 A 
ATOM      8  C   UNL     1      25.828   3.260 -24.227  1.00  0.00     0.123 A 
ATOM      9  C   UNL     1      24.622   3.839 -24.625  1.00  0.00     0.094 A 
ATOM     10  C   UNL     1      23.580   4.003 -23.709  1.00  0.00     0.146 A 
ATOM     11  O   UNL     1      22.453   4.570 -24.124  1.00  0.00    -0.451 OA
ENDROOT
BRANCH   1  12
ATOM     12  C   UNL     1      20.204   5.412 -23.913  1.00  0.00     0.063 A 
ATOM     13  C   UNL     1      18.204   5.184 -25.275  1.00  0.00     0.047 A 
ATOM     14  C   UNL     1      19.358   4.630 -24.715  1.00  0.00     0.020 A 
ATOM     15  C   UNL     1      17.875   6.519 -25.031  1.00  0.00     0.119 A 
ATOM     16  C   UNL     1      18.700   7.301 -24.213  1.00  0.00     0.093 A 
ATOM     17  C   UNL     1      19.857   6.751 -23.641  1.00  0.00     0.130 A 
BRANCH  15  18
ATOM     18  O   UNL     1      16.723   7.058 -25.601  1.00  0.00    -0.508 OA
ATOM     19  H   UNL     1      16.267   7.873 -25.204  1.00  0.00     0.293 HD
ENDBRANCH  15  18
BRANCH  17  20
ATOM     20  O   UNL     1      20.645   7.525 -22.789  1.00  0.00    -0.507 OA
ATOM     21  H   UNL     1      21.305   7.104 -22.145  1.00  0.00     0.293 HD
ENDBRANCH  17  20
ENDBRANCH   1  12
BRANCH   2  22
ATOM     22  O   UNL     1      20.432   4.781 -21.111  1.00  0.00    -0.502 OA
ATOM     23  H   UNL     1      19.886   5.628 -21.208  1.00  0.00     0.293 HD
ENDBRANCH   2  22
BRANCH   6  24
ATOM     24  O   UNL     1      25.169   2.367 -20.724  1.00  0.00    -0.507 OA
ATOM     25  H   UNL     1      26.043   2.412 -20.222  1.00  0.00     0.293 HD
ENDBRANCH   6  24
BRANCH   8  26
ATOM     26  O   UNL     1      26.878   3.112 -25.131  1.00  0.00    -0.508 OA
ATOM     27  H   UNL     1      27.053   3.799 -25.856  1.00  0.00     0.293 HD
ENDBRANCH   8  26
TORSDOF 6
ENDMDL
MODEL 5
REMARK VINA RESULT:    -5.599      1.461      6.252
REMARK INTER + INTRA:          -7.055
REMARK INTER:                  -6.682
REMARK INTRA:                  -0.373
REMARK UNBOUND:                -0.310
REMARK SMILES O=c1c(O)c(-c2ccc(O)cc2O)oc2cc(O)cc(O)c12
REMARK SMILES IDX 5 1 3 2 2 3 1 4 22 5 20 6 19 7 17 8 16 9 15 10 14 11 6 12
REMARK SMILES IDX 8 13 7 14 9 15 11 16 12 17 10 18 13 20 4 22 21 24 18 26
REMARK H PARENT 10 19 13 21 4 23 21 25 18 27
REMARK Flexibility Score: inf
ROOT
ATOM      1  C   UNL     1      16.926   7.357 -24.086  1.00  0.00     0.184 A 
ATOM      2  C   UNL     1      16.072   7.293 -22.973  1.00  0.00     0.208 A 
ATOM      3  C   UNL     1      14.781   7.836 -23.074  1.00  0.00     0.238 A 
ATOM      4  O   UNL     1      14.002   7.729 -22.092  1.00  0.00    -0.285 OA
ATOM      5  C   UNL     1      14.369   8.451 -24.282  1.00  0.00     0.111 A 
ATOM      6  C   UNL     1      13.099   9.070 -24.484  1.00  0.00     0.134 A 
ATOM      7  C   UNL     1      12.751   9.531 -25.759  1.00  0.00     0.093 A 
ATOM      8  C   UNL     1      13.648   9.454 -26.824  1.00  0.00     0.123 A 
ATOM      9  C   UNL     1      14.916   8.905 -26.623  1.00  0.00     0.094 A 
ATOM     10  C   UNL     1      15.280   8.403 -25.371  1.00  0.00     0.146 A 
ATOM     11  O   UNL     1      16.491   7.878 -25.225  1.00  0.00    -0.451 OA
ENDROOT
BRANCH   1  12
ATOM     12  C   UNL     1      18.302   6.818 -24.040  1.00  0.00     0.063 A 
ATOM     13  C   UNL     1      20.534   6.905 -23.080  1.00  0.00     0.047 A 
ATOM     14  C   UNL     1      19.228   7.393 -23.154  1.00  0.00     0.020 A 
ATOM     15  C   UNL     1      20.929   5.830 -23.880  1.00  0.00     0.119 A 
ATOM     16  C   UNL     1      20.007   5.233 -24.749  1.00  0.00     0.093 A 
ATOM     17  C   UNL     1      18.691   5.714 -24.825  1.00  0.00     0.130 A 
BRANCH  15  18
ATOM     18  O   UNL     1      22.237   5.356 -23.798  1.00  0.00    -0.508 OA
ATOM     19  H   UNL     1      22.831   5.297 -24.618  1.00  0.00     0.293 HD
ENDBRANCH  15  18
BRANCH  17  20
ATOM     20  O   UNL     1      17.769   5.082 -25.659  1.00  0.00    -0.507 OA
ATOM     21  H   UNL     1      16.890   5.520 -25.910  1.00  0.00     0.293 HD
ENDBRANCH  17  20
ENDBRANCH   1  12
BRANCH   2  22
ATOM     22  O   UNL     1      16.498   6.665 -21.799  1.00  0.00    -0.502 OA
ATOM     23  H   UNL     1      17.392   6.866 -21.369  1.00  0.00     0.293 HD
ENDBRANCH   2  22
BRANCH   6  24
ATOM     24  O   UNL     1      12.162   9.280 -23.467  1.00  0.00    -0.507 OA
ATOM     25  H   UNL     1      11.270   9.734 -23.593  1.00  0.00     0.293 HD
ENDBRANCH   6  24
BRANCH   8  26
ATOM     26  O   UNL     1      13.273   9.937 -28.075  1.00  0.00    -0.508 OA
ATOM     27  H   UNL     1      13.537   9.458 -28.929  1.00  0.00     0.293 HD
ENDBRANCH   8  26
TORSDOF 6
ENDMDL
MODEL 6
REMARK VINA RESULT:    -5.492      2.168      6.839
REMARK INTER + INTRA:          -6.926
REMARK INTER:                  -6.527
REMARK INTRA:                  -0.398
REMARK UNBOUND:                -0.310
REMARK SMILES O=c1c(O)c(-c2ccc(O)cc2O)oc2cc(O)cc(O)c12
REMARK SMILES IDX 5 1 3 2 2 3 1 4 22 5 20 6 19 7 17 8 16 9 15 10 14 11 6 12
REMARK SMILES IDX 8 13 7 14 9 15 11 16 12 17 10 18 13 20 4 22 21 24 18 26
REMARK H PARENT 10 19 13 21 4 23 21 25 18 27
REMARK Flexibility Score: inf
ROOT
ATOM      1  C   UNL     1      15.555   6.666 -25.078  1.00  0.00     0.184 A 
ATOM      2  C   UNL     1      15.111   7.650 -25.976  1.00  0.00     0.208 A 
ATOM      3  C   UNL     1      13.874   7.476 -26.618  1.00  0.00     0.238 A 
ATOM      4  O   UNL     1      13.456   8.385 -27.381  1.00  0.00    -0.285 OA
ATOM      5  C   UNL     1      13.108   6.312 -26.365  1.00  0.00     0.111 A 
ATOM      6  C   UNL     1      11.860   6.011 -26.990  1.00  0.00     0.134 A 
ATOM      7  C   UNL     1      11.127   4.896 -26.567  1.00  0.00     0.093 A 
ATOM      8  C   UNL     1      11.625   4.035 -25.590  1.00  0.00     0.123 A 
ATOM      9  C   UNL     1      12.872   4.285 -25.014  1.00  0.00     0.094 A 
ATOM     10  C   UNL     1      13.611   5.410 -25.389  1.00  0.00     0.146 A 
ATOM     11  O   UNL     1      14.787   5.619 -24.810  1.00  0.00    -0.451 OA
ENDROOT
BRANCH   1  12
ATOM     12  C   UNL     1      16.855   6.781 -24.382  1.00  0.00     0.063 A 
ATOM     13  C   UNL     1      19.282   6.814 -24.509  1.00  0.00     0.047 A 
ATOM     14  C   UNL     1      18.038   6.703 -25.134  1.00  0.00     0.020 A 
ATOM     15  C   UNL     1      19.360   7.017 -23.129  1.00  0.00     0.119 A 
ATOM     16  C   UNL     1      18.186   7.121 -22.373  1.00  0.00     0.093 A 
ATOM     17  C   UNL     1      16.932   7.017 -22.994  1.00  0.00     0.130 A 
BRANCH  15  18
ATOM     18  O   UNL     1      20.609   7.122 -22.520  1.00  0.00    -0.508 OA
ATOM     19  H   UNL     1      20.755   6.834 -21.558  1.00  0.00     0.293 HD
ENDBRANCH  15  18
BRANCH  17  20
ATOM     20  O   UNL     1      15.770   7.171 -22.238  1.00  0.00    -0.507 OA
ATOM     21  H   UNL     1      15.129   6.400 -22.085  1.00  0.00     0.293 HD
ENDBRANCH  17  20
ENDBRANCH   1  12
BRANCH   2  22
ATOM     22  O   UNL     1      15.878   8.797 -26.193  1.00  0.00    -0.502 OA
ATOM     23  H   UNL     1      16.645   9.062 -25.587  1.00  0.00     0.293 HD
ENDBRANCH   2  22
BRANCH   6  24
ATOM     24  O   UNL     1      11.314   6.756 -28.040  1.00  0.00    -0.507 OA
ATOM     25  H   UNL     1      11.401   6.520 -29.017  1.00  0.00     0.293 HD
ENDBRANCH   6  24
BRANCH   8  26
ATOM     26  O   UNL     1      10.875   2.925 -25.205  1.00  0.00    -0.508 OA
ATOM     27  H   UNL     1      10.059   2.630 -25.729  1.00  0.00     0.293 HD
ENDBRANCH   8  26
TORSDOF 6
ENDMDL
MODEL 7
REMARK VINA RESULT:    -5.402      2.620      6.770
REMARK INTER + INTRA:          -6.817
REMARK INTER:                  -6.404
REMARK INTRA:                  -0.413
REMARK UNBOUND:                -0.310
REMARK SMILES O=c1c(O)c(-c2ccc(O)cc2O)oc2cc(O)cc(O)c12
REMARK SMILES IDX 5 1 3 2 2 3 1 4 22 5 20 6 19 7 17 8 16 9 15 10 14 11 6 12
REMARK SMILES IDX 8 13 7 14 9 15 11 16 12 17 10 18 13 20 4 22 21 24 18 26
REMARK H PARENT 10 19 13 21 4 23 21 25 18 27
REMARK Flexibility Score: inf
ROOT
ATOM      1  C   UNL     1      14.389   7.420 -24.801  1.00  0.00     0.184 A 
ATOM      2  C   UNL     1      13.326   6.702 -25.372  1.00  0.00     0.208 A 
ATOM      3  C   UNL     1      12.864   7.070 -26.646  1.00  0.00     0.238 A 
ATOM      4  O   UNL     1      11.947   6.390 -27.176  1.00  0.00    -0.285 OA
ATOM      5  C   UNL     1      13.463   8.160 -27.323  1.00  0.00     0.111 A 
ATOM      6  C   UNL     1      13.049   8.646 -28.600  1.00  0.00     0.134 A 
ATOM      7  C   UNL     1      13.796   9.647 -29.233  1.00  0.00     0.093 A 
ATOM      8  C   UNL     1      14.901  10.225 -28.609  1.00  0.00     0.123 A 
ATOM      9  C   UNL     1      15.279   9.799 -27.334  1.00  0.00     0.094 A 
ATOM     10  C   UNL     1      14.575   8.777 -26.692  1.00  0.00     0.146 A 
ATOM     11  O   UNL     1      14.973   8.394 -25.485  1.00  0.00    -0.451 OA
ENDROOT
BRANCH   1  12
ATOM     12  C   UNL     1      14.910   7.094 -23.456  1.00  0.00     0.063 A 
ATOM     13  C   UNL     1      16.302   5.675 -22.056  1.00  0.00     0.047 A 
ATOM     14  C   UNL     1      15.785   6.006 -23.311  1.00  0.00     0.020 A 
ATOM     15  C   UNL     1      15.962   6.433 -20.934  1.00  0.00     0.119 A 
ATOM     16  C   UNL     1      15.109   7.536 -21.071  1.00  0.00     0.093 A 
ATOM     17  C   UNL     1      14.590   7.879 -22.329  1.00  0.00     0.130 A 
BRANCH  15  18
ATOM     18  O   UNL     1      16.482   6.088 -19.687  1.00  0.00    -0.508 OA
ATOM     19  H   UNL     1      17.463   6.221 -19.468  1.00  0.00     0.293 HD
ENDBRANCH  15  18
BRANCH  17  20
ATOM     20  O   UNL     1      13.781   9.007 -22.461  1.00  0.00    -0.507 OA
ATOM     21  H   UNL     1      13.009   9.186 -21.829  1.00  0.00     0.293 HD
ENDBRANCH  17  20
ENDBRANCH   1  12
BRANCH   2  22
ATOM     22  O   UNL     1      12.766   5.619 -24.689  1.00  0.00    -0.502 OA
ATOM     23  H   UNL     1      11.883   5.683 -24.198  1.00  0.00     0.293 HD
ENDBRANCH   2  22
BRANCH   6  24
ATOM     24  O   UNL     1      11.907   8.201 -29.273  1.00  0.00    -0.507 OA
ATOM     25  H   UNL     1      10.998   8.088 -28.848  1.00  0.00     0.293 HD
ENDBRANCH   6  24
BRANCH   8  26
ATOM     26  O   UNL     1      15.611  11.230 -29.262  1.00  0.00    -0.508 OA
ATOM     27  H   UNL     1      15.156  11.871 -29.901  1.00  0.00     0.293 HD
ENDBRANCH   8  26
TORSDOF 6
ENDMDL
MODEL 8
REMARK VINA RESULT:    -5.348      1.684      6.583
REMARK INTER + INTRA:          -6.752
REMARK INTER:                  -6.356
REMARK INTRA:                  -0.396
REMARK UNBOUND:                -0.310
REMARK SMILES O=c1c(O)c(-c2ccc(O)cc2O)oc2cc(O)cc(O)c12
REMARK SMILES IDX 5 1 3 2 2 3 1 4 22 5 20 6 19 7 17 8 16 9 15 10 14 11 6 12
REMARK SMILES IDX 8 13 7 14 9 15 11 16 12 17 10 18 13 20 4 22 21 24 18 26
REMARK H PARENT 10 19 13 21 4 23 21 25 18 27
REMARK Flexibility Score: inf
ROOT
ATOM      1  C   UNL     1      18.011   6.228 -23.290  1.00  0.00     0.184 A 
ATOM      2  C   UNL     1      17.267   6.423 -22.116  1.00  0.00     0.208 A 
ATOM      3  C   UNL     1      16.083   7.174 -22.179  1.00  0.00     0.238 A 
ATOM      4  O   UNL     1      15.391   7.301 -21.135  1.00  0.00    -0.285 OA
ATOM      5  C   UNL     1      15.669   7.734 -23.412  1.00  0.00     0.111 A 
ATOM      6  C   UNL     1      14.508   8.547 -23.585  1.00  0.00     0.134 A 
ATOM      7  C   UNL     1      14.125   8.938 -24.873  1.00  0.00     0.093 A 
ATOM      8  C   UNL     1      14.893   8.602 -25.987  1.00  0.00     0.123 A 
ATOM      9  C   UNL     1      16.063   7.858 -25.824  1.00  0.00     0.094 A 
ATOM     10  C   UNL     1      16.453   7.422 -24.555  1.00  0.00     0.146 A 
ATOM     11  O   UNL     1      17.566   6.707 -24.444  1.00  0.00    -0.451 OA
ENDROOT
BRANCH   1  12
ATOM     12  C   UNL     1      19.276   5.461 -23.289  1.00  0.00     0.063 A 
ATOM     13  C   UNL     1      20.401   3.312 -23.460  1.00  0.00     0.047 A 
ATOM     14  C   UNL     1      19.225   4.067 -23.450  1.00  0.00     0.020 A 
ATOM     15  C   UNL     1      21.641   3.941 -23.323  1.00  0.00     0.119 A 
ATOM     16  C   UNL     1      21.704   5.334 -23.186  1.00  0.00     0.093 A 
ATOM     17  C   UNL     1      20.528   6.099 -23.181  1.00  0.00     0.130 A 
BRANCH  15  18
ATOM     18  O   UNL     1      22.805   3.175 -23.330  1.00  0.00    -0.508 OA
ATOM     19  H   UNL     1      22.787   2.183 -23.119  1.00  0.00     0.293 HD
ENDBRANCH  15  18
BRANCH  17  20
ATOM     20  O   UNL     1      20.606   7.489 -23.093  1.00  0.00    -0.507 OA
ATOM     21  H   UNL     1      21.024   8.047 -23.829  1.00  0.00     0.293 HD
ENDBRANCH  17  20
ENDBRANCH   1  12
BRANCH   2  22
ATOM     22  O   UNL     1      17.689   5.844 -20.916  1.00  0.00    -0.502 OA
ATOM     23  H   UNL     1      17.613   6.322 -20.026  1.00  0.00     0.293 HD
ENDBRANCH   2  22
BRANCH   6  24
ATOM     24  O   UNL     1      13.719   9.015 -22.529  1.00  0.00    -0.507 OA
ATOM     25  H   UNL     1      13.861   9.892 -22.051  1.00  0.00     0.293 HD
ENDBRANCH   6  24
BRANCH   8  26
ATOM     26  O   UNL     1      14.489   9.023 -27.252  1.00  0.00    -0.508 OA
ATOM     27  H   UNL     1      13.509   9.083 -27.503  1.00  0.00     0.293 HD
ENDBRANCH   8  26
TORSDOF 6
ENDMDL
