MODEL 1
REMARK VINA RESULT:    -3.354      0.000      0.000
REMARK INTER + INTRA:         -11.102
REMARK INTER:                  -7.667
REMARK INTRA:                  -3.435
REMARK UNBOUND:                -3.435
REMARK SMILES CCCCCCCCCCCCCCCCCCCCCCCC(=O)[O-]
REMARK SMILES IDX 13 1 14 2 15 3 16 4 17 5 18 6 19 7 20 8 21 9 22 10 23 11
REMARK SMILES IDX 24 12 25 13 26 14 12 15 11 16 10 17 9 18 8 19 7 20 6 21 5 22
REMARK SMILES IDX 4 23 3 24 2 25 1 26
REMARK H PARENT
REMARK Flexibility Score: inf
ROOT
ATOM      1  C   UNL     1      25.139  -8.543  29.565  1.00  0.00     0.000 C 
ENDROOT
BRANCH   1   2
ATOM      2  C   UNL     1      25.296  -9.423  28.309  1.00  0.00     0.000 C 
BRANCH   2   3
ATOM      3  C   UNL     1      26.435 -10.451  28.371  1.00  0.00     0.000 C 
BRANCH   3   4
ATOM      4  C   UNL     1      27.614  -9.982  29.237  1.00  0.00     0.000 C 
BRANCH   4   5
ATOM      5  C   UNL     1      28.243 -11.114  30.069  1.00  0.00     0.000 C 
BRANCH   5   6
ATOM      6  C   UNL     1      29.224 -12.008  29.283  1.00  0.00     0.000 C 
BRANCH   6   7
ATOM      7  C   UNL     1      30.620 -12.075  29.937  1.00  0.00     0.000 C 
BRANCH   7   8
ATOM      8  C   UNL     1      30.817 -11.031  31.046  1.00  0.00     0.000 C 
BRANCH   8   9
ATOM      9  C   UNL     1      32.250 -10.477  31.105  1.00  0.00     0.000 C 
BRANCH   9  10
ATOM     10  C   UNL     1      32.245  -8.944  31.093  1.00  0.00     0.006 C 
BRANCH  10  11
ATOM     11  C   UNL     1      30.837  -8.392  31.357  1.00  0.00     0.053 C 
BRANCH  11  12
ATOM     12  C   UNL     1      30.758  -7.715  32.691  1.00  0.00     0.041 C 
ATOM     13  O   UNL     1      31.434  -8.148  33.666  1.00  0.00    -0.550 OA
ATOM     14  O   UNL     1      29.978  -6.575  32.850  1.00  0.00    -0.550 OA
ENDBRANCH  11  12
ENDBRANCH  10  11
ENDBRANCH   9  10
ENDBRANCH   8   9
ENDBRANCH   7   8
ENDBRANCH   6   7
ENDBRANCH   5   6
ENDBRANCH   4   5
ENDBRANCH   3   4
ENDBRANCH   2   3
ENDBRANCH   1   2
BRANCH   1  15
ATOM     15  C   UNL     1      23.835  -7.719  29.630  1.00  0.00     0.000 C 
BRANCH  15  16
ATOM     16  C   UNL     1      22.541  -8.526  29.398  1.00  0.00     0.000 C 
BRANCH  16  17
ATOM     17  C   UNL     1      21.736  -8.847  30.669  1.00  0.00     0.000 C 
BRANCH  17  18
ATOM     18  C   UNL     1      21.808 -10.329  31.091  1.00  0.00    -0.000 C 
BRANCH  18  19
ATOM     19  C   UNL     1      22.547 -11.240  30.088  1.00  0.00    -0.000 C 
BRANCH  19  20
ATOM     20  C   UNL     1      23.738 -11.994  30.705  1.00  0.00    -0.000 C 
BRANCH  20  21
ATOM     21  C   UNL     1      24.050 -11.525  32.136  1.00  0.00    -0.000 C 
BRANCH  21  22
ATOM     22  C   UNL     1      25.325 -10.661  32.223  1.00  0.00    -0.000 C 
BRANCH  22  23
ATOM     23  C   UNL     1      25.205  -9.427  33.144  1.00  0.00    -0.000 C 
BRANCH  23  24
ATOM     24  C   UNL     1      23.893  -9.397  33.944  1.00  0.00    -0.000 C 
BRANCH  24  25
ATOM     25  C   UNL     1      24.133  -9.406  35.461  1.00  0.00    -0.003 C 
ATOM     26  C   UNL     1      23.197  -8.467  36.223  1.00  0.00     0.004 C 
ENDBRANCH  24  25
ENDBRANCH  23  24
ENDBRANCH  22  23
ENDBRANCH  21  22
ENDBRANCH  20  21
ENDBRANCH  19  20
ENDBRANCH  18  19
ENDBRANCH  17  18
ENDBRANCH  16  17
ENDBRANCH  15  16
ENDBRANCH   1  15
TORSDOF 22
ENDMDL
MODEL 2
REMARK VINA RESULT:    -3.211      1.463      4.233
REMARK INTER + INTRA:         -10.775
REMARK INTER:                  -7.155
REMARK INTRA:                  -3.621
REMARK UNBOUND:                -3.435
REMARK SMILES CCCCCCCCCCCCCCCCCCCCCCCC(=O)[O-]
REMARK SMILES IDX 13 1 14 2 15 3 16 4 17 5 18 6 19 7 20 8 21 9 22 10 23 11
REMARK SMILES IDX 24 12 25 13 26 14 12 15 11 16 10 17 9 18 8 19 7 20 6 21 5 22
REMARK SMILES IDX 4 23 3 24 2 25 1 26
REMARK H PARENT
REMARK Flexibility Score: inf
ROOT
ATOM      1  C   UNL     1      24.390  -9.693  35.174  1.00  0.00     0.000 C 
ENDROOT
BRANCH   1   2
ATOM      2  C   UNL     1      24.402  -9.046  33.774  1.00  0.00     0.000 C 
BRANCH   2   3
ATOM      3  C   UNL     1      25.339  -9.711  32.756  1.00  0.00     0.000 C 
BRANCH   3   4
ATOM      4  C   UNL     1      25.248 -11.245  32.777  1.00  0.00     0.000 C 
BRANCH   4   5
ATOM      5  C   UNL     1      25.994 -11.912  31.607  1.00  0.00     0.000 C 
BRANCH   5   6
ATOM      6  C   UNL     1      27.524 -11.712  31.636  1.00  0.00     0.000 C 
BRANCH   6   7
ATOM      7  C   UNL     1      28.081 -11.199  30.291  1.00  0.00     0.000 C 
BRANCH   7   8
ATOM      8  C   UNL     1      29.160 -10.118  30.459  1.00  0.00     0.000 C 
BRANCH   8   9
ATOM      9  C   UNL     1      30.074 -10.363  31.672  1.00  0.00     0.000 C 
BRANCH   9  10
ATOM     10  C   UNL     1      31.504  -9.892  31.383  1.00  0.00     0.006 C 
BRANCH  10  11
ATOM     11  C   UNL     1      31.607  -8.360  31.448  1.00  0.00     0.053 C 
BRANCH  11  12
ATOM     12  C   UNL     1      31.197  -7.843  32.792  1.00  0.00     0.041 C 
ATOM     13  O   UNL     1      31.845  -8.170  33.826  1.00  0.00    -0.550 OA
ATOM     14  O   UNL     1      30.129  -6.959  32.903  1.00  0.00    -0.550 OA
ENDBRANCH  11  12
ENDBRANCH  10  11
ENDBRANCH   9  10
ENDBRANCH   8   9
ENDBRANCH   7   8
ENDBRANCH   6   7
ENDBRANCH   5   6
ENDBRANCH   4   5
ENDBRANCH   3   4
ENDBRANCH   2   3
ENDBRANCH   1   2
BRANCH   1  15
ATOM     15  C   UNL     1      23.272  -9.198  36.116  1.00  0.00     0.000 C 
BRANCH  15  16
ATOM     16  C   UNL     1      22.078 -10.161  36.275  1.00  0.00     0.000 C 
BRANCH  16  17
ATOM     17  C   UNL     1      22.276 -11.553  35.650  1.00  0.00     0.000 C 
BRANCH  17  18
ATOM     18  C   UNL     1      21.378 -11.816  34.423  1.00  0.00    -0.000 C 
BRANCH  18  19
ATOM     19  C   UNL     1      20.485 -10.623  34.022  1.00  0.00    -0.000 C 
BRANCH  19  20
ATOM     20  C   UNL     1      20.970  -9.888  32.762  1.00  0.00    -0.000 C 
BRANCH  20  21
ATOM     21  C   UNL     1      21.762 -10.806  31.816  1.00  0.00    -0.000 C 
BRANCH  21  22
ATOM     22  C   UNL     1      22.274 -10.079  30.556  1.00  0.00    -0.000 C 
BRANCH  22  23
ATOM     23  C   UNL     1      22.113  -8.543  30.588  1.00  0.00    -0.000 C 
BRANCH  23  24
ATOM     24  C   UNL     1      23.373  -7.796  30.121  1.00  0.00    -0.000 C 
BRANCH  24  25
ATOM     25  C   UNL     1      24.118  -8.546  29.007  1.00  0.00    -0.003 C 
ATOM     26  C   UNL     1      25.588  -8.806  29.338  1.00  0.00     0.004 C 
ENDBRANCH  24  25
ENDBRANCH  23  24
ENDBRANCH  22  23
ENDBRANCH  21  22
ENDBRANCH  20  21
ENDBRANCH  19  20
ENDBRANCH  18  19
ENDBRANCH  17  18
ENDBRANCH  16  17
ENDBRANCH  15  16
ENDBRANCH   1  15
TORSDOF 22
ENDMDL
MODEL 3
REMARK VINA RESULT:    -3.164      1.355      2.186
REMARK INTER + INTRA:         -10.668
REMARK INTER:                  -7.631
REMARK INTRA:                  -3.037
REMARK UNBOUND:                -3.435
REMARK SMILES CCCCCCCCCCCCCCCCCCCCCCCC(=O)[O-]
REMARK SMILES IDX 13 1 14 2 15 3 16 4 17 5 18 6 19 7 20 8 21 9 22 10 23 11
REMARK SMILES IDX 24 12 25 13 26 14 12 15 11 16 10 17 9 18 8 19 7 20 6 21 5 22
REMARK SMILES IDX 4 23 3 24 2 25 1 26
REMARK H PARENT
REMARK Flexibility Score: inf
ROOT
ATOM      1  C   UNL     1      25.947  -9.149  30.585  1.00  0.00     0.000 C 
ENDROOT
BRANCH   1   2
ATOM      2  C   UNL     1      27.400  -9.575  30.881  1.00  0.00     0.000 C 
BRANCH   2   3
ATOM      3  C   UNL     1      27.594 -11.069  31.178  1.00  0.00     0.000 C 
BRANCH   3   4
ATOM      4  C   UNL     1      27.943 -11.885  29.924  1.00  0.00     0.000 C 
BRANCH   4   5
ATOM      5  C   UNL     1      29.452 -11.912  29.621  1.00  0.00     0.000 C 
BRANCH   5   6
ATOM      6  C   UNL     1      30.351 -11.710  30.859  1.00  0.00     0.000 C 
BRANCH   6   7
ATOM      7  C   UNL     1      31.823 -11.436  30.487  1.00  0.00     0.000 C 
BRANCH   7   8
ATOM      8  C   UNL     1      32.282 -10.017  30.851  1.00  0.00     0.000 C 
BRANCH   8   9
ATOM      9  C   UNL     1      31.116  -9.077  31.200  1.00  0.00     0.000 C 
BRANCH   9  10
ATOM     10  C   UNL     1      31.604  -7.632  31.353  1.00  0.00     0.006 C 
BRANCH  10  11
ATOM     11  C   UNL     1      31.103  -7.014  32.667  1.00  0.00     0.053 C 
BRANCH  11  12
ATOM     12  C   UNL     1      31.781  -7.629  33.852  1.00  0.00     0.041 C 
ATOM     13  O   UNL     1      31.487  -8.801  34.217  1.00  0.00    -0.550 OA
ATOM     14  O   UNL     1      32.777  -6.930  34.525  1.00  0.00    -0.550 OA
ENDBRANCH  11  12
ENDBRANCH  10  11
ENDBRANCH   9  10
ENDBRANCH   8   9
ENDBRANCH   7   8
ENDBRANCH   6   7
ENDBRANCH   5   6
ENDBRANCH   4   5
ENDBRANCH   3   4
ENDBRANCH   2   3
ENDBRANCH   1   2
BRANCH   1  15
ATOM     15  C   UNL     1      25.563  -9.122  29.090  1.00  0.00     0.000 C 
BRANCH  15  16
ATOM     16  C   UNL     1      24.305  -8.297  28.754  1.00  0.00     0.000 C 
BRANCH  16  17
ATOM     17  C   UNL     1      23.547  -7.739  29.971  1.00  0.00     0.000 C 
BRANCH  17  18
ATOM     18  C   UNL     1      22.131  -8.329  30.144  1.00  0.00    -0.000 C 
BRANCH  18  19
ATOM     19  C   UNL     1      21.837  -9.548  29.245  1.00  0.00    -0.000 C 
BRANCH  19  20
ATOM     20  C   UNL     1      21.748 -10.875  30.018  1.00  0.00    -0.000 C 
BRANCH  20  21
ATOM     21  C   UNL     1      23.085 -11.635  30.033  1.00  0.00    -0.000 C 
BRANCH  21  22
ATOM     22  C   UNL     1      23.662 -11.814  31.452  1.00  0.00    -0.000 C 
BRANCH  22  23
ATOM     23  C   UNL     1      22.859 -11.111  32.568  1.00  0.00    -0.000 C 
BRANCH  23  24
ATOM     24  C   UNL     1      23.590  -9.894  33.160  1.00  0.00    -0.000 C 
BRANCH  24  25
ATOM     25  C   UNL     1      24.773 -10.300  34.052  1.00  0.00    -0.003 C 
ATOM     26  C   UNL     1      24.411 -11.379  35.073  1.00  0.00     0.004 C 
ENDBRANCH  24  25
ENDBRANCH  23  24
ENDBRANCH  22  23
ENDBRANCH  21  22
ENDBRANCH  20  21
ENDBRANCH  19  20
ENDBRANCH  18  19
ENDBRANCH  17  18
ENDBRANCH  16  17
ENDBRANCH  15  16
ENDBRANCH   1  15
TORSDOF 22
ENDMDL
MODEL 4
REMARK VINA RESULT:    -3.159      2.621      7.051
REMARK INTER + INTRA:         -10.658
REMARK INTER:                  -6.631
REMARK INTRA:                  -4.028
REMARK UNBOUND:                -3.435
REMARK SMILES CCCCCCCCCCCCCCCCCCCCCCCC(=O)[O-]
REMARK SMILES IDX 13 1 14 2 15 3 16 4 17 5 18 6 19 7 20 8 21 9 22 10 23 11
REMARK SMILES IDX 24 12 25 13 26 14 12 15 11 16 10 17 9 18 8 19 7 20 6 21 5 22
REMARK SMILES IDX 4 23 3 24 2 25 1 26
REMARK H PARENT
REMARK Flexibility Score: inf
ROOT
ATOM      1  C   UNL     1      25.357 -10.919  32.551  1.00  0.00     0.000 C 
ENDROOT
BRANCH   1   2
ATOM      2  C   UNL     1      25.646  -9.511  31.992  1.00  0.00     0.000 C 
BRANCH   2   3
ATOM      3  C   UNL     1      24.403  -8.662  31.690  1.00  0.00     0.000 C 
BRANCH   3   4
ATOM      4  C   UNL     1      24.304  -8.257  30.211  1.00  0.00     0.000 C 
BRANCH   4   5
ATOM      5  C   UNL     1      22.940  -8.593  29.581  1.00  0.00     0.000 C 
BRANCH   5   6
ATOM      6  C   UNL     1      21.766  -8.608  30.583  1.00  0.00     0.000 C 
BRANCH   6   7
ATOM      7  C   UNL     1      21.234 -10.032  30.852  1.00  0.00     0.000 C 
BRANCH   7   8
ATOM      8  C   UNL     1      20.851 -10.263  32.321  1.00  0.00     0.000 C 
BRANCH   8   9
ATOM      9  C   UNL     1      21.495 -11.524  32.921  1.00  0.00     0.000 C 
BRANCH   9  10
ATOM     10  C   UNL     1      21.982 -11.263  34.351  1.00  0.00     0.006 C 
BRANCH  10  11
ATOM     11  C   UNL     1      22.547  -9.842  34.493  1.00  0.00     0.053 C 
BRANCH  11  12
ATOM     12  C   UNL     1      23.023  -9.582  35.889  1.00  0.00     0.041 C 
ATOM     13  O   UNL     1      24.252  -9.406  36.121  1.00  0.00    -0.550 OA
ATOM     14  O   UNL     1      22.108  -9.484  36.931  1.00  0.00    -0.550 OA
ENDBRANCH  11  12
ENDBRANCH  10  11
ENDBRANCH   9  10
ENDBRANCH   8   9
ENDBRANCH   7   8
ENDBRANCH   6   7
ENDBRANCH   5   6
ENDBRANCH   4   5
ENDBRANCH   3   4
ENDBRANCH   2   3
ENDBRANCH   1   2
BRANCH   1  15
ATOM     15  C   UNL     1      25.384 -12.057  31.509  1.00  0.00     0.000 C 
BRANCH  15  16
ATOM     16  C   UNL     1      24.174 -12.098  30.554  1.00  0.00     0.000 C 
BRANCH  16  17
ATOM     17  C   UNL     1      24.520 -11.989  29.058  1.00  0.00     0.000 C 
BRANCH  17  18
ATOM     18  C   UNL     1      26.015 -11.715  28.786  1.00  0.00    -0.000 C 
BRANCH  18  19
ATOM     19  C   UNL     1      26.309 -10.314  28.211  1.00  0.00    -0.000 C 
BRANCH  19  20
ATOM     20  C   UNL     1      27.652  -9.727  28.678  1.00  0.00    -0.000 C 
BRANCH  20  21
ATOM     21  C   UNL     1      28.340 -10.608  29.735  1.00  0.00    -0.000 C 
BRANCH  21  22
ATOM     22  C   UNL     1      29.006  -9.790  30.861  1.00  0.00    -0.000 C 
BRANCH  22  23
ATOM     23  C   UNL     1      30.441 -10.234  31.218  1.00  0.00    -0.000 C 
BRANCH  23  24
ATOM     24  C   UNL     1      31.191  -9.208  32.084  1.00  0.00    -0.000 C 
BRANCH  24  25
ATOM     25  C   UNL     1      30.967  -7.765  31.606  1.00  0.00    -0.003 C 
ATOM     26  C   UNL     1      30.426  -6.847  32.702  1.00  0.00     0.004 C 
ENDBRANCH  24  25
ENDBRANCH  23  24
ENDBRANCH  22  23
ENDBRANCH  21  22
ENDBRANCH  20  21
ENDBRANCH  19  20
ENDBRANCH  18  19
ENDBRANCH  17  18
ENDBRANCH  16  17
ENDBRANCH  15  16
ENDBRANCH   1  15
TORSDOF 22
ENDMDL
MODEL 5
REMARK VINA RESULT:    -3.057      2.543      7.024
REMARK INTER + INTRA:         -10.425
REMARK INTER:                  -7.215
REMARK INTRA:                  -3.209
REMARK UNBOUND:                -3.435
REMARK SMILES CCCCCCCCCCCCCCCCCCCCCCCC(=O)[O-]
REMARK SMILES IDX 13 1 14 2 15 3 16 4 17 5 18 6 19 7 20 8 21 9 22 10 23 11
REMARK SMILES IDX 24 12 25 13 26 14 12 15 11 16 10 17 9 18 8 19 7 20 6 21 5 22
REMARK SMILES IDX 4 23 3 24 2 25 1 26
REMARK H PARENT
REMARK Flexibility Score: inf
ROOT
ATOM      1  C   UNL     1      24.760  -8.658  31.975  1.00  0.00     0.000 C 
ENDROOT
BRANCH   1   2
ATOM      2  C   UNL     1      23.975  -8.285  30.701  1.00  0.00     0.000 C 
BRANCH   2   3
ATOM      3  C   UNL     1      24.780  -8.358  29.395  1.00  0.00     0.000 C 
BRANCH   3   4
ATOM      4  C   UNL     1      24.201  -9.370  28.395  1.00  0.00     0.000 C 
BRANCH   4   5
ATOM      5  C   UNL     1      22.877  -9.999  28.867  1.00  0.00     0.000 C 
BRANCH   5   6
ATOM      6  C   UNL     1      22.949 -11.522  29.104  1.00  0.00     0.000 C 
BRANCH   6   7
ATOM      7  C   UNL     1      21.685 -12.075  29.795  1.00  0.00     0.000 C 
BRANCH   7   8
ATOM      8  C   UNL     1      21.344 -11.343  31.101  1.00  0.00     0.000 C 
BRANCH   8   9
ATOM      9  C   UNL     1      22.230 -11.772  32.282  1.00  0.00     0.000 C 
BRANCH   9  10
ATOM     10  C   UNL     1      22.346 -10.648  33.318  1.00  0.00     0.006 C 
BRANCH  10  11
ATOM     11  C   UNL     1      22.543 -11.214  34.732  1.00  0.00     0.053 C 
BRANCH  11  12
ATOM     12  C   UNL     1      23.968 -11.090  35.175  1.00  0.00     0.041 C 
ATOM     13  O   UNL     1      24.651 -12.123  35.420  1.00  0.00    -0.550 OA
ATOM     14  O   UNL     1      24.561  -9.837  35.271  1.00  0.00    -0.550 OA
ENDBRANCH  11  12
ENDBRANCH  10  11
ENDBRANCH   9  10
ENDBRANCH   8   9
ENDBRANCH   7   8
ENDBRANCH   6   7
ENDBRANCH   5   6
ENDBRANCH   4   5
ENDBRANCH   3   4
ENDBRANCH   2   3
ENDBRANCH   1   2
BRANCH   1  15
ATOM     15  C   UNL     1      26.034  -9.496  31.739  1.00  0.00     0.000 C 
BRANCH  15  16
ATOM     16  C   UNL     1      25.854 -11.020  31.903  1.00  0.00     0.000 C 
BRANCH  16  17
ATOM     17  C   UNL     1      26.209 -11.855  30.660  1.00  0.00     0.000 C 
BRANCH  17  18
ATOM     18  C   UNL     1      27.566 -11.481  30.028  1.00  0.00    -0.000 C 
BRANCH  18  19
ATOM     19  C   UNL     1      28.782 -11.718  30.947  1.00  0.00    -0.000 C 
BRANCH  19  20
ATOM     20  C   UNL     1      30.013 -10.878  30.568  1.00  0.00    -0.000 C 
BRANCH  20  21
ATOM     21  C   UNL     1      30.057  -9.534  31.314  1.00  0.00    -0.000 C 
BRANCH  21  22
ATOM     22  C   UNL     1      31.471  -8.919  31.367  1.00  0.00    -0.000 C 
BRANCH  22  23
ATOM     23  C   UNL     1      31.507  -7.412  31.701  1.00  0.00    -0.000 C 
BRANCH  23  24
ATOM     24  C   UNL     1      31.231  -7.117  33.185  1.00  0.00    -0.000 C 
BRANCH  24  25
ATOM     25  C   UNL     1      32.005  -8.056  34.121  1.00  0.00    -0.003 C 
ATOM     26  C   UNL     1      33.050  -7.330  34.970  1.00  0.00     0.004 C 
ENDBRANCH  24  25
ENDBRANCH  23  24
ENDBRANCH  22  23
ENDBRANCH  21  22
ENDBRANCH  20  21
ENDBRANCH  19  20
ENDBRANCH  18  19
ENDBRANCH  17  18
ENDBRANCH  16  17
ENDBRANCH  15  16
ENDBRANCH   1  15
TORSDOF 22
ENDMDL
MODEL 6
REMARK VINA RESULT:    -2.948      3.269      7.906
REMARK INTER + INTRA:         -10.175
REMARK INTER:                  -7.284
REMARK INTRA:                  -2.891
REMARK UNBOUND:                -3.435
REMARK SMILES CCCCCCCCCCCCCCCCCCCCCCCC(=O)[O-]
REMARK SMILES IDX 13 1 14 2 15 3 16 4 17 5 18 6 19 7 20 8 21 9 22 10 23 11
REMARK SMILES IDX 24 12 25 13 26 14 12 15 11 16 10 17 9 18 8 19 7 20 6 21 5 22
REMARK SMILES IDX 4 23 3 24 2 25 1 26
REMARK H PARENT
REMARK Flexibility Score: inf
ROOT
ATOM      1  C   UNL     1      25.094  -9.319  33.144  1.00  0.00     0.000 C 
ENDROOT
BRANCH   1   2
ATOM      2  C   UNL     1      24.593 -10.072  34.393  1.00  0.00     0.000 C 
BRANCH   2   3
ATOM      3  C   UNL     1      24.265  -9.184  35.602  1.00  0.00     0.000 C 
BRANCH   3   4
ATOM      4  C   UNL     1      22.754  -9.037  35.841  1.00  0.00     0.000 C 
BRANCH   4   5
ATOM      5  C   UNL     1      21.921 -10.119  35.129  1.00  0.00     0.000 C 
BRANCH   5   6
ATOM      6  C   UNL     1      20.943  -9.570  34.069  1.00  0.00     0.000 C 
BRANCH   6   7
ATOM      7  C   UNL     1      20.402 -10.671  33.134  1.00  0.00     0.000 C 
BRANCH   7   8
ATOM      8  C   UNL     1      21.474 -11.691  32.723  1.00  0.00     0.000 C 
BRANCH   8   9
ATOM      9  C   UNL     1      21.584 -11.869  31.199  1.00  0.00     0.000 C 
BRANCH   9  10
ATOM     10  C   UNL     1      20.581 -10.970  30.468  1.00  0.00     0.006 C 
BRANCH  10  11
ATOM     11  C   UNL     1      21.233 -10.277  29.262  1.00  0.00     0.053 C 
BRANCH  11  12
ATOM     12  C   UNL     1      21.051  -8.792  29.323  1.00  0.00     0.041 C 
ATOM     13  O   UNL     1      20.570  -8.251  30.358  1.00  0.00    -0.550 OA
ATOM     14  O   UNL     1      21.458  -7.995  28.259  1.00  0.00    -0.550 OA
ENDBRANCH  11  12
ENDBRANCH  10  11
ENDBRANCH   9  10
ENDBRANCH   8   9
ENDBRANCH   7   8
ENDBRANCH   6   7
ENDBRANCH   5   6
ENDBRANCH   4   5
ENDBRANCH   3   4
ENDBRANCH   2   3
ENDBRANCH   1   2
BRANCH   1  15
ATOM     15  C   UNL     1      24.244  -9.521  31.872  1.00  0.00     0.000 C 
BRANCH  15  16
ATOM     16  C   UNL     1      24.091  -8.270  30.982  1.00  0.00     0.000 C 
BRANCH  16  17
ATOM     17  C   UNL     1      24.837  -8.332  29.638  1.00  0.00     0.000 C 
BRANCH  17  18
ATOM     18  C   UNL     1      25.472  -9.707  29.343  1.00  0.00    -0.000 C 
BRANCH  18  19
ATOM     19  C   UNL     1      27.007  -9.679  29.189  1.00  0.00    -0.000 C 
BRANCH  19  20
ATOM     20  C   UNL     1      27.756  -9.487  30.519  1.00  0.00    -0.000 C 
BRANCH  20  21
ATOM     21  C   UNL     1      29.189 -10.044  30.469  1.00  0.00    -0.000 C 
BRANCH  21  22
ATOM     22  C   UNL     1      30.053  -9.591  31.664  1.00  0.00    -0.000 C 
BRANCH  22  23
ATOM     23  C   UNL     1      30.823  -8.272  31.440  1.00  0.00    -0.000 C 
BRANCH  23  24
ATOM     24  C   UNL     1      31.017  -7.460  32.732  1.00  0.00    -0.000 C 
BRANCH  24  25
ATOM     25  C   UNL     1      31.691  -8.281  33.841  1.00  0.00    -0.003 C 
ATOM     26  C   UNL     1      32.679  -7.465  34.675  1.00  0.00     0.004 C 
ENDBRANCH  24  25
ENDBRANCH  23  24
ENDBRANCH  22  23
ENDBRANCH  21  22
ENDBRANCH  20  21
ENDBRANCH  19  20
ENDBRANCH  18  19
ENDBRANCH  17  18
ENDBRANCH  16  17
ENDBRANCH  15  16
ENDBRANCH   1  15
TORSDOF 22
ENDMDL
MODEL 7
REMARK VINA RESULT:    -2.903      2.605      7.570
REMARK INTER + INTRA:         -10.071
REMARK INTER:                  -7.259
REMARK INTRA:                  -2.812
REMARK UNBOUND:                -3.435
REMARK SMILES CCCCCCCCCCCCCCCCCCCCCCCC(=O)[O-]
REMARK SMILES IDX 13 1 14 2 15 3 16 4 17 5 18 6 19 7 20 8 21 9 22 10 23 11
REMARK SMILES IDX 24 12 25 13 26 14 12 15 11 16 10 17 9 18 8 19 7 20 6 21 5 22
REMARK SMILES IDX 4 23 3 24 2 25 1 26
REMARK H PARENT
REMARK Flexibility Score: inf
ROOT
ATOM      1  C   UNL     1      23.751  -9.280  35.743  1.00  0.00     0.000 C 
ENDROOT
BRANCH   1   2
ATOM      2  C   UNL     1      23.654 -10.749  36.203  1.00  0.00     0.000 C 
BRANCH   2   3
ATOM      3  C   UNL     1      22.226 -11.299  36.333  1.00  0.00     0.000 C 
BRANCH   3   4
ATOM      4  C   UNL     1      21.159 -10.305  35.849  1.00  0.00     0.000 C 
BRANCH   4   5
ATOM      5  C   UNL     1      20.407 -10.786  34.596  1.00  0.00     0.000 C 
BRANCH   5   6
ATOM      6  C   UNL     1      21.281 -10.873  33.327  1.00  0.00     0.000 C 
BRANCH   6   7
ATOM      7  C   UNL     1      21.216  -9.589  32.473  1.00  0.00     0.000 C 
BRANCH   7   8
ATOM      8  C   UNL     1      21.570  -9.829  30.998  1.00  0.00     0.000 C 
BRANCH   8   9
ATOM      9  C   UNL     1      21.861  -8.529  30.229  1.00  0.00     0.000 C 
BRANCH   9  10
ATOM     10  C   UNL     1      23.315  -8.087  30.431  1.00  0.00     0.006 C 
BRANCH  10  11
ATOM     11  C   UNL     1      24.003  -7.813  29.085  1.00  0.00     0.053 C 
BRANCH  11  12
ATOM     12  C   UNL     1      24.619  -9.058  28.525  1.00  0.00     0.041 C 
ATOM     13  O   UNL     1      25.872  -9.215  28.550  1.00  0.00    -0.550 OA
ATOM     14  O   UNL     1      23.811 -10.070  28.021  1.00  0.00    -0.550 OA
ENDBRANCH  11  12
ENDBRANCH  10  11
ENDBRANCH   9  10
ENDBRANCH   8   9
ENDBRANCH   7   8
ENDBRANCH   6   7
ENDBRANCH   5   6
ENDBRANCH   4   5
ENDBRANCH   3   4
ENDBRANCH   2   3
ENDBRANCH   1   2
BRANCH   1  15
ATOM     15  C   UNL     1      24.288  -9.075  34.310  1.00  0.00     0.000 C 
BRANCH  15  16
ATOM     16  C   UNL     1      24.979 -10.307  33.690  1.00  0.00     0.000 C 
BRANCH  16  17
ATOM     17  C   UNL     1      25.307 -10.183  32.191  1.00  0.00     0.000 C 
BRANCH  17  18
ATOM     18  C   UNL     1      25.829 -11.491  31.561  1.00  0.00    -0.000 C 
BRANCH  18  19
ATOM     19  C   UNL     1      27.286 -11.417  31.058  1.00  0.00    -0.000 C 
BRANCH  19  20
ATOM     20  C   UNL     1      27.900 -10.010  31.157  1.00  0.00    -0.000 C 
BRANCH  20  21
ATOM     21  C   UNL     1      29.322  -9.949  30.574  1.00  0.00    -0.000 C 
BRANCH  21  22
ATOM     22  C   UNL     1      30.390 -10.519  31.529  1.00  0.00    -0.000 C 
BRANCH  22  23
ATOM     23  C   UNL     1      31.217  -9.453  32.281  1.00  0.00    -0.000 C 
BRANCH  23  24
ATOM     24  C   UNL     1      31.786  -8.367  31.353  1.00  0.00    -0.000 C 
BRANCH  24  25
ATOM     25  C   UNL     1      31.290  -6.961  31.725  1.00  0.00    -0.003 C 
ATOM     26  C   UNL     1      30.086  -6.980  32.668  1.00  0.00     0.004 C 
ENDBRANCH  24  25
ENDBRANCH  23  24
ENDBRANCH  22  23
ENDBRANCH  21  22
ENDBRANCH  20  21
ENDBRANCH  19  20
ENDBRANCH  18  19
ENDBRANCH  17  18
ENDBRANCH  16  17
ENDBRANCH  15  16
ENDBRANCH   1  15
TORSDOF 22
ENDMDL
MODEL 8
REMARK VINA RESULT:    -2.851      3.566      9.364
REMARK INTER + INTRA:          -9.952
REMARK INTER:                  -7.645
REMARK INTRA:                  -2.306
REMARK UNBOUND:                -3.435
REMARK SMILES CCCCCCCCCCCCCCCCCCCCCCCC(=O)[O-]
REMARK SMILES IDX 13 1 14 2 15 3 16 4 17 5 18 6 19 7 20 8 21 9 22 10 23 11
REMARK SMILES IDX 24 12 25 13 26 14 12 15 11 16 10 17 9 18 8 19 7 20 6 21 5 22
REMARK SMILES IDX 4 23 3 24 2 25 1 26
REMARK H PARENT
REMARK Flexibility Score: inf
ROOT
ATOM      1  C   UNL     1      29.196  -8.908  31.625  1.00  0.00     0.000 C 
ENDROOT
BRANCH   1   2
ATOM      2  C   UNL     1      29.576 -10.031  30.639  1.00  0.00     0.000 C 
BRANCH   2   3
ATOM      3  C   UNL     1      28.482 -11.081  30.394  1.00  0.00     0.000 C 
BRANCH   3   4
ATOM      4  C   UNL     1      28.092 -11.200  28.913  1.00  0.00     0.000 C 
BRANCH   4   5
ATOM      5  C   UNL     1      27.591  -9.875  28.310  1.00  0.00     0.000 C 
BRANCH   5   6
ATOM      6  C   UNL     1      26.054  -9.748  28.250  1.00  0.00     0.000 C 
BRANCH   6   7
ATOM      7  C   UNL     1      25.452  -9.197  29.559  1.00  0.00     0.000 C 
BRANCH   7   8
ATOM      8  C   UNL     1      24.386 -10.121  30.167  1.00  0.00     0.000 C 
BRANCH   8   9
ATOM      9  C   UNL     1      24.863 -10.833  31.444  1.00  0.00     0.000 C 
BRANCH   9  10
ATOM     10  C   UNL     1      25.619  -9.865  32.362  1.00  0.00     0.006 C 
BRANCH  10  11
ATOM     11  C   UNL     1      24.647  -8.953  33.125  1.00  0.00     0.053 C 
BRANCH  11  12
ATOM     12  C   UNL     1      24.405  -9.456  34.515  1.00  0.00     0.041 C 
ATOM     13  O   UNL     1      24.198  -8.645  35.460  1.00  0.00    -0.550 OA
ATOM     14  O   UNL     1      24.358 -10.824  34.763  1.00  0.00    -0.550 OA
ENDBRANCH  11  12
ENDBRANCH  10  11
ENDBRANCH   9  10
ENDBRANCH   8   9
ENDBRANCH   7   8
ENDBRANCH   6   7
ENDBRANCH   5   6
ENDBRANCH   4   5
ENDBRANCH   3   4
ENDBRANCH   2   3
ENDBRANCH   1   2
BRANCH   1  15
ATOM     15  C   UNL     1      30.385  -8.098  32.186  1.00  0.00     0.000 C 
BRANCH  15  16
ATOM     16  C   UNL     1      31.778  -8.684  31.877  1.00  0.00     0.000 C 
BRANCH  16  17
ATOM     17  C   UNL     1      32.613  -7.879  30.866  1.00  0.00     0.000 C 
BRANCH  17  18
ATOM     18  C   UNL     1      33.659  -8.727  30.112  1.00  0.00    -0.000 C 
BRANCH  18  19
ATOM     19  C   UNL     1      33.375 -10.244  30.124  1.00  0.00    -0.000 C 
BRANCH  19  20
ATOM     20  C   UNL     1      33.763 -10.953  28.815  1.00  0.00    -0.000 C 
BRANCH  20  21
ATOM     21  C   UNL     1      35.121 -10.476  28.271  1.00  0.00    -0.000 C 
BRANCH  21  22
ATOM     22  C   UNL     1      36.066 -11.639  27.906  1.00  0.00    -0.000 C 
BRANCH  22  23
ATOM     23  C   UNL     1      37.425 -11.618  28.639  1.00  0.00    -0.000 C 
BRANCH  23  24
ATOM     24  C   UNL     1      37.300 -11.266  30.131  1.00  0.00    -0.000 C 
BRANCH  24  25
ATOM     25  C   UNL     1      38.561 -10.581  30.677  1.00  0.00    -0.003 C 
ATOM     26  C   UNL     1      39.716 -10.561  29.675  1.00  0.00     0.004 C 
ENDBRANCH  24  25
ENDBRANCH  23  24
ENDBRANCH  22  23
ENDBRANCH  21  22
ENDBRANCH  20  21
ENDBRANCH  19  20
ENDBRANCH  18  19
ENDBRANCH  17  18
ENDBRANCH  16  17
ENDBRANCH  15  16
ENDBRANCH   1  15
TORSDOF 22
ENDMDL
MODEL 9
REMARK VINA RESULT:    -2.835      2.454      7.525
REMARK INTER + INTRA:          -9.917
REMARK INTER:                  -7.180
REMARK INTRA:                  -2.737
REMARK UNBOUND:                -3.435
REMARK SMILES CCCCCCCCCCCCCCCCCCCCCCCC(=O)[O-]
REMARK SMILES IDX 13 1 14 2 15 3 16 4 17 5 18 6 19 7 20 8 21 9 22 10 23 11
REMARK SMILES IDX 24 12 25 13 26 14 12 15 11 16 10 17 9 18 8 19 7 20 6 21 5 22
REMARK SMILES IDX 4 23 3 24 2 25 1 26
REMARK H PARENT
REMARK Flexibility Score: inf
ROOT
ATOM      1  C   UNL     1      25.138  -9.178  32.962  1.00  0.00     0.000 C 
ENDROOT
BRANCH   1   2
ATOM      2  C   UNL     1      24.748  -9.890  34.273  1.00  0.00     0.000 C 
BRANCH   2   3
ATOM      3  C   UNL     1      23.965  -9.029  35.274  1.00  0.00     0.000 C 
BRANCH   3   4
ATOM      4  C   UNL     1      22.526  -9.525  35.489  1.00  0.00     0.000 C 
BRANCH   4   5
ATOM      5  C   UNL     1      22.119 -10.642  34.510  1.00  0.00     0.000 C 
BRANCH   5   6
ATOM      6  C   UNL     1      20.764 -10.407  33.810  1.00  0.00     0.000 C 
BRANCH   6   7
ATOM      7  C   UNL     1      20.845 -10.603  32.281  1.00  0.00     0.000 C 
BRANCH   7   8
ATOM      8  C   UNL     1      22.220 -11.096  31.809  1.00  0.00     0.000 C 
BRANCH   8   9
ATOM      9  C   UNL     1      22.507 -10.764  30.335  1.00  0.00     0.000 C 
BRANCH   9  10
ATOM     10  C   UNL     1      21.942  -9.388  29.964  1.00  0.00     0.006 C 
BRANCH  10  11
ATOM     11  C   UNL     1      22.901  -8.263  30.382  1.00  0.00     0.053 C 
BRANCH  11  12
ATOM     12  C   UNL     1      23.603  -7.677  29.196  1.00  0.00     0.041 C 
ATOM     13  O   UNL     1      23.767  -8.363  28.149  1.00  0.00    -0.550 OA
ATOM     14  O   UNL     1      24.033  -6.355  29.225  1.00  0.00    -0.550 OA
ENDBRANCH  11  12
ENDBRANCH  10  11
ENDBRANCH   9  10
ENDBRANCH   8   9
ENDBRANCH   7   8
ENDBRANCH   6   7
ENDBRANCH   5   6
ENDBRANCH   4   5
ENDBRANCH   3   4
ENDBRANCH   2   3
ENDBRANCH   1   2
BRANCH   1  15
ATOM     15  C   UNL     1      25.880 -10.058  31.933  1.00  0.00     0.000 C 
BRANCH  15  16
ATOM     16  C   UNL     1      26.477  -9.296  30.732  1.00  0.00     0.000 C 
BRANCH  16  17
ATOM     17  C   UNL     1      26.646 -10.131  29.450  1.00  0.00     0.000 C 
BRANCH  17  18
ATOM     18  C   UNL     1      27.178 -11.557  29.704  1.00  0.00    -0.000 C 
BRANCH  18  19
ATOM     19  C   UNL     1      28.682 -11.736  29.406  1.00  0.00    -0.000 C 
BRANCH  19  20
ATOM     20  C   UNL     1      29.577 -11.595  30.649  1.00  0.00    -0.000 C 
BRANCH  20  21
ATOM     21  C   UNL     1      30.093 -10.158  30.837  1.00  0.00    -0.000 C 
BRANCH  21  22
ATOM     22  C   UNL     1      31.565 -10.101  31.293  1.00  0.00    -0.000 C 
BRANCH  22  23
ATOM     23  C   UNL     1      32.195  -8.691  31.264  1.00  0.00    -0.000 C 
BRANCH  23  24
ATOM     24  C   UNL     1      31.175  -7.571  31.528  1.00  0.00    -0.000 C 
BRANCH  24  25
ATOM     25  C   UNL     1      31.114  -7.174  33.011  1.00  0.00    -0.003 C 
ATOM     26  C   UNL     1      32.099  -7.954  33.882  1.00  0.00     0.004 C 
ENDBRANCH  24  25
ENDBRANCH  23  24
ENDBRANCH  22  23
ENDBRANCH  21  22
ENDBRANCH  20  21
ENDBRANCH  19  20
ENDBRANCH  18  19
ENDBRANCH  17  18
ENDBRANCH  16  17
ENDBRANCH  15  16
ENDBRANCH   1  15
TORSDOF 22
ENDMDL
