MODEL 1
REMARK VINA RESULT:    -5.655      0.000      0.000
REMARK INTER + INTRA:          -9.793
REMARK INTER:                  -8.300
REMARK INTRA:                  -1.493
REMARK UNBOUND:                -1.493
REMARK SMILES O=c1c(O[C@@H]2O[C@H](CO)[C@@H](O)[C@H](O)[C@H]2O)c(-c2ccc(O)c(O)c2)oc2cc(O)cc(O)c12
REMARK SMILES IDX 4 1 3 2 16 3 25 4 2 5 26 6 1 7 33 8 27 9 31 10 28 11 30 12
REMARK SMILES IDX 17 13 18 14 19 15 20 16 24 17 22 18 21 19 23 21 32 23 29 25
REMARK SMILES IDX 5 27 14 28 6 29 12 30 7 31 10 32 15 33 13 35 8 37 9 38 11 40
REMARK H PARENT 21 20 23 22 32 24 29 26 15 34 13 36 9 39 11 41
REMARK Flexibility Score: inf
ROOT
ATOM      1  O   UNL     1       8.811   4.199  27.710  1.00  0.00    -0.454 OA
ENDROOT
BRANCH   1   2
ATOM      2  C   UNL     1       8.047   5.372  27.616  1.00  0.00     0.214 A 
ATOM      3  C   UNL     1       8.227   6.335  26.590  1.00  0.00     0.180 A 
ATOM      4  O   UNL     1       7.304   7.280  26.448  1.00  0.00    -0.452 OA
ATOM      5  C   UNL     1       7.027   5.568  28.562  1.00  0.00     0.239 A 
ATOM      6  C   UNL     1       6.289   7.465  27.277  1.00  0.00     0.146 A 
ATOM      7  O   UNL     1       6.876   4.723  29.483  1.00  0.00    -0.285 OA
ATOM      8  C   UNL     1       6.152   6.666  28.428  1.00  0.00     0.111 A 
ATOM      9  C   UNL     1       5.361   8.468  26.998  1.00  0.00     0.094 A 
ATOM     10  C   UNL     1       5.150   7.001  29.377  1.00  0.00     0.134 A 
ATOM     11  C   UNL     1       4.323   8.737  27.897  1.00  0.00     0.123 A 
ATOM     12  C   UNL     1       4.239   8.026  29.095  1.00  0.00     0.093 A 
BRANCH   3  13
ATOM     13  C   UNL     1       9.400   6.378  25.660  1.00  0.00     0.025 A 
ATOM     14  C   UNL     1      10.698   6.746  26.079  1.00  0.00     0.016 A 
ATOM     15  C   UNL     1      11.734   6.869  25.148  1.00  0.00     0.051 A 
ATOM     16  C   UNL     1      11.498   6.655  23.782  1.00  0.00     0.157 A 
ATOM     17  C   UNL     1       9.176   6.154  24.281  1.00  0.00     0.062 A 
ATOM     18  C   UNL     1      10.209   6.298  23.347  1.00  0.00     0.158 A 
BRANCH  16  19
ATOM     19  O   UNL     1      12.531   6.807  22.857  1.00  0.00    -0.504 OA
ATOM     20  H   UNL     1      12.510   6.290  21.982  1.00  0.00     0.293 HD
ENDBRANCH  16  19
BRANCH  18  21
ATOM     21  O   UNL     1       9.938   6.094  21.991  1.00  0.00    -0.504 OA
ATOM     22  H   UNL     1      10.582   5.611  21.367  1.00  0.00     0.293 HD
ENDBRANCH  18  21
ENDBRANCH   3  13
BRANCH  10  23
ATOM     23  O   UNL     1       5.101   6.370  30.623  1.00  0.00    -0.507 OA
ATOM     24  H   UNL     1       5.947   6.090  31.111  1.00  0.00     0.293 HD
ENDBRANCH  10  23
BRANCH  11  25
ATOM     25  O   UNL     1       3.371   9.709  27.608  1.00  0.00    -0.508 OA
ATOM     26  H   UNL     1       3.506  10.367  26.847  1.00  0.00     0.293 HD
ENDBRANCH  11  25
ENDBRANCH   1   2
BRANCH   1  27
ATOM     27  C   UNL     1       8.705   3.109  26.785  1.00  0.00     0.339 C 
ATOM     28  C   UNL     1       8.546   1.770  27.569  1.00  0.00     0.214 C 
ATOM     29  O   UNL     1       7.640   3.349  25.873  1.00  0.00    -0.332 OA
ATOM     30  C   UNL     1       7.081   1.287  27.528  1.00  0.00     0.180 C 
ATOM     31  C   UNL     1       7.309   2.189  25.141  1.00  0.00     0.179 C 
ATOM     32  C   UNL     1       6.579   1.173  26.060  1.00  0.00     0.177 C 
BRANCH  28  33
ATOM     33  O   UNL     1       9.376   0.800  26.978  1.00  0.00    -0.384 OA
ATOM     34  H   UNL     1      10.159   1.275  26.593  1.00  0.00     0.211 HD
ENDBRANCH  28  33
BRANCH  30  35
ATOM     35  O   UNL     1       6.274   2.184  28.240  1.00  0.00    -0.387 OA
ATOM     36  H   UNL     1       6.686   3.080  28.148  1.00  0.00     0.211 HD
ENDBRANCH  30  35
BRANCH  31  37
ATOM     37  C   UNL     1       6.438   2.609  23.946  1.00  0.00     0.191 C 
BRANCH  37  38
ATOM     38  O   UNL     1       7.042   2.269  22.725  1.00  0.00    -0.394 OA
ATOM     39  H   UNL     1       7.854   2.836  22.649  1.00  0.00     0.210 HD
ENDBRANCH  37  38
ENDBRANCH  31  37
BRANCH  32  40
ATOM     40  O   UNL     1       6.794  -0.126  25.573  1.00  0.00    -0.387 OA
ATOM     41  H   UNL     1       7.478  -0.045  24.861  1.00  0.00     0.211 HD
ENDBRANCH  32  40
ENDBRANCH   1  27
TORSDOF 12
ENDMDL
MODEL 2
REMARK VINA RESULT:    -5.620     12.096     14.690
REMARK INTER + INTRA:          -9.742
REMARK INTER:                  -8.250
REMARK INTRA:                  -1.492
REMARK UNBOUND:                -1.493
REMARK SMILES O=c1c(O[C@@H]2O[C@H](CO)[C@@H](O)[C@H](O)[C@H]2O)c(-c2ccc(O)c(O)c2)oc2cc(O)cc(O)c12
REMARK SMILES IDX 4 1 3 2 16 3 25 4 2 5 26 6 1 7 33 8 27 9 31 10 28 11 30 12
REMARK SMILES IDX 17 13 18 14 19 15 20 16 24 17 22 18 21 19 23 21 32 23 29 25
REMARK SMILES IDX 5 27 14 28 6 29 12 30 7 31 10 32 15 33 13 35 8 37 9 38 11 40
REMARK H PARENT 21 20 23 22 32 24 29 26 15 34 13 36 9 39 11 41
REMARK Flexibility Score: inf
ROOT
ATOM      1  O   UNL     1      15.919   4.260  34.706  1.00  0.00    -0.454 OA
ENDROOT
BRANCH   1   2
ATOM      2  C   UNL     1      16.745   5.388  34.824  1.00  0.00     0.214 A 
ATOM      3  C   UNL     1      16.606   6.345  35.862  1.00  0.00     0.180 A 
ATOM      4  O   UNL     1      17.578   7.236  36.028  1.00  0.00    -0.452 OA
ATOM      5  C   UNL     1      17.786   5.538  33.894  1.00  0.00     0.239 A 
ATOM      6  C   UNL     1      18.612   7.375  35.213  1.00  0.00     0.146 A 
ATOM      7  O   UNL     1      17.901   4.698  32.963  1.00  0.00    -0.285 OA
ATOM      8  C   UNL     1      18.718   6.585  34.053  1.00  0.00     0.111 A 
ATOM      9  C   UNL     1      19.591   8.321  35.516  1.00  0.00     0.094 A 
ATOM     10  C   UNL     1      19.749   6.876  33.120  1.00  0.00     0.134 A 
ATOM     11  C   UNL     1      20.653   8.543  34.634  1.00  0.00     0.123 A 
ATOM     12  C   UNL     1      20.712   7.845  33.427  1.00  0.00     0.093 A 
BRANCH   3  13
ATOM     13  C   UNL     1      15.426   6.442  36.779  1.00  0.00     0.025 A 
ATOM     14  C   UNL     1      14.128   6.765  36.326  1.00  0.00     0.016 A 
ATOM     15  C   UNL     1      13.084   6.942  37.240  1.00  0.00     0.051 A 
ATOM     16  C   UNL     1      13.312   6.828  38.619  1.00  0.00     0.157 A 
ATOM     17  C   UNL     1      15.642   6.317  38.172  1.00  0.00     0.062 A 
ATOM     18  C   UNL     1      14.601   6.515  39.086  1.00  0.00     0.158 A 
BRANCH  16  19
ATOM     19  O   UNL     1      12.270   7.033  39.524  1.00  0.00    -0.504 OA
ATOM     20  H   UNL     1      12.466   7.413  40.447  1.00  0.00     0.293 HD
ENDBRANCH  16  19
BRANCH  18  21
ATOM     21  O   UNL     1      14.865   6.409  40.455  1.00  0.00    -0.504 OA
ATOM     22  H   UNL     1      15.400   7.107  40.969  1.00  0.00     0.293 HD
ENDBRANCH  18  21
ENDBRANCH   3  13
BRANCH  10  23
ATOM     23  O   UNL     1      19.778   6.259  31.866  1.00  0.00    -0.507 OA
ATOM     24  H   UNL     1      20.605   5.776  31.530  1.00  0.00     0.293 HD
ENDBRANCH  10  23
BRANCH  11  25
ATOM     25  O   UNL     1      21.653   9.457  34.947  1.00  0.00    -0.508 OA
ATOM     26  H   UNL     1      21.503  10.456  34.847  1.00  0.00     0.293 HD
ENDBRANCH  11  25
ENDBRANCH   1   2
BRANCH   1  27
ATOM     27  C   UNL     1      15.954   3.152  35.616  1.00  0.00     0.339 C 
ATOM     28  C   UNL     1      16.095   1.821  34.815  1.00  0.00     0.214 C 
ATOM     29  O   UNL     1      16.994   3.341  36.568  1.00  0.00    -0.332 OA
ATOM     30  C   UNL     1      17.540   1.287  34.899  1.00  0.00     0.180 C 
ATOM     31  C   UNL     1      17.259   2.159  37.292  1.00  0.00     0.179 C 
ATOM     32  C   UNL     1      17.985   1.133  36.381  1.00  0.00     0.177 C 
BRANCH  28  33
ATOM     33  O   UNL     1      15.211   0.872  35.361  1.00  0.00    -0.384 OA
ATOM     34  H   UNL     1      15.523  -0.025  35.070  1.00  0.00     0.211 HD
ENDBRANCH  28  33
BRANCH  30  35
ATOM     35  O   UNL     1      18.402   2.166  34.230  1.00  0.00    -0.387 OA
ATOM     36  H   UNL     1      19.063   1.610  33.746  1.00  0.00     0.211 HD
ENDBRANCH  30  35
BRANCH  31  37
ATOM     37  C   UNL     1      18.101   2.529  38.523  1.00  0.00     0.191 C 
BRANCH  37  38
ATOM     38  O   UNL     1      17.465   3.507  39.305  1.00  0.00    -0.394 OA
ATOM     39  H   UNL     1      17.513   4.353  38.788  1.00  0.00     0.210 HD
ENDBRANCH  37  38
ENDBRANCH  31  37
BRANCH  32  40
ATOM     40  O   UNL     1      17.708  -0.165  36.839  1.00  0.00    -0.387 OA
ATOM     41  H   UNL     1      16.726  -0.276  36.783  1.00  0.00     0.211 HD
ENDBRANCH  32  40
ENDBRANCH   1  27
TORSDOF 12
ENDMDL
MODEL 3
REMARK VINA RESULT:    -5.474     10.964     14.058
REMARK INTER + INTRA:          -9.527
REMARK INTER:                  -8.248
REMARK INTRA:                  -1.278
REMARK UNBOUND:                -1.493
REMARK SMILES O=c1c(O[C@@H]2O[C@H](CO)[C@@H](O)[C@H](O)[C@H]2O)c(-c2ccc(O)c(O)c2)oc2cc(O)cc(O)c12
REMARK SMILES IDX 4 1 3 2 16 3 25 4 2 5 26 6 1 7 33 8 27 9 31 10 28 11 30 12
REMARK SMILES IDX 17 13 18 14 19 15 20 16 24 17 22 18 21 19 23 21 32 23 29 25
REMARK SMILES IDX 5 27 14 28 6 29 12 30 7 31 10 32 15 33 13 35 8 37 9 38 11 40
REMARK H PARENT 21 20 23 22 32 24 29 26 15 34 13 36 9 39 11 41
REMARK Flexibility Score: inf
ROOT
ATOM      1  O   UNL     1      13.710   7.369  37.894  1.00  0.00    -0.454 OA
ENDROOT
BRANCH   1   2
ATOM      2  C   UNL     1      14.037   6.087  37.426  1.00  0.00     0.214 A 
ATOM      3  C   UNL     1      13.320   5.433  36.392  1.00  0.00     0.180 A 
ATOM      4  O   UNL     1      13.849   4.338  35.857  1.00  0.00    -0.452 OA
ATOM      5  C   UNL     1      15.159   5.453  37.983  1.00  0.00     0.239 A 
ATOM      6  C   UNL     1      14.940   3.738  36.308  1.00  0.00     0.146 A 
ATOM      7  O   UNL     1      15.788   6.025  38.912  1.00  0.00    -0.285 OA
ATOM      8  C   UNL     1      15.600   4.223  37.452  1.00  0.00     0.111 A 
ATOM      9  C   UNL     1      15.422   2.615  35.636  1.00  0.00     0.094 A 
ATOM     10  C   UNL     1      16.666   3.460  38.001  1.00  0.00     0.134 A 
ATOM     11  C   UNL     1      16.526   1.916  36.134  1.00  0.00     0.123 A 
ATOM     12  C   UNL     1      17.124   2.321  37.329  1.00  0.00     0.093 A 
BRANCH   3  13
ATOM     13  C   UNL     1      11.990   5.877  35.865  1.00  0.00     0.025 A 
ATOM     14  C   UNL     1      10.806   5.127  36.043  1.00  0.00     0.016 A 
ATOM     15  C   UNL     1       9.612   5.538  35.443  1.00  0.00     0.051 A 
ATOM     16  C   UNL     1       9.573   6.683  34.635  1.00  0.00     0.157 A 
ATOM     17  C   UNL     1      11.937   7.037  35.057  1.00  0.00     0.062 A 
ATOM     18  C   UNL     1      10.746   7.435  34.440  1.00  0.00     0.158 A 
BRANCH  16  19
ATOM     19  O   UNL     1       8.383   7.069  34.017  1.00  0.00    -0.504 OA
ATOM     20  H   UNL     1       8.408   7.663  33.192  1.00  0.00     0.293 HD
ENDBRANCH  16  19
BRANCH  18  21
ATOM     21  O   UNL     1      10.744   8.573  33.627  1.00  0.00    -0.504 OA
ATOM     22  H   UNL     1      11.320   8.654  32.791  1.00  0.00     0.293 HD
ENDBRANCH  18  21
ENDBRANCH   3  13
BRANCH  10  23
ATOM     23  O   UNL     1      17.220   3.788  39.242  1.00  0.00    -0.507 OA
ATOM     24  H   UNL     1      18.005   4.426  39.322  1.00  0.00     0.293 HD
ENDBRANCH  10  23
BRANCH  11  25
ATOM     25  O   UNL     1      17.036   0.818  35.449  1.00  0.00    -0.508 OA
ATOM     26  H   UNL     1      17.879   0.893  34.890  1.00  0.00     0.293 HD
ENDBRANCH  11  25
ENDBRANCH   1   2
BRANCH   1  27
ATOM     27  C   UNL     1      13.025   7.611  39.130  1.00  0.00     0.339 C 
ATOM     28  C   UNL     1      12.978   9.144  39.412  1.00  0.00     0.214 C 
ATOM     29  O   UNL     1      11.734   7.013  39.092  1.00  0.00    -0.332 OA
ATOM     30  C   UNL     1      11.576   9.711  39.106  1.00  0.00     0.180 C 
ATOM     31  C   UNL     1      10.918   7.467  40.151  1.00  0.00     0.179 C 
ATOM     32  C   UNL     1      10.483   8.934  39.893  1.00  0.00     0.177 C 
BRANCH  28  33
ATOM     33  O   UNL     1      13.286   9.362  40.768  1.00  0.00    -0.384 OA
ATOM     34  H   UNL     1      14.273   9.296  40.862  1.00  0.00     0.211 HD
ENDBRANCH  28  33
BRANCH  30  35
ATOM     35  O   UNL     1      11.328   9.622  37.729  1.00  0.00    -0.387 OA
ATOM     36  H   UNL     1      10.909   8.739  37.568  1.00  0.00     0.211 HD
ENDBRANCH  30  35
BRANCH  31  37
ATOM     37  C   UNL     1       9.711   6.522  40.264  1.00  0.00     0.191 C 
BRANCH  37  38
ATOM     38  O   UNL     1       8.731   7.042  41.125  1.00  0.00    -0.394 OA
ATOM     39  H   UNL     1       8.710   6.445  41.918  1.00  0.00     0.210 HD
ENDBRANCH  37  38
ENDBRANCH  31  37
BRANCH  32  40
ATOM     40  O   UNL     1      10.231   9.562  41.123  1.00  0.00    -0.387 OA
ATOM     41  H   UNL     1       9.746  10.400  40.912  1.00  0.00     0.211 HD
ENDBRANCH  32  40
ENDBRANCH   1  27
TORSDOF 12
ENDMDL
MODEL 4
REMARK VINA RESULT:    -5.470      1.632      5.335
REMARK INTER + INTRA:          -9.522
REMARK INTER:                  -8.199
REMARK INTRA:                  -1.323
REMARK UNBOUND:                -1.493
REMARK SMILES O=c1c(O[C@@H]2O[C@H](CO)[C@@H](O)[C@H](O)[C@H]2O)c(-c2ccc(O)c(O)c2)oc2cc(O)cc(O)c12
REMARK SMILES IDX 4 1 3 2 16 3 25 4 2 5 26 6 1 7 33 8 27 9 31 10 28 11 30 12
REMARK SMILES IDX 17 13 18 14 19 15 20 16 24 17 22 18 21 19 23 21 32 23 29 25
REMARK SMILES IDX 5 27 14 28 6 29 12 30 7 31 10 32 15 33 13 35 8 37 9 38 11 40
REMARK H PARENT 21 20 23 22 32 24 29 26 15 34 13 36 9 39 11 41
REMARK Flexibility Score: inf
ROOT
ATOM      1  O   UNL     1       8.527   6.070  24.992  1.00  0.00    -0.454 OA
ENDROOT
BRANCH   1   2
ATOM      2  C   UNL     1       7.588   5.899  26.020  1.00  0.00     0.214 A 
ATOM      3  C   UNL     1       7.200   4.626  26.511  1.00  0.00     0.180 A 
ATOM      4  O   UNL     1       6.498   4.575  27.638  1.00  0.00    -0.452 OA
ATOM      5  C   UNL     1       7.051   7.051  26.617  1.00  0.00     0.239 A 
ATOM      6  C   UNL     1       6.023   5.637  28.271  1.00  0.00     0.146 A 
ATOM      7  O   UNL     1       7.382   8.182  26.172  1.00  0.00    -0.285 OA
ATOM      8  C   UNL     1       6.206   6.927  27.739  1.00  0.00     0.111 A 
ATOM      9  C   UNL     1       5.333   5.458  29.470  1.00  0.00     0.094 A 
ATOM     10  C   UNL     1       5.543   8.021  28.356  1.00  0.00     0.134 A 
ATOM     11  C   UNL     1       4.754   6.553  30.119  1.00  0.00     0.123 A 
ATOM     12  C   UNL     1       4.833   7.823  29.546  1.00  0.00     0.093 A 
BRANCH   3  13
ATOM     13  C   UNL     1       7.509   3.324  25.839  1.00  0.00     0.025 A 
ATOM     14  C   UNL     1       8.341   2.340  26.419  1.00  0.00     0.016 A 
ATOM     15  C   UNL     1       8.678   1.187  25.703  1.00  0.00     0.051 A 
ATOM     16  C   UNL     1       8.219   0.999  24.392  1.00  0.00     0.157 A 
ATOM     17  C   UNL     1       7.043   3.117  24.519  1.00  0.00     0.062 A 
ATOM     18  C   UNL     1       7.398   1.973  23.797  1.00  0.00     0.158 A 
BRANCH  16  19
ATOM     19  O   UNL     1       8.582  -0.142  23.675  1.00  0.00    -0.504 OA
ATOM     20  H   UNL     1       8.166  -1.041  23.905  1.00  0.00     0.293 HD
ENDBRANCH  16  19
BRANCH  18  21
ATOM     21  O   UNL     1       6.937   1.823  22.485  1.00  0.00    -0.504 OA
ATOM     22  H   UNL     1       7.205   2.452  21.731  1.00  0.00     0.293 HD
ENDBRANCH  18  21
ENDBRANCH   3  13
BRANCH  10  23
ATOM     23  O   UNL     1       5.526   9.283  27.754  1.00  0.00    -0.507 OA
ATOM     24  H   UNL     1       4.812   9.969  27.978  1.00  0.00     0.293 HD
ENDBRANCH  10  23
BRANCH  11  25
ATOM     25  O   UNL     1       4.097   6.388  31.334  1.00  0.00    -0.508 OA
ATOM     26  H   UNL     1       3.820   7.187  31.895  1.00  0.00     0.293 HD
ENDBRANCH  11  25
ENDBRANCH   1   2
BRANCH   1  27
ATOM     27  C   UNL     1       9.934   5.847  25.156  1.00  0.00     0.339 C 
ATOM     28  C   UNL     1      10.430   4.823  24.090  1.00  0.00     0.214 C 
ATOM     29  O   UNL     1      10.629   7.087  25.102  1.00  0.00    -0.332 OA
ATOM     30  C   UNL     1      11.188   5.543  22.955  1.00  0.00     0.180 C 
ATOM     31  C   UNL     1      12.021   6.898  24.964  1.00  0.00     0.179 C 
ATOM     32  C   UNL     1      12.348   6.406  23.528  1.00  0.00     0.177 C 
BRANCH  28  33
ATOM     33  O   UNL     1      11.289   3.901  24.717  1.00  0.00    -0.384 OA
ATOM     34  H   UNL     1      10.902   3.693  25.607  1.00  0.00     0.211 HD
ENDBRANCH  28  33
BRANCH  30  35
ATOM     35  O   UNL     1      10.297   6.356  22.242  1.00  0.00    -0.387 OA
ATOM     36  H   UNL     1       9.877   5.786  21.549  1.00  0.00     0.211 HD
ENDBRANCH  30  35
BRANCH  31  37
ATOM     37  C   UNL     1      12.720   8.228  25.286  1.00  0.00     0.191 C 
BRANCH  37  38
ATOM     38  O   UNL     1      12.574   9.152  24.238  1.00  0.00    -0.394 OA
ATOM     39  H   UNL     1      11.983   9.872  24.581  1.00  0.00     0.210 HD
ENDBRANCH  37  38
ENDBRANCH  31  37
BRANCH  32  40
ATOM     40  O   UNL     1      13.538   5.661  23.558  1.00  0.00    -0.387 OA
ATOM     41  H   UNL     1      13.269   4.711  23.640  1.00  0.00     0.211 HD
ENDBRANCH  32  40
ENDBRANCH   1  27
TORSDOF 12
ENDMDL
MODEL 5
REMARK VINA RESULT:    -5.374      4.074      9.554
REMARK INTER + INTRA:          -9.380
REMARK INTER:                  -7.992
REMARK INTRA:                  -1.389
REMARK UNBOUND:                -1.493
REMARK SMILES O=c1c(O[C@@H]2O[C@H](CO)[C@@H](O)[C@H](O)[C@H]2O)c(-c2ccc(O)c(O)c2)oc2cc(O)cc(O)c12
REMARK SMILES IDX 4 1 3 2 16 3 25 4 2 5 26 6 1 7 33 8 27 9 31 10 28 11 30 12
REMARK SMILES IDX 17 13 18 14 19 15 20 16 24 17 22 18 21 19 23 21 32 23 29 25
REMARK SMILES IDX 5 27 14 28 6 29 12 30 7 31 10 32 15 33 13 35 8 37 9 38 11 40
REMARK H PARENT 21 20 23 22 32 24 29 26 15 34 13 36 9 39 11 41
REMARK Flexibility Score: inf
ROOT
ATOM      1  O   UNL     1      12.281   4.925  21.942  1.00  0.00    -0.454 OA
ENDROOT
BRANCH   1   2
ATOM      2  C   UNL     1      12.393   3.648  22.512  1.00  0.00     0.214 A 
ATOM      3  C   UNL     1      11.596   3.212  23.601  1.00  0.00     0.180 A 
ATOM      4  O   UNL     1      11.606   1.919  23.908  1.00  0.00    -0.452 OA
ATOM      5  C   UNL     1      13.309   2.752  21.937  1.00  0.00     0.239 A 
ATOM      6  C   UNL     1      12.407   1.024  23.350  1.00  0.00     0.146 A 
ATOM      7  O   UNL     1      14.029   3.142  20.980  1.00  0.00    -0.285 OA
ATOM      8  C   UNL     1      13.361   1.418  22.394  1.00  0.00     0.111 A 
ATOM      9  C   UNL     1      12.295  -0.314  23.728  1.00  0.00     0.094 A 
ATOM     10  C   UNL     1      14.310   0.463  21.941  1.00  0.00     0.134 A 
ATOM     11  C   UNL     1      13.179  -1.267  23.213  1.00  0.00     0.123 A 
ATOM     12  C   UNL     1      14.201  -0.872  22.348  1.00  0.00     0.093 A 
BRANCH   3  13
ATOM     13  C   UNL     1      10.751   4.109  24.451  1.00  0.00     0.025 A 
ATOM     14  C   UNL     1       9.399   4.396  24.155  1.00  0.00     0.016 A 
ATOM     15  C   UNL     1       8.687   5.321  24.925  1.00  0.00     0.051 A 
ATOM     16  C   UNL     1       9.307   5.999  25.985  1.00  0.00     0.157 A 
ATOM     17  C   UNL     1      11.362   4.791  25.530  1.00  0.00     0.062 A 
ATOM     18  C   UNL     1      10.655   5.732  26.286  1.00  0.00     0.158 A 
BRANCH  16  19
ATOM     19  O   UNL     1       8.597   6.941  26.730  1.00  0.00    -0.504 OA
ATOM     20  H   UNL     1       7.591   7.029  26.611  1.00  0.00     0.293 HD
ENDBRANCH  16  19
BRANCH  18  21
ATOM     21  O   UNL     1      11.306   6.402  27.326  1.00  0.00    -0.504 OA
ATOM     22  H   UNL     1      11.007   6.335  28.297  1.00  0.00     0.293 HD
ENDBRANCH  18  21
ENDBRANCH   3  13
BRANCH  10  23
ATOM     23  O   UNL     1      15.397   0.848  21.151  1.00  0.00    -0.507 OA
ATOM     24  H   UNL     1      15.986   0.164  20.687  1.00  0.00     0.293 HD
ENDBRANCH  10  23
BRANCH  11  25
ATOM     25  O   UNL     1      13.051  -2.609  23.556  1.00  0.00    -0.508 OA
ATOM     26  H   UNL     1      12.226  -3.141  23.298  1.00  0.00     0.293 HD
ENDBRANCH  11  25
ENDBRANCH   1   2
BRANCH   1  27
ATOM     27  C   UNL     1      13.171   6.009  22.242  1.00  0.00     0.339 C 
ATOM     28  C   UNL     1      13.438   6.840  20.950  1.00  0.00     0.214 C 
ATOM     29  O   UNL     1      12.639   6.790  23.306  1.00  0.00    -0.332 OA
ATOM     30  C   UNL     1      12.634   8.157  20.975  1.00  0.00     0.180 C 
ATOM     31  C   UNL     1      13.320   8.019  23.440  1.00  0.00     0.179 C 
ATOM     32  C   UNL     1      12.939   8.964  22.269  1.00  0.00     0.177 C 
BRANCH  28  33
ATOM     33  O   UNL     1      14.813   7.131  20.879  1.00  0.00    -0.384 OA
ATOM     34  H   UNL     1      15.156   6.735  20.036  1.00  0.00     0.211 HD
ENDBRANCH  28  33
BRANCH  30  35
ATOM     35  O   UNL     1      11.264   7.868  20.904  1.00  0.00    -0.387 OA
ATOM     36  H   UNL     1      10.830   8.337  21.661  1.00  0.00     0.211 HD
ENDBRANCH  30  35
BRANCH  31  37
ATOM     37  C   UNL     1      12.954   8.623  24.805  1.00  0.00     0.191 C 
BRANCH  37  38
ATOM     38  O   UNL     1      13.079  10.021  24.799  1.00  0.00    -0.394 OA
ATOM     39  H   UNL     1      13.083  10.297  23.845  1.00  0.00     0.210 HD
ENDBRANCH  37  38
ENDBRANCH  31  37
BRANCH  32  40
ATOM     40  O   UNL     1      13.992   9.864  22.043  1.00  0.00    -0.387 OA
ATOM     41  H   UNL     1      14.061   9.970  21.061  1.00  0.00     0.211 HD
ENDBRANCH  32  40
ENDBRANCH   1  27
TORSDOF 12
ENDMDL
MODEL 6
REMARK VINA RESULT:    -5.303     12.516     14.983
REMARK INTER + INTRA:          -9.277
REMARK INTER:                  -7.837
REMARK INTRA:                  -1.440
REMARK UNBOUND:                -1.493
REMARK SMILES O=c1c(O[C@@H]2O[C@H](CO)[C@@H](O)[C@H](O)[C@H]2O)c(-c2ccc(O)c(O)c2)oc2cc(O)cc(O)c12
REMARK SMILES IDX 4 1 3 2 16 3 25 4 2 5 26 6 1 7 33 8 27 9 31 10 28 11 30 12
REMARK SMILES IDX 17 13 18 14 19 15 20 16 24 17 22 18 21 19 23 21 32 23 29 25
REMARK SMILES IDX 5 27 14 28 6 29 12 30 7 31 10 32 15 33 13 35 8 37 9 38 11 40
REMARK H PARENT 21 20 23 22 32 24 29 26 15 34 13 36 9 39 11 41
REMARK Flexibility Score: inf
ROOT
ATOM      1  O   UNL     1      16.808   3.866  35.508  1.00  0.00    -0.454 OA
ENDROOT
BRANCH   1   2
ATOM      2  C   UNL     1      17.409   5.119  35.323  1.00  0.00     0.214 A 
ATOM      3  C   UNL     1      17.025   6.277  36.047  1.00  0.00     0.180 A 
ATOM      4  O   UNL     1      17.808   7.349  35.977  1.00  0.00    -0.452 OA
ATOM      5  C   UNL     1      18.472   5.208  34.410  1.00  0.00     0.239 A 
ATOM      6  C   UNL     1      18.858   7.457  35.179  1.00  0.00     0.146 A 
ATOM      7  O   UNL     1      18.804   4.185  33.755  1.00  0.00    -0.285 OA
ATOM      8  C   UNL     1      19.189   6.417  34.290  1.00  0.00     0.111 A 
ATOM      9  C   UNL     1      19.628   8.619  35.226  1.00  0.00     0.094 A 
ATOM     10  C   UNL     1      20.218   6.636  33.336  1.00  0.00     0.134 A 
ATOM     11  C   UNL     1      20.696   8.793  34.340  1.00  0.00     0.123 A 
ATOM     12  C   UNL     1      20.968   7.817  33.379  1.00  0.00     0.093 A 
BRANCH   3  13
ATOM     13  C   UNL     1      15.782   6.391  36.874  1.00  0.00     0.025 A 
ATOM     14  C   UNL     1      14.518   6.693  36.321  1.00  0.00     0.016 A 
ATOM     15  C   UNL     1      13.410   6.889  37.153  1.00  0.00     0.051 A 
ATOM     16  C   UNL     1      13.540   6.814  38.547  1.00  0.00     0.157 A 
ATOM     17  C   UNL     1      15.898   6.307  38.282  1.00  0.00     0.062 A 
ATOM     18  C   UNL     1      14.794   6.523  39.114  1.00  0.00     0.158 A 
BRANCH  16  19
ATOM     19  O   UNL     1      12.435   7.037  39.369  1.00  0.00    -0.504 OA
ATOM     20  H   UNL     1      11.931   6.249  39.770  1.00  0.00     0.293 HD
ENDBRANCH  16  19
BRANCH  18  21
ATOM     21  O   UNL     1      14.958   6.457  40.500  1.00  0.00    -0.504 OA
ATOM     22  H   UNL     1      15.342   7.226  41.047  1.00  0.00     0.293 HD
ENDBRANCH  18  21
ENDBRANCH   3  13
BRANCH  10  23
ATOM     23  O   UNL     1      20.449   5.720  32.305  1.00  0.00    -0.507 OA
ATOM     24  H   UNL     1      20.037   4.792  32.317  1.00  0.00     0.293 HD
ENDBRANCH  10  23
BRANCH  11  25
ATOM     25  O   UNL     1      21.492   9.932  34.406  1.00  0.00    -0.508 OA
ATOM     26  H   UNL     1      22.099  10.193  33.636  1.00  0.00     0.293 HD
ENDBRANCH  11  25
ENDBRANCH   1   2
BRANCH   1  27
ATOM     27  C   UNL     1      16.885   3.121  36.731  1.00  0.00     0.339 C 
ATOM     28  C   UNL     1      15.452   2.695  37.176  1.00  0.00     0.214 C 
ATOM     29  O   UNL     1      17.769   2.018  36.570  1.00  0.00    -0.332 OA
ATOM     30  C   UNL     1      15.211   1.201  36.871  1.00  0.00     0.180 C 
ATOM     31  C   UNL     1      17.654   1.099  37.635  1.00  0.00     0.179 C 
ATOM     32  C   UNL     1      16.316   0.320  37.519  1.00  0.00     0.177 C 
BRANCH  28  33
ATOM     33  O   UNL     1      15.326   2.916  38.560  1.00  0.00    -0.384 OA
ATOM     34  H   UNL     1      16.241   3.054  38.923  1.00  0.00     0.211 HD
ENDBRANCH  28  33
BRANCH  30  35
ATOM     35  O   UNL     1      15.196   1.005  35.483  1.00  0.00    -0.387 OA
ATOM     36  H   UNL     1      15.763   1.713  35.085  1.00  0.00     0.211 HD
ENDBRANCH  30  35
BRANCH  31  37
ATOM     37  C   UNL     1      18.869   0.159  37.591  1.00  0.00     0.191 C 
BRANCH  37  38
ATOM     38  O   UNL     1      18.699  -0.942  38.445  1.00  0.00    -0.394 OA
ATOM     39  H   UNL     1      18.785  -0.594  39.370  1.00  0.00     0.210 HD
ENDBRANCH  37  38
ENDBRANCH  31  37
BRANCH  32  40
ATOM     40  O   UNL     1      15.916  -0.099  38.798  1.00  0.00    -0.387 OA
ATOM     41  H   UNL     1      14.942  -0.270  38.741  1.00  0.00     0.211 HD
ENDBRANCH  32  40
ENDBRANCH   1  27
TORSDOF 12
ENDMDL
MODEL 7
REMARK VINA RESULT:    -5.270     12.047     14.825
REMARK INTER + INTRA:          -9.228
REMARK INTER:                  -7.892
REMARK INTRA:                  -1.336
REMARK UNBOUND:                -1.493
REMARK SMILES O=c1c(O[C@@H]2O[C@H](CO)[C@@H](O)[C@H](O)[C@H]2O)c(-c2ccc(O)c(O)c2)oc2cc(O)cc(O)c12
REMARK SMILES IDX 4 1 3 2 16 3 25 4 2 5 26 6 1 7 33 8 27 9 31 10 28 11 30 12
REMARK SMILES IDX 17 13 18 14 19 15 20 16 24 17 22 18 21 19 23 21 32 23 29 25
REMARK SMILES IDX 5 27 14 28 6 29 12 30 7 31 10 32 15 33 13 35 8 37 9 38 11 40
REMARK H PARENT 21 20 23 22 32 24 29 26 15 34 13 36 9 39 11 41
REMARK Flexibility Score: inf
ROOT
ATOM      1  O   UNL     1      16.318   5.947  37.479  1.00  0.00    -0.454 OA
ENDROOT
BRANCH   1   2
ATOM      2  C   UNL     1      17.269   5.754  36.467  1.00  0.00     0.214 A 
ATOM      3  C   UNL     1      17.647   4.472  35.991  1.00  0.00     0.180 A 
ATOM      4  O   UNL     1      18.366   4.404  34.876  1.00  0.00    -0.452 OA
ATOM      5  C   UNL     1      17.831   6.894  35.871  1.00  0.00     0.239 A 
ATOM      6  C   UNL     1      18.865   5.453  34.243  1.00  0.00     0.146 A 
ATOM      7  O   UNL     1      17.509   8.033  36.302  1.00  0.00    -0.285 OA
ATOM      8  C   UNL     1      18.692   6.750  34.763  1.00  0.00     0.111 A 
ATOM      9  C   UNL     1      19.571   5.256  33.056  1.00  0.00     0.094 A 
ATOM     10  C   UNL     1      19.380   7.830  34.148  1.00  0.00     0.134 A 
ATOM     11  C   UNL     1      20.175   6.338  32.408  1.00  0.00     0.123 A 
ATOM     12  C   UNL     1      20.105   7.613  32.970  1.00  0.00     0.093 A 
BRANCH   3  13
ATOM     13  C   UNL     1      17.310   3.180  36.668  1.00  0.00     0.025 A 
ATOM     14  C   UNL     1      16.302   2.308  36.198  1.00  0.00     0.016 A 
ATOM     15  C   UNL     1      15.959   1.165  36.926  1.00  0.00     0.051 A 
ATOM     16  C   UNL     1      16.589   0.877  38.145  1.00  0.00     0.157 A 
ATOM     17  C   UNL     1      17.946   2.873  37.894  1.00  0.00     0.062 A 
ATOM     18  C   UNL     1      17.588   1.740  38.632  1.00  0.00     0.158 A 
BRANCH  16  19
ATOM     19  O   UNL     1      16.221  -0.252  38.879  1.00  0.00    -0.504 OA
ATOM     20  H   UNL     1      16.628  -1.157  38.657  1.00  0.00     0.293 HD
ENDBRANCH  16  19
BRANCH  18  21
ATOM     21  O   UNL     1      18.224   1.489  39.851  1.00  0.00    -0.504 OA
ATOM     22  H   UNL     1      17.993   0.689  40.439  1.00  0.00     0.293 HD
ENDBRANCH  18  21
ENDBRANCH   3  13
BRANCH  10  23
ATOM     23  O   UNL     1      19.405   9.096  34.740  1.00  0.00    -0.507 OA
ATOM     24  H   UNL     1      20.103   9.345  35.434  1.00  0.00     0.293 HD
ENDBRANCH  10  23
BRANCH  11  25
ATOM     25  O   UNL     1      20.848   6.155  31.204  1.00  0.00    -0.508 OA
ATOM     26  H   UNL     1      21.267   5.261  30.967  1.00  0.00     0.293 HD
ENDBRANCH  11  25
ENDBRANCH   1   2
BRANCH   1  27
ATOM     27  C   UNL     1      14.928   5.624  37.334  1.00  0.00     0.339 C 
ATOM     28  C   UNL     1      14.268   5.502  38.742  1.00  0.00     0.214 C 
ATOM     29  O   UNL     1      14.292   6.588  36.503  1.00  0.00    -0.332 OA
ATOM     30  C   UNL     1      13.426   6.756  39.058  1.00  0.00     0.180 C 
ATOM     31  C   UNL     1      12.886   6.486  36.568  1.00  0.00     0.179 C 
ATOM     32  C   UNL     1      12.379   7.014  37.936  1.00  0.00     0.177 C 
BRANCH  28  33
ATOM     33  O   UNL     1      13.438   4.365  38.753  1.00  0.00    -0.384 OA
ATOM     34  H   UNL     1      13.534   3.920  37.871  1.00  0.00     0.211 HD
ENDBRANCH  28  33
BRANCH  30  35
ATOM     35  O   UNL     1      14.272   7.866  39.185  1.00  0.00    -0.387 OA
ATOM     36  H   UNL     1      13.694   8.670  39.204  1.00  0.00     0.211 HD
ENDBRANCH  30  35
BRANCH  31  37
ATOM     37  C   UNL     1      12.293   7.279  35.393  1.00  0.00     0.191 C 
BRANCH  37  38
ATOM     38  O   UNL     1      11.458   8.315  35.841  1.00  0.00    -0.394 OA
ATOM     39  H   UNL     1      10.988   7.967  36.643  1.00  0.00     0.210 HD
ENDBRANCH  37  38
ENDBRANCH  31  37
BRANCH  32  40
ATOM     40  O   UNL     1      11.165   6.385  38.252  1.00  0.00    -0.387 OA
ATOM     41  H   UNL     1      10.961   5.780  37.494  1.00  0.00     0.211 HD
ENDBRANCH  32  40
ENDBRANCH   1  27
TORSDOF 12
ENDMDL
MODEL 8
REMARK VINA RESULT:    -5.227      9.984     12.446
REMARK INTER + INTRA:          -9.165
REMARK INTER:                  -7.925
REMARK INTRA:                  -1.241
REMARK UNBOUND:                -1.493
REMARK SMILES O=c1c(O[C@@H]2O[C@H](CO)[C@@H](O)[C@H](O)[C@H]2O)c(-c2ccc(O)c(O)c2)oc2cc(O)cc(O)c12
REMARK SMILES IDX 4 1 3 2 16 3 25 4 2 5 26 6 1 7 33 8 27 9 31 10 28 11 30 12
REMARK SMILES IDX 17 13 18 14 19 15 20 16 24 17 22 18 21 19 23 21 32 23 29 25
REMARK SMILES IDX 5 27 14 28 6 29 12 30 7 31 10 32 15 33 13 35 8 37 9 38 11 40
REMARK H PARENT 21 20 23 22 32 24 29 26 15 34 13 36 9 39 11 41
REMARK Flexibility Score: inf
ROOT
ATOM      1  O   UNL     1      13.174   6.712  35.476  1.00  0.00    -0.454 OA
ENDROOT
BRANCH   1   2
ATOM      2  C   UNL     1      11.785   6.528  35.418  1.00  0.00     0.214 A 
ATOM      3  C   UNL     1      10.876   7.209  36.267  1.00  0.00     0.180 A 
ATOM      4  O   UNL     1       9.581   7.152  35.976  1.00  0.00    -0.452 OA
ATOM      5  C   UNL     1      11.280   5.662  34.435  1.00  0.00     0.239 A 
ATOM      6  C   UNL     1       9.063   6.399  35.018  1.00  0.00     0.146 A 
ATOM      7  O   UNL     1      12.085   5.044  33.690  1.00  0.00    -0.285 OA
ATOM      8  C   UNL     1       9.885   5.548  34.256  1.00  0.00     0.111 A 
ATOM      9  C   UNL     1       7.690   6.455  34.780  1.00  0.00     0.094 A 
ATOM     10  C   UNL     1       9.274   4.636  33.354  1.00  0.00     0.134 A 
ATOM     11  C   UNL     1       7.105   5.614  33.829  1.00  0.00     0.123 A 
ATOM     12  C   UNL     1       7.892   4.687  33.143  1.00  0.00     0.093 A 
BRANCH   3  13
ATOM     13  C   UNL     1      11.268   7.978  37.491  1.00  0.00     0.025 A 
ATOM     14  C   UNL     1      11.807   9.283  37.436  1.00  0.00     0.016 A 
ATOM     15  C   UNL     1      12.251   9.915  38.603  1.00  0.00     0.051 A 
ATOM     16  C   UNL     1      12.193   9.257  39.840  1.00  0.00     0.157 A 
ATOM     17  C   UNL     1      11.204   7.329  38.747  1.00  0.00     0.062 A 
ATOM     18  C   UNL     1      11.668   7.954  39.909  1.00  0.00     0.158 A 
BRANCH  16  19
ATOM     19  O   UNL     1      12.663   9.885  40.993  1.00  0.00    -0.504 OA
ATOM     20  H   UNL     1      12.027  10.076  41.763  1.00  0.00     0.293 HD
ENDBRANCH  16  19
BRANCH  18  21
ATOM     21  O   UNL     1      11.611   7.265  41.125  1.00  0.00    -0.504 OA
ATOM     22  H   UNL     1      11.907   6.296  41.223  1.00  0.00     0.293 HD
ENDBRANCH  18  21
ENDBRANCH   3  13
BRANCH  10  23
ATOM     23  O   UNL     1      10.023   3.636  32.726  1.00  0.00    -0.507 OA
ATOM     24  H   UNL     1       9.578   2.848  32.266  1.00  0.00     0.293 HD
ENDBRANCH  10  23
BRANCH  11  25
ATOM     25  O   UNL     1       5.743   5.691  33.558  1.00  0.00    -0.508 OA
ATOM     26  H   UNL     1       5.053   5.460  34.266  1.00  0.00     0.293 HD
ENDBRANCH  11  25
ENDBRANCH   1   2
BRANCH   1  27
ATOM     27  C   UNL     1      14.092   5.699  35.912  1.00  0.00     0.339 C 
ATOM     28  C   UNL     1      15.470   6.348  36.244  1.00  0.00     0.214 C 
ATOM     29  O   UNL     1      13.535   4.983  37.008  1.00  0.00    -0.332 OA
ATOM     30  C   UNL     1      15.661   6.467  37.770  1.00  0.00     0.180 C 
ATOM     31  C   UNL     1      14.504   4.184  37.654  1.00  0.00     0.179 C 
ATOM     32  C   UNL     1      15.480   5.084  38.458  1.00  0.00     0.177 C 
BRANCH  28  33
ATOM     33  O   UNL     1      16.489   5.541  35.705  1.00  0.00    -0.384 OA
ATOM     34  H   UNL     1      16.257   5.365  34.756  1.00  0.00     0.211 HD
ENDBRANCH  28  33
BRANCH  30  35
ATOM     35  O   UNL     1      14.733   7.382  38.287  1.00  0.00    -0.387 OA
ATOM     36  H   UNL     1      14.659   8.120  37.630  1.00  0.00     0.211 HD
ENDBRANCH  30  35
BRANCH  31  37
ATOM     37  C   UNL     1      13.772   3.181  38.559  1.00  0.00     0.191 C 
BRANCH  37  38
ATOM     38  O   UNL     1      14.414   1.933  38.566  1.00  0.00    -0.394 OA
ATOM     39  H   UNL     1      15.268   2.054  38.075  1.00  0.00     0.210 HD
ENDBRANCH  37  38
ENDBRANCH  31  37
BRANCH  32  40
ATOM     40  O   UNL     1      16.718   4.432  38.572  1.00  0.00    -0.387 OA
ATOM     41  H   UNL     1      16.517   3.466  38.652  1.00  0.00     0.211 HD
ENDBRANCH  32  40
ENDBRANCH   1  27
TORSDOF 12
ENDMDL
MODEL 9
REMARK VINA RESULT:    -3.212     10.699     13.767
REMARK INTER + INTRA:          -6.207
REMARK INTER:                  -5.009
REMARK INTRA:                  -1.198
REMARK UNBOUND:                -1.493
REMARK SMILES O=c1c(O[C@@H]2O[C@H](CO)[C@@H](O)[C@H](O)[C@H]2O)c(-c2ccc(O)c(O)c2)oc2cc(O)cc(O)c12
REMARK SMILES IDX 4 1 3 2 16 3 25 4 2 5 26 6 1 7 33 8 27 9 31 10 28 11 30 12
REMARK SMILES IDX 17 13 18 14 19 15 20 16 24 17 22 18 21 19 23 21 32 23 29 25
REMARK SMILES IDX 5 27 14 28 6 29 12 30 7 31 10 32 15 33 13 35 8 37 9 38 11 40
REMARK H PARENT 21 20 23 22 32 24 29 26 15 34 13 36 9 39 11 41
REMARK Flexibility Score: inf
ROOT
ATOM      1  O   UNL     1      12.047   5.956  38.397  1.00  0.00    -0.454 OA
ENDROOT
BRANCH   1   2
ATOM      2  C   UNL     1      13.091   5.611  37.526  1.00  0.00     0.214 A 
ATOM      3  C   UNL     1      12.928   5.516  36.120  1.00  0.00     0.180 A 
ATOM      4  O   UNL     1      14.019   5.422  35.367  1.00  0.00    -0.452 OA
ATOM      5  C   UNL     1      14.363   5.399  38.080  1.00  0.00     0.239 A 
ATOM      6  C   UNL     1      15.247   5.284  35.843  1.00  0.00     0.146 A 
ATOM      7  O   UNL     1      14.506   5.467  39.329  1.00  0.00    -0.285 OA
ATOM      8  C   UNL     1      15.467   5.178  37.230  1.00  0.00     0.111 A 
ATOM      9  C   UNL     1      16.318   5.237  34.952  1.00  0.00     0.094 A 
ATOM     10  C   UNL     1      16.773   4.865  37.692  1.00  0.00     0.134 A 
ATOM     11  C   UNL     1      17.616   5.014  35.422  1.00  0.00     0.123 A 
ATOM     12  C   UNL     1      17.836   4.797  36.783  1.00  0.00     0.093 A 
BRANCH   3  13
ATOM     13  C   UNL     1      11.607   5.492  35.415  1.00  0.00     0.025 A 
ATOM     14  C   UNL     1      11.015   4.302  34.935  1.00  0.00     0.016 A 
ATOM     15  C   UNL     1       9.830   4.351  34.194  1.00  0.00     0.051 A 
ATOM     16  C   UNL     1       9.224   5.579  33.893  1.00  0.00     0.157 A 
ATOM     17  C   UNL     1      10.980   6.725  35.114  1.00  0.00     0.062 A 
ATOM     18  C   UNL     1       9.806   6.773  34.355  1.00  0.00     0.158 A 
BRANCH  16  19
ATOM     19  O   UNL     1       8.057   5.619  33.129  1.00  0.00    -0.504 OA
ATOM     20  H   UNL     1       7.211   5.169  33.470  1.00  0.00     0.293 HD
ENDBRANCH  16  19
BRANCH  18  21
ATOM     21  O   UNL     1       9.235   8.014  34.058  1.00  0.00    -0.504 OA
ATOM     22  H   UNL     1       9.447   8.859  34.585  1.00  0.00     0.293 HD
ENDBRANCH  18  21
ENDBRANCH   3  13
BRANCH  10  23
ATOM     23  O   UNL     1      17.004   4.551  39.035  1.00  0.00    -0.507 OA
ATOM     24  H   UNL     1      16.285   4.674  39.740  1.00  0.00     0.293 HD
ENDBRANCH  10  23
BRANCH  11  25
ATOM     25  O   UNL     1      18.695   5.004  34.543  1.00  0.00    -0.508 OA
ATOM     26  H   UNL     1      19.400   5.732  34.569  1.00  0.00     0.293 HD
ENDBRANCH  11  25
ENDBRANCH   1   2
BRANCH   1  27
ATOM     27  C   UNL     1      11.504   7.280  38.499  1.00  0.00     0.339 C 
ATOM     28  C   UNL     1       9.977   7.198  38.806  1.00  0.00     0.214 C 
ATOM     29  O   UNL     1      12.228   8.025  39.472  1.00  0.00    -0.332 OA
ATOM     30  C   UNL     1       9.704   7.515  40.291  1.00  0.00     0.180 C 
ATOM     31  C   UNL     1      11.558   9.218  39.818  1.00  0.00     0.179 C 
ATOM     32  C   UNL     1      10.310   8.892  40.682  1.00  0.00     0.177 C 
BRANCH  28  33
ATOM     33  O   UNL     1       9.305   8.132  37.996  1.00  0.00    -0.384 OA
ATOM     34  H   UNL     1       9.222   8.972  38.519  1.00  0.00     0.211 HD
ENDBRANCH  28  33
BRANCH  30  35
ATOM     35  O   UNL     1      10.255   6.506  41.092  1.00  0.00    -0.387 OA
ATOM     36  H   UNL     1      10.137   5.652  40.604  1.00  0.00     0.211 HD
ENDBRANCH  30  35
BRANCH  31  37
ATOM     37  C   UNL     1      12.550  10.125  40.563  1.00  0.00     0.191 C 
BRANCH  37  38
ATOM     38  O   UNL     1      13.811  10.124  39.945  1.00  0.00    -0.394 OA
ATOM     39  H   UNL     1      14.069   9.171  39.839  1.00  0.00     0.210 HD
ENDBRANCH  37  38
ENDBRANCH  31  37
BRANCH  32  40
ATOM     40  O   UNL     1       9.356   9.909  40.513  1.00  0.00    -0.387 OA
ATOM     41  H   UNL     1       8.471   9.466  40.550  1.00  0.00     0.211 HD
ENDBRANCH  32  40
ENDBRANCH   1  27
TORSDOF 12
ENDMDL
