MODEL 1
REMARK VINA RESULT:    -1.003      0.000      0.000
REMARK INTER + INTRA:          -0.850
REMARK INTER:                  -1.208
REMARK INTRA:                   0.358
REMARK UNBOUND:                 0.358
REMARK SMILES O=c1c(O)c(-c2ccc(O)c(O)c2)oc2cc(O)cc(O)c12
REMARK SMILES IDX 5 1 3 2 2 3 1 4 22 5 20 6 19 7 17 8 16 9 15 10 14 11 6 12
REMARK SMILES IDX 7 13 8 14 9 15 13 16 11 17 10 18 12 20 4 22 21 24 18 26
REMARK H PARENT 10 19 12 21 4 23 21 25 18 27
REMARK Flexibility Score: inf
ROOT
ATOM      1  C   UNL     1      26.770 -19.008   0.833  1.00  0.00     0.180 A 
ATOM      2  C   UNL     1      27.873 -18.529   0.101  1.00  0.00     0.208 A 
ATOM      3  C   UNL     1      29.162 -18.684   0.636  1.00  0.00     0.238 A 
ATOM      4  O   UNL     1      30.158 -18.269  -0.016  1.00  0.00    -0.285 OA
ATOM      5  C   UNL     1      29.323 -19.292   1.898  1.00  0.00     0.111 A 
ATOM      6  C   UNL     1      30.586 -19.482   2.509  1.00  0.00     0.134 A 
ATOM      7  C   UNL     1      30.664 -20.088   3.772  1.00  0.00     0.093 A 
ATOM      8  C   UNL     1      29.504 -20.507   4.434  1.00  0.00     0.123 A 
ATOM      9  C   UNL     1      28.257 -20.322   3.834  1.00  0.00     0.094 A 
ATOM     10  C   UNL     1      28.158 -19.722   2.576  1.00  0.00     0.146 A 
ATOM     11  O   UNL     1      26.960 -19.564   2.027  1.00  0.00    -0.452 OA
ENDROOT
BRANCH   1  12
ATOM     12  C   UNL     1      25.382 -18.899   0.328  1.00  0.00     0.025 A 
ATOM     13  C   UNL     1      25.028 -17.944  -0.641  1.00  0.00     0.016 A 
ATOM     14  C   UNL     1      23.717 -17.876  -1.122  1.00  0.00     0.051 A 
ATOM     15  C   UNL     1      22.746 -18.769  -0.650  1.00  0.00     0.157 A 
ATOM     16  C   UNL     1      24.409 -19.805   0.781  1.00  0.00     0.062 A 
ATOM     17  C   UNL     1      23.093 -19.737   0.301  1.00  0.00     0.158 A 
BRANCH  15  18
ATOM     18  O   UNL     1      21.438 -18.703  -1.124  1.00  0.00    -0.504 OA
ATOM     19  H   UNL     1      20.699 -19.270  -0.726  1.00  0.00     0.293 HD
ENDBRANCH  15  18
BRANCH  17  20
ATOM     20  O   UNL     1      22.126 -20.628   0.763  1.00  0.00    -0.504 OA
ATOM     21  H   UNL     1      22.255 -21.631   0.697  1.00  0.00     0.293 HD
ENDBRANCH  17  20
ENDBRANCH   1  12
BRANCH   2  22
ATOM     22  O   UNL     1      27.681 -17.886  -1.125  1.00  0.00    -0.502 OA
ATOM     23  H   UNL     1      28.227 -17.080  -1.406  1.00  0.00     0.293 HD
ENDBRANCH   2  22
BRANCH   6  24
ATOM     24  O   UNL     1      31.761 -19.074   1.874  1.00  0.00    -0.507 OA
ATOM     25  H   UNL     1      32.249 -18.230   2.148  1.00  0.00     0.293 HD
ENDBRANCH   6  24
BRANCH   8  26
ATOM     26  O   UNL     1      29.580 -21.108   5.688  1.00  0.00    -0.508 OA
ATOM     27  H   UNL     1      28.869 -21.756   6.008  1.00  0.00     0.293 HD
ENDBRANCH   8  26
TORSDOF 6
ENDMDL
MODEL 2
REMARK VINA RESULT:    -0.576      2.191      2.818
REMARK INTER + INTRA:          -0.336
REMARK INTER:                  -0.036
REMARK INTRA:                  -0.301
REMARK UNBOUND:                 0.358
REMARK SMILES O=c1c(O)c(-c2ccc(O)c(O)c2)oc2cc(O)cc(O)c12
REMARK SMILES IDX 5 1 3 2 2 3 1 4 22 5 20 6 19 7 17 8 16 9 15 10 14 11 6 12
REMARK SMILES IDX 7 13 8 14 9 15 13 16 11 17 10 18 12 20 4 22 21 24 18 26
REMARK H PARENT 10 19 12 21 4 23 21 25 18 27
REMARK Flexibility Score: inf
ROOT
ATOM      1  C   UNL     1      27.756 -19.634   1.268  1.00  0.00     0.180 A 
ATOM      2  C   UNL     1      28.312 -19.020   2.407  1.00  0.00     0.208 A 
ATOM      3  C   UNL     1      29.513 -19.523   2.932  1.00  0.00     0.238 A 
ATOM      4  O   UNL     1      30.025 -18.974   3.945  1.00  0.00    -0.285 OA
ATOM      5  C   UNL     1      30.123 -20.640   2.325  1.00  0.00     0.111 A 
ATOM      6  C   UNL     1      31.331 -21.211   2.794  1.00  0.00     0.134 A 
ATOM      7  C   UNL     1      31.872 -22.329   2.142  1.00  0.00     0.093 A 
ATOM      8  C   UNL     1      31.229 -22.885   1.030  1.00  0.00     0.123 A 
ATOM      9  C   UNL     1      30.038 -22.325   0.564  1.00  0.00     0.094 A 
ATOM     10  C   UNL     1      29.484 -21.210   1.200  1.00  0.00     0.146 A 
ATOM     11  O   UNL     1      28.354 -20.695   0.731  1.00  0.00    -0.452 OA
ENDROOT
BRANCH   1  12
ATOM     12  C   UNL     1      26.504 -19.149   0.644  1.00  0.00     0.025 A 
ATOM     13  C   UNL     1      26.524 -18.341  -0.507  1.00  0.00     0.016 A 
ATOM     14  C   UNL     1      25.329 -17.915  -1.093  1.00  0.00     0.051 A 
ATOM     15  C   UNL     1      24.098 -18.300  -0.545  1.00  0.00     0.157 A 
ATOM     16  C   UNL     1      25.266 -19.549   1.176  1.00  0.00     0.062 A 
ATOM     17  C   UNL     1      24.067 -19.121   0.590  1.00  0.00     0.158 A 
BRANCH  15  18
ATOM     18  O   UNL     1      22.904 -17.875  -1.125  1.00  0.00    -0.504 OA
ATOM     19  H   UNL     1      22.006 -18.093  -0.711  1.00  0.00     0.293 HD
ENDBRANCH  15  18
BRANCH  17  20
ATOM     20  O   UNL     1      22.841 -19.508   1.128  1.00  0.00    -0.504 OA
ATOM     21  H   UNL     1      22.411 -18.995   1.889  1.00  0.00     0.293 HD
ENDBRANCH  17  20
ENDBRANCH   1  12
BRANCH   2  22
ATOM     22  O   UNL     1      27.660 -17.945   3.018  1.00  0.00    -0.502 OA
ATOM     23  H   UNL     1      26.792 -18.056   3.529  1.00  0.00     0.293 HD
ENDBRANCH   2  22
BRANCH   6  24
ATOM     24  O   UNL     1      31.996 -20.679   3.901  1.00  0.00    -0.507 OA
ATOM     25  H   UNL     1      31.603 -19.919   4.443  1.00  0.00     0.293 HD
ENDBRANCH   6  24
BRANCH   8  26
ATOM     26  O   UNL     1      31.765 -23.995   0.382  1.00  0.00    -0.508 OA
ATOM     27  H   UNL     1      31.751 -24.076  -0.628  1.00  0.00     0.293 HD
ENDBRANCH   8  26
TORSDOF 6
ENDMDL
MODEL 3
REMARK VINA RESULT:    -0.469      4.705      6.747
REMARK INTER + INTRA:          -0.207
REMARK INTER:                  -0.215
REMARK INTRA:                   0.008
REMARK UNBOUND:                 0.358
REMARK SMILES O=c1c(O)c(-c2ccc(O)c(O)c2)oc2cc(O)cc(O)c12
REMARK SMILES IDX 5 1 3 2 2 3 1 4 22 5 20 6 19 7 17 8 16 9 15 10 14 11 6 12
REMARK SMILES IDX 7 13 8 14 9 15 13 16 11 17 10 18 12 20 4 22 21 24 18 26
REMARK H PARENT 10 19 12 21 4 23 21 25 18 27
REMARK Flexibility Score: inf
ROOT
ATOM      1  C   UNL     1      30.105 -22.763   0.969  1.00  0.00     0.180 A 
ATOM      2  C   UNL     1      31.038 -22.304   1.918  1.00  0.00     0.208 A 
ATOM      3  C   UNL     1      30.905 -21.003   2.427  1.00  0.00     0.238 A 
ATOM      4  O   UNL     1      31.729 -20.585   3.286  1.00  0.00    -0.285 OA
ATOM      5  C   UNL     1      29.858 -20.179   1.965  1.00  0.00     0.111 A 
ATOM      6  C   UNL     1      29.656 -18.854   2.424  1.00  0.00     0.134 A 
ATOM      7  C   UNL     1      28.597 -18.093   1.909  1.00  0.00     0.093 A 
ATOM      8  C   UNL     1      27.736 -18.631   0.946  1.00  0.00     0.123 A 
ATOM      9  C   UNL     1      27.931 -19.937   0.491  1.00  0.00     0.094 A 
ATOM     10  C   UNL     1      28.980 -20.712   0.993  1.00  0.00     0.146 A 
ATOM     11  O   UNL     1      29.138 -21.952   0.547  1.00  0.00    -0.452 OA
ENDROOT
BRANCH   1  12
ATOM     12  C   UNL     1      30.166 -24.130   0.400  1.00  0.00     0.025 A 
ATOM     13  C   UNL     1      31.360 -24.648  -0.130  1.00  0.00     0.016 A 
ATOM     14  C   UNL     1      31.401 -25.949  -0.640  1.00  0.00     0.051 A 
ATOM     15  C   UNL     1      30.253 -26.753  -0.615  1.00  0.00     0.157 A 
ATOM     16  C   UNL     1      29.025 -24.948   0.442  1.00  0.00     0.062 A 
ATOM     17  C   UNL     1      29.064 -26.252  -0.071  1.00  0.00     0.158 A 
BRANCH  15  18
ATOM     18  O   UNL     1      30.289 -28.049  -1.125  1.00  0.00    -0.504 OA
ATOM     19  H   UNL     1      31.046 -28.366  -1.718  1.00  0.00     0.293 HD
ENDBRANCH  15  18
BRANCH  17  20
ATOM     20  O   UNL     1      27.926 -27.056  -0.041  1.00  0.00    -0.504 OA
ATOM     21  H   UNL     1      27.989 -28.057   0.103  1.00  0.00     0.293 HD
ENDBRANCH  17  20
ENDBRANCH   1  12
BRANCH   2  22
ATOM     22  O   UNL     1      32.095 -23.125   2.322  1.00  0.00    -0.502 OA
ATOM     23  H   UNL     1      32.480 -23.092   3.259  1.00  0.00     0.293 HD
ENDBRANCH   2  22
BRANCH   6  24
ATOM     24  O   UNL     1      30.499 -18.290   3.384  1.00  0.00    -0.507 OA
ATOM     25  H   UNL     1      30.400 -18.502   4.370  1.00  0.00     0.293 HD
ENDBRANCH   6  24
BRANCH   8  26
ATOM     26  O   UNL     1      26.684 -17.876   0.433  1.00  0.00    -0.508 OA
ATOM     27  H   UNL     1      25.837 -18.314   0.088  1.00  0.00     0.293 HD
ENDBRANCH   8  26
TORSDOF 6
ENDMDL
