MODEL 1
REMARK VINA RESULT:    -6.064      0.000      0.000
REMARK INTER + INTRA:          -9.496
REMARK INTER:                  -8.368
REMARK INTRA:                  -1.127
REMARK UNBOUND:                -1.127
REMARK SMILES CC[C@H](CC[C@@H](C)[C@H]1CC[C@H]2[C@H]3CC=C4C[C@H](O)CC[C@@]4(C)[C@H]3CC[C@@]12C)C(C)C
REMARK SMILES IDX 5 1 4 2 3 3 2 4 1 5 28 6 29 7 30 8 6 9 7 10 8 11 9 12 26 13
REMARK SMILES IDX 10 14 11 15 25 16 27 17 12 18 24 19 23 20 13 21 21 22 14 23
REMARK SMILES IDX 15 24 20 25 22 26 16 27 19 28 17 29 18 30
REMARK H PARENT 18 31
REMARK Flexibility Score: inf
ROOT
ATOM      1  C   UNL     1      -4.931  -6.206  -6.611  1.00  0.00     0.004 C 
ENDROOT
BRANCH   1   2
ATOM      2  C   UNL     1      -6.257  -5.423  -6.733  1.00  0.00     0.004 C 
BRANCH   2   3
ATOM      3  C   UNL     1      -6.862  -5.027  -5.356  1.00  0.00    -0.009 C 
BRANCH   3   4
ATOM      4  C   UNL     1      -6.358  -5.994  -4.246  1.00  0.00     0.000 C 
ATOM      5  C   UNL     1      -7.373  -7.071  -3.854  1.00  0.00     0.004 C 
ENDBRANCH   3   4
BRANCH   3   6
ATOM      6  C   UNL     1      -6.616  -3.520  -5.008  1.00  0.00    -0.014 C 
ATOM      7  C   UNL     1      -5.204  -3.232  -4.473  1.00  0.00     0.007 C 
ATOM      8  C   UNL     1      -6.935  -2.587  -6.190  1.00  0.00     0.007 C 
ENDBRANCH   3   6
ENDBRANCH   2   3
ENDBRANCH   1   2
BRANCH   1   9
ATOM      9  C   UNL     1      -3.725  -5.485  -7.272  1.00  0.00    -0.011 C 
ATOM     10  C   UNL     1      -4.169  -4.163  -7.926  1.00  0.00     0.008 C 
BRANCH   9  11
ATOM     11  C   UNL     1      -2.507  -5.226  -6.297  1.00  0.00    -0.002 C 
ATOM     12  C   UNL     1      -2.145  -6.319  -5.278  1.00  0.00     0.005 C 
ATOM     13  C   UNL     1      -1.154  -4.878  -6.972  1.00  0.00    -0.026 C 
ATOM     14  C   UNL     1      -0.714  -6.010  -4.829  1.00  0.00     0.005 C 
ATOM     15  C   UNL     1      -0.196  -4.887  -5.752  1.00  0.00    -0.001 C 
ATOM     16  C   UNL     1      -0.750  -5.939  -8.063  1.00  0.00     0.007 C 
ATOM     17  C   UNL     1      -1.205  -3.466  -7.599  1.00  0.00     0.012 C 
ATOM     18  C   UNL     1       1.323  -4.913  -6.112  1.00  0.00     0.000 C 
ATOM     19  C   UNL     1       0.546  -6.708  -7.780  1.00  0.00     0.005 C 
ATOM     20  C   UNL     1       1.689  -5.759  -7.373  1.00  0.00     0.003 C 
ATOM     21  C   UNL     1       2.199  -5.228  -4.899  1.00  0.00     0.031 C 
ATOM     22  C   UNL     1       3.127  -6.452  -7.366  1.00  0.00    -0.008 C 
ATOM     23  C   UNL     1       3.644  -5.172  -5.271  1.00  0.00    -0.027 C 
ATOM     24  C   UNL     1       4.096  -5.779  -6.385  1.00  0.00    -0.065 C 
ATOM     25  C   UNL     1       3.085  -7.956  -6.942  1.00  0.00     0.014 C 
ATOM     26  C   UNL     1       3.686  -6.341  -8.814  1.00  0.00     0.016 C 
ATOM     27  C   UNL     1       5.511  -6.303  -6.355  1.00  0.00     0.063 C 
ATOM     28  C   UNL     1       4.489  -8.601  -6.807  1.00  0.00     0.033 C 
ATOM     29  C   UNL     1       5.457  -7.782  -5.925  1.00  0.00     0.118 C 
BRANCH  29  30
ATOM     30  O   UNL     1       6.738  -8.349  -6.003  1.00  0.00    -0.393 OA
ATOM     31  H   UNL     1       6.948  -8.710  -5.101  1.00  0.00     0.210 HD
ENDBRANCH  29  30
ENDBRANCH   9  11
ENDBRANCH   1   9
TORSDOF 7
ENDMDL
MODEL 2
REMARK VINA RESULT:    -6.059     12.097     15.987
REMARK INTER + INTRA:          -9.489
REMARK INTER:                  -8.948
REMARK INTRA:                  -0.541
REMARK UNBOUND:                -1.127
REMARK SMILES CC[C@H](CC[C@@H](C)[C@H]1CC[C@H]2[C@H]3CC=C4C[C@H](O)CC[C@@]4(C)[C@H]3CC[C@@]12C)C(C)C
REMARK SMILES IDX 5 1 4 2 3 3 2 4 1 5 28 6 29 7 30 8 6 9 7 10 8 11 9 12 26 13
REMARK SMILES IDX 10 14 11 15 25 16 27 17 12 18 24 19 23 20 13 21 21 22 14 23
REMARK SMILES IDX 15 24 20 25 22 26 16 27 19 28 17 29 18 30
REMARK H PARENT 18 31
REMARK Flexibility Score: inf
ROOT
ATOM      1  C   UNL     1      -6.647  -8.624   4.189  1.00  0.00     0.004 C 
ENDROOT
BRANCH   1   2
ATOM      2  C   UNL     1      -5.999  -9.226   5.455  1.00  0.00     0.004 C 
BRANCH   2   3
ATOM      3  C   UNL     1      -4.458  -9.398   5.330  1.00  0.00    -0.009 C 
BRANCH   3   4
ATOM      4  C   UNL     1      -3.982  -8.987   3.908  1.00  0.00     0.000 C 
ATOM      5  C   UNL     1      -3.331 -10.125   3.119  1.00  0.00     0.004 C 
ENDBRANCH   3   4
BRANCH   3   6
ATOM      6  C   UNL     1      -3.681  -8.656   6.471  1.00  0.00    -0.014 C 
ATOM      7  C   UNL     1      -2.252  -8.250   6.081  1.00  0.00     0.007 C 
ATOM      8  C   UNL     1      -4.451  -7.436   7.006  1.00  0.00     0.007 C 
ENDBRANCH   3   6
ENDBRANCH   2   3
ENDBRANCH   1   2
BRANCH   1   9
ATOM      9  C   UNL     1      -8.107  -8.142   4.412  1.00  0.00    -0.011 C 
ATOM     10  C   UNL     1      -8.582  -8.477   5.839  1.00  0.00     0.008 C 
BRANCH   9  11
ATOM     11  C   UNL     1      -8.340  -6.607   4.109  1.00  0.00    -0.002 C 
ATOM     12  C   UNL     1      -9.758  -6.039   4.286  1.00  0.00     0.005 C 
ATOM     13  C   UNL     1      -7.436  -5.613   4.884  1.00  0.00    -0.026 C 
ATOM     14  C   UNL     1      -9.586  -4.520   4.383  1.00  0.00     0.005 C 
ATOM     15  C   UNL     1      -8.069  -4.254   4.484  1.00  0.00    -0.001 C 
ATOM     16  C   UNL     1      -7.479  -5.865   6.437  1.00  0.00     0.007 C 
ATOM     17  C   UNL     1      -5.979  -5.692   4.374  1.00  0.00     0.012 C 
ATOM     18  C   UNL     1      -7.622  -3.041   5.359  1.00  0.00     0.000 C 
ATOM     19  C   UNL     1      -8.037  -4.706   7.273  1.00  0.00     0.005 C 
ATOM     20  C   UNL     1      -7.401  -3.362   6.872  1.00  0.00     0.003 C 
ATOM     21  C   UNL     1      -8.494  -1.807   5.125  1.00  0.00     0.031 C 
ATOM     22  C   UNL     1      -7.704  -2.177   7.897  1.00  0.00    -0.008 C 
ATOM     23  C   UNL     1      -7.988  -0.652   5.925  1.00  0.00    -0.027 C 
ATOM     24  C   UNL     1      -7.667  -0.798   7.225  1.00  0.00    -0.065 C 
ATOM     25  C   UNL     1      -9.115  -2.279   8.559  1.00  0.00     0.014 C 
ATOM     26  C   UNL     1      -6.610  -2.249   9.002  1.00  0.00     0.016 C 
ATOM     27  C   UNL     1      -7.861   0.403   8.118  1.00  0.00     0.063 C 
ATOM     28  C   UNL     1      -9.468  -1.064   9.456  1.00  0.00     0.033 C 
ATOM     29  C   UNL     1      -9.259   0.296   8.756  1.00  0.00     0.118 C 
BRANCH  29  30
ATOM     30  O   UNL     1      -9.438   1.325   9.693  1.00  0.00    -0.393 OA
ATOM     31  H   UNL     1      -9.925   0.931  10.463  1.00  0.00     0.210 HD
ENDBRANCH  29  30
ENDBRANCH   9  11
ENDBRANCH   1   9
TORSDOF 7
ENDMDL
MODEL 3
REMARK VINA RESULT:    -6.031     11.925     14.943
REMARK INTER + INTRA:          -9.450
REMARK INTER:                  -8.064
REMARK INTRA:                  -1.386
REMARK UNBOUND:                -1.127
REMARK SMILES CC[C@H](CC[C@@H](C)[C@H]1CC[C@H]2[C@H]3CC=C4C[C@H](O)CC[C@@]4(C)[C@H]3CC[C@@]12C)C(C)C
REMARK SMILES IDX 5 1 4 2 3 3 2 4 1 5 28 6 29 7 30 8 6 9 7 10 8 11 9 12 26 13
REMARK SMILES IDX 10 14 11 15 25 16 27 17 12 18 24 19 23 20 13 21 21 22 14 23
REMARK SMILES IDX 15 24 20 25 22 26 16 27 19 28 17 29 18 30
REMARK H PARENT 18 31
REMARK Flexibility Score: inf
ROOT
ATOM      1  C   UNL     1      -7.500  -1.569   6.727  1.00  0.00     0.004 C 
ENDROOT
BRANCH   1   2
ATOM      2  C   UNL     1      -7.390  -0.908   8.118  1.00  0.00     0.004 C 
BRANCH   2   3
ATOM      3  C   UNL     1      -7.942  -1.802   9.265  1.00  0.00    -0.009 C 
BRANCH   3   4
ATOM      4  C   UNL     1      -6.785  -2.262  10.197  1.00  0.00     0.000 C 
ATOM      5  C   UNL     1      -6.892  -3.721  10.645  1.00  0.00     0.004 C 
ENDBRANCH   3   4
BRANCH   3   6
ATOM      6  C   UNL     1      -9.115  -1.115  10.044  1.00  0.00    -0.014 C 
ATOM      7  C   UNL     1     -10.117  -2.108  10.654  1.00  0.00     0.007 C 
ATOM      8  C   UNL     1      -8.611  -0.141  11.123  1.00  0.00     0.007 C 
ENDBRANCH   3   6
ENDBRANCH   2   3
ENDBRANCH   1   2
BRANCH   1   9
ATOM      9  C   UNL     1      -8.870  -2.259   6.477  1.00  0.00    -0.011 C 
ATOM     10  C   UNL     1      -9.816  -1.329   5.693  1.00  0.00     0.008 C 
BRANCH   9  11
ATOM     11  C   UNL     1      -8.771  -3.664   5.758  1.00  0.00    -0.002 C 
ATOM     12  C   UNL     1      -8.113  -3.725   4.369  1.00  0.00     0.005 C 
ATOM     13  C   UNL     1      -8.068  -4.792   6.557  1.00  0.00    -0.026 C 
ATOM     14  C   UNL     1      -7.747  -5.196   4.149  1.00  0.00     0.005 C 
ATOM     15  C   UNL     1      -7.993  -5.917   5.491  1.00  0.00    -0.001 C 
ATOM     16  C   UNL     1      -6.647  -4.353   7.072  1.00  0.00     0.007 C 
ATOM     17  C   UNL     1      -8.946  -5.244   7.747  1.00  0.00     0.012 C 
ATOM     18  C   UNL     1      -7.031  -7.093   5.847  1.00  0.00     0.000 C 
ATOM     19  C   UNL     1      -5.470  -5.163   6.515  1.00  0.00     0.005 C 
ATOM     20  C   UNL     1      -5.731  -6.678   6.609  1.00  0.00     0.003 C 
ATOM     21  C   UNL     1      -6.762  -8.004   4.648  1.00  0.00     0.031 C 
ATOM     22  C   UNL     1      -4.437  -7.571   6.336  1.00  0.00    -0.008 C 
ATOM     23  C   UNL     1      -5.898  -9.153   5.050  1.00  0.00    -0.027 C 
ATOM     24  C   UNL     1      -4.789  -8.960   5.789  1.00  0.00    -0.065 C 
ATOM     25  C   UNL     1      -3.465  -6.944   5.285  1.00  0.00     0.014 C 
ATOM     26  C   UNL     1      -3.697  -7.716   7.698  1.00  0.00     0.016 C 
ATOM     27  C   UNL     1      -3.644  -9.919   5.570  1.00  0.00     0.063 C 
ATOM     28  C   UNL     1      -2.271  -7.865   4.918  1.00  0.00     0.033 C 
ATOM     29  C   UNL     1      -2.699  -9.295   4.525  1.00  0.00     0.118 C 
BRANCH  29  30
ATOM     30  O   UNL     1      -1.554 -10.092   4.379  1.00  0.00    -0.393 OA
ATOM     31  H   UNL     1      -0.879  -9.745   5.020  1.00  0.00     0.210 HD
ENDBRANCH  29  30
ENDBRANCH   9  11
ENDBRANCH   1   9
TORSDOF 7
ENDMDL
MODEL 4
REMARK VINA RESULT:    -5.730     12.540     15.961
REMARK INTER + INTRA:          -9.034
REMARK INTER:                  -8.472
REMARK INTRA:                  -0.562
REMARK UNBOUND:                -1.127
REMARK SMILES CC[C@H](CC[C@@H](C)[C@H]1CC[C@H]2[C@H]3CC=C4C[C@H](O)CC[C@@]4(C)[C@H]3CC[C@@]12C)C(C)C
REMARK SMILES IDX 5 1 4 2 3 3 2 4 1 5 28 6 29 7 30 8 6 9 7 10 8 11 9 12 26 13
REMARK SMILES IDX 10 14 11 15 25 16 27 17 12 18 24 19 23 20 13 21 21 22 14 23
REMARK SMILES IDX 15 24 20 25 22 26 16 27 19 28 17 29 18 30
REMARK H PARENT 18 31
REMARK Flexibility Score: inf
ROOT
ATOM      1  C   UNL     1      -8.350   0.215   9.129  1.00  0.00     0.004 C 
ENDROOT
BRANCH   1   2
ATOM      2  C   UNL     1      -9.772   0.637   8.697  1.00  0.00     0.004 C 
BRANCH   2   3
ATOM      3  C   UNL     1      -9.777   1.798   7.662  1.00  0.00    -0.009 C 
BRANCH   3   4
ATOM      4  C   UNL     1      -8.728   2.878   8.055  1.00  0.00     0.000 C 
ATOM      5  C   UNL     1      -9.268   3.950   9.004  1.00  0.00     0.004 C 
ENDBRANCH   3   4
BRANCH   3   6
ATOM      6  C   UNL     1      -9.603   1.286   6.192  1.00  0.00    -0.014 C 
ATOM      7  C   UNL     1      -8.235   1.624   5.579  1.00  0.00     0.007 C 
ATOM      8  C   UNL     1      -9.884  -0.221   6.059  1.00  0.00     0.007 C 
ENDBRANCH   3   6
ENDBRANCH   2   3
ENDBRANCH   1   2
BRANCH   1   9
ATOM      9  C   UNL     1      -8.323  -1.078   9.989  1.00  0.00    -0.011 C 
ATOM     10  C   UNL     1      -9.657  -1.842   9.869  1.00  0.00     0.008 C 
BRANCH   9  11
ATOM     11  C   UNL     1      -7.114  -2.046   9.673  1.00  0.00    -0.002 C 
ATOM     12  C   UNL     1      -7.056  -3.399  10.403  1.00  0.00     0.005 C 
ATOM     13  C   UNL     1      -6.904  -2.414   8.181  1.00  0.00    -0.026 C 
ATOM     14  C   UNL     1      -6.096  -4.269   9.585  1.00  0.00     0.005 C 
ATOM     15  C   UNL     1      -5.793  -3.491   8.287  1.00  0.00    -0.001 C 
ATOM     16  C   UNL     1      -8.221  -2.969   7.520  1.00  0.00     0.007 C 
ATOM     17  C   UNL     1      -6.388  -1.192   7.386  1.00  0.00     0.012 C 
ATOM     18  C   UNL     1      -5.573  -4.335   6.993  1.00  0.00     0.000 C 
ATOM     19  C   UNL     1      -8.142  -4.417   7.020  1.00  0.00     0.005 C 
ATOM     20  C   UNL     1      -6.871  -4.658   6.185  1.00  0.00     0.003 C 
ATOM     21  C   UNL     1      -4.699  -5.564   7.245  1.00  0.00     0.031 C 
ATOM     22  C   UNL     1      -6.880  -6.039   5.385  1.00  0.00    -0.008 C 
ATOM     23  C   UNL     1      -4.455  -6.301   5.970  1.00  0.00    -0.027 C 
ATOM     24  C   UNL     1      -5.466  -6.573   5.123  1.00  0.00    -0.065 C 
ATOM     25  C   UNL     1      -7.624  -7.185   6.143  1.00  0.00     0.014 C 
ATOM     26  C   UNL     1      -7.597  -5.768   4.030  1.00  0.00     0.016 C 
ATOM     27  C   UNL     1      -5.353  -7.835   4.303  1.00  0.00     0.063 C 
ATOM     28  C   UNL     1      -7.526  -8.562   5.434  1.00  0.00     0.033 C 
ATOM     29  C   UNL     1      -6.080  -8.960   5.066  1.00  0.00     0.118 C 
BRANCH  29  30
ATOM     30  O   UNL     1      -6.111 -10.125   4.284  1.00  0.00    -0.393 OA
ATOM     31  H   UNL     1      -6.583  -9.894   3.442  1.00  0.00     0.210 HD
ENDBRANCH  29  30
ENDBRANCH   9  11
ENDBRANCH   1   9
TORSDOF 7
ENDMDL
MODEL 5
REMARK VINA RESULT:    -5.668      0.738      1.856
REMARK INTER + INTRA:          -8.950
REMARK INTER:                  -7.910
REMARK INTRA:                  -1.040
REMARK UNBOUND:                -1.127
REMARK SMILES CC[C@H](CC[C@@H](C)[C@H]1CC[C@H]2[C@H]3CC=C4C[C@H](O)CC[C@@]4(C)[C@H]3CC[C@@]12C)C(C)C
REMARK SMILES IDX 5 1 4 2 3 3 2 4 1 5 28 6 29 7 30 8 6 9 7 10 8 11 9 12 26 13
REMARK SMILES IDX 10 14 11 15 25 16 27 17 12 18 24 19 23 20 13 21 21 22 14 23
REMARK SMILES IDX 15 24 20 25 22 26 16 27 19 28 17 29 18 30
REMARK H PARENT 18 31
REMARK Flexibility Score: inf
ROOT
ATOM      1  C   UNL     1      -4.630  -6.677  -6.529  1.00  0.00     0.004 C 
ENDROOT
BRANCH   1   2
ATOM      2  C   UNL     1      -6.085  -6.232  -6.263  1.00  0.00     0.004 C 
BRANCH   2   3
ATOM      3  C   UNL     1      -6.648  -6.757  -4.912  1.00  0.00    -0.009 C 
BRANCH   3   4
ATOM      4  C   UNL     1      -6.578  -5.644  -3.828  1.00  0.00     0.000 C 
ATOM      5  C   UNL     1      -6.660  -4.223  -4.392  1.00  0.00     0.004 C 
ENDBRANCH   3   4
BRANCH   3   6
ATOM      6  C   UNL     1      -8.081  -7.373  -5.062  1.00  0.00    -0.014 C 
ATOM      7  C   UNL     1      -8.075  -8.868  -5.420  1.00  0.00     0.007 C 
ATOM      8  C   UNL     1      -8.956  -7.129  -3.821  1.00  0.00     0.007 C 
ENDBRANCH   3   6
ENDBRANCH   2   3
ENDBRANCH   1   2
BRANCH   1   9
ATOM      9  C   UNL     1      -3.724  -5.537  -7.070  1.00  0.00    -0.011 C 
ATOM     10  C   UNL     1      -4.537  -4.244  -7.277  1.00  0.00     0.008 C 
BRANCH   9  11
ATOM     11  C   UNL     1      -2.449  -5.241  -6.184  1.00  0.00    -0.002 C 
ATOM     12  C   UNL     1      -2.043  -6.279  -5.124  1.00  0.00     0.005 C 
ATOM     13  C   UNL     1      -1.133  -4.953  -6.953  1.00  0.00    -0.026 C 
ATOM     14  C   UNL     1      -0.584  -5.966  -4.777  1.00  0.00     0.005 C 
ATOM     15  C   UNL     1      -0.107  -4.906  -5.792  1.00  0.00    -0.001 C 
ATOM     16  C   UNL     1      -0.806  -6.081  -8.003  1.00  0.00     0.007 C 
ATOM     17  C   UNL     1      -1.204  -3.579  -7.658  1.00  0.00     0.012 C 
ATOM     18  C   UNL     1       1.388  -4.977  -6.235  1.00  0.00     0.000 C 
ATOM     19  C   UNL     1       0.495  -6.852  -7.749  1.00  0.00     0.005 C 
ATOM     20  C   UNL     1       1.671  -5.899  -7.464  1.00  0.00     0.003 C 
ATOM     21  C   UNL     1       2.330  -5.234  -5.058  1.00  0.00     0.031 C 
ATOM     22  C   UNL     1       3.098  -6.613  -7.498  1.00  0.00    -0.008 C 
ATOM     23  C   UNL     1       3.751  -5.222  -5.515  1.00  0.00    -0.027 C 
ATOM     24  C   UNL     1       4.130  -5.899  -6.616  1.00  0.00    -0.065 C 
ATOM     25  C   UNL     1       3.063  -8.088  -6.987  1.00  0.00     0.014 C 
ATOM     26  C   UNL     1       3.574  -6.593  -8.980  1.00  0.00     0.016 C 
ATOM     27  C   UNL     1       5.538  -6.442  -6.635  1.00  0.00     0.063 C 
ATOM     28  C   UNL     1       4.465  -8.746  -6.894  1.00  0.00     0.033 C 
ATOM     29  C   UNL     1       5.492  -7.893  -6.118  1.00  0.00     0.118 C 
BRANCH  29  30
ATOM     30  O   UNL     1       6.759  -8.483  -6.235  1.00  0.00    -0.393 OA
ATOM     31  H   UNL     1       6.613  -9.460  -6.342  1.00  0.00     0.210 HD
ENDBRANCH  29  30
ENDBRANCH   9  11
ENDBRANCH   1   9
TORSDOF 7
ENDMDL
MODEL 6
REMARK VINA RESULT:    -5.626     11.580     15.771
REMARK INTER + INTRA:          -8.891
REMARK INTER:                  -8.357
REMARK INTRA:                  -0.534
REMARK UNBOUND:                -1.127
REMARK SMILES CC[C@H](CC[C@@H](C)[C@H]1CC[C@H]2[C@H]3CC=C4C[C@H](O)CC[C@@]4(C)[C@H]3CC[C@@]12C)C(C)C
REMARK SMILES IDX 5 1 4 2 3 3 2 4 1 5 28 6 29 7 30 8 6 9 7 10 8 11 9 12 26 13
REMARK SMILES IDX 10 14 11 15 25 16 27 17 12 18 24 19 23 20 13 21 21 22 14 23
REMARK SMILES IDX 15 24 20 25 22 26 16 27 19 28 17 29 18 30
REMARK H PARENT 18 31
REMARK Flexibility Score: inf
ROOT
ATOM      1  C   UNL     1      -5.904  -9.519   4.368  1.00  0.00     0.004 C 
ENDROOT
BRANCH   1   2
ATOM      2  C   UNL     1      -4.708  -8.614   3.999  1.00  0.00     0.004 C 
BRANCH   2   3
ATOM      3  C   UNL     1      -3.348  -9.154   4.525  1.00  0.00    -0.009 C 
BRANCH   3   4
ATOM      4  C   UNL     1      -2.441  -9.583   3.337  1.00  0.00     0.000 C 
ATOM      5  C   UNL     1      -0.945  -9.394   3.598  1.00  0.00     0.004 C 
ENDBRANCH   3   4
BRANCH   3   6
ATOM      6  C   UNL     1      -2.643  -8.148   5.498  1.00  0.00    -0.014 C 
ATOM      7  C   UNL     1      -3.267  -6.743   5.490  1.00  0.00     0.007 C 
ATOM      8  C   UNL     1      -2.564  -8.684   6.938  1.00  0.00     0.007 C 
ENDBRANCH   3   6
ENDBRANCH   2   3
ENDBRANCH   1   2
BRANCH   1   9
ATOM      9  C   UNL     1      -7.278  -8.802   4.259  1.00  0.00    -0.011 C 
ATOM     10  C   UNL     1      -8.402  -9.815   3.969  1.00  0.00     0.008 C 
BRANCH   9  11
ATOM     11  C   UNL     1      -7.654  -7.921   5.517  1.00  0.00    -0.002 C 
ATOM     12  C   UNL     1      -6.524  -7.176   6.247  1.00  0.00     0.005 C 
ATOM     13  C   UNL     1      -8.736  -6.832   5.289  1.00  0.00    -0.026 C 
ATOM     14  C   UNL     1      -7.213  -6.088   7.076  1.00  0.00     0.005 C 
ATOM     15  C   UNL     1      -8.694  -6.076   6.642  1.00  0.00    -0.001 C 
ATOM     16  C   UNL     1      -8.388  -5.902   4.067  1.00  0.00     0.007 C 
ATOM     17  C   UNL     1     -10.125  -7.480   5.083  1.00  0.00     0.012 C 
ATOM     18  C   UNL     1      -9.418  -4.693   6.643  1.00  0.00     0.000 C 
ATOM     19  C   UNL     1      -8.171  -4.424   4.412  1.00  0.00     0.005 C 
ATOM     20  C   UNL     1      -9.296  -3.881   5.313  1.00  0.00     0.003 C 
ATOM     21  C   UNL     1      -9.088  -3.867   7.886  1.00  0.00     0.031 C 
ATOM     22  C   UNL     1      -9.296  -2.292   5.453  1.00  0.00    -0.008 C 
ATOM     23  C   UNL     1      -9.856  -2.587   7.881  1.00  0.00    -0.027 C 
ATOM     24  C   UNL     1      -9.918  -1.821   6.774  1.00  0.00    -0.065 C 
ATOM     25  C   UNL     1      -7.864  -1.669   5.422  1.00  0.00     0.014 C 
ATOM     26  C   UNL     1     -10.125  -1.737   4.258  1.00  0.00     0.016 C 
ATOM     27  C   UNL     1     -10.044  -0.331   6.978  1.00  0.00     0.063 C 
ATOM     28  C   UNL     1      -7.847  -0.141   5.687  1.00  0.00     0.033 C 
ATOM     29  C   UNL     1      -8.625   0.270   6.956  1.00  0.00     0.118 C 
BRANCH  29  30
ATOM     30  O   UNL     1      -8.697   1.670   7.016  1.00  0.00    -0.393 OA
ATOM     31  H   UNL     1      -9.413   1.893   7.668  1.00  0.00     0.210 HD
ENDBRANCH  29  30
ENDBRANCH   9  11
ENDBRANCH   1   9
TORSDOF 7
ENDMDL
MODEL 7
REMARK VINA RESULT:    -5.550      3.150      8.916
REMARK INTER + INTRA:          -8.786
REMARK INTER:                  -7.672
REMARK INTRA:                  -1.114
REMARK UNBOUND:                -1.127
REMARK SMILES CC[C@H](CC[C@@H](C)[C@H]1CC[C@H]2[C@H]3CC=C4C[C@H](O)CC[C@@]4(C)[C@H]3CC[C@@]12C)C(C)C
REMARK SMILES IDX 5 1 4 2 3 3 2 4 1 5 28 6 29 7 30 8 6 9 7 10 8 11 9 12 26 13
REMARK SMILES IDX 10 14 11 15 25 16 27 17 12 18 24 19 23 20 13 21 21 22 14 23
REMARK SMILES IDX 15 24 20 25 22 26 16 27 19 28 17 29 18 30
REMARK H PARENT 18 31
REMARK Flexibility Score: inf
ROOT
ATOM      1  C   UNL     1       2.808  -5.964  -8.013  1.00  0.00     0.004 C 
ENDROOT
BRANCH   1   2
ATOM      2  C   UNL     1       4.058  -6.765  -7.590  1.00  0.00     0.004 C 
BRANCH   2   3
ATOM      3  C   UNL     1       4.234  -6.854  -6.047  1.00  0.00    -0.009 C 
BRANCH   3   4
ATOM      4  C   UNL     1       5.118  -8.079  -5.674  1.00  0.00     0.000 C 
ATOM      5  C   UNL     1       4.550  -9.420  -6.145  1.00  0.00     0.004 C 
ENDBRANCH   3   4
BRANCH   3   6
ATOM      6  C   UNL     1       4.759  -5.513  -5.429  1.00  0.00    -0.014 C 
ATOM      7  C   UNL     1       5.067  -5.606  -3.926  1.00  0.00     0.007 C 
ATOM      8  C   UNL     1       5.977  -4.956  -6.186  1.00  0.00     0.007 C 
ENDBRANCH   3   6
ENDBRANCH   2   3
ENDBRANCH   1   2
BRANCH   1   9
ATOM      9  C   UNL     1       1.524  -6.833  -8.117  1.00  0.00    -0.011 C 
ATOM     10  C   UNL     1       1.875  -8.286  -8.491  1.00  0.00     0.008 C 
BRANCH   9  11
ATOM     11  C   UNL     1       0.614  -6.810  -6.824  1.00  0.00    -0.002 C 
ATOM     12  C   UNL     1       0.645  -5.555  -5.936  1.00  0.00     0.005 C 
ATOM     13  C   UNL     1      -0.897  -7.077  -7.047  1.00  0.00    -0.026 C 
ATOM     14  C   UNL     1      -0.621  -5.625  -5.077  1.00  0.00     0.005 C 
ATOM     15  C   UNL     1      -1.468  -6.790  -5.634  1.00  0.00    -0.001 C 
ATOM     16  C   UNL     1      -1.507  -6.130  -8.148  1.00  0.00     0.007 C 
ATOM     17  C   UNL     1      -1.138  -8.555  -7.429  1.00  0.00     0.012 C 
ATOM     18  C   UNL     1      -3.019  -6.626  -5.574  1.00  0.00     0.000 C 
ATOM     19  C   UNL     1      -2.604  -5.178  -7.656  1.00  0.00     0.005 C 
ATOM     20  C   UNL     1      -3.658  -5.918  -6.811  1.00  0.00     0.003 C 
ATOM     21  C   UNL     1      -3.489  -6.049  -4.238  1.00  0.00     0.031 C 
ATOM     22  C   UNL     1      -4.974  -5.060  -6.531  1.00  0.00    -0.008 C 
ATOM     23  C   UNL     1      -4.979  -5.978  -4.197  1.00  0.00    -0.027 C 
ATOM     24  C   UNL     1      -5.677  -5.474  -5.232  1.00  0.00    -0.065 C 
ATOM     25  C   UNL     1      -4.695  -3.530  -6.384  1.00  0.00     0.014 C 
ATOM     26  C   UNL     1      -5.927  -5.294  -7.740  1.00  0.00     0.016 C 
ATOM     27  C   UNL     1      -6.980  -4.782  -4.910  1.00  0.00     0.063 C 
ATOM     28  C   UNL     1      -5.947  -2.706  -5.984  1.00  0.00     0.033 C 
ATOM     29  C   UNL     1      -6.688  -3.277  -4.755  1.00  0.00     0.118 C 
BRANCH  29  30
ATOM     30  O   UNL     1      -7.889  -2.573  -4.578  1.00  0.00    -0.393 OA
ATOM     31  H   UNL     1      -8.307  -2.922  -3.748  1.00  0.00     0.210 HD
ENDBRANCH  29  30
ENDBRANCH   9  11
ENDBRANCH   1   9
TORSDOF 7
ENDMDL
MODEL 8
REMARK VINA RESULT:    -5.533     12.923     16.600
REMARK INTER + INTRA:          -8.763
REMARK INTER:                  -7.846
REMARK INTRA:                  -0.916
REMARK UNBOUND:                -1.127
REMARK SMILES CC[C@H](CC[C@@H](C)[C@H]1CC[C@H]2[C@H]3CC=C4C[C@H](O)CC[C@@]4(C)[C@H]3CC[C@@]12C)C(C)C
REMARK SMILES IDX 5 1 4 2 3 3 2 4 1 5 28 6 29 7 30 8 6 9 7 10 8 11 9 12 26 13
REMARK SMILES IDX 10 14 11 15 25 16 27 17 12 18 24 19 23 20 13 21 21 22 14 23
REMARK SMILES IDX 15 24 20 25 22 26 16 27 19 28 17 29 18 30
REMARK H PARENT 18 31
REMARK Flexibility Score: inf
ROOT
ATOM      1  C   UNL     1      -8.242   1.348   8.233  1.00  0.00     0.004 C 
ENDROOT
BRANCH   1   2
ATOM      2  C   UNL     1      -9.651   1.873   7.884  1.00  0.00     0.004 C 
BRANCH   2   3
ATOM      3  C   UNL     1      -9.837   3.385   8.202  1.00  0.00    -0.009 C 
BRANCH   3   4
ATOM      4  C   UNL     1      -8.640   3.910   9.045  1.00  0.00     0.000 C 
ATOM      5  C   UNL     1      -9.006   4.265  10.488  1.00  0.00     0.004 C 
ENDBRANCH   3   4
BRANCH   3   6
ATOM      6  C   UNL     1     -10.098   4.238   6.914  1.00  0.00    -0.014 C 
ATOM      7  C   UNL     1      -9.745   5.724   7.077  1.00  0.00     0.007 C 
ATOM      8  C   UNL     1      -9.391   3.658   5.676  1.00  0.00     0.007 C 
ENDBRANCH   3   6
ENDBRANCH   2   3
ENDBRANCH   1   2
BRANCH   1   9
ATOM      9  C   UNL     1      -8.256   0.156   9.227  1.00  0.00    -0.011 C 
ATOM     10  C   UNL     1      -8.997   0.533  10.525  1.00  0.00     0.008 C 
BRANCH   9  11
ATOM     11  C   UNL     1      -8.852  -1.183   8.632  1.00  0.00    -0.002 C 
ATOM     12  C   UNL     1      -9.134  -1.244   7.122  1.00  0.00     0.005 C 
ATOM     13  C   UNL     1      -8.045  -2.476   8.917  1.00  0.00    -0.026 C 
ATOM     14  C   UNL     1      -9.244  -2.734   6.781  1.00  0.00     0.005 C 
ATOM     15  C   UNL     1      -8.806  -3.507   8.043  1.00  0.00    -0.001 C 
ATOM     16  C   UNL     1      -6.533  -2.331   8.501  1.00  0.00     0.007 C 
ATOM     17  C   UNL     1      -8.148  -2.864  10.410  1.00  0.00     0.012 C 
ATOM     18  C   UNL     1      -8.054  -4.856   7.818  1.00  0.00     0.000 C 
ATOM     19  C   UNL     1      -6.065  -3.285   7.395  1.00  0.00     0.005 C 
ATOM     20  C   UNL     1      -6.503  -4.735   7.674  1.00  0.00     0.003 C 
ATOM     21  C   UNL     1      -8.698  -5.700   6.717  1.00  0.00     0.031 C 
ATOM     22  C   UNL     1      -5.794  -5.812   6.735  1.00  0.00    -0.008 C 
ATOM     23  C   UNL     1      -7.993  -7.010   6.585  1.00  0.00    -0.027 C 
ATOM     24  C   UNL     1      -6.649  -7.071   6.540  1.00  0.00    -0.065 C 
ATOM     25  C   UNL     1      -5.503  -5.280   5.295  1.00  0.00     0.014 C 
ATOM     26  C   UNL     1      -4.451  -6.193   7.424  1.00  0.00     0.016 C 
ATOM     27  C   UNL     1      -6.040  -8.192   5.733  1.00  0.00     0.063 C 
ATOM     28  C   UNL     1      -4.934  -6.360   4.338  1.00  0.00     0.033 C 
ATOM     29  C   UNL     1      -5.768  -7.658   4.314  1.00  0.00     0.118 C 
BRANCH  29  30
ATOM     30  O   UNL     1      -5.087  -8.626   3.561  1.00  0.00    -0.393 OA
ATOM     31  H   UNL     1      -4.122  -8.531   3.776  1.00  0.00     0.210 HD
ENDBRANCH  29  30
ENDBRANCH   9  11
ENDBRANCH   1   9
TORSDOF 7
ENDMDL
MODEL 9
REMARK VINA RESULT:    -5.422     12.576     16.865
REMARK INTER + INTRA:          -8.610
REMARK INTER:                  -8.742
REMARK INTRA:                   0.132
REMARK UNBOUND:                -1.127
REMARK SMILES CC[C@H](CC[C@@H](C)[C@H]1CC[C@H]2[C@H]3CC=C4C[C@H](O)CC[C@@]4(C)[C@H]3CC[C@@]12C)C(C)C
REMARK SMILES IDX 5 1 4 2 3 3 2 4 1 5 28 6 29 7 30 8 6 9 7 10 8 11 9 12 26 13
REMARK SMILES IDX 10 14 11 15 25 16 27 17 12 18 24 19 23 20 13 21 21 22 14 23
REMARK SMILES IDX 15 24 20 25 22 26 16 27 19 28 17 29 18 30
REMARK H PARENT 18 31
REMARK Flexibility Score: inf
ROOT
ATOM      1  C   UNL     1      -5.795  -8.248   5.320  1.00  0.00     0.004 C 
ENDROOT
BRANCH   1   2
ATOM      2  C   UNL     1      -4.584  -9.192   5.478  1.00  0.00     0.004 C 
BRANCH   2   3
ATOM      3  C   UNL     1      -3.343  -8.738   4.657  1.00  0.00    -0.009 C 
BRANCH   3   4
ATOM      4  C   UNL     1      -2.249  -8.165   5.604  1.00  0.00     0.000 C 
ATOM      5  C   UNL     1      -2.586  -8.293   7.091  1.00  0.00     0.004 C 
ENDBRANCH   3   4
BRANCH   3   6
ATOM      6  C   UNL     1      -2.804  -9.870   3.718  1.00  0.00    -0.014 C 
ATOM      7  C   UNL     1      -3.690 -10.125   2.488  1.00  0.00     0.007 C 
ATOM      8  C   UNL     1      -1.349  -9.624   3.280  1.00  0.00     0.007 C 
ENDBRANCH   3   6
ENDBRANCH   2   3
ENDBRANCH   1   2
BRANCH   1   9
ATOM      9  C   UNL     1      -5.431  -6.746   5.473  1.00  0.00    -0.011 C 
ATOM     10  C   UNL     1      -6.109  -5.903   4.375  1.00  0.00     0.008 C 
BRANCH   9  11
ATOM     11  C   UNL     1      -5.753  -6.139   6.898  1.00  0.00    -0.002 C 
ATOM     12  C   UNL     1      -4.736  -5.166   7.520  1.00  0.00     0.005 C 
ATOM     13  C   UNL     1      -7.111  -5.404   7.037  1.00  0.00    -0.026 C 
ATOM     14  C   UNL     1      -5.500  -4.416   8.616  1.00  0.00     0.005 C 
ATOM     15  C   UNL     1      -6.986  -4.802   8.461  1.00  0.00    -0.001 C 
ATOM     16  C   UNL     1      -7.300  -4.300   5.930  1.00  0.00     0.007 C 
ATOM     17  C   UNL     1      -8.283  -6.411   6.985  1.00  0.00     0.012 C 
ATOM     18  C   UNL     1      -8.040  -3.703   8.802  1.00  0.00     0.000 C 
ATOM     19  C   UNL     1      -7.423  -2.864   6.453  1.00  0.00     0.005 C 
ATOM     20  C   UNL     1      -8.431  -2.768   7.613  1.00  0.00     0.003 C 
ATOM     21  C   UNL     1      -7.686  -2.938  10.079  1.00  0.00     0.031 C 
ATOM     22  C   UNL     1      -8.832  -1.271   7.993  1.00  0.00    -0.008 C 
ATOM     23  C   UNL     1      -8.755  -1.949  10.407  1.00  0.00    -0.027 C 
ATOM     24  C   UNL     1      -9.259  -1.135   9.460  1.00  0.00    -0.065 C 
ATOM     25  C   UNL     1      -7.664  -0.252   7.802  1.00  0.00     0.014 C 
ATOM     26  C   UNL     1     -10.017  -0.875   7.065  1.00  0.00     0.016 C 
ATOM     27  C   UNL     1      -9.737   0.225   9.909  1.00  0.00     0.063 C 
ATOM     28  C   UNL     1      -8.005   1.180   8.292  1.00  0.00     0.033 C 
ATOM     29  C   UNL     1      -8.573   1.218   9.727  1.00  0.00     0.118 C 
BRANCH  29  30
ATOM     30  O   UNL     1      -9.007   2.522  10.013  1.00  0.00    -0.393 OA
ATOM     31  H   UNL     1      -9.987   2.471  10.169  1.00  0.00     0.210 HD
ENDBRANCH  29  30
ENDBRANCH   9  11
ENDBRANCH   1   9
TORSDOF 7
ENDMDL
