MODEL 1
REMARK VINA RESULT:    -3.618      0.000      0.000
REMARK INTER + INTRA:          -4.047
REMARK INTER:                  -3.935
REMARK INTRA:                  -0.112
REMARK UNBOUND:                -0.112
REMARK SMILES C[C@H]1[C@@H](C)CC[C@@]2(C(=O)[O-])CC[C@]3(C)C(=CC[C@@H]4[C@@]5(C)CC[C@@H](O)C(C)(C)[C@H]5CC[C@]43C)[C@@H]12
REMARK SMILES IDX 7 1 6 2 11 3 33 4 5 5 12 6 15 7 2 8 3 9 13 10 16 11 1 12
REMARK SMILES IDX 4 13 14 14 31 15 17 16 18 17 30 18 32 19 19 20 29 21 28 22
REMARK SMILES IDX 21 23 20 24 25 25 22 26 23 27 26 28 27 29 8 30 9 31 10 32
REMARK SMILES IDX 24 33
REMARK H PARENT 24 34
REMARK Flexibility Score: inf
ROOT
ATOM      1  C   UNL     1       5.576 -21.323  -7.404  1.00  0.00     0.017 C 
ATOM      2  C   UNL     1       4.753 -22.642  -7.165  1.00  0.00     0.014 C 
ATOM      3  C   UNL     1       5.284 -20.328  -6.239  1.00  0.00     0.014 C 
ATOM      4  C   UNL     1       7.132 -21.581  -7.497  1.00  0.00     0.030 C 
ATOM      5  C   UNL     1       5.576 -23.915  -7.333  1.00  0.00     0.004 C 
ATOM      6  C   UNL     1       6.254 -19.129  -6.051  1.00  0.00     0.013 C 
ATOM      7  C   UNL     1       7.984 -20.291  -7.475  1.00  0.00    -0.063 C 
ATOM      8  C   UNL     1       7.690 -22.704  -6.531  1.00  0.00    -0.003 C 
ATOM      9  C   UNL     1       6.733 -23.935  -6.326  1.00  0.00    -0.011 C 
ATOM     10  C   UNL     1       7.377 -18.915  -7.124  1.00  0.00    -0.006 C 
ATOM     11  C   UNL     1       9.260 -20.381  -7.923  1.00  0.00    -0.027 C 
ATOM     12  C   UNL     1       8.308 -22.174  -5.222  1.00  0.00     0.008 C 
ATOM     13  C   UNL     1       6.196 -24.124  -4.887  1.00  0.00     0.008 C 
ATOM     14  C   UNL     1       6.711 -18.345  -8.433  1.00  0.00     0.017 C 
ATOM     15  C   UNL     1       8.526 -17.911  -6.572  1.00  0.00    -0.020 C 
ATOM     16  C   UNL     1      10.291 -19.290  -7.790  1.00  0.00     0.032 C 
ATOM     17  C   UNL     1       9.695 -17.871  -7.611  1.00  0.00     0.006 C 
ATOM     18  C   UNL     1       7.984 -16.466  -6.407  1.00  0.00     0.008 C 
ATOM     19  C   UNL     1       9.065 -18.389  -5.185  1.00  0.00     0.012 C 
ATOM     20  C   UNL     1      10.795 -16.696  -7.493  1.00  0.00    -0.025 C 
ATOM     21  C   UNL     1       9.019 -15.516  -5.829  1.00  0.00     0.005 C 
ATOM     22  C   UNL     1      10.330 -15.393  -6.663  1.00  0.00     0.003 C 
ATOM     23  C   UNL     1      11.167 -16.313  -8.966  1.00  0.00     0.010 C 
ATOM     24  C   UNL     1      12.122 -17.229  -6.854  1.00  0.00     0.012 C 
ATOM     25  C   UNL     1      10.493 -13.989  -7.390  1.00  0.00    -0.006 C 
ATOM     26  C   UNL     1      12.108 -15.119  -9.132  1.00  0.00     0.033 C 
ATOM     27  C   UNL     1      11.871 -13.965  -8.134  1.00  0.00     0.120 C 
ATOM     28  C   UNL     1       9.311 -13.661  -8.345  1.00  0.00     0.014 C 
ATOM     29  C   UNL     1      10.546 -12.844  -6.329  1.00  0.00     0.014 C 
ENDROOT
BRANCH   1  30
ATOM     30  C   UNL     1       5.037 -20.777  -8.727  1.00  0.00     0.048 C 
ATOM     31  O   UNL     1       3.885 -20.269  -8.790  1.00  0.00    -0.550 OA
ATOM     32  O   UNL     1       5.733 -20.983  -9.915  1.00  0.00    -0.550 OA
ENDBRANCH   1  30
BRANCH  27  33
ATOM     33  O   UNL     1      12.125 -12.721  -8.747  1.00  0.00    -0.393 OA
ATOM     34  H   UNL     1      11.384 -12.106  -8.514  1.00  0.00     0.210 HD
ENDBRANCH  27  33
TORSDOF 2
ENDMDL
MODEL 2
REMARK VINA RESULT:    -3.334      2.225      3.264
REMARK INTER + INTRA:          -3.739
REMARK INTER:                  -3.593
REMARK INTRA:                  -0.145
REMARK UNBOUND:                -0.112
REMARK SMILES C[C@H]1[C@@H](C)CC[C@@]2(C(=O)[O-])CC[C@]3(C)C(=CC[C@@H]4[C@@]5(C)CC[C@@H](O)C(C)(C)[C@H]5CC[C@]43C)[C@@H]12
REMARK SMILES IDX 7 1 6 2 11 3 33 4 5 5 12 6 15 7 2 8 3 9 13 10 16 11 1 12
REMARK SMILES IDX 4 13 14 14 31 15 17 16 18 17 30 18 32 19 19 20 29 21 28 22
REMARK SMILES IDX 21 23 20 24 25 25 22 26 23 27 26 28 27 29 8 30 9 31 10 32
REMARK SMILES IDX 24 33
REMARK H PARENT 24 34
REMARK Flexibility Score: inf
ROOT
ATOM      1  C   UNL     1       7.438 -21.524  -9.250  1.00  0.00     0.017 C 
ATOM      2  C   UNL     1       7.009 -22.937  -9.790  1.00  0.00     0.014 C 
ATOM      3  C   UNL     1       8.321 -21.715  -7.979  1.00  0.00     0.014 C 
ATOM      4  C   UNL     1       8.235 -20.676 -10.319  1.00  0.00     0.030 C 
ATOM      5  C   UNL     1       7.208 -23.104 -11.293  1.00  0.00     0.004 C 
ATOM      6  C   UNL     1       9.168 -20.505  -7.496  1.00  0.00     0.013 C 
ATOM      7  C   UNL     1       8.889 -19.398  -9.746  1.00  0.00    -0.063 C 
ATOM      8  C   UNL     1       9.213 -21.506 -11.247  1.00  0.00    -0.003 C 
ATOM      9  C   UNL     1       8.689 -22.930 -11.654  1.00  0.00    -0.011 C 
ATOM     10  C   UNL     1       8.974 -19.133  -8.227  1.00  0.00    -0.006 C 
ATOM     11  C   UNL     1       9.255 -18.437 -10.629  1.00  0.00    -0.027 C 
ATOM     12  C   UNL     1      10.688 -21.492 -10.797  1.00  0.00     0.008 C 
ATOM     13  C   UNL     1       9.519 -24.121 -11.117  1.00  0.00     0.008 C 
ATOM     14  C   UNL     1       7.594 -18.520  -7.777  1.00  0.00     0.017 C 
ATOM     15  C   UNL     1      10.196 -18.119  -7.896  1.00  0.00    -0.020 C 
ATOM     16  C   UNL     1      10.080 -17.225 -10.280  1.00  0.00     0.032 C 
ATOM     17  C   UNL     1      10.038 -16.839  -8.781  1.00  0.00     0.006 C 
ATOM     18  C   UNL     1      10.177 -17.676  -6.408  1.00  0.00     0.008 C 
ATOM     19  C   UNL     1      11.576 -18.795  -8.183  1.00  0.00     0.012 C 
ATOM     20  C   UNL     1      10.900 -15.527  -8.406  1.00  0.00    -0.025 C 
ATOM     21  C   UNL     1      11.348 -16.777  -6.050  1.00  0.00     0.005 C 
ATOM     22  C   UNL     1      11.446 -15.467  -6.890  1.00  0.00     0.003 C 
ATOM     23  C   UNL     1       9.968 -14.305  -8.709  1.00  0.00     0.010 C 
ATOM     24  C   UNL     1      12.125 -15.364  -9.369  1.00  0.00     0.012 C 
ATOM     25  C   UNL     1      11.110 -14.153  -6.061  1.00  0.00    -0.006 C 
ATOM     26  C   UNL     1      10.510 -12.931  -8.312  1.00  0.00     0.033 C 
ATOM     27  C   UNL     1      11.308 -12.909  -6.990  1.00  0.00     0.120 C 
ATOM     28  C   UNL     1       9.690 -14.185  -5.426  1.00  0.00     0.014 C 
ATOM     29  C   UNL     1      12.124 -13.991  -4.885  1.00  0.00     0.014 C 
ENDROOT
BRANCH   1  30
ATOM     30  C   UNL     1       6.118 -20.840  -8.891  1.00  0.00     0.048 C 
ATOM     31  O   UNL     1       5.482 -21.177  -7.856  1.00  0.00    -0.550 OA
ATOM     32  O   UNL     1       5.511 -19.960  -9.782  1.00  0.00    -0.550 OA
ENDBRANCH   1  30
BRANCH  27  33
ATOM     33  O   UNL     1      11.098 -11.694  -6.307  1.00  0.00    -0.393 OA
ATOM     34  H   UNL     1      11.832 -11.073  -6.549  1.00  0.00     0.210 HD
ENDBRANCH  27  33
TORSDOF 2
ENDMDL
MODEL 3
REMARK VINA RESULT:    -2.705      1.538      8.091
REMARK INTER + INTRA:          -3.054
REMARK INTER:                  -2.923
REMARK INTRA:                  -0.132
REMARK UNBOUND:                -0.112
REMARK SMILES C[C@H]1[C@@H](C)CC[C@@]2(C(=O)[O-])CC[C@]3(C)C(=CC[C@@H]4[C@@]5(C)CC[C@@H](O)C(C)(C)[C@H]5CC[C@]43C)[C@@H]12
REMARK SMILES IDX 7 1 6 2 11 3 33 4 5 5 12 6 15 7 2 8 3 9 13 10 16 11 1 12
REMARK SMILES IDX 4 13 14 14 31 15 17 16 18 17 30 18 32 19 19 20 29 21 28 22
REMARK SMILES IDX 21 23 20 24 25 25 22 26 23 27 26 28 27 29 8 30 9 31 10 32
REMARK SMILES IDX 24 33
REMARK H PARENT 24 34
REMARK Flexibility Score: inf
ROOT
ATOM      1  C   UNL     1      11.261 -15.104  -8.282  1.00  0.00     0.017 C 
ATOM      2  C   UNL     1      12.125 -13.798  -8.131  1.00  0.00     0.014 C 
ATOM      3  C   UNL     1      12.088 -16.319  -7.763  1.00  0.00     0.014 C 
ATOM      4  C   UNL     1       9.893 -15.026  -7.495  1.00  0.00     0.030 C 
ATOM      5  C   UNL     1      11.371 -12.637  -7.490  1.00  0.00     0.004 C 
ATOM      6  C   UNL     1      11.325 -17.638  -7.457  1.00  0.00     0.013 C 
ATOM      7  C   UNL     1       9.140 -16.375  -7.410  1.00  0.00    -0.063 C 
ATOM      8  C   UNL     1       9.952 -14.265  -6.109  1.00  0.00    -0.003 C 
ATOM      9  C   UNL     1      10.910 -13.019  -6.079  1.00  0.00    -0.011 C 
ATOM     10  C   UNL     1       9.802 -17.708  -7.821  1.00  0.00    -0.006 C 
ATOM     11  C   UNL     1       7.821 -16.332  -7.102  1.00  0.00    -0.027 C 
ATOM     12  C   UNL     1      10.092 -15.185  -4.879  1.00  0.00     0.008 C 
ATOM     13  C   UNL     1      12.124 -13.138  -5.126  1.00  0.00     0.008 C 
ATOM     14  C   UNL     1       9.672 -17.837  -9.386  1.00  0.00     0.017 C 
ATOM     15  C   UNL     1       9.081 -18.954  -7.073  1.00  0.00    -0.020 C 
ATOM     16  C   UNL     1       6.980 -17.540  -6.780  1.00  0.00     0.032 C 
ATOM     17  C   UNL     1       7.542 -18.872  -7.337  1.00  0.00     0.006 C 
ATOM     18  C   UNL     1       9.589 -20.314  -7.622  1.00  0.00     0.008 C 
ATOM     19  C   UNL     1       9.359 -18.918  -5.535  1.00  0.00     0.012 C 
ATOM     20  C   UNL     1       6.631 -20.165  -7.016  1.00  0.00    -0.025 C 
ATOM     21  C   UNL     1       8.979 -21.501  -6.896  1.00  0.00     0.005 C 
ATOM     22  C   UNL     1       7.423 -21.569  -6.945  1.00  0.00     0.003 C 
ATOM     23  C   UNL     1       5.535 -20.202  -8.135  1.00  0.00     0.010 C 
ATOM     24  C   UNL     1       5.848 -19.983  -5.672  1.00  0.00     0.012 C 
ATOM     25  C   UNL     1       6.865 -22.750  -7.851  1.00  0.00    -0.006 C 
ATOM     26  C   UNL     1       4.611 -21.422  -8.131  1.00  0.00     0.033 C 
ATOM     27  C   UNL     1       5.302 -22.754  -7.764  1.00  0.00     0.120 C 
ATOM     28  C   UNL     1       7.367 -22.673  -9.321  1.00  0.00     0.014 C 
ATOM     29  C   UNL     1       7.340 -24.125  -7.284  1.00  0.00     0.014 C 
ENDROOT
BRANCH   1  30
ATOM     30  C   UNL     1      11.015 -15.222  -9.786  1.00  0.00     0.048 C 
ATOM     31  O   UNL     1      11.815 -15.864 -10.519  1.00  0.00    -0.550 OA
ATOM     32  O   UNL     1      10.005 -14.486 -10.399  1.00  0.00    -0.550 OA
ENDBRANCH   1  30
BRANCH  27  33
ATOM     33  O   UNL     1       4.730 -23.821  -8.486  1.00  0.00    -0.393 OA
ATOM     34  H   UNL     1       5.263 -23.956  -9.311  1.00  0.00     0.210 HD
ENDBRANCH  27  33
TORSDOF 2
ENDMDL
MODEL 4
REMARK VINA RESULT:    -0.994      1.950      3.423
REMARK INTER + INTRA:          -1.193
REMARK INTER:                  -1.012
REMARK INTRA:                  -0.181
REMARK UNBOUND:                -0.112
REMARK SMILES C[C@H]1[C@@H](C)CC[C@@]2(C(=O)[O-])CC[C@]3(C)C(=CC[C@@H]4[C@@]5(C)CC[C@@H](O)C(C)(C)[C@H]5CC[C@]43C)[C@@H]12
REMARK SMILES IDX 7 1 6 2 11 3 33 4 5 5 12 6 15 7 2 8 3 9 13 10 16 11 1 12
REMARK SMILES IDX 4 13 14 14 31 15 17 16 18 17 30 18 32 19 19 20 29 21 28 22
REMARK SMILES IDX 21 23 20 24 25 25 22 26 23 27 26 28 27 29 8 30 9 31 10 32
REMARK SMILES IDX 24 33
REMARK H PARENT 24 34
REMARK Flexibility Score: inf
ROOT
ATOM      1  C   UNL     1       7.100 -22.628  -8.192  1.00  0.00     0.017 C 
ATOM      2  C   UNL     1       6.253 -23.935  -8.411  1.00  0.00     0.014 C 
ATOM      3  C   UNL     1       7.292 -21.914  -9.565  1.00  0.00     0.014 C 
ATOM      4  C   UNL     1       6.428 -21.628  -7.170  1.00  0.00     0.030 C 
ATOM      5  C   UNL     1       5.109 -24.096  -7.415  1.00  0.00     0.004 C 
ATOM      6  C   UNL     1       7.757 -20.432  -9.552  1.00  0.00     0.013 C 
ATOM      7  C   UNL     1       7.096 -20.234  -7.125  1.00  0.00    -0.063 C 
ATOM      8  C   UNL     1       4.849 -21.552  -7.237  1.00  0.00    -0.003 C 
ATOM      9  C   UNL     1       4.133 -22.919  -7.533  1.00  0.00    -0.011 C 
ATOM     10  C   UNL     1       8.141 -19.793  -8.174  1.00  0.00    -0.006 C 
ATOM     11  C   UNL     1       6.846 -19.459  -6.041  1.00  0.00    -0.027 C 
ATOM     12  C   UNL     1       4.299 -20.372  -8.064  1.00  0.00     0.008 C 
ATOM     13  C   UNL     1       3.362 -22.988  -8.874  1.00  0.00     0.008 C 
ATOM     14  C   UNL     1       9.534 -20.376  -7.726  1.00  0.00     0.017 C 
ATOM     15  C   UNL     1       8.193 -18.175  -8.276  1.00  0.00    -0.020 C 
ATOM     16  C   UNL     1       7.242 -18.011  -5.917  1.00  0.00     0.032 C 
ATOM     17  C   UNL     1       8.411 -17.590  -6.842  1.00  0.00     0.006 C 
ATOM     18  C   UNL     1       9.372 -17.702  -9.169  1.00  0.00     0.008 C 
ATOM     19  C   UNL     1       6.868 -17.611  -8.884  1.00  0.00     0.012 C 
ATOM     20  C   UNL     1       8.854 -16.045  -6.695  1.00  0.00    -0.025 C 
ATOM     21  C   UNL     1       9.409 -16.193  -9.338  1.00  0.00     0.005 C 
ATOM     22  C   UNL     1       9.525 -15.389  -8.007  1.00  0.00     0.003 C 
ATOM     23  C   UNL     1       9.846 -16.000  -5.483  1.00  0.00     0.010 C 
ATOM     24  C   UNL     1       7.641 -15.148  -6.273  1.00  0.00     0.012 C 
ATOM     25  C   UNL     1      10.936 -14.684  -7.811  1.00  0.00    -0.006 C 
ATOM     26  C   UNL     1      10.518 -14.653  -5.214  1.00  0.00     0.033 C 
ATOM     27  C   UNL     1      10.904 -13.859  -6.481  1.00  0.00     0.120 C 
ATOM     28  C   UNL     1      12.124 -15.687  -7.845  1.00  0.00     0.014 C 
ATOM     29  C   UNL     1      11.182 -13.656  -8.960  1.00  0.00     0.014 C 
ENDROOT
BRANCH   1  30
ATOM     30  C   UNL     1       8.440 -23.133  -7.655  1.00  0.00     0.048 C 
ATOM     31  O   UNL     1       9.308 -23.605  -8.437  1.00  0.00    -0.550 OA
ATOM     32  O   UNL     1       8.660 -23.238  -6.284  1.00  0.00    -0.550 OA
ENDBRANCH   1  30
BRANCH  27  33
ATOM     33  O   UNL     1      12.099 -13.141  -6.268  1.00  0.00    -0.393 OA
ATOM     34  H   UNL     1      12.206 -13.003  -5.293  1.00  0.00     0.210 HD
ENDBRANCH  27  33
TORSDOF 2
ENDMDL
MODEL 5
REMARK VINA RESULT:    -0.680      2.132      8.017
REMARK INTER + INTRA:          -0.852
REMARK INTER:                  -0.961
REMARK INTRA:                   0.109
REMARK UNBOUND:                -0.112
REMARK SMILES C[C@H]1[C@@H](C)CC[C@@]2(C(=O)[O-])CC[C@]3(C)C(=CC[C@@H]4[C@@]5(C)CC[C@@H](O)C(C)(C)[C@H]5CC[C@]43C)[C@@H]12
REMARK SMILES IDX 7 1 6 2 11 3 33 4 5 5 12 6 15 7 2 8 3 9 13 10 16 11 1 12
REMARK SMILES IDX 4 13 14 14 31 15 17 16 18 17 30 18 32 19 19 20 29 21 28 22
REMARK SMILES IDX 21 23 20 24 25 25 22 26 23 27 26 28 27 29 8 30 9 31 10 32
REMARK SMILES IDX 24 33
REMARK H PARENT 24 34
REMARK Flexibility Score: inf
ROOT
ATOM      1  C   UNL     1      11.101 -17.240 -10.124  1.00  0.00     0.017 C 
ATOM      2  C   UNL     1      12.112 -16.135 -10.603  1.00  0.00     0.014 C 
ATOM      3  C   UNL     1      11.742 -18.032  -8.944  1.00  0.00     0.014 C 
ATOM      4  C   UNL     1       9.714 -16.640  -9.661  1.00  0.00     0.030 C 
ATOM      5  C   UNL     1      11.477 -14.758 -10.776  1.00  0.00     0.004 C 
ATOM      6  C   UNL     1      10.805 -18.906  -8.064  1.00  0.00     0.013 C 
ATOM      7  C   UNL     1       8.796 -17.660  -8.948  1.00  0.00    -0.063 C 
ATOM      8  C   UNL     1       9.796 -15.252  -8.905  1.00  0.00    -0.003 C 
ATOM      9  C   UNL     1      10.898 -14.270  -9.443  1.00  0.00    -0.011 C 
ATOM     10  C   UNL     1       9.306 -19.048  -8.501  1.00  0.00    -0.006 C 
ATOM     11  C   UNL     1       7.478 -17.356  -8.861  1.00  0.00    -0.027 C 
ATOM     12  C   UNL     1       9.755 -15.357  -7.367  1.00  0.00     0.008 C 
ATOM     13  C   UNL     1      12.037 -13.941  -8.447  1.00  0.00     0.008 C 
ATOM     14  C   UNL     1       9.242 -20.001  -9.754  1.00  0.00     0.017 C 
ATOM     15  C   UNL     1       8.398 -19.622  -7.286  1.00  0.00    -0.020 C 
ATOM     16  C   UNL     1       6.477 -18.123  -8.036  1.00  0.00     0.032 C 
ATOM     17  C   UNL     1       6.896 -19.581  -7.723  1.00  0.00     0.006 C 
ATOM     18  C   UNL     1       8.759 -21.096  -6.957  1.00  0.00     0.008 C 
ATOM     19  C   UNL     1       8.597 -18.772  -5.990  1.00  0.00     0.012 C 
ATOM     20  C   UNL     1       5.816 -20.414  -6.861  1.00  0.00    -0.025 C 
ATOM     21  C   UNL     1       7.970 -21.642  -5.779  1.00  0.00     0.005 C 
ATOM     22  C   UNL     1       6.422 -21.606  -5.958  1.00  0.00     0.003 C 
ATOM     23  C   UNL     1       4.784 -20.973  -7.898  1.00  0.00     0.010 C 
ATOM     24  C   UNL     1       4.993 -19.467  -5.923  1.00  0.00     0.012 C 
ATOM     25  C   UNL     1       5.769 -23.043  -6.142  1.00  0.00    -0.006 C 
ATOM     26  C   UNL     1       3.716 -21.917  -7.342  1.00  0.00     0.033 C 
ATOM     27  C   UNL     1       4.215 -22.880  -6.242  1.00  0.00     0.120 C 
ATOM     28  C   UNL     1       6.352 -23.822  -7.355  1.00  0.00     0.014 C 
ATOM     29  C   UNL     1       6.039 -23.917  -4.876  1.00  0.00     0.014 C 
ENDROOT
BRANCH   1  30
ATOM     30  C   UNL     1      10.921 -18.142 -11.345  1.00  0.00     0.048 C 
ATOM     31  O   UNL     1       9.857 -18.104 -12.020  1.00  0.00    -0.550 OA
ATOM     32  O   UNL     1      11.851 -19.137 -11.634  1.00  0.00    -0.550 OA
ENDBRANCH   1  30
BRANCH  27  33
ATOM     33  O   UNL     1       3.553 -24.121  -6.336  1.00  0.00    -0.393 OA
ATOM     34  H   UNL     1       3.971 -24.743  -5.687  1.00  0.00     0.210 HD
ENDBRANCH  27  33
TORSDOF 2
ENDMDL
