MODEL 1
REMARK VINA RESULT:    -4.813      0.000      0.000
REMARK INTER + INTRA:          -5.945
REMARK INTER:                  -5.657
REMARK INTRA:                  -0.288
REMARK UNBOUND:                -0.288
REMARK SMILES O=c1c(O)c(-c2ccc(O)cc2)oc2cc(O)cc(O)c12
REMARK SMILES IDX 5 1 3 2 2 3 1 4 21 5 19 6 18 7 16 8 15 9 14 10 13 11 6 12
REMARK SMILES IDX 7 13 8 14 9 15 12 16 11 17 10 18 4 20 20 22 17 24
REMARK H PARENT 10 19 4 21 20 23 17 25
REMARK Flexibility Score: inf
ROOT
ATOM      1  C   UNL     1     216.559 213.117 224.501  1.00  0.00     0.180 A 
ATOM      2  C   UNL     1     216.591 214.512 224.329  1.00  0.00     0.208 A 
ATOM      3  C   UNL     1     217.830 215.172 224.341  1.00  0.00     0.238 A 
ATOM      4  O   UNL     1     217.856 216.409 224.112  1.00  0.00    -0.285 OA
ATOM      5  C   UNL     1     219.017 214.438 224.581  1.00  0.00     0.111 A 
ATOM      6  C   UNL     1     220.324 215.009 224.660  1.00  0.00     0.134 A 
ATOM      7  C   UNL     1     221.437 214.171 224.796  1.00  0.00     0.093 A 
ATOM      8  C   UNL     1     221.287 212.788 224.919  1.00  0.00     0.123 A 
ATOM      9  C   UNL     1     220.013 212.226 224.899  1.00  0.00     0.094 A 
ATOM     10  C   UNL     1     218.886 213.032 224.727  1.00  0.00     0.146 A 
ATOM     11  O   UNL     1     217.692 212.451 224.691  1.00  0.00    -0.452 OA
ENDROOT
BRANCH   1  12
ATOM     12  C   UNL     1     215.293 212.349 224.485  1.00  0.00     0.021 A 
ATOM     13  C   UNL     1     214.565 212.112 225.665  1.00  0.00     0.016 A 
ATOM     14  C   UNL     1     213.359 211.403 225.621  1.00  0.00     0.047 A 
ATOM     15  C   UNL     1     212.861 210.936 224.398  1.00  0.00     0.115 A 
ATOM     16  C   UNL     1     214.776 211.894 223.260  1.00  0.00     0.016 A 
ATOM     17  C   UNL     1     213.572 211.186 223.220  1.00  0.00     0.047 A 
BRANCH  15  18
ATOM     18  O   UNL     1     211.662 210.229 224.342  1.00  0.00    -0.508 OA
ATOM     19  H   UNL     1     211.558 209.411 223.752  1.00  0.00     0.293 HD
ENDBRANCH  15  18
ENDBRANCH   1  12
BRANCH   2  20
ATOM     20  O   UNL     1     215.401 215.228 224.170  1.00  0.00    -0.502 OA
ATOM     21  H   UNL     1     214.604 214.855 223.668  1.00  0.00     0.293 HD
ENDBRANCH   2  20
BRANCH   6  22
ATOM     22  O   UNL     1     220.580 216.384 224.636  1.00  0.00    -0.507 OA
ATOM     23  H   UNL     1     220.956 216.888 223.849  1.00  0.00     0.293 HD
ENDBRANCH   6  22
BRANCH   8  24
ATOM     24  O   UNL     1     222.400 211.963 225.072  1.00  0.00    -0.508 OA
ATOM     25  H   UNL     1     222.564 211.176 224.456  1.00  0.00     0.293 HD
ENDBRANCH   8  24
TORSDOF 5
ENDMDL
MODEL 2
REMARK VINA RESULT:    -4.781      5.079      7.462
REMARK INTER + INTRA:          -5.907
REMARK INTER:                  -5.619
REMARK INTRA:                  -0.288
REMARK UNBOUND:                -0.288
REMARK SMILES O=c1c(O)c(-c2ccc(O)cc2)oc2cc(O)cc(O)c12
REMARK SMILES IDX 5 1 3 2 2 3 1 4 21 5 19 6 18 7 16 8 15 9 14 10 13 11 6 12
REMARK SMILES IDX 7 13 8 14 9 15 12 16 11 17 10 18 4 20 20 22 17 24
REMARK H PARENT 10 19 4 21 20 23 17 25
REMARK Flexibility Score: inf
ROOT
ATOM      1  C   UNL     1     213.194 217.755 224.516  1.00  0.00     0.180 A 
ATOM      2  C   UNL     1     214.590 217.722 224.358  1.00  0.00     0.208 A 
ATOM      3  C   UNL     1     215.247 216.481 224.373  1.00  0.00     0.238 A 
ATOM      4  O   UNL     1     216.487 216.454 224.157  1.00  0.00    -0.285 OA
ATOM      5  C   UNL     1     214.509 215.295 224.601  1.00  0.00     0.111 A 
ATOM      6  C   UNL     1     215.077 213.987 224.682  1.00  0.00     0.134 A 
ATOM      7  C   UNL     1     214.235 212.875 224.805  1.00  0.00     0.093 A 
ATOM      8  C   UNL     1     212.851 213.027 224.914  1.00  0.00     0.123 A 
ATOM      9  C   UNL     1     212.291 214.302 224.892  1.00  0.00     0.094 A 
ATOM     10  C   UNL     1     213.102 215.428 224.733  1.00  0.00     0.146 A 
ATOM     11  O   UNL     1     212.523 216.623 224.695  1.00  0.00    -0.452 OA
ENDROOT
BRANCH   1  12
ATOM     12  C   UNL     1     212.428 219.023 224.496  1.00  0.00     0.021 A 
ATOM     13  C   UNL     1     212.177 219.746 225.677  1.00  0.00     0.016 A 
ATOM     14  C   UNL     1     211.471 220.953 225.629  1.00  0.00     0.047 A 
ATOM     15  C   UNL     1     211.021 221.458 224.403  1.00  0.00     0.115 A 
ATOM     16  C   UNL     1     211.990 219.547 223.268  1.00  0.00     0.016 A 
ATOM     17  C   UNL     1     211.285 220.753 223.224  1.00  0.00     0.047 A 
BRANCH  15  18
ATOM     18  O   UNL     1     210.316 222.658 224.343  1.00  0.00    -0.508 OA
ATOM     19  H   UNL     1     209.712 222.878 223.560  1.00  0.00     0.293 HD
ENDBRANCH  15  18
ENDBRANCH   1  12
BRANCH   2  20
ATOM     20  O   UNL     1     215.310 218.911 224.212  1.00  0.00    -0.502 OA
ATOM     21  H   UNL     1     215.972 219.234 224.907  1.00  0.00     0.293 HD
ENDBRANCH   2  20
BRANCH   6  22
ATOM     22  O   UNL     1     216.452 213.728 224.672  1.00  0.00    -0.507 OA
ATOM     23  H   UNL     1     216.985 213.410 225.465  1.00  0.00     0.293 HD
ENDBRANCH   6  22
BRANCH   8  24
ATOM     24  O   UNL     1     212.022 211.915 225.054  1.00  0.00    -0.508 OA
ATOM     25  H   UNL     1     211.751 211.354 224.256  1.00  0.00     0.293 HD
ENDBRANCH   8  24
TORSDOF 5
ENDMDL
MODEL 3
REMARK VINA RESULT:    -4.779      5.147      7.522
REMARK INTER + INTRA:          -5.906
REMARK INTER:                  -5.617
REMARK INTRA:                  -0.289
REMARK UNBOUND:                -0.288
REMARK SMILES O=c1c(O)c(-c2ccc(O)cc2)oc2cc(O)cc(O)c12
REMARK SMILES IDX 5 1 3 2 2 3 1 4 21 5 19 6 18 7 16 8 15 9 14 10 13 11 6 12
REMARK SMILES IDX 7 13 8 14 9 15 12 16 11 17 10 18 4 20 20 22 17 24
REMARK H PARENT 10 19 4 21 20 23 17 25
REMARK Flexibility Score: inf
ROOT
ATOM      1  C   UNL     1     221.200 216.605 224.524  1.00  0.00     0.180 A 
ATOM      2  C   UNL     1     219.805 216.640 224.357  1.00  0.00     0.208 A 
ATOM      3  C   UNL     1     219.147 217.880 224.366  1.00  0.00     0.238 A 
ATOM      4  O   UNL     1     217.910 217.908 224.141  1.00  0.00    -0.285 OA
ATOM      5  C   UNL     1     219.884 219.067 224.597  1.00  0.00     0.111 A 
ATOM      6  C   UNL     1     219.317 220.375 224.672  1.00  0.00     0.134 A 
ATOM      7  C   UNL     1     220.158 221.487 224.800  1.00  0.00     0.093 A 
ATOM      8  C   UNL     1     221.541 221.334 224.919  1.00  0.00     0.123 A 
ATOM      9  C   UNL     1     222.100 220.059 224.903  1.00  0.00     0.094 A 
ATOM     10  C   UNL     1     221.291 218.933 224.739  1.00  0.00     0.146 A 
ATOM     11  O   UNL     1     221.869 217.737 224.707  1.00  0.00    -0.452 OA
ENDROOT
BRANCH   1  12
ATOM     12  C   UNL     1     221.965 215.338 224.512  1.00  0.00     0.021 A 
ATOM     13  C   UNL     1     222.202 214.612 225.694  1.00  0.00     0.016 A 
ATOM     14  C   UNL     1     222.908 213.405 225.653  1.00  0.00     0.047 A 
ATOM     15  C   UNL     1     223.372 212.903 224.431  1.00  0.00     0.115 A 
ATOM     16  C   UNL     1     222.417 214.815 223.288  1.00  0.00     0.016 A 
ATOM     17  C   UNL     1     223.122 213.609 223.251  1.00  0.00     0.047 A 
BRANCH  15  18
ATOM     18  O   UNL     1     224.077 211.702 224.378  1.00  0.00    -0.508 OA
ATOM     19  H   UNL     1     225.074 211.666 224.557  1.00  0.00     0.293 HD
ENDBRANCH  15  18
ENDBRANCH   1  12
BRANCH   2  20
ATOM     20  O   UNL     1     219.085 215.450 224.207  1.00  0.00    -0.502 OA
ATOM     21  H   UNL     1     218.158 215.323 224.595  1.00  0.00     0.293 HD
ENDBRANCH   2  20
BRANCH   6  22
ATOM     22  O   UNL     1     217.942 220.634 224.652  1.00  0.00    -0.507 OA
ATOM     23  H   UNL     1     217.224 219.960 224.864  1.00  0.00     0.293 HD
ENDBRANCH   6  22
BRANCH   8  24
ATOM     24  O   UNL     1     222.369 222.446 225.063  1.00  0.00    -0.508 OA
ATOM     25  H   UNL     1     222.309 223.049 225.875  1.00  0.00     0.293 HD
ENDBRANCH   8  24
TORSDOF 5
ENDMDL
MODEL 4
REMARK VINA RESULT:    -4.772      6.488     10.595
REMARK INTER + INTRA:          -5.897
REMARK INTER:                  -5.609
REMARK INTRA:                  -0.288
REMARK UNBOUND:                -0.288
REMARK SMILES O=c1c(O)c(-c2ccc(O)cc2)oc2cc(O)cc(O)c12
REMARK SMILES IDX 5 1 3 2 2 3 1 4 21 5 19 6 18 7 16 8 15 9 14 10 13 11 6 12
REMARK SMILES IDX 7 13 8 14 9 15 12 16 11 17 10 18 4 20 20 22 17 24
REMARK H PARENT 10 19 4 21 20 23 17 25
REMARK Flexibility Score: inf
ROOT
ATOM      1  C   UNL     1     217.787 221.183 224.532  1.00  0.00     0.180 A 
ATOM      2  C   UNL     1     217.753 219.788 224.366  1.00  0.00     0.208 A 
ATOM      3  C   UNL     1     216.512 219.131 224.377  1.00  0.00     0.238 A 
ATOM      4  O   UNL     1     216.484 217.893 224.154  1.00  0.00    -0.285 OA
ATOM      5  C   UNL     1     215.326 219.868 224.609  1.00  0.00     0.111 A 
ATOM      6  C   UNL     1     214.018 219.300 224.687  1.00  0.00     0.134 A 
ATOM      7  C   UNL     1     212.906 220.141 224.815  1.00  0.00     0.093 A 
ATOM      8  C   UNL     1     213.058 221.525 224.933  1.00  0.00     0.123 A 
ATOM      9  C   UNL     1     214.334 222.084 224.914  1.00  0.00     0.094 A 
ATOM     10  C   UNL     1     215.460 221.275 224.749  1.00  0.00     0.146 A 
ATOM     11  O   UNL     1     216.655 221.853 224.715  1.00  0.00    -0.452 OA
ENDROOT
BRANCH   1  12
ATOM     12  C   UNL     1     219.054 221.949 224.517  1.00  0.00     0.021 A 
ATOM     13  C   UNL     1     219.782 222.185 225.698  1.00  0.00     0.016 A 
ATOM     14  C   UNL     1     220.989 222.891 225.654  1.00  0.00     0.047 A 
ATOM     15  C   UNL     1     221.489 223.356 224.431  1.00  0.00     0.115 A 
ATOM     16  C   UNL     1     219.574 222.402 223.292  1.00  0.00     0.016 A 
ATOM     17  C   UNL     1     220.780 223.107 223.252  1.00  0.00     0.047 A 
BRANCH  15  18
ATOM     18  O   UNL     1     222.690 224.061 224.376  1.00  0.00    -0.508 OA
ATOM     19  H   UNL     1     223.581 223.600 224.519  1.00  0.00     0.293 HD
ENDBRANCH  15  18
ENDBRANCH   1  12
BRANCH   2  20
ATOM     20  O   UNL     1     218.942 219.068 224.215  1.00  0.00    -0.502 OA
ATOM     21  H   UNL     1     219.845 219.521 224.134  1.00  0.00     0.293 HD
ENDBRANCH   2  20
BRANCH   6  22
ATOM     22  O   UNL     1     213.759 217.925 224.669  1.00  0.00    -0.507 OA
ATOM     23  H   UNL     1     213.811 217.339 223.851  1.00  0.00     0.293 HD
ENDBRANCH   6  22
BRANCH   8  24
ATOM     24  O   UNL     1     211.947 222.353 225.077  1.00  0.00    -0.508 OA
ATOM     25  H   UNL     1     211.033 221.978 225.300  1.00  0.00     0.293 HD
ENDBRANCH   8  24
TORSDOF 5
ENDMDL
MODEL 5
REMARK VINA RESULT:    -4.472      5.728      8.024
REMARK INTER + INTRA:          -5.544
REMARK INTER:                  -5.247
REMARK INTRA:                  -0.297
REMARK UNBOUND:                -0.288
REMARK SMILES O=c1c(O)c(-c2ccc(O)cc2)oc2cc(O)cc(O)c12
REMARK SMILES IDX 5 1 3 2 2 3 1 4 21 5 19 6 18 7 16 8 15 9 14 10 13 11 6 12
REMARK SMILES IDX 7 13 8 14 9 15 12 16 11 17 10 18 4 20 20 22 17 24
REMARK H PARENT 10 19 4 21 20 23 17 25
REMARK Flexibility Score: inf
ROOT
ATOM      1  C   UNL     1     221.847 217.441 225.049  1.00  0.00     0.180 A 
ATOM      2  C   UNL     1     222.938 218.254 225.396  1.00  0.00     0.208 A 
ATOM      3  C   UNL     1     222.798 219.650 225.328  1.00  0.00     0.238 A 
ATOM      4  O   UNL     1     223.754 220.371 225.711  1.00  0.00    -0.285 OA
ATOM      5  C   UNL     1     221.586 220.214 224.862  1.00  0.00     0.111 A 
ATOM      6  C   UNL     1     221.346 221.613 224.709  1.00  0.00     0.134 A 
ATOM      7  C   UNL     1     220.072 222.059 224.339  1.00  0.00     0.093 A 
ATOM      8  C   UNL     1     219.045 221.156 224.055  1.00  0.00     0.123 A 
ATOM      9  C   UNL     1     219.284 219.787 224.147  1.00  0.00     0.094 A 
ATOM     10  C   UNL     1     220.534 219.312 224.550  1.00  0.00     0.146 A 
ATOM     11  O   UNL     1     220.711 217.999 224.647  1.00  0.00    -0.452 OA
ENDROOT
BRANCH   1  12
ATOM     12  C   UNL     1     221.913 215.963 225.110  1.00  0.00     0.021 A 
ATOM     13  C   UNL     1     221.625 215.264 226.297  1.00  0.00     0.016 A 
ATOM     14  C   UNL     1     221.672 213.865 226.322  1.00  0.00     0.047 A 
ATOM     15  C   UNL     1     221.992 213.150 225.161  1.00  0.00     0.115 A 
ATOM     16  C   UNL     1     222.213 215.236 223.945  1.00  0.00     0.016 A 
ATOM     17  C   UNL     1     222.259 213.840 223.974  1.00  0.00     0.047 A 
BRANCH  15  18
ATOM     18  O   UNL     1     222.042 211.758 225.175  1.00  0.00    -0.508 OA
ATOM     19  H   UNL     1     221.930 211.233 226.034  1.00  0.00     0.293 HD
ENDBRANCH  15  18
ENDBRANCH   1  12
BRANCH   2  20
ATOM     20  O   UNL     1     224.152 217.677 225.781  1.00  0.00    -0.502 OA
ATOM     21  H   UNL     1     224.563 217.831 226.694  1.00  0.00     0.293 HD
ENDBRANCH   2  20
BRANCH   6  22
ATOM     22  O   UNL     1     222.324 222.598 224.881  1.00  0.00    -0.507 OA
ATOM     23  H   UNL     1     223.167 222.678 224.334  1.00  0.00     0.293 HD
ENDBRANCH   6  22
BRANCH   8  24
ATOM     24  O   UNL     1     217.785 221.609 223.671  1.00  0.00    -0.508 OA
ATOM     25  H   UNL     1     217.663 222.495 223.197  1.00  0.00     0.293 HD
ENDBRANCH   8  24
TORSDOF 5
ENDMDL
MODEL 6
REMARK VINA RESULT:    -4.467      7.213     10.575
REMARK INTER + INTRA:          -5.539
REMARK INTER:                  -5.241
REMARK INTRA:                  -0.298
REMARK UNBOUND:                -0.288
REMARK SMILES O=c1c(O)c(-c2ccc(O)cc2)oc2cc(O)cc(O)c12
REMARK SMILES IDX 5 1 3 2 2 3 1 4 21 5 19 6 18 7 16 8 15 9 14 10 13 11 6 12
REMARK SMILES IDX 7 13 8 14 9 15 12 16 11 17 10 18 4 20 20 22 17 24
REMARK H PARENT 10 19 4 21 20 23 17 25
REMARK Flexibility Score: inf
ROOT
ATOM      1  C   UNL     1     216.929 221.837 225.049  1.00  0.00     0.180 A 
ATOM      2  C   UNL     1     216.112 222.924 225.405  1.00  0.00     0.208 A 
ATOM      3  C   UNL     1     214.717 222.778 225.339  1.00  0.00     0.238 A 
ATOM      4  O   UNL     1     213.992 223.730 225.729  1.00  0.00    -0.285 OA
ATOM      5  C   UNL     1     214.157 221.568 224.865  1.00  0.00     0.111 A 
ATOM      6  C   UNL     1     212.758 221.323 224.713  1.00  0.00     0.134 A 
ATOM      7  C   UNL     1     212.315 220.050 224.336  1.00  0.00     0.093 A 
ATOM      8  C   UNL     1     213.223 219.029 224.045  1.00  0.00     0.123 A 
ATOM      9  C   UNL     1     214.591 219.272 224.136  1.00  0.00     0.094 A 
ATOM     10  C   UNL     1     215.062 220.521 224.546  1.00  0.00     0.146 A 
ATOM     11  O   UNL     1     216.374 220.702 224.640  1.00  0.00    -0.452 OA
ENDROOT
BRANCH   1  12
ATOM     12  C   UNL     1     218.407 221.909 225.107  1.00  0.00     0.021 A 
ATOM     13  C   UNL     1     219.109 221.614 226.290  1.00  0.00     0.016 A 
ATOM     14  C   UNL     1     220.507 221.666 226.313  1.00  0.00     0.047 A 
ATOM     15  C   UNL     1     221.219 221.998 225.154  1.00  0.00     0.115 A 
ATOM     16  C   UNL     1     219.130 222.222 223.944  1.00  0.00     0.016 A 
ATOM     17  C   UNL     1     220.526 222.273 223.970  1.00  0.00     0.047 A 
BRANCH  15  18
ATOM     18  O   UNL     1     222.611 222.054 225.165  1.00  0.00    -0.508 OA
ATOM     19  H   UNL     1     223.120 222.678 224.550  1.00  0.00     0.293 HD
ENDBRANCH  15  18
ENDBRANCH   1  12
BRANCH   2  20
ATOM     20  O   UNL     1     216.686 224.138 225.796  1.00  0.00    -0.502 OA
ATOM     21  H   UNL     1     217.667 224.224 226.032  1.00  0.00     0.293 HD
ENDBRANCH   2  20
BRANCH   6  22
ATOM     22  O   UNL     1     211.769 222.297 224.894  1.00  0.00    -0.507 OA
ATOM     23  H   UNL     1     211.809 223.235 224.530  1.00  0.00     0.293 HD
ENDBRANCH   6  22
BRANCH   8  24
ATOM     24  O   UNL     1     212.773 217.769 223.653  1.00  0.00    -0.508 OA
ATOM     25  H   UNL     1     213.199 216.921 224.008  1.00  0.00     0.293 HD
ENDBRANCH   8  24
TORSDOF 5
ENDMDL
MODEL 7
REMARK VINA RESULT:    -4.460      4.849      7.508
REMARK INTER + INTRA:          -5.530
REMARK INTER:                  -5.232
REMARK INTRA:                  -0.298
REMARK UNBOUND:                -0.288
REMARK SMILES O=c1c(O)c(-c2ccc(O)cc2)oc2cc(O)cc(O)c12
REMARK SMILES IDX 5 1 3 2 2 3 1 4 21 5 19 6 18 7 16 8 15 9 14 10 13 11 6 12
REMARK SMILES IDX 7 13 8 14 9 15 12 16 11 17 10 18 4 20 20 22 17 24
REMARK H PARENT 10 19 4 21 20 23 17 25
REMARK Flexibility Score: inf
ROOT
ATOM      1  C   UNL     1     212.496 216.849 225.076  1.00  0.00     0.180 A 
ATOM      2  C   UNL     1     211.427 216.011 225.435  1.00  0.00     0.208 A 
ATOM      3  C   UNL     1     211.598 214.619 225.367  1.00  0.00     0.238 A 
ATOM      4  O   UNL     1     210.662 213.876 225.760  1.00  0.00    -0.285 OA
ATOM      5  C   UNL     1     212.818 214.082 224.887  1.00  0.00     0.111 A 
ATOM      6  C   UNL     1     213.087 212.689 224.732  1.00  0.00     0.134 A 
ATOM      7  C   UNL     1     214.367 212.271 224.349  1.00  0.00     0.093 A 
ATOM      8  C   UNL     1     215.370 213.198 224.054  1.00  0.00     0.123 A 
ATOM      9  C   UNL     1     215.101 214.561 224.148  1.00  0.00     0.094 A 
ATOM     10  C   UNL     1     213.845 215.008 224.564  1.00  0.00     0.146 A 
ATOM     11  O   UNL     1     213.640 216.317 224.661  1.00  0.00    -0.452 OA
ENDROOT
BRANCH   1  12
ATOM     12  C   UNL     1     212.397 218.325 225.136  1.00  0.00     0.021 A 
ATOM     13  C   UNL     1     212.685 219.032 226.318  1.00  0.00     0.016 A 
ATOM     14  C   UNL     1     212.607 220.429 226.343  1.00  0.00     0.047 A 
ATOM     15  C   UNL     1     212.254 221.135 225.187  1.00  0.00     0.115 A 
ATOM     16  C   UNL     1     212.064 219.043 223.975  1.00  0.00     0.016 A 
ATOM     17  C   UNL     1     211.987 220.438 224.004  1.00  0.00     0.047 A 
BRANCH  15  18
ATOM     18  O   UNL     1     212.172 222.526 225.200  1.00  0.00    -0.508 OA
ATOM     19  H   UNL     1     211.967 223.051 224.358  1.00  0.00     0.293 HD
ENDBRANCH  15  18
ENDBRANCH   1  12
BRANCH   2  20
ATOM     20  O   UNL     1     210.204 216.561 225.833  1.00  0.00    -0.502 OA
ATOM     21  H   UNL     1     209.723 217.268 225.288  1.00  0.00     0.293 HD
ENDBRANCH   2  20
BRANCH   6  22
ATOM     22  O   UNL     1     212.134 211.682 224.916  1.00  0.00    -0.507 OA
ATOM     23  H   UNL     1     211.949 210.936 224.265  1.00  0.00     0.293 HD
ENDBRANCH   6  22
BRANCH   8  24
ATOM     24  O   UNL     1     216.636 212.773 223.656  1.00  0.00    -0.508 OA
ATOM     25  H   UNL     1     216.864 211.789 223.577  1.00  0.00     0.293 HD
ENDBRANCH   8  24
TORSDOF 5
ENDMDL
MODEL 8
REMARK VINA RESULT:    -4.454      1.472      3.053
REMARK INTER + INTRA:          -5.523
REMARK INTER:                  -5.225
REMARK INTRA:                  -0.298
REMARK UNBOUND:                -0.288
REMARK SMILES O=c1c(O)c(-c2ccc(O)cc2)oc2cc(O)cc(O)c12
REMARK SMILES IDX 5 1 3 2 2 3 1 4 21 5 19 6 18 7 16 8 15 9 14 10 13 11 6 12
REMARK SMILES IDX 7 13 8 14 9 15 12 16 11 17 10 18 4 20 20 22 17 24
REMARK H PARENT 10 19 4 21 20 23 17 25
REMARK Flexibility Score: inf
ROOT
ATOM      1  C   UNL     1     217.420 212.537 225.056  1.00  0.00     0.180 A 
ATOM      2  C   UNL     1     218.247 211.456 225.408  1.00  0.00     0.208 A 
ATOM      3  C   UNL     1     219.640 211.616 225.349  1.00  0.00     0.238 A 
ATOM      4  O   UNL     1     220.373 210.670 225.736  1.00  0.00    -0.285 OA
ATOM      5  C   UNL     1     220.190 212.836 224.885  1.00  0.00     0.111 A 
ATOM      6  C   UNL     1     221.587 213.096 224.741  1.00  0.00     0.134 A 
ATOM      7  C   UNL     1     222.018 214.376 224.374  1.00  0.00     0.093 A 
ATOM      8  C   UNL     1     221.101 215.390 224.085  1.00  0.00     0.123 A 
ATOM      9  C   UNL     1     219.735 215.132 224.169  1.00  0.00     0.094 A 
ATOM     10  C   UNL     1     219.275 213.875 224.569  1.00  0.00     0.146 A 
ATOM     11  O   UNL     1     217.965 213.680 224.657  1.00  0.00    -0.452 OA
ENDROOT
BRANCH   1  12
ATOM     12  C   UNL     1     215.943 212.449 225.108  1.00  0.00     0.021 A 
ATOM     13  C   UNL     1     215.231 212.751 226.284  1.00  0.00     0.016 A 
ATOM     14  C   UNL     1     213.834 212.684 226.300  1.00  0.00     0.047 A 
ATOM     15  C   UNL     1     213.132 212.330 225.141  1.00  0.00     0.115 A 
ATOM     16  C   UNL     1     215.229 212.115 223.944  1.00  0.00     0.016 A 
ATOM     17  C   UNL     1     213.834 212.049 223.964  1.00  0.00     0.047 A 
BRANCH  15  18
ATOM     18  O   UNL     1     211.740 212.259 225.146  1.00  0.00    -0.508 OA
ATOM     19  H   UNL     1     211.178 212.856 224.550  1.00  0.00     0.293 HD
ENDBRANCH  15  18
ENDBRANCH   1  12
BRANCH   2  20
ATOM     20  O   UNL     1     217.684 210.234 225.789  1.00  0.00    -0.502 OA
ATOM     21  H   UNL     1     216.694 210.126 225.973  1.00  0.00     0.293 HD
ENDBRANCH   2  20
BRANCH   6  22
ATOM     22  O   UNL     1     222.585 212.131 224.919  1.00  0.00    -0.507 OA
ATOM     23  H   UNL     1     223.487 212.144 224.471  1.00  0.00     0.293 HD
ENDBRANCH   6  22
BRANCH   8  24
ATOM     24  O   UNL     1     221.539 216.657 223.704  1.00  0.00    -0.508 OA
ATOM     25  H   UNL     1     222.013 217.271 224.355  1.00  0.00     0.293 HD
ENDBRANCH   8  24
TORSDOF 5
ENDMDL
MODEL 9
REMARK VINA RESULT:    -4.429      6.558      8.665
REMARK INTER + INTRA:          -5.495
REMARK INTER:                  -5.198
REMARK INTRA:                  -0.297
REMARK UNBOUND:                -0.288
REMARK SMILES O=c1c(O)c(-c2ccc(O)cc2)oc2cc(O)cc(O)c12
REMARK SMILES IDX 5 1 3 2 2 3 1 4 21 5 19 6 18 7 16 8 15 9 14 10 13 11 6 12
REMARK SMILES IDX 7 13 8 14 9 15 12 16 11 17 10 18 4 20 20 22 17 24
REMARK H PARENT 10 19 4 21 20 23 17 25
REMARK Flexibility Score: inf
ROOT
ATOM      1  C   UNL     1     217.781 221.049 224.974  1.00  0.00     0.180 A 
ATOM      2  C   UNL     1     217.656 219.710 224.568  1.00  0.00     0.208 A 
ATOM      3  C   UNL     1     218.813 218.927 224.436  1.00  0.00     0.238 A 
ATOM      4  O   UNL     1     218.687 217.709 224.145  1.00  0.00    -0.285 OA
ATOM      5  C   UNL     1     220.086 219.507 224.657  1.00  0.00     0.111 A 
ATOM      6  C   UNL     1     221.329 218.821 224.509  1.00  0.00     0.134 A 
ATOM      7  C   UNL     1     222.521 219.467 224.858  1.00  0.00     0.093 A 
ATOM      8  C   UNL     1     222.521 220.795 225.290  1.00  0.00     0.123 A 
ATOM      9  C   UNL     1     221.319 221.492 225.385  1.00  0.00     0.094 A 
ATOM     10  C   UNL     1     220.110 220.862 225.080  1.00  0.00     0.146 A 
ATOM     11  O   UNL     1     218.985 221.557 225.206  1.00  0.00    -0.452 OA
ENDROOT
BRANCH   1  12
ATOM     12  C   UNL     1     216.606 221.934 225.150  1.00  0.00     0.021 A 
ATOM     13  C   UNL     1     215.898 221.979 226.365  1.00  0.00     0.016 A 
ATOM     14  C   UNL     1     214.806 222.841 226.514  1.00  0.00     0.047 A 
ATOM     15  C   UNL     1     214.418 223.676 225.458  1.00  0.00     0.115 A 
ATOM     16  C   UNL     1     216.223 222.790 224.103  1.00  0.00     0.016 A 
ATOM     17  C   UNL     1     215.131 223.649 224.256  1.00  0.00     0.047 A 
BRANCH  15  18
ATOM     18  O   UNL     1     213.332 224.537 225.595  1.00  0.00    -0.508 OA
ATOM     19  H   UNL     1     213.458 225.540 225.667  1.00  0.00     0.293 HD
ENDBRANCH  15  18
ENDBRANCH   1  12
BRANCH   2  20
ATOM     20  O   UNL     1     216.396 219.177 224.279  1.00  0.00    -0.502 OA
ATOM     21  H   UNL     1     215.611 219.263 224.914  1.00  0.00     0.293 HD
ENDBRANCH   2  20
BRANCH   6  22
ATOM     22  O   UNL     1     221.451 217.522 224.003  1.00  0.00    -0.507 OA
ATOM     23  H   UNL     1     220.858 217.120 223.295  1.00  0.00     0.293 HD
ENDBRANCH   6  22
BRANCH   8  24
ATOM     24  O   UNL     1     223.714 221.436 225.618  1.00  0.00    -0.508 OA
ATOM     25  H   UNL     1     224.500 220.927 226.004  1.00  0.00     0.293 HD
ENDBRANCH   8  24
TORSDOF 5
ENDMDL
