MODEL 1
REMARK VINA RESULT:    -0.706      0.000      0.000
REMARK INTER + INTRA:          -1.152
REMARK INTER:                  -0.850
REMARK INTRA:                  -0.302
REMARK UNBOUND:                -0.302
REMARK SMILES Oc1cc(O)c2cc(O)c(-c3ccc(O)c(O)c3)[o+]c2c1.[Cl-]
REMARK SMILES IDX 10 1 19 2 20 3 21 4 2 5 3 6 4 7 6 8 7 9 8 10 11 11 12 12
REMARK SMILES IDX 13 13 14 14 18 15 16 16 15 17 17 19 9 21 1 23 5 25
REMARK H PARENT 15 18 17 20 9 22 1 24 5 26
REMARK Flexibility Score: inf
ROOT
ATOM      1  C   UNL     1      13.231  -9.984 -27.977  1.00  0.00     0.402 A 
ATOM      2  O   UNL     1      12.221 -10.561 -28.624  1.00  0.00    -0.202 OA
ATOM      3  C   UNL     1      11.809 -11.800 -28.376  1.00  0.00     0.368 A 
ATOM      4  C   UNL     1      10.737 -12.318 -29.108  1.00  0.00     0.162 A 
ATOM      5  C   UNL     1      10.281 -13.615 -28.868  1.00  0.00     0.128 A 
ATOM      6  C   UNL     1      10.899 -14.401 -27.889  1.00  0.00     0.093 A 
ATOM      7  C   UNL     1      11.974 -13.904 -27.142  1.00  0.00     0.136 A 
ATOM      8  C   UNL     1      12.443 -12.587 -27.385  1.00  0.00     0.125 A 
ATOM      9  C   UNL     1      13.523 -12.012 -26.696  1.00  0.00     0.078 A 
ATOM     10  C   UNL     1      13.931 -10.709 -26.994  1.00  0.00     0.223 A 
ENDROOT
BRANCH   1  11
ATOM     11  C   UNL     1      13.589  -8.593 -28.336  1.00  0.00     0.087 A 
ATOM     12  C   UNL     1      12.816  -7.502 -27.903  1.00  0.00     0.022 A 
ATOM     13  C   UNL     1      13.161  -6.200 -28.274  1.00  0.00     0.051 A 
ATOM     14  C   UNL     1      14.271  -5.968 -29.092  1.00  0.00     0.157 A 
ATOM     15  C   UNL     1      14.691  -8.359 -29.173  1.00  0.00     0.068 A 
ATOM     16  C   UNL     1      15.040  -7.052 -29.547  1.00  0.00     0.158 A 
BRANCH  14  17
ATOM     17  O   UNL     1      14.592  -4.658 -29.443  1.00  0.00    -0.504 OA
ATOM     18  H   UNL     1      14.661  -3.917 -28.756  1.00  0.00     0.293 HD
ENDBRANCH  14  17
BRANCH  16  19
ATOM     19  O   UNL     1      16.145  -6.829 -30.367  1.00  0.00    -0.504 OA
ATOM     20  H   UNL     1      16.119  -7.032 -31.360  1.00  0.00     0.293 HD
ENDBRANCH  16  19
ENDBRANCH   1  11
BRANCH  10  21
ATOM     21  O   UNL     1      15.034 -10.155 -26.344  1.00  0.00    -0.500 OA
ATOM     22  H   UNL     1      15.979 -10.456 -26.548  1.00  0.00     0.294 HD
ENDBRANCH  10  21
BRANCH   5  23
ATOM     23  O   UNL     1       9.210 -14.114 -29.608  1.00  0.00    -0.507 OA
ATOM     24  H   UNL     1       9.354 -14.609 -30.480  1.00  0.00     0.293 HD
ENDBRANCH   5  23
BRANCH   7  25
ATOM     25  O   UNL     1      12.535 -14.750 -26.182  1.00  0.00    -0.507 OA
ATOM     26  H   UNL     1      12.872 -15.683 -26.369  1.00  0.00     0.293 HD
ENDBRANCH   7  25
TORSDOF 6
ENDMDL
MODEL 2
REMARK VINA RESULT:     0.344      1.826      2.769
REMARK INTER + INTRA:           0.112
REMARK INTER:                   0.281
REMARK INTRA:                  -0.169
REMARK UNBOUND:                -0.302
REMARK SMILES Oc1cc(O)c2cc(O)c(-c3ccc(O)c(O)c3)[o+]c2c1.[Cl-]
REMARK SMILES IDX 10 1 19 2 20 3 21 4 2 5 3 6 4 7 6 8 7 9 8 10 11 11 12 12
REMARK SMILES IDX 13 13 14 14 18 15 16 16 15 17 17 19 9 21 1 23 5 25
REMARK H PARENT 15 18 17 20 9 22 1 24 5 26
REMARK Flexibility Score: inf
ROOT
ATOM      1  C   UNL     1      12.414  -9.965 -27.868  1.00  0.00     0.402 A 
ATOM      2  O   UNL     1      12.159 -10.144 -26.575  1.00  0.00    -0.202 OA
ATOM      3  C   UNL     1      11.662 -11.273 -26.079  1.00  0.00     0.368 A 
ATOM      4  C   UNL     1      11.431 -11.367 -24.704  1.00  0.00     0.162 A 
ATOM      5  C   UNL     1      10.912 -12.540 -24.154  1.00  0.00     0.128 A 
ATOM      6  C   UNL     1      10.624 -13.629 -24.983  1.00  0.00     0.093 A 
ATOM      7  C   UNL     1      10.847 -13.560 -26.364  1.00  0.00     0.136 A 
ATOM      8  C   UNL     1      11.371 -12.368 -26.927  1.00  0.00     0.125 A 
ATOM      9  C   UNL     1      11.614 -12.204 -28.301  1.00  0.00     0.078 A 
ATOM     10  C   UNL     1      12.128 -10.996 -28.782  1.00  0.00     0.223 A 
ENDROOT
BRANCH   1  11
ATOM     11  C   UNL     1      12.977  -8.664 -28.297  1.00  0.00     0.087 A 
ATOM     12  C   UNL     1      12.253  -7.468 -28.151  1.00  0.00     0.022 A 
ATOM     13  C   UNL     1      12.796  -6.256 -28.584  1.00  0.00     0.051 A 
ATOM     14  C   UNL     1      14.059  -6.221 -29.182  1.00  0.00     0.157 A 
ATOM     15  C   UNL     1      14.236  -8.628 -28.916  1.00  0.00     0.068 A 
ATOM     16  C   UNL     1      14.784  -7.412 -29.352  1.00  0.00     0.158 A 
BRANCH  14  17
ATOM     17  O   UNL     1      14.576  -4.995 -29.602  1.00  0.00    -0.504 OA
ATOM     18  H   UNL     1      14.295  -4.564 -30.474  1.00  0.00     0.293 HD
ENDBRANCH  14  17
BRANCH  16  19
ATOM     19  O   UNL     1      16.042  -7.385 -29.953  1.00  0.00    -0.504 OA
ATOM     20  H   UNL     1      16.681  -8.168 -29.882  1.00  0.00     0.293 HD
ENDBRANCH  16  19
ENDBRANCH   1  11
BRANCH  10  21
ATOM     21  O   UNL     1      12.323 -10.816 -30.152  1.00  0.00    -0.500 OA
ATOM     22  H   UNL     1      12.600 -11.581 -30.756  1.00  0.00     0.294 HD
ENDBRANCH  10  21
BRANCH   5  23
ATOM     23  O   UNL     1      10.689 -12.614 -22.780  1.00  0.00    -0.507 OA
ATOM     24  H   UNL     1       9.779 -12.854 -22.404  1.00  0.00     0.293 HD
ENDBRANCH   5  23
BRANCH   7  25
ATOM     25  O   UNL     1      10.536 -14.692 -27.124  1.00  0.00    -0.507 OA
ATOM     26  H   UNL     1       9.763 -14.750 -27.771  1.00  0.00     0.293 HD
ENDBRANCH   7  25
TORSDOF 6
ENDMDL
MODEL 3
REMARK VINA RESULT:     0.345      0.703      1.513
REMARK INTER + INTRA:           0.113
REMARK INTER:                   0.408
REMARK INTRA:                  -0.295
REMARK UNBOUND:                -0.302
REMARK SMILES Oc1cc(O)c2cc(O)c(-c3ccc(O)c(O)c3)[o+]c2c1.[Cl-]
REMARK SMILES IDX 10 1 19 2 20 3 21 4 2 5 3 6 4 7 6 8 7 9 8 10 11 11 12 12
REMARK SMILES IDX 13 13 14 14 18 15 16 16 15 17 17 19 9 21 1 23 5 25
REMARK H PARENT 15 18 17 20 9 22 1 24 5 26
REMARK Flexibility Score: inf
ROOT
ATOM      1  C   UNL     1      13.246  -9.715 -28.176  1.00  0.00     0.402 A 
ATOM      2  O   UNL     1      12.250 -10.285 -28.849  1.00  0.00    -0.202 OA
ATOM      3  C   UNL     1      11.779 -11.496 -28.568  1.00  0.00     0.368 A 
ATOM      4  C   UNL     1      10.726 -12.009 -29.331  1.00  0.00     0.162 A 
ATOM      5  C   UNL     1      10.210 -13.277 -29.058  1.00  0.00     0.128 A 
ATOM      6  C   UNL     1      10.748 -14.038 -28.014  1.00  0.00     0.093 A 
ATOM      7  C   UNL     1      11.802 -13.546 -27.235  1.00  0.00     0.136 A 
ATOM      8  C   UNL     1      12.332 -12.259 -27.512  1.00  0.00     0.125 A 
ATOM      9  C   UNL     1      13.397 -11.691 -26.793  1.00  0.00     0.078 A 
ATOM     10  C   UNL     1      13.868 -10.418 -27.128  1.00  0.00     0.223 A 
ENDROOT
BRANCH   1  11
ATOM     11  C   UNL     1      13.675  -8.356 -28.578  1.00  0.00     0.087 A 
ATOM     12  C   UNL     1      14.854  -8.148 -29.315  1.00  0.00     0.022 A 
ATOM     13  C   UNL     1      15.250  -6.854 -29.662  1.00  0.00     0.051 A 
ATOM     14  C   UNL     1      14.486  -5.751 -29.270  1.00  0.00     0.157 A 
ATOM     15  C   UNL     1      12.921  -7.246 -28.168  1.00  0.00     0.068 A 
ATOM     16  C   UNL     1      13.316  -5.945 -28.516  1.00  0.00     0.158 A 
BRANCH  14  17
ATOM     17  O   UNL     1      14.905  -4.472 -29.634  1.00  0.00    -0.504 OA
ATOM     18  H   UNL     1      14.913  -3.700 -28.977  1.00  0.00     0.293 HD
ENDBRANCH  14  17
BRANCH  16  19
ATOM     19  O   UNL     1      12.553  -4.849 -28.116  1.00  0.00    -0.504 OA
ATOM     20  H   UNL     1      12.084  -4.254 -28.789  1.00  0.00     0.293 HD
ENDBRANCH  16  19
ENDBRANCH   1  11
BRANCH  10  21
ATOM     21  O   UNL     1      14.957  -9.875 -26.446  1.00  0.00    -0.500 OA
ATOM     22  H   UNL     1      15.063  -9.976 -25.444  1.00  0.00     0.294 HD
ENDBRANCH  10  21
BRANCH   5  23
ATOM     23  O   UNL     1       9.160 -13.771 -29.829  1.00  0.00    -0.507 OA
ATOM     24  H   UNL     1       8.939 -14.760 -29.852  1.00  0.00     0.293 HD
ENDBRANCH   5  23
BRANCH   7  25
ATOM     25  O   UNL     1      12.282 -14.366 -26.210  1.00  0.00    -0.507 OA
ATOM     26  H   UNL     1      12.581 -14.033 -25.305  1.00  0.00     0.293 HD
ENDBRANCH   7  25
TORSDOF 6
ENDMDL
MODEL 4
REMARK VINA RESULT:     0.694      1.804      2.720
REMARK INTER + INTRA:           0.534
REMARK INTER:                   0.210
REMARK INTRA:                   0.324
REMARK UNBOUND:                -0.302
REMARK SMILES Oc1cc(O)c2cc(O)c(-c3ccc(O)c(O)c3)[o+]c2c1.[Cl-]
REMARK SMILES IDX 10 1 19 2 20 3 21 4 2 5 3 6 4 7 6 8 7 9 8 10 11 11 12 12
REMARK SMILES IDX 13 13 14 14 18 15 16 16 15 17 17 19 9 21 1 23 5 25
REMARK H PARENT 15 18 17 20 9 22 1 24 5 26
REMARK Flexibility Score: inf
ROOT
ATOM      1  C   UNL     1      13.204  -9.802 -27.523  1.00  0.00     0.402 A 
ATOM      2  O   UNL     1      14.129 -10.758 -27.501  1.00  0.00    -0.202 OA
ATOM      3  C   UNL     1      13.908 -11.977 -27.020  1.00  0.00     0.368 A 
ATOM      4  C   UNL     1      14.944 -12.915 -27.044  1.00  0.00     0.162 A 
ATOM      5  C   UNL     1      14.740 -14.203 -26.548  1.00  0.00     0.128 A 
ATOM      6  C   UNL     1      13.491 -14.559 -26.026  1.00  0.00     0.093 A 
ATOM      7  C   UNL     1      12.438 -13.638 -25.991  1.00  0.00     0.136 A 
ATOM      8  C   UNL     1      12.642 -12.325 -26.491  1.00  0.00     0.125 A 
ATOM      9  C   UNL     1      11.649 -11.333 -26.485  1.00  0.00     0.078 A 
ATOM     10  C   UNL     1      11.926 -10.060 -26.991  1.00  0.00     0.223 A 
ENDROOT
BRANCH   1  11
ATOM     11  C   UNL     1      13.569  -8.486 -28.094  1.00  0.00     0.087 A 
ATOM     12  C   UNL     1      12.845  -7.323 -27.778  1.00  0.00     0.022 A 
ATOM     13  C   UNL     1      13.195  -6.097 -28.348  1.00  0.00     0.051 A 
ATOM     14  C   UNL     1      14.259  -6.014 -29.251  1.00  0.00     0.157 A 
ATOM     15  C   UNL     1      14.624  -8.403 -29.017  1.00  0.00     0.068 A 
ATOM     16  C   UNL     1      14.977  -7.172 -29.591  1.00  0.00     0.158 A 
BRANCH  14  17
ATOM     17  O   UNL     1      14.586  -4.775 -29.802  1.00  0.00    -0.504 OA
ATOM     18  H   UNL     1      14.635  -4.627 -30.803  1.00  0.00     0.293 HD
ENDBRANCH  14  17
BRANCH  16  19
ATOM     19  O   UNL     1      16.036  -7.098 -30.495  1.00  0.00    -0.504 OA
ATOM     20  H   UNL     1      16.562  -6.242 -30.628  1.00  0.00     0.293 HD
ENDBRANCH  16  19
ENDBRANCH   1  11
BRANCH  10  21
ATOM     21  O   UNL     1      10.955  -9.060 -26.940  1.00  0.00    -0.500 OA
ATOM     22  H   UNL     1      10.053  -9.215 -26.507  1.00  0.00     0.294 HD
ENDBRANCH  10  21
BRANCH   5  23
ATOM     23  O   UNL     1      15.785 -15.125 -26.581  1.00  0.00    -0.507 OA
ATOM     24  H   UNL     1      16.092 -15.546 -27.449  1.00  0.00     0.293 HD
ENDBRANCH   5  23
BRANCH   7  25
ATOM     25  O   UNL     1      11.221 -14.071 -25.456  1.00  0.00    -0.507 OA
ATOM     26  H   UNL     1      10.398 -14.275 -26.002  1.00  0.00     0.293 HD
ENDBRANCH   7  25
TORSDOF 6
ENDMDL
