MODEL 1
REMARK VINA RESULT:    -4.913      0.000      0.000
REMARK INTER + INTRA:          -8.891
REMARK INTER:                  -7.786
REMARK INTRA:                  -1.106
REMARK UNBOUND:                -1.106
REMARK SMILES CCCCCCCCCCCC(=O)[O-]
REMARK SMILES IDX 7 1 8 2 9 3 10 4 11 5 12 6 13 7 14 8 6 9 5 10 4 11 3 12 2 13
REMARK SMILES IDX 1 14
REMARK H PARENT
REMARK Flexibility Score: inf
ROOT
ATOM      1  C   UNL     1     118.531 -82.185  22.080  1.00  0.00     0.000 C 
ENDROOT
BRANCH   1   2
ATOM      2  C   UNL     1     117.719 -83.270  21.352  1.00  0.00     0.000 C 
BRANCH   2   3
ATOM      3  C   UNL     1     116.227 -83.233  21.718  1.00  0.00     0.000 C 
BRANCH   3   4
ATOM      4  C   UNL     1     115.326 -82.910  20.513  1.00  0.00     0.006 C 
BRANCH   4   5
ATOM      5  C   UNL     1     114.094 -83.823  20.450  1.00  0.00     0.053 C 
BRANCH   5   6
ATOM      6  C   UNL     1     112.939 -83.250  21.212  1.00  0.00     0.041 C 
ATOM      7  O   UNL     1     112.648 -83.699  22.352  1.00  0.00    -0.550 OA
ATOM      8  O   UNL     1     112.162 -82.246  20.649  1.00  0.00    -0.550 OA
ENDBRANCH   5   6
ENDBRANCH   4   5
ENDBRANCH   3   4
ENDBRANCH   2   3
ENDBRANCH   1   2
BRANCH   1   9
ATOM      9  C   UNL     1     119.109 -81.134  21.117  1.00  0.00     0.000 C 
BRANCH   9  10
ATOM     10  C   UNL     1     118.107 -80.016  20.788  1.00  0.00    -0.000 C 
BRANCH  10  11
ATOM     11  C   UNL     1     117.670 -79.279  22.064  1.00  0.00    -0.000 C 
BRANCH  11  12
ATOM     12  C   UNL     1     116.163 -79.414  22.348  1.00  0.00    -0.000 C 
BRANCH  12  13
ATOM     13  C   UNL     1     115.256 -78.541  21.462  1.00  0.00    -0.003 C 
ATOM     14  C   UNL     1     114.453 -79.351  20.446  1.00  0.00     0.004 C 
ENDBRANCH  12  13
ENDBRANCH  11  12
ENDBRANCH  10  11
ENDBRANCH   9  10
ENDBRANCH   1   9
TORSDOF 10
ENDMDL
MODEL 2
REMARK VINA RESULT:    -4.853      3.351      5.003
REMARK INTER + INTRA:          -8.796
REMARK INTER:                  -7.603
REMARK INTRA:                  -1.192
REMARK UNBOUND:                -1.106
REMARK SMILES CCCCCCCCCCCC(=O)[O-]
REMARK SMILES IDX 7 1 8 2 9 3 10 4 11 5 12 6 13 7 14 8 6 9 5 10 4 11 3 12 2 13
REMARK SMILES IDX 1 14
REMARK H PARENT
REMARK Flexibility Score: inf
ROOT
ATOM      1  C   UNL     1     117.847 -80.149  22.287  1.00  0.00     0.000 C 
ENDROOT
BRANCH   1   2
ATOM      2  C   UNL     1     118.770 -80.812  21.249  1.00  0.00     0.000 C 
BRANCH   2   3
ATOM      3  C   UNL     1     118.774 -82.346  21.361  1.00  0.00     0.000 C 
BRANCH   3   4
ATOM      4  C   UNL     1     118.353 -82.841  22.755  1.00  0.00     0.006 C 
BRANCH   4   5
ATOM      5  C   UNL     1     119.550 -83.332  23.580  1.00  0.00     0.053 C 
BRANCH   5   6
ATOM      6  C   UNL     1     119.674 -82.588  24.874  1.00  0.00     0.041 C 
ATOM      7  O   UNL     1     119.456 -83.177  25.966  1.00  0.00    -0.550 OA
ATOM      8  O   UNL     1     119.996 -81.237  24.874  1.00  0.00    -0.550 OA
ENDBRANCH   5   6
ENDBRANCH   4   5
ENDBRANCH   3   4
ENDBRANCH   2   3
ENDBRANCH   1   2
BRANCH   1   9
ATOM      9  C   UNL     1     116.792 -79.237  21.640  1.00  0.00     0.000 C 
BRANCH   9  10
ATOM     10  C   UNL     1     115.903 -79.980  20.631  1.00  0.00    -0.000 C 
BRANCH  10  11
ATOM     11  C   UNL     1     114.714 -80.650  21.338  1.00  0.00    -0.000 C 
BRANCH  11  12
ATOM     12  C   UNL     1     114.942 -82.150  21.603  1.00  0.00    -0.000 C 
BRANCH  12  13
ATOM     13  C   UNL     1     115.148 -83.007  20.341  1.00  0.00    -0.003 C 
ATOM     14  C   UNL     1     114.022 -84.013  20.112  1.00  0.00     0.004 C 
ENDBRANCH  12  13
ENDBRANCH  11  12
ENDBRANCH  10  11
ENDBRANCH   9  10
ENDBRANCH   1   9
TORSDOF 10
ENDMDL
MODEL 3
REMARK VINA RESULT:    -4.835      9.251     11.435
REMARK INTER + INTRA:          -8.767
REMARK INTER:                  -7.566
REMARK INTRA:                  -1.202
REMARK UNBOUND:                -1.106
REMARK SMILES CCCCCCCCCCCC(=O)[O-]
REMARK SMILES IDX 7 1 8 2 9 3 10 4 11 5 12 6 13 7 14 8 6 9 5 10 4 11 3 12 2 13
REMARK SMILES IDX 1 14
REMARK H PARENT
REMARK Flexibility Score: inf
ROOT
ATOM      1  C   UNL     1     104.354 -82.239  23.066  1.00  0.00     0.000 C 
ENDROOT
BRANCH   1   2
ATOM      2  C   UNL     1     105.723 -81.650  22.683  1.00  0.00     0.000 C 
BRANCH   2   3
ATOM      3  C   UNL     1     106.791 -82.735  22.468  1.00  0.00     0.000 C 
BRANCH   3   4
ATOM      4  C   UNL     1     107.239 -83.396  23.783  1.00  0.00     0.006 C 
BRANCH   4   5
ATOM      5  C   UNL     1     107.930 -82.401  24.725  1.00  0.00     0.053 C 
BRANCH   5   6
ATOM      6  C   UNL     1     107.157 -82.208  25.993  1.00  0.00     0.041 C 
ATOM      7  O   UNL     1     106.475 -81.164  26.166  1.00  0.00    -0.550 OA
ATOM      8  O   UNL     1     107.219 -83.164  26.999  1.00  0.00    -0.550 OA
ENDBRANCH   5   6
ENDBRANCH   4   5
ENDBRANCH   3   4
ENDBRANCH   2   3
ENDBRANCH   1   2
BRANCH   1   9
ATOM      9  C   UNL     1     103.852 -83.277  22.049  1.00  0.00     0.000 C 
BRANCH   9  10
ATOM     10  C   UNL     1     102.885 -82.676  21.017  1.00  0.00    -0.000 C 
BRANCH  10  11
ATOM     11  C   UNL     1     103.267 -83.105  19.592  1.00  0.00    -0.000 C 
BRANCH  11  12
ATOM     12  C   UNL     1     104.687 -83.696  19.505  1.00  0.00    -0.000 C 
BRANCH  12  13
ATOM     13  C   UNL     1     105.735 -82.769  18.863  1.00  0.00    -0.003 C 
ATOM     14  C   UNL     1     105.150 -81.438  18.395  1.00  0.00     0.004 C 
ENDBRANCH  12  13
ENDBRANCH  11  12
ENDBRANCH  10  11
ENDBRANCH   9  10
ENDBRANCH   1   9
TORSDOF 10
ENDMDL
MODEL 4
REMARK VINA RESULT:    -4.789      3.519      5.843
REMARK INTER + INTRA:          -8.695
REMARK INTER:                  -7.319
REMARK INTRA:                  -1.376
REMARK UNBOUND:                -1.106
REMARK SMILES CCCCCCCCCCCC(=O)[O-]
REMARK SMILES IDX 7 1 8 2 9 3 10 4 11 5 12 6 13 7 14 8 6 9 5 10 4 11 3 12 2 13
REMARK SMILES IDX 1 14
REMARK H PARENT
REMARK Flexibility Score: inf
ROOT
ATOM      1  C   UNL     1     115.219 -81.002  21.584  1.00  0.00     0.000 C 
ENDROOT
BRANCH   1   2
ATOM      2  C   UNL     1     115.677 -79.822  20.709  1.00  0.00     0.000 C 
BRANCH   2   3
ATOM      3  C   UNL     1     115.859 -78.527  21.516  1.00  0.00     0.000 C 
BRANCH   3   4
ATOM      4  C   UNL     1     116.651 -78.743  22.817  1.00  0.00     0.006 C 
BRANCH   4   5
ATOM      5  C   UNL     1     117.727 -77.669  23.025  1.00  0.00     0.053 C 
BRANCH   5   6
ATOM      6  C   UNL     1     118.945 -78.225  23.697  1.00  0.00     0.041 C 
ATOM      7  O   UNL     1     120.082 -78.065  23.180  1.00  0.00    -0.550 OA
ATOM      8  O   UNL     1     118.821 -78.950  24.875  1.00  0.00    -0.550 OA
ENDBRANCH   5   6
ENDBRANCH   4   5
ENDBRANCH   3   4
ENDBRANCH   2   3
ENDBRANCH   1   2
BRANCH   1   9
ATOM      9  C   UNL     1     114.917 -82.265  20.761  1.00  0.00     0.000 C 
BRANCH   9  10
ATOM     10  C   UNL     1     115.956 -83.376  20.977  1.00  0.00    -0.000 C 
BRANCH  10  11
ATOM     11  C   UNL     1     116.922 -83.009  22.114  1.00  0.00    -0.000 C 
BRANCH  11  12
ATOM     12  C   UNL     1     118.384 -82.894  21.645  1.00  0.00    -0.000 C 
BRANCH  12  13
ATOM     13  C   UNL     1     119.071 -81.560  21.988  1.00  0.00    -0.003 C 
ATOM     14  C   UNL     1     119.296 -80.671  20.766  1.00  0.00     0.004 C 
ENDBRANCH  12  13
ENDBRANCH  11  12
ENDBRANCH  10  11
ENDBRANCH   9  10
ENDBRANCH   1   9
TORSDOF 10
ENDMDL
MODEL 5
REMARK VINA RESULT:    -4.758      7.211     10.289
REMARK INTER + INTRA:          -8.645
REMARK INTER:                  -7.866
REMARK INTRA:                  -0.779
REMARK UNBOUND:                -1.106
REMARK SMILES CCCCCCCCCCCC(=O)[O-]
REMARK SMILES IDX 7 1 8 2 9 3 10 4 11 5 12 6 13 7 14 8 6 9 5 10 4 11 3 12 2 13
REMARK SMILES IDX 1 14
REMARK H PARENT
REMARK Flexibility Score: inf
ROOT
ATOM      1  C   UNL     1     105.167 -83.814  22.737  1.00  0.00     0.000 C 
ENDROOT
BRANCH   1   2
ATOM      2  C   UNL     1     106.511 -84.031  23.455  1.00  0.00     0.000 C 
BRANCH   2   3
ATOM      3  C   UNL     1     106.514 -83.460  24.882  1.00  0.00     0.000 C 
BRANCH   3   4
ATOM      4  C   UNL     1     107.580 -82.369  25.083  1.00  0.00     0.006 C 
BRANCH   4   5
ATOM      5  C   UNL     1     108.716 -82.475  24.057  1.00  0.00     0.053 C 
BRANCH   5   6
ATOM      6  C   UNL     1     109.857 -81.565  24.394  1.00  0.00     0.041 C 
ATOM      7  O   UNL     1     110.203 -81.401  25.594  1.00  0.00    -0.550 OA
ATOM      8  O   UNL     1     110.515 -80.870  23.388  1.00  0.00    -0.550 OA
ENDBRANCH   5   6
ENDBRANCH   4   5
ENDBRANCH   3   4
ENDBRANCH   2   3
ENDBRANCH   1   2
BRANCH   1   9
ATOM      9  C   UNL     1     104.604 -82.399  22.953  1.00  0.00     0.000 C 
BRANCH   9  10
ATOM     10  C   UNL     1     104.338 -81.659  21.633  1.00  0.00    -0.000 C 
BRANCH  10  11
ATOM     11  C   UNL     1     105.656 -81.227  20.971  1.00  0.00    -0.000 C 
BRANCH  11  12
ATOM     12  C   UNL     1     105.446 -80.536  19.611  1.00  0.00    -0.000 C 
BRANCH  12  13
ATOM     13  C   UNL     1     105.215 -81.494  18.428  1.00  0.00    -0.003 C 
ATOM     14  C   UNL     1     106.159 -82.694  18.437  1.00  0.00     0.004 C 
ENDBRANCH  12  13
ENDBRANCH  11  12
ENDBRANCH  10  11
ENDBRANCH   9  10
ENDBRANCH   1   9
TORSDOF 10
ENDMDL
MODEL 6
REMARK VINA RESULT:    -4.755      1.001      1.572
REMARK INTER + INTRA:          -8.640
REMARK INTER:                  -7.441
REMARK INTRA:                  -1.199
REMARK UNBOUND:                -1.106
REMARK SMILES CCCCCCCCCCCC(=O)[O-]
REMARK SMILES IDX 7 1 8 2 9 3 10 4 11 5 12 6 13 7 14 8 6 9 5 10 4 11 3 12 2 13
REMARK SMILES IDX 1 14
REMARK H PARENT
REMARK Flexibility Score: inf
ROOT
ATOM      1  C   UNL     1     117.456 -83.400  21.146  1.00  0.00     0.000 C 
ENDROOT
BRANCH   1   2
ATOM      2  C   UNL     1     115.969 -83.209  21.494  1.00  0.00     0.000 C 
BRANCH   2   3
ATOM      3  C   UNL     1     115.075 -83.157  20.245  1.00  0.00     0.000 C 
BRANCH   3   4
ATOM      4  C   UNL     1     113.679 -83.757  20.488  1.00  0.00     0.006 C 
BRANCH   4   5
ATOM      5  C   UNL     1     113.126 -83.392  21.872  1.00  0.00     0.053 C 
BRANCH   5   6
ATOM      6  C   UNL     1     111.893 -82.549  21.773  1.00  0.00     0.041 C 
ATOM      7  O   UNL     1     110.978 -82.661  22.631  1.00  0.00    -0.550 OA
ATOM      8  O   UNL     1     111.737 -81.664  20.714  1.00  0.00    -0.550 OA
ENDBRANCH   5   6
ENDBRANCH   4   5
ENDBRANCH   3   4
ENDBRANCH   2   3
ENDBRANCH   1   2
BRANCH   1   9
ATOM      9  C   UNL     1     118.384 -82.566  22.045  1.00  0.00     0.000 C 
BRANCH   9  10
ATOM     10  C   UNL     1     118.585 -81.134  21.525  1.00  0.00    -0.000 C 
BRANCH  10  11
ATOM     11  C   UNL     1     117.857 -80.119  22.419  1.00  0.00    -0.000 C 
BRANCH  11  12
ATOM     12  C   UNL     1     117.107 -79.041  21.615  1.00  0.00    -0.000 C 
BRANCH  12  13
ATOM     13  C   UNL     1     115.861 -79.542  20.863  1.00  0.00    -0.003 C 
ATOM     14  C   UNL     1     114.648 -79.726  21.773  1.00  0.00     0.004 C 
ENDBRANCH  12  13
ENDBRANCH  11  12
ENDBRANCH  10  11
ENDBRANCH   9  10
ENDBRANCH   1   9
TORSDOF 10
ENDMDL
MODEL 7
REMARK VINA RESULT:    -4.741      2.938      4.883
REMARK INTER + INTRA:          -8.619
REMARK INTER:                  -7.334
REMARK INTRA:                  -1.285
REMARK UNBOUND:                -1.106
REMARK SMILES CCCCCCCCCCCC(=O)[O-]
REMARK SMILES IDX 7 1 8 2 9 3 10 4 11 5 12 6 13 7 14 8 6 9 5 10 4 11 3 12 2 13
REMARK SMILES IDX 1 14
REMARK H PARENT
REMARK Flexibility Score: inf
ROOT
ATOM      1  C   UNL     1     113.618 -83.551  20.360  1.00  0.00     0.000 C 
ENDROOT
BRANCH   1   2
ATOM      2  C   UNL     1     115.134 -83.381  20.165  1.00  0.00     0.000 C 
BRANCH   2   3
ATOM      3  C   UNL     1     115.864 -83.057  21.478  1.00  0.00     0.000 C 
BRANCH   3   4
ATOM      4  C   UNL     1     117.371 -83.362  21.412  1.00  0.00     0.006 C 
BRANCH   4   5
ATOM      5  C   UNL     1     118.225 -82.103  21.617  1.00  0.00     0.053 C 
BRANCH   5   6
ATOM      6  C   UNL     1     119.293 -82.319  22.645  1.00  0.00     0.041 C 
ATOM      7  O   UNL     1     119.390 -83.427  23.234  1.00  0.00    -0.550 OA
ATOM      8  O   UNL     1     120.158 -81.285  22.978  1.00  0.00    -0.550 OA
ENDBRANCH   5   6
ENDBRANCH   4   5
ENDBRANCH   3   4
ENDBRANCH   2   3
ENDBRANCH   1   2
BRANCH   1   9
ATOM      9  C   UNL     1     113.076 -82.715  21.532  1.00  0.00     0.000 C 
BRANCH   9  10
ATOM     10  C   UNL     1     112.380 -81.426  21.069  1.00  0.00    -0.000 C 
BRANCH  10  11
ATOM     11  C   UNL     1     113.169 -80.186  21.515  1.00  0.00    -0.000 C 
BRANCH  11  12
ATOM     12  C   UNL     1     114.081 -79.625  20.409  1.00  0.00    -0.000 C 
BRANCH  12  13
ATOM     13  C   UNL     1     115.559 -79.467  20.807  1.00  0.00    -0.003 C 
ATOM     14  C   UNL     1     115.767 -79.391  22.319  1.00  0.00     0.004 C 
ENDBRANCH  12  13
ENDBRANCH  11  12
ENDBRANCH  10  11
ENDBRANCH   9  10
ENDBRANCH   1   9
TORSDOF 10
ENDMDL
MODEL 8
REMARK VINA RESULT:    -4.738      2.329      4.669
REMARK INTER + INTRA:          -8.613
REMARK INTER:                  -7.721
REMARK INTRA:                  -0.892
REMARK UNBOUND:                -1.106
REMARK SMILES CCCCCCCCCCCC(=O)[O-]
REMARK SMILES IDX 7 1 8 2 9 3 10 4 11 5 12 6 13 7 14 8 6 9 5 10 4 11 3 12 2 13
REMARK SMILES IDX 1 14
REMARK H PARENT
REMARK Flexibility Score: inf
ROOT
ATOM      1  C   UNL     1     118.873 -83.038  22.158  1.00  0.00     0.000 C 
ENDROOT
BRANCH   1   2
ATOM      2  C   UNL     1     119.070 -81.531  22.396  1.00  0.00     0.000 C 
BRANCH   2   3
ATOM      3  C   UNL     1     119.291 -80.752  21.089  1.00  0.00     0.000 C 
BRANCH   3   4
ATOM      4  C   UNL     1     118.285 -79.603  20.905  1.00  0.00     0.006 C 
BRANCH   4   5
ATOM      5  C   UNL     1     117.289 -79.514  22.070  1.00  0.00     0.053 C 
BRANCH   5   6
ATOM      6  C   UNL     1     116.281 -78.428  21.856  1.00  0.00     0.041 C 
ATOM      7  O   UNL     1     115.372 -78.567  20.995  1.00  0.00    -0.550 OA
ATOM      8  O   UNL     1     116.364 -77.246  22.582  1.00  0.00    -0.550 OA
ENDBRANCH   5   6
ENDBRANCH   4   5
ENDBRANCH   3   4
ENDBRANCH   2   3
ENDBRANCH   1   2
BRANCH   1   9
ATOM      9  C   UNL     1     117.726 -83.336  21.179  1.00  0.00     0.000 C 
BRANCH   9  10
ATOM     10  C   UNL     1     116.342 -83.055  21.784  1.00  0.00    -0.000 C 
BRANCH  10  11
ATOM     11  C   UNL     1     115.340 -82.645  20.693  1.00  0.00    -0.000 C 
BRANCH  11  12
ATOM     12  C   UNL     1     114.136 -83.601  20.595  1.00  0.00    -0.000 C 
BRANCH  12  13
ATOM     13  C   UNL     1     112.774 -82.962  20.919  1.00  0.00    -0.003 C 
ATOM     14  C   UNL     1     112.200 -83.423  22.258  1.00  0.00     0.004 C 
ENDBRANCH  12  13
ENDBRANCH  11  12
ENDBRANCH  10  11
ENDBRANCH   9  10
ENDBRANCH   1   9
TORSDOF 10
ENDMDL
MODEL 9
REMARK VINA RESULT:    -4.722      3.135      4.497
REMARK INTER + INTRA:          -8.588
REMARK INTER:                  -7.465
REMARK INTRA:                  -1.124
REMARK UNBOUND:                -1.106
REMARK SMILES CCCCCCCCCCCC(=O)[O-]
REMARK SMILES IDX 7 1 8 2 9 3 10 4 11 5 12 6 13 7 14 8 6 9 5 10 4 11 3 12 2 13
REMARK SMILES IDX 1 14
REMARK H PARENT
REMARK Flexibility Score: inf
ROOT
ATOM      1  C   UNL     1     114.400 -82.814  20.540  1.00  0.00     0.000 C 
ENDROOT
BRANCH   1   2
ATOM      2  C   UNL     1     115.649 -83.686  20.756  1.00  0.00     0.000 C 
BRANCH   2   3
ATOM      3  C   UNL     1     116.577 -83.126  21.845  1.00  0.00     0.000 C 
BRANCH   3   4
ATOM      4  C   UNL     1     118.047 -83.057  21.395  1.00  0.00     0.006 C 
BRANCH   4   5
ATOM      5  C   UNL     1     118.932 -82.333  22.419  1.00  0.00     0.053 C 
BRANCH   5   6
ATOM      6  C   UNL     1     119.421 -81.017  21.898  1.00  0.00     0.041 C 
ATOM      7  O   UNL     1     119.668 -80.073  22.694  1.00  0.00    -0.550 OA
ATOM      8  O   UNL     1     119.571 -80.821  20.531  1.00  0.00    -0.550 OA
ENDBRANCH   5   6
ENDBRANCH   4   5
ENDBRANCH   3   4
ENDBRANCH   2   3
ENDBRANCH   1   2
BRANCH   1   9
ATOM      9  C   UNL     1     114.497 -81.457  21.257  1.00  0.00     0.000 C 
BRANCH   9  10
ATOM     10  C   UNL     1     114.873 -80.309  20.307  1.00  0.00    -0.000 C 
BRANCH  10  11
ATOM     11  C   UNL     1     116.189 -79.646  20.742  1.00  0.00    -0.000 C 
BRANCH  11  12
ATOM     12  C   UNL     1     116.184 -79.218  22.221  1.00  0.00    -0.000 C 
BRANCH  12  13
ATOM     13  C   UNL     1     116.707 -77.794  22.485  1.00  0.00    -0.003 C 
ATOM     14  C   UNL     1     115.603 -76.814  22.877  1.00  0.00     0.004 C 
ENDBRANCH  12  13
ENDBRANCH  11  12
ENDBRANCH  10  11
ENDBRANCH   9  10
ENDBRANCH   1   9
TORSDOF 10
ENDMDL
