MODEL 1
REMARK VINA RESULT:    -5.494      0.000      0.000
REMARK INTER + INTRA:          -6.586
REMARK INTER:                  -6.458
REMARK INTRA:                  -0.128
REMARK UNBOUND:                -0.128
REMARK SMILES O=C([O-])C=Cc1ccc(O)c(O)c1
REMARK SMILES IDX 6 1 13 2 7 3 11 4 8 5 9 6 5 7 4 8 2 9 1 10 3 11 12 12 10 14
REMARK H PARENT 12 13 10 15
REMARK Flexibility Score: inf
ROOT
ATOM      1  C   UNL     1       6.966   8.468 -11.766  1.00  0.00    -0.022 A 
ATOM      2  C   UNL     1       6.803   7.255 -12.464  1.00  0.00     0.058 A 
ATOM      3  C   UNL     1       6.832   9.677 -12.468  1.00  0.00     0.012 A 
ATOM      4  C   UNL     1       6.491   7.254 -13.829  1.00  0.00     0.157 A 
ATOM      5  C   UNL     1       6.518   9.678 -13.829  1.00  0.00     0.051 A 
ATOM      6  C   UNL     1       6.343   8.470 -14.515  1.00  0.00     0.157 A 
ENDROOT
BRANCH   1   7
ATOM      7  C   UNL     1       7.309   8.520 -10.323  1.00  0.00     0.010 C 
ATOM      8  C   UNL     1       6.452   8.202  -9.343  1.00  0.00     0.025 C 
BRANCH   8   9
ATOM      9  C   UNL     1       6.832   8.279  -7.923  1.00  0.00     0.064 C 
ATOM     10  O   UNL     1       8.043   8.432  -7.612  1.00  0.00    -0.545 OA
ATOM     11  O   UNL     1       5.876   8.188  -6.919  1.00  0.00    -0.545 OA
ENDBRANCH   8   9
ENDBRANCH   1   7
BRANCH   4  12
ATOM     12  O   UNL     1       6.335   6.033 -14.487  1.00  0.00    -0.504 OA
ATOM     13  H   UNL     1       5.699   5.319 -14.152  1.00  0.00     0.293 HD
ENDBRANCH   4  12
BRANCH   6  14
ATOM     14  O   UNL     1       6.028   8.474 -15.873  1.00  0.00    -0.504 OA
ATOM     15  H   UNL     1       5.140   8.121 -16.212  1.00  0.00     0.293 HD
ENDBRANCH   6  14
TORSDOF 4
ENDMDL
MODEL 2
REMARK VINA RESULT:    -5.433     10.756     14.226
REMARK INTER + INTRA:          -6.514
REMARK INTER:                  -6.389
REMARK INTRA:                  -0.124
REMARK UNBOUND:                -0.128
REMARK SMILES O=C([O-])C=Cc1ccc(O)c(O)c1
REMARK SMILES IDX 6 1 13 2 7 3 11 4 8 5 9 6 5 7 4 8 2 9 1 10 3 11 12 12 10 14
REMARK H PARENT 12 13 10 15
REMARK Flexibility Score: inf
ROOT
ATOM      1  C   UNL     1       8.726  15.698 -21.574  1.00  0.00    -0.022 A 
ATOM      2  C   UNL     1       8.364  16.989 -21.142  1.00  0.00     0.058 A 
ATOM      3  C   UNL     1       8.911  14.688 -20.615  1.00  0.00     0.012 A 
ATOM      4  C   UNL     1       8.169  17.257 -19.782  1.00  0.00     0.157 A 
ATOM      5  C   UNL     1       8.715  14.954 -19.257  1.00  0.00     0.051 A 
ATOM      6  C   UNL     1       8.341  16.235 -18.834  1.00  0.00     0.157 A 
ENDROOT
BRANCH   1   7
ATOM      7  C   UNL     1       8.955  15.368 -23.003  1.00  0.00     0.010 C 
ATOM      8  C   UNL     1       9.773  16.062 -23.805  1.00  0.00     0.025 C 
BRANCH   8   9
ATOM      9  C   UNL     1       9.961  15.706 -25.221  1.00  0.00     0.064 C 
ATOM     10  O   UNL     1      11.100  15.356 -25.627  1.00  0.00    -0.545 OA
ATOM     11  O   UNL     1       8.900  15.747 -26.118  1.00  0.00    -0.545 OA
ENDBRANCH   8   9
ENDBRANCH   1   7
BRANCH   4  12
ATOM     12  O   UNL     1       7.809  18.548 -19.392  1.00  0.00    -0.504 OA
ATOM     13  H   UNL     1       8.436  19.146 -18.867  1.00  0.00     0.293 HD
ENDBRANCH   4  12
BRANCH   6  14
ATOM     14  O   UNL     1       8.144  16.497 -17.480  1.00  0.00    -0.504 OA
ATOM     15  H   UNL     1       8.350  15.803 -16.769  1.00  0.00     0.293 HD
ENDBRANCH   6  14
TORSDOF 4
ENDMDL
MODEL 3
REMARK VINA RESULT:    -5.254     10.483     13.958
REMARK INTER + INTRA:          -6.303
REMARK INTER:                  -6.167
REMARK INTRA:                  -0.136
REMARK UNBOUND:                -0.128
REMARK SMILES O=C([O-])C=Cc1ccc(O)c(O)c1
REMARK SMILES IDX 6 1 13 2 7 3 11 4 8 5 9 6 5 7 4 8 2 9 1 10 3 11 12 12 10 14
REMARK H PARENT 12 13 10 15
REMARK Flexibility Score: inf
ROOT
ATOM      1  C   UNL     1       8.767  15.635 -21.626  1.00  0.00    -0.022 A 
ATOM      2  C   UNL     1       8.869  14.605 -20.670  1.00  0.00     0.058 A 
ATOM      3  C   UNL     1       8.484  16.940 -21.189  1.00  0.00     0.012 A 
ATOM      4  C   UNL     1       8.716  14.880 -19.306  1.00  0.00     0.157 A 
ATOM      5  C   UNL     1       8.333  17.217 -19.828  1.00  0.00     0.051 A 
ATOM      6  C   UNL     1       8.451  16.192 -18.881  1.00  0.00     0.157 A 
ENDROOT
BRANCH   1   7
ATOM      7  C   UNL     1       8.910  15.391 -23.083  1.00  0.00     0.010 C 
ATOM      8  C   UNL     1       9.800  16.022 -23.860  1.00  0.00     0.025 C 
BRANCH   8   9
ATOM      9  C   UNL     1       9.899  15.756 -25.304  1.00  0.00     0.064 C 
ATOM     10  O   UNL     1       8.866  15.822 -26.020  1.00  0.00    -0.545 OA
ATOM     11  O   UNL     1      11.117  15.435 -25.892  1.00  0.00    -0.545 OA
ENDBRANCH   8   9
ENDBRANCH   1   7
BRANCH   4  12
ATOM     12  O   UNL     1       8.827  13.835 -18.388  1.00  0.00    -0.504 OA
ATOM     13  H   UNL     1       9.271  13.957 -17.485  1.00  0.00     0.293 HD
ENDBRANCH   4  12
BRANCH   6  14
ATOM     14  O   UNL     1       8.301  16.471 -17.524  1.00  0.00    -0.504 OA
ATOM     15  H   UNL     1       8.318  17.423 -17.173  1.00  0.00     0.293 HD
ENDBRANCH   6  14
TORSDOF 4
ENDMDL
MODEL 4
REMARK VINA RESULT:    -5.110      1.905      2.411
REMARK INTER + INTRA:          -6.134
REMARK INTER:                  -6.008
REMARK INTRA:                  -0.126
REMARK UNBOUND:                -0.128
REMARK SMILES O=C([O-])C=Cc1ccc(O)c(O)c1
REMARK SMILES IDX 6 1 13 2 7 3 11 4 8 5 9 6 5 7 4 8 2 9 1 10 3 11 12 12 10 14
REMARK H PARENT 12 13 10 15
REMARK Flexibility Score: inf
ROOT
ATOM      1  C   UNL     1       7.301   7.929 -12.671  1.00  0.00    -0.022 A 
ATOM      2  C   UNL     1       8.565   8.179 -13.242  1.00  0.00     0.058 A 
ATOM      3  C   UNL     1       6.333   7.257 -13.435  1.00  0.00     0.012 A 
ATOM      4  C   UNL     1       8.860   7.746 -14.540  1.00  0.00     0.157 A 
ATOM      5  C   UNL     1       6.626   6.822 -14.730  1.00  0.00     0.051 A 
ATOM      6  C   UNL     1       7.888   7.060 -15.288  1.00  0.00     0.157 A 
ENDROOT
BRANCH   1   7
ATOM      7  C   UNL     1       6.938   8.379 -11.304  1.00  0.00     0.010 C 
ATOM      8  C   UNL     1       7.490   7.885 -10.187  1.00  0.00     0.025 C 
BRANCH   8   9
ATOM      9  C   UNL     1       7.091   8.353  -8.850  1.00  0.00     0.064 C 
ATOM     10  O   UNL     1       5.877   8.592  -8.612  1.00  0.00    -0.545 OA
ATOM     11  O   UNL     1       8.032   8.535  -7.844  1.00  0.00    -0.545 OA
ENDBRANCH   8   9
ENDBRANCH   1   7
BRANCH   4  12
ATOM     12  O   UNL     1      10.122   8.010 -15.071  1.00  0.00    -0.504 OA
ATOM     13  H   UNL     1      10.950   8.066 -14.490  1.00  0.00     0.293 HD
ENDBRANCH   4  12
BRANCH   6  14
ATOM     14  O   UNL     1       8.179   6.623 -16.578  1.00  0.00    -0.504 OA
ATOM     15  H   UNL     1       7.728   7.030 -17.391  1.00  0.00     0.293 HD
ENDBRANCH   6  14
TORSDOF 4
ENDMDL
MODEL 5
REMARK VINA RESULT:    -5.089      3.498      4.129
REMARK INTER + INTRA:          -6.110
REMARK INTER:                  -5.962
REMARK INTRA:                  -0.148
REMARK UNBOUND:                -0.128
REMARK SMILES O=C([O-])C=Cc1ccc(O)c(O)c1
REMARK SMILES IDX 6 1 13 2 7 3 11 4 8 5 9 6 5 7 4 8 2 9 1 10 3 11 12 12 10 14
REMARK H PARENT 12 13 10 15
REMARK Flexibility Score: inf
ROOT
ATOM      1  C   UNL     1       8.795   8.265 -14.684  1.00  0.00    -0.022 A 
ATOM      2  C   UNL     1      10.066   7.876 -15.152  1.00  0.00     0.058 A 
ATOM      3  C   UNL     1       7.996   9.088 -15.495  1.00  0.00     0.012 A 
ATOM      4  C   UNL     1      10.517   8.282 -16.413  1.00  0.00     0.157 A 
ATOM      5  C   UNL     1       8.444   9.493 -16.755  1.00  0.00     0.051 A 
ATOM      6  C   UNL     1       9.702   9.091 -17.222  1.00  0.00     0.157 A 
ENDROOT
BRANCH   1   7
ATOM      7  C   UNL     1       8.279   7.869 -13.350  1.00  0.00     0.010 C 
ATOM      8  C   UNL     1       7.334   8.548 -12.686  1.00  0.00     0.025 C 
BRANCH   8   9
ATOM      9  C   UNL     1       6.859   8.125 -11.359  1.00  0.00     0.064 C 
ATOM     10  O   UNL     1       7.336   8.667 -10.327  1.00  0.00    -0.545 OA
ATOM     11  O   UNL     1       5.891   7.137 -11.225  1.00  0.00    -0.545 OA
ENDBRANCH   8   9
ENDBRANCH   1   7
BRANCH   4  12
ATOM     12  O   UNL     1      11.780   7.875 -16.844  1.00  0.00    -0.504 OA
ATOM     13  H   UNL     1      12.607   7.990 -16.270  1.00  0.00     0.293 HD
ENDBRANCH   4  12
BRANCH   6  14
ATOM     14  O   UNL     1      10.145   9.495 -18.480  1.00  0.00    -0.504 OA
ATOM     15  H   UNL     1       9.645  10.193 -19.020  1.00  0.00     0.293 HD
ENDBRANCH   6  14
TORSDOF 4
ENDMDL
MODEL 6
REMARK VINA RESULT:    -5.085      3.079      3.883
REMARK INTER + INTRA:          -6.105
REMARK INTER:                  -5.964
REMARK INTRA:                  -0.141
REMARK UNBOUND:                -0.128
REMARK SMILES O=C([O-])C=Cc1ccc(O)c(O)c1
REMARK SMILES IDX 6 1 13 2 7 3 11 4 8 5 9 6 5 7 4 8 2 9 1 10 3 11 12 12 10 14
REMARK H PARENT 12 13 10 15
REMARK Flexibility Score: inf
ROOT
ATOM      1  C   UNL     1       8.338   7.739 -14.664  1.00  0.00    -0.022 A 
ATOM      2  C   UNL     1       7.733   7.539 -15.921  1.00  0.00     0.058 A 
ATOM      3  C   UNL     1       9.656   8.221 -14.615  1.00  0.00     0.012 A 
ATOM      4  C   UNL     1       8.424   7.838 -17.101  1.00  0.00     0.157 A 
ATOM      5  C   UNL     1      10.347   8.522 -15.791  1.00  0.00     0.051 A 
ATOM      6  C   UNL     1       9.736   8.336 -17.038  1.00  0.00     0.157 A 
ENDROOT
BRANCH   1   7
ATOM      7  C   UNL     1       7.649   7.425 -13.387  1.00  0.00     0.010 C 
ATOM      8  C   UNL     1       7.587   8.270 -12.349  1.00  0.00     0.025 C 
BRANCH   8   9
ATOM      9  C   UNL     1       6.903   7.912 -11.096  1.00  0.00     0.064 C 
ATOM     10  O   UNL     1       5.904   7.147 -11.131  1.00  0.00    -0.545 OA
ATOM     11  O   UNL     1       7.344   8.404  -9.873  1.00  0.00    -0.545 OA
ENDBRANCH   8   9
ENDBRANCH   1   7
BRANCH   4  12
ATOM     12  O   UNL     1       7.792   7.630 -18.327  1.00  0.00    -0.504 OA
ATOM     13  H   UNL     1       7.483   6.712 -18.624  1.00  0.00     0.293 HD
ENDBRANCH   4  12
BRANCH   6  14
ATOM     14  O   UNL     1      10.427   8.639 -18.210  1.00  0.00    -0.504 OA
ATOM     15  H   UNL     1      10.055   8.399 -19.122  1.00  0.00     0.293 HD
ENDBRANCH   6  14
TORSDOF 4
ENDMDL
MODEL 7
REMARK VINA RESULT:    -4.997      8.632     12.045
REMARK INTER + INTRA:          -6.001
REMARK INTER:                  -5.857
REMARK INTRA:                  -0.144
REMARK UNBOUND:                -0.128
REMARK SMILES O=C([O-])C=Cc1ccc(O)c(O)c1
REMARK SMILES IDX 6 1 13 2 7 3 11 4 8 5 9 6 5 7 4 8 2 9 1 10 3 11 12 12 10 14
REMARK H PARENT 12 13 10 15
REMARK Flexibility Score: inf
ROOT
ATOM      1  C   UNL     1       8.944  13.883 -20.333  1.00  0.00    -0.022 A 
ATOM      2  C   UNL     1       9.109  12.486 -20.253  1.00  0.00     0.058 A 
ATOM      3  C   UNL     1       9.137  14.657 -19.177  1.00  0.00     0.012 A 
ATOM      4  C   UNL     1       9.482  11.881 -19.047  1.00  0.00     0.157 A 
ATOM      5  C   UNL     1       9.511  14.054 -17.973  1.00  0.00     0.051 A 
ATOM      6  C   UNL     1       9.688  12.667 -17.902  1.00  0.00     0.157 A 
ENDROOT
BRANCH   1   7
ATOM      7  C   UNL     1       8.539  14.570 -21.586  1.00  0.00     0.010 C 
ATOM      8  C   UNL     1       8.979  15.782 -21.946  1.00  0.00     0.025 C 
BRANCH   8   9
ATOM      9  C   UNL     1       8.541  16.430 -23.192  1.00  0.00     0.064 C 
ATOM     10  O   UNL     1       8.110  17.613 -23.159  1.00  0.00    -0.545 OA
ATOM     11  O   UNL     1       8.598  15.759 -24.408  1.00  0.00    -0.545 OA
ENDBRANCH   8   9
ENDBRANCH   1   7
BRANCH   4  12
ATOM     12  O   UNL     1       9.639  10.495 -19.006  1.00  0.00    -0.504 OA
ATOM     13  H   UNL     1       9.332   9.896 -19.763  1.00  0.00     0.293 HD
ENDBRANCH   4  12
BRANCH   6  14
ATOM     14  O   UNL     1      10.063  12.069 -16.701  1.00  0.00    -0.504 OA
ATOM     15  H   UNL     1      10.779  11.351 -16.666  1.00  0.00     0.293 HD
ENDBRANCH   6  14
TORSDOF 4
ENDMDL
MODEL 8
REMARK VINA RESULT:    -4.975      2.888      3.713
REMARK INTER + INTRA:          -5.976
REMARK INTER:                  -5.851
REMARK INTRA:                  -0.125
REMARK UNBOUND:                -0.128
REMARK SMILES O=C([O-])C=Cc1ccc(O)c(O)c1
REMARK SMILES IDX 6 1 13 2 7 3 11 4 8 5 9 6 5 7 4 8 2 9 1 10 3 11 12 12 10 14
REMARK H PARENT 12 13 10 15
REMARK Flexibility Score: inf
ROOT
ATOM      1  C   UNL     1       7.649   9.531 -13.131  1.00  0.00    -0.022 A 
ATOM      2  C   UNL     1       7.752  10.928 -12.976  1.00  0.00     0.058 A 
ATOM      3  C   UNL     1       8.248   8.927 -14.249  1.00  0.00     0.012 A 
ATOM      4  C   UNL     1       8.460  11.698 -13.907  1.00  0.00     0.157 A 
ATOM      5  C   UNL     1       8.955   9.693 -15.178  1.00  0.00     0.051 A 
ATOM      6  C   UNL     1       9.068  11.079 -15.011  1.00  0.00     0.157 A 
ENDROOT
BRANCH   1   7
ATOM      7  C   UNL     1       6.900   8.675 -12.178  1.00  0.00     0.010 C 
ATOM      8  C   UNL     1       7.028   8.755 -10.847  1.00  0.00     0.025 C 
BRANCH   8   9
ATOM      9  C   UNL     1       6.274   7.877  -9.939  1.00  0.00     0.064 C 
ATOM     10  O   UNL     1       5.878   6.753 -10.347  1.00  0.00    -0.545 OA
ATOM     11  O   UNL     1       5.992   8.266  -8.635  1.00  0.00    -0.545 OA
ENDBRANCH   8   9
ENDBRANCH   1   7
BRANCH   4  12
ATOM     12  O   UNL     1       8.543  13.078 -13.720  1.00  0.00    -0.504 OA
ATOM     13  H   UNL     1       9.164  13.659 -14.270  1.00  0.00     0.293 HD
ENDBRANCH   4  12
BRANCH   6  14
ATOM     14  O   UNL     1       9.777  11.842 -15.938  1.00  0.00    -0.504 OA
ATOM     15  H   UNL     1       9.637  11.728 -16.936  1.00  0.00     0.293 HD
ENDBRANCH   6  14
TORSDOF 4
ENDMDL
MODEL 9
REMARK VINA RESULT:    -4.816     10.641     12.139
REMARK INTER + INTRA:          -5.789
REMARK INTER:                  -5.663
REMARK INTRA:                  -0.126
REMARK UNBOUND:                -0.128
REMARK SMILES O=C([O-])C=Cc1ccc(O)c(O)c1
REMARK SMILES IDX 6 1 13 2 7 3 11 4 8 5 9 6 5 7 4 8 2 9 1 10 3 11 12 12 10 14
REMARK H PARENT 12 13 10 15
REMARK Flexibility Score: inf
ROOT
ATOM      1  C   UNL     1       9.161  16.593 -19.306  1.00  0.00    -0.022 A 
ATOM      2  C   UNL     1       8.735  16.450 -20.642  1.00  0.00     0.058 A 
ATOM      3  C   UNL     1       9.477  15.441 -18.568  1.00  0.00     0.012 A 
ATOM      4  C   UNL     1       8.650  15.183 -21.231  1.00  0.00     0.157 A 
ATOM      5  C   UNL     1       9.395  14.176 -19.155  1.00  0.00     0.051 A 
ATOM      6  C   UNL     1       8.985  14.040 -20.487  1.00  0.00     0.157 A 
ENDROOT
BRANCH   1   7
ATOM      7  C   UNL     1       9.256  17.914 -18.635  1.00  0.00     0.010 C 
ATOM      8  C   UNL     1       8.195  18.676 -18.340  1.00  0.00     0.025 C 
BRANCH   8   9
ATOM      9  C   UNL     1       8.336  19.985 -17.683  1.00  0.00     0.064 C 
ATOM     10  O   UNL     1       9.144  20.831 -18.151  1.00  0.00    -0.545 OA
ATOM     11  O   UNL     1       7.591  20.306 -16.555  1.00  0.00    -0.545 OA
ENDBRANCH   8   9
ENDBRANCH   1   7
BRANCH   4  12
ATOM     12  O   UNL     1       8.226  15.080 -22.556  1.00  0.00    -0.504 OA
ATOM     13  H   UNL     1       8.066  14.185 -23.002  1.00  0.00     0.293 HD
ENDBRANCH   4  12
BRANCH   6  14
ATOM     14  O   UNL     1       8.906  12.777 -21.071  1.00  0.00    -0.504 OA
ATOM     15  H   UNL     1       8.191  12.553 -21.756  1.00  0.00     0.293 HD
ENDBRANCH   6  14
TORSDOF 4
ENDMDL
