MODEL 1
REMARK VINA RESULT:    -3.171      0.000      0.000
REMARK INTER + INTRA:          -7.090
REMARK INTER:                  -5.395
REMARK INTRA:                  -1.695
REMARK UNBOUND:                -1.695
REMARK SMILES CCCCCCCCCCCCCC(=O)[O-]
REMARK SMILES IDX 8 1 9 2 10 3 11 4 12 5 13 6 14 7 15 8 16 9 7 10 6 11 5 12
REMARK SMILES IDX 4 13 3 14 2 15 1 16
REMARK H PARENT
REMARK Flexibility Score: inf
ROOT
ATOM      1  C   UNL     1     -46.212 -49.960  68.140  1.00  0.00     0.000 C 
ENDROOT
BRANCH   1   2
ATOM      2  C   UNL     1     -47.537 -49.719  67.401  1.00  0.00     0.000 C 
BRANCH   2   3
ATOM      3  C   UNL     1     -47.860 -48.219  67.330  1.00  0.00     0.000 C 
BRANCH   3   4
ATOM      4  C   UNL     1     -49.368 -47.932  67.414  1.00  0.00     0.000 C 
BRANCH   4   5
ATOM      5  C   UNL     1     -49.800 -46.769  66.509  1.00  0.00     0.006 C 
BRANCH   5   6
ATOM      6  C   UNL     1     -50.019 -47.246  65.071  1.00  0.00     0.053 C 
BRANCH   6   7
ATOM      7  C   UNL     1     -49.809 -46.121  64.107  1.00  0.00     0.041 C 
ATOM      8  O   UNL     1     -50.677 -45.216  63.991  1.00  0.00    -0.550 OA
ATOM      9  O   UNL     1     -48.633 -46.046  63.372  1.00  0.00    -0.550 OA
ENDBRANCH   6   7
ENDBRANCH   5   6
ENDBRANCH   4   5
ENDBRANCH   3   4
ENDBRANCH   2   3
ENDBRANCH   1   2
BRANCH   1  10
ATOM     10  C   UNL     1     -45.301 -48.722  68.144  1.00  0.00     0.000 C 
BRANCH  10  11
ATOM     11  C   UNL     1     -44.838 -48.332  69.555  1.00  0.00    -0.000 C 
BRANCH  11  12
ATOM     12  C   UNL     1     -45.915 -48.662  70.596  1.00  0.00    -0.000 C 
BRANCH  12  13
ATOM     13  C   UNL     1     -46.719 -47.408  70.972  1.00  0.00    -0.000 C 
BRANCH  13  14
ATOM     14  C   UNL     1     -48.231 -47.676  71.082  1.00  0.00    -0.000 C 
BRANCH  14  15
ATOM     15  C   UNL     1     -48.645 -49.144  70.877  1.00  0.00    -0.003 C 
ATOM     16  C   UNL     1     -50.160 -49.332  70.808  1.00  0.00     0.004 C 
ENDBRANCH  14  15
ENDBRANCH  13  14
ENDBRANCH  12  13
ENDBRANCH  11  12
ENDBRANCH  10  11
ENDBRANCH   1  10
TORSDOF 12
ENDMDL
MODEL 2
REMARK VINA RESULT:    -3.162      5.475      7.765
REMARK INTER + INTRA:          -7.076
REMARK INTER:                  -5.607
REMARK INTRA:                  -1.469
REMARK UNBOUND:                -1.695
REMARK SMILES CCCCCCCCCCCCCC(=O)[O-]
REMARK SMILES IDX 8 1 9 2 10 3 11 4 12 5 13 6 14 7 15 8 16 9 7 10 6 11 5 12
REMARK SMILES IDX 4 13 3 14 2 15 1 16
REMARK H PARENT
REMARK Flexibility Score: inf
ROOT
ATOM      1  C   UNL     1     -44.267 -47.769  69.764  1.00  0.00     0.000 C 
ENDROOT
BRANCH   1   2
ATOM      2  C   UNL     1     -43.711 -46.382  70.124  1.00  0.00     0.000 C 
BRANCH   2   3
ATOM      3  C   UNL     1     -42.358 -46.505  70.841  1.00  0.00     0.000 C 
BRANCH   3   4
ATOM      4  C   UNL     1     -42.485 -46.406  72.370  1.00  0.00     0.000 C 
BRANCH   4   5
ATOM      5  C   UNL     1     -43.075 -45.065  72.830  1.00  0.00     0.006 C 
BRANCH   5   6
ATOM      6  C   UNL     1     -44.243 -45.283  73.796  1.00  0.00     0.053 C 
BRANCH   6   7
ATOM      7  C   UNL     1     -43.797 -45.086  75.210  1.00  0.00     0.041 C 
ATOM      8  O   UNL     1     -42.990 -45.896  75.739  1.00  0.00    -0.550 OA
ATOM      9  O   UNL     1     -44.235 -43.981  75.929  1.00  0.00    -0.550 OA
ENDBRANCH   6   7
ENDBRANCH   5   6
ENDBRANCH   4   5
ENDBRANCH   3   4
ENDBRANCH   2   3
ENDBRANCH   1   2
BRANCH   1  10
ATOM     10  C   UNL     1     -45.343 -48.250  70.750  1.00  0.00     0.000 C 
BRANCH  10  11
ATOM     11  C   UNL     1     -46.243 -47.110  71.248  1.00  0.00    -0.000 C 
BRANCH  11  12
ATOM     12  C   UNL     1     -47.723 -47.434  71.006  1.00  0.00    -0.000 C 
BRANCH  12  13
ATOM     13  C   UNL     1     -47.901 -48.891  70.555  1.00  0.00    -0.000 C 
BRANCH  13  14
ATOM     14  C   UNL     1     -48.622 -49.016  69.201  1.00  0.00    -0.000 C 
BRANCH  14  15
ATOM     15  C   UNL     1     -48.136 -48.039  68.115  1.00  0.00    -0.003 C 
ATOM     16  C   UNL     1     -46.993 -48.604  67.273  1.00  0.00     0.004 C 
ENDBRANCH  14  15
ENDBRANCH  13  14
ENDBRANCH  12  13
ENDBRANCH  11  12
ENDBRANCH  10  11
ENDBRANCH   1  10
TORSDOF 12
ENDMDL
MODEL 3
REMARK VINA RESULT:    -3.149      1.389      3.522
REMARK INTER + INTRA:          -7.052
REMARK INTER:                  -5.493
REMARK INTRA:                  -1.559
REMARK UNBOUND:                -1.695
REMARK SMILES CCCCCCCCCCCCCC(=O)[O-]
REMARK SMILES IDX 8 1 9 2 10 3 11 4 12 5 13 6 14 7 15 8 16 9 7 10 6 11 5 12
REMARK SMILES IDX 4 13 3 14 2 15 1 16
REMARK H PARENT
REMARK Flexibility Score: inf
ROOT
ATOM      1  C   UNL     1     -48.194 -47.728  71.076  1.00  0.00     0.000 C 
ENDROOT
BRANCH   1   2
ATOM      2  C   UNL     1     -48.546 -49.118  70.524  1.00  0.00     0.000 C 
BRANCH   2   3
ATOM      3  C   UNL     1     -49.579 -49.012  69.393  1.00  0.00     0.000 C 
BRANCH   3   4
ATOM      4  C   UNL     1     -48.995 -49.380  68.019  1.00  0.00     0.000 C 
BRANCH   4   5
ATOM      5  C   UNL     1     -48.436 -48.162  67.268  1.00  0.00     0.006 C 
BRANCH   5   6
ATOM      6  C   UNL     1     -49.355 -46.949  67.430  1.00  0.00     0.053 C 
BRANCH   6   7
ATOM      7  C   UNL     1     -50.275 -46.827  66.256  1.00  0.00     0.041 C 
ATOM      8  O   UNL     1     -49.805 -46.697  65.095  1.00  0.00    -0.550 OA
ATOM      9  O   UNL     1     -51.649 -46.906  66.439  1.00  0.00    -0.550 OA
ENDBRANCH   6   7
ENDBRANCH   5   6
ENDBRANCH   4   5
ENDBRANCH   3   4
ENDBRANCH   2   3
ENDBRANCH   1   2
BRANCH   1  10
ATOM     10  C   UNL     1     -46.971 -47.107  70.383  1.00  0.00     0.000 C 
BRANCH  10  11
ATOM     11  C   UNL     1     -45.764 -46.969  71.323  1.00  0.00    -0.000 C 
BRANCH  11  12
ATOM     12  C   UNL     1     -44.551 -47.732  70.775  1.00  0.00    -0.000 C 
BRANCH  12  13
ATOM     13  C   UNL     1     -44.896 -49.208  70.529  1.00  0.00    -0.000 C 
BRANCH  13  14
ATOM     14  C   UNL     1     -44.381 -49.727  69.174  1.00  0.00    -0.000 C 
BRANCH  14  15
ATOM     15  C   UNL     1     -45.105 -49.154  67.943  1.00  0.00    -0.003 C 
ATOM     16  C   UNL     1     -44.199 -48.292  67.066  1.00  0.00     0.004 C 
ENDBRANCH  14  15
ENDBRANCH  13  14
ENDBRANCH  12  13
ENDBRANCH  11  12
ENDBRANCH  10  11
ENDBRANCH   1  10
TORSDOF 12
ENDMDL
MODEL 4
REMARK VINA RESULT:    -3.143      5.147      7.474
REMARK INTER + INTRA:          -7.043
REMARK INTER:                  -5.912
REMARK INTRA:                  -1.131
REMARK UNBOUND:                -1.695
REMARK SMILES CCCCCCCCCCCCCC(=O)[O-]
REMARK SMILES IDX 8 1 9 2 10 3 11 4 12 5 13 6 14 7 15 8 16 9 7 10 6 11 5 12
REMARK SMILES IDX 4 13 3 14 2 15 1 16
REMARK H PARENT
REMARK Flexibility Score: inf
ROOT
ATOM      1  C   UNL     1     -45.948 -48.296  70.694  1.00  0.00     0.000 C 
ENDROOT
BRANCH   1   2
ATOM      2  C   UNL     1     -44.536 -47.689  70.686  1.00  0.00     0.000 C 
BRANCH   2   3
ATOM      3  C   UNL     1     -44.476 -46.432  71.567  1.00  0.00     0.000 C 
BRANCH   3   4
ATOM      4  C   UNL     1     -43.416 -45.425  71.091  1.00  0.00     0.000 C 
BRANCH   4   5
ATOM      5  C   UNL     1     -42.772 -44.651  72.251  1.00  0.00     0.006 C 
BRANCH   5   6
ATOM      6  C   UNL     1     -43.172 -45.254  73.600  1.00  0.00     0.053 C 
BRANCH   6   7
ATOM      7  C   UNL     1     -43.810 -44.217  74.470  1.00  0.00     0.041 C 
ATOM      8  O   UNL     1     -44.267 -44.533  75.600  1.00  0.00    -0.550 OA
ATOM      9  O   UNL     1     -43.855 -42.893  74.053  1.00  0.00    -0.550 OA
ENDBRANCH   6   7
ENDBRANCH   5   6
ENDBRANCH   4   5
ENDBRANCH   3   4
ENDBRANCH   2   3
ENDBRANCH   1   2
BRANCH   1  10
ATOM     10  C   UNL     1     -47.053 -47.229  70.675  1.00  0.00     0.000 C 
BRANCH  10  11
ATOM     11  C   UNL     1     -48.423 -47.787  71.084  1.00  0.00    -0.000 C 
BRANCH  11  12
ATOM     12  C   UNL     1     -48.586 -49.239  70.615  1.00  0.00    -0.000 C 
BRANCH  12  13
ATOM     13  C   UNL     1     -49.342 -49.303  69.280  1.00  0.00    -0.000 C 
BRANCH  13  14
ATOM     14  C   UNL     1     -48.412 -49.535  68.075  1.00  0.00    -0.000 C 
BRANCH  14  15
ATOM     15  C   UNL     1     -48.106 -48.278  67.241  1.00  0.00    -0.003 C 
ATOM     16  C   UNL     1     -49.187 -47.205  67.362  1.00  0.00     0.004 C 
ENDBRANCH  14  15
ENDBRANCH  13  14
ENDBRANCH  12  13
ENDBRANCH  11  12
ENDBRANCH  10  11
ENDBRANCH   1  10
TORSDOF 12
ENDMDL
MODEL 5
REMARK VINA RESULT:    -3.099      1.460      2.751
REMARK INTER + INTRA:          -6.967
REMARK INTER:                  -5.287
REMARK INTRA:                  -1.680
REMARK UNBOUND:                -1.695
REMARK SMILES CCCCCCCCCCCCCC(=O)[O-]
REMARK SMILES IDX 8 1 9 2 10 3 11 4 12 5 13 6 14 7 15 8 16 9 7 10 6 11 5 12
REMARK SMILES IDX 4 13 3 14 2 15 1 16
REMARK H PARENT
REMARK Flexibility Score: inf
ROOT
ATOM      1  C   UNL     1     -46.933 -49.805  67.707  1.00  0.00     0.000 C 
ENDROOT
BRANCH   1   2
ATOM      2  C   UNL     1     -46.264 -48.672  66.912  1.00  0.00     0.000 C 
BRANCH   2   3
ATOM      3  C   UNL     1     -46.498 -48.849  65.404  1.00  0.00     0.000 C 
BRANCH   3   4
ATOM      4  C   UNL     1     -47.990 -48.941  65.043  1.00  0.00     0.000 C 
BRANCH   4   5
ATOM      5  C   UNL     1     -48.583 -47.588  64.623  1.00  0.00     0.006 C 
BRANCH   5   6
ATOM      6  C   UNL     1     -49.630 -47.112  65.633  1.00  0.00     0.053 C 
BRANCH   6   7
ATOM      7  C   UNL     1     -50.652 -46.251  64.962  1.00  0.00     0.041 C 
ATOM      8  O   UNL     1     -51.868 -46.351  65.275  1.00  0.00    -0.550 OA
ATOM      9  O   UNL     1     -50.257 -45.304  64.027  1.00  0.00    -0.550 OA
ENDBRANCH   6   7
ENDBRANCH   5   6
ENDBRANCH   4   5
ENDBRANCH   3   4
ENDBRANCH   2   3
ENDBRANCH   1   2
BRANCH   1  10
ATOM     10  C   UNL     1     -47.961 -49.287  68.725  1.00  0.00     0.000 C 
BRANCH  10  11
ATOM     11  C   UNL     1     -47.963 -47.756  68.839  1.00  0.00    -0.000 C 
BRANCH  11  12
ATOM     12  C   UNL     1     -47.892 -47.315  70.307  1.00  0.00    -0.000 C 
BRANCH  12  13
ATOM     13  C   UNL     1     -46.718 -47.992  71.028  1.00  0.00    -0.000 C 
BRANCH  13  14
ATOM     14  C   UNL     1     -45.391 -47.228  70.865  1.00  0.00    -0.000 C 
BRANCH  14  15
ATOM     15  C   UNL     1     -44.267 -48.023  70.178  1.00  0.00    -0.003 C 
ATOM     16  C   UNL     1     -44.382 -49.530  70.398  1.00  0.00     0.004 C 
ENDBRANCH  14  15
ENDBRANCH  13  14
ENDBRANCH  12  13
ENDBRANCH  11  12
ENDBRANCH  10  11
ENDBRANCH   1  10
TORSDOF 12
ENDMDL
MODEL 6
REMARK VINA RESULT:    -3.081      1.992      3.781
REMARK INTER + INTRA:          -6.937
REMARK INTER:                  -5.611
REMARK INTRA:                  -1.326
REMARK UNBOUND:                -1.695
REMARK SMILES CCCCCCCCCCCCCC(=O)[O-]
REMARK SMILES IDX 8 1 9 2 10 3 11 4 12 5 13 6 14 7 15 8 16 9 7 10 6 11 5 12
REMARK SMILES IDX 4 13 3 14 2 15 1 16
REMARK H PARENT
REMARK Flexibility Score: inf
ROOT
ATOM      1  C   UNL     1     -48.532 -49.200  70.744  1.00  0.00     0.000 C 
ENDROOT
BRANCH   1   2
ATOM      2  C   UNL     1     -50.007 -49.477  70.413  1.00  0.00     0.000 C 
BRANCH   2   3
ATOM      3  C   UNL     1     -50.270 -49.316  68.908  1.00  0.00     0.000 C 
BRANCH   3   4
ATOM      4  C   UNL     1     -49.025 -49.604  68.054  1.00  0.00     0.000 C 
BRANCH   4   5
ATOM      5  C   UNL     1     -48.822 -48.571  66.936  1.00  0.00     0.006 C 
BRANCH   5   6
ATOM      6  C   UNL     1     -49.349 -47.197  67.358  1.00  0.00     0.053 C 
BRANCH   6   7
ATOM      7  C   UNL     1     -50.374 -46.706  66.384  1.00  0.00     0.041 C 
ATOM      8  O   UNL     1     -50.021 -46.294  65.247  1.00  0.00    -0.550 OA
ATOM      9  O   UNL     1     -51.722 -46.748  66.714  1.00  0.00    -0.550 OA
ENDBRANCH   6   7
ENDBRANCH   5   6
ENDBRANCH   4   5
ENDBRANCH   3   4
ENDBRANCH   2   3
ENDBRANCH   1   2
BRANCH   1  10
ATOM     10  C   UNL     1     -48.276 -47.735  71.131  1.00  0.00     0.000 C 
BRANCH  10  11
ATOM     11  C   UNL     1     -47.055 -47.139  70.416  1.00  0.00    -0.000 C 
BRANCH  11  12
ATOM     12  C   UNL     1     -46.003 -48.219  70.133  1.00  0.00    -0.000 C 
BRANCH  12  13
ATOM     13  C   UNL     1     -44.662 -47.868  70.796  1.00  0.00    -0.000 C 
BRANCH  13  14
ATOM     14  C   UNL     1     -44.568 -46.389  71.212  1.00  0.00    -0.000 C 
BRANCH  14  15
ATOM     15  C   UNL     1     -43.394 -46.054  72.149  1.00  0.00    -0.003 C 
ATOM     16  C   UNL     1     -43.829 -45.297  73.403  1.00  0.00     0.004 C 
ENDBRANCH  14  15
ENDBRANCH  13  14
ENDBRANCH  12  13
ENDBRANCH  11  12
ENDBRANCH  10  11
ENDBRANCH   1  10
TORSDOF 12
ENDMDL
MODEL 7
REMARK VINA RESULT:    -3.030      5.087      7.043
REMARK INTER + INTRA:          -6.851
REMARK INTER:                  -5.710
REMARK INTRA:                  -1.141
REMARK UNBOUND:                -1.695
REMARK SMILES CCCCCCCCCCCCCC(=O)[O-]
REMARK SMILES IDX 8 1 9 2 10 3 11 4 12 5 13 6 14 7 15 8 16 9 7 10 6 11 5 12
REMARK SMILES IDX 4 13 3 14 2 15 1 16
REMARK H PARENT
REMARK Flexibility Score: inf
ROOT
ATOM      1  C   UNL     1     -42.415 -45.749  71.721  1.00  0.00     0.000 C 
ENDROOT
BRANCH   1   2
ATOM      2  C   UNL     1     -43.213 -46.927  71.139  1.00  0.00     0.000 C 
BRANCH   2   3
ATOM      3  C   UNL     1     -44.648 -46.500  70.796  1.00  0.00     0.000 C 
BRANCH   3   4
ATOM      4  C   UNL     1     -45.638 -47.677  70.818  1.00  0.00     0.000 C 
BRANCH   4   5
ATOM      5  C   UNL     1     -47.086 -47.228  71.067  1.00  0.00     0.006 C 
BRANCH   5   6
ATOM      6  C   UNL     1     -48.045 -47.909  70.088  1.00  0.00     0.053 C 
BRANCH   6   7
ATOM      7  C   UNL     1     -48.700 -49.091  70.731  1.00  0.00     0.041 C 
ATOM      8  O   UNL     1     -48.044 -50.147  70.930  1.00  0.00    -0.550 OA
ATOM      9  O   UNL     1     -50.020 -49.009  71.155  1.00  0.00    -0.550 OA
ENDBRANCH   6   7
ENDBRANCH   5   6
ENDBRANCH   4   5
ENDBRANCH   3   4
ENDBRANCH   2   3
ENDBRANCH   1   2
BRANCH   1  10
ATOM     10  C   UNL     1     -43.123 -45.085  72.912  1.00  0.00     0.000 C 
BRANCH  10  11
ATOM     11  C   UNL     1     -42.863 -43.573  72.987  1.00  0.00    -0.000 C 
BRANCH  11  12
ATOM     12  C   UNL     1     -42.106 -43.084  71.745  1.00  0.00    -0.000 C 
BRANCH  12  13
ATOM     13  C   UNL     1     -42.728 -41.793  71.195  1.00  0.00    -0.000 C 
BRANCH  13  14
ATOM     14  C   UNL     1     -43.063 -41.880  69.695  1.00  0.00    -0.000 C 
BRANCH  14  15
ATOM     15  C   UNL     1     -43.475 -43.280  69.204  1.00  0.00    -0.003 C 
ATOM     16  C   UNL     1     -42.411 -43.943  68.331  1.00  0.00     0.004 C 
ENDBRANCH  14  15
ENDBRANCH  13  14
ENDBRANCH  12  13
ENDBRANCH  11  12
ENDBRANCH  10  11
ENDBRANCH   1  10
TORSDOF 12
ENDMDL
MODEL 8
REMARK VINA RESULT:    -3.017      4.153      6.714
REMARK INTER + INTRA:          -6.828
REMARK INTER:                  -5.736
REMARK INTRA:                  -1.092
REMARK UNBOUND:                -1.695
REMARK SMILES CCCCCCCCCCCCCC(=O)[O-]
REMARK SMILES IDX 8 1 9 2 10 3 11 4 12 5 13 6 14 7 15 8 16 9 7 10 6 11 5 12
REMARK SMILES IDX 4 13 3 14 2 15 1 16
REMARK H PARENT
REMARK Flexibility Score: inf
ROOT
ATOM      1  C   UNL     1     -47.946 -47.545  71.090  1.00  0.00     0.000 C 
ENDROOT
BRANCH   1   2
ATOM      2  C   UNL     1     -46.517 -47.077  70.773  1.00  0.00     0.000 C 
BRANCH   2   3
ATOM      3  C   UNL     1     -45.546 -48.267  70.741  1.00  0.00     0.000 C 
BRANCH   3   4
ATOM      4  C   UNL     1     -44.072 -47.830  70.702  1.00  0.00     0.000 C 
BRANCH   4   5
ATOM      5  C   UNL     1     -43.820 -46.527  71.474  1.00  0.00     0.006 C 
BRANCH   5   6
ATOM      6  C   UNL     1     -43.128 -45.489  70.587  1.00  0.00     0.053 C 
BRANCH   6   7
ATOM      7  C   UNL     1     -42.803 -44.259  71.374  1.00  0.00     0.041 C 
ATOM      8  O   UNL     1     -42.253 -43.275  70.813  1.00  0.00    -0.550 OA
ATOM      9  O   UNL     1     -43.152 -44.180  72.716  1.00  0.00    -0.550 OA
ENDBRANCH   6   7
ENDBRANCH   5   6
ENDBRANCH   4   5
ENDBRANCH   3   4
ENDBRANCH   2   3
ENDBRANCH   1   2
BRANCH   1  10
ATOM     10  C   UNL     1     -48.185 -49.016  70.718  1.00  0.00     0.000 C 
BRANCH  10  11
ATOM     11  C   UNL     1     -48.926 -49.176  69.382  1.00  0.00    -0.000 C 
BRANCH  11  12
ATOM     12  C   UNL     1     -47.940 -49.427  68.234  1.00  0.00    -0.000 C 
BRANCH  12  13
ATOM     13  C   UNL     1     -48.018 -48.306  67.188  1.00  0.00    -0.000 C 
BRANCH  13  14
ATOM     14  C   UNL     1     -49.081 -47.244  67.524  1.00  0.00    -0.000 C 
BRANCH  14  15
ATOM     15  C   UNL     1     -50.011 -46.868  66.357  1.00  0.00    -0.003 C 
ATOM     16  C   UNL     1     -49.421 -47.208  64.989  1.00  0.00     0.004 C 
ENDBRANCH  14  15
ENDBRANCH  13  14
ENDBRANCH  12  13
ENDBRANCH  11  12
ENDBRANCH  10  11
ENDBRANCH   1  10
TORSDOF 12
ENDMDL
MODEL 9
REMARK VINA RESULT:    -2.988      3.884      6.371
REMARK INTER + INTRA:          -6.778
REMARK INTER:                  -5.077
REMARK INTRA:                  -1.701
REMARK UNBOUND:                -1.695
REMARK SMILES CCCCCCCCCCCCCC(=O)[O-]
REMARK SMILES IDX 8 1 9 2 10 3 11 4 12 5 13 6 14 7 15 8 16 9 7 10 6 11 5 12
REMARK SMILES IDX 4 13 3 14 2 15 1 16
REMARK H PARENT
REMARK Flexibility Score: inf
ROOT
ATOM      1  C   UNL     1     -48.319 -49.166  70.402  1.00  0.00     0.000 C 
ENDROOT
BRANCH   1   2
ATOM      2  C   UNL     1     -48.213 -47.733  70.947  1.00  0.00     0.000 C 
BRANCH   2   3
ATOM      3  C   UNL     1     -46.744 -47.301  71.069  1.00  0.00     0.000 C 
BRANCH   3   4
ATOM      4  C   UNL     1     -45.763 -48.424  70.694  1.00  0.00     0.000 C 
BRANCH   4   5
ATOM      5  C   UNL     1     -44.295 -47.976  70.766  1.00  0.00     0.006 C 
BRANCH   5   6
ATOM      6  C   UNL     1     -44.127 -46.560  70.209  1.00  0.00     0.053 C 
BRANCH   6   7
ATOM      7  C   UNL     1     -43.521 -45.660  71.238  1.00  0.00     0.041 C 
ATOM      8  O   UNL     1     -43.612 -45.945  72.462  1.00  0.00    -0.550 OA
ATOM      9  O   UNL     1     -42.814 -44.532  70.845  1.00  0.00    -0.550 OA
ENDBRANCH   6   7
ENDBRANCH   5   6
ENDBRANCH   4   5
ENDBRANCH   3   4
ENDBRANCH   2   3
ENDBRANCH   1   2
BRANCH   1  10
ATOM     10  C   UNL     1     -49.006 -49.229  69.028  1.00  0.00     0.000 C 
BRANCH  10  11
ATOM     11  C   UNL     1     -48.824 -47.938  68.216  1.00  0.00    -0.000 C 
BRANCH  11  12
ATOM     12  C   UNL     1     -48.102 -48.220  66.892  1.00  0.00    -0.000 C 
BRANCH  12  13
ATOM     13  C   UNL     1     -46.961 -49.228  67.092  1.00  0.00    -0.000 C 
BRANCH  13  14
ATOM     14  C   UNL     1     -45.579 -48.648  66.736  1.00  0.00    -0.000 C 
BRANCH  14  15
ATOM     15  C   UNL     1     -44.384 -49.409  67.337  1.00  0.00    -0.003 C 
ATOM     16  C   UNL     1     -44.787 -50.722  68.005  1.00  0.00     0.004 C 
ENDBRANCH  14  15
ENDBRANCH  13  14
ENDBRANCH  12  13
ENDBRANCH  11  12
ENDBRANCH  10  11
ENDBRANCH   1  10
TORSDOF 12
ENDMDL
