MODEL 1
REMARK VINA RESULT:    -3.840      0.000      0.000
REMARK INTER + INTRA:          -9.443
REMARK INTER:                  -7.432
REMARK INTRA:                  -2.011
REMARK UNBOUND:                -2.011
REMARK SMILES CCCCCCCCCCCCCCCCCC(=O)[O-]
REMARK SMILES IDX 10 1 11 2 12 3 13 4 14 5 15 6 16 7 17 8 18 9 19 10 20 11
REMARK SMILES IDX 9 12 8 13 7 14 6 15 5 16 4 17 3 18 2 19 1 20
REMARK H PARENT
REMARK Flexibility Score: inf
ROOT
ATOM      1  C   UNL     1      19.487  13.365  31.505  1.00  0.00     0.000 C 
ENDROOT
BRANCH   1   2
ATOM      2  C   UNL     1      18.325  14.131  32.165  1.00  0.00     0.000 C 
BRANCH   2   3
ATOM      3  C   UNL     1      17.049  14.240  31.307  1.00  0.00     0.000 C 
BRANCH   3   4
ATOM      4  C   UNL     1      16.948  15.560  30.508  1.00  0.00     0.000 C 
BRANCH   4   5
ATOM      5  C   UNL     1      15.839  15.517  29.442  1.00  0.00     0.000 C 
BRANCH   5   6
ATOM      6  C   UNL     1      15.071  14.182  29.428  1.00  0.00     0.000 C 
BRANCH   6   7
ATOM      7  C   UNL     1      13.549  14.305  29.621  1.00  0.00     0.006 C 
BRANCH   7   8
ATOM      8  C   UNL     1      13.022  13.458  30.786  1.00  0.00     0.053 C 
BRANCH   8   9
ATOM      9  C   UNL     1      11.772  14.058  31.348  1.00  0.00     0.041 C 
ATOM     10  O   UNL     1      11.347  15.159  30.911  1.00  0.00    -0.550 OA
ATOM     11  O   UNL     1      11.043  13.372  32.311  1.00  0.00    -0.550 OA
ENDBRANCH   8   9
ENDBRANCH   7   8
ENDBRANCH   6   7
ENDBRANCH   5   6
ENDBRANCH   4   5
ENDBRANCH   3   4
ENDBRANCH   2   3
ENDBRANCH   1   2
BRANCH   1  12
ATOM     12  C   UNL     1      20.283  14.168  30.455  1.00  0.00     0.000 C 
BRANCH  12  13
ATOM     13  C   UNL     1      20.336  13.536  29.050  1.00  0.00    -0.000 C 
BRANCH  13  14
ATOM     14  C   UNL     1      19.468  14.239  27.991  1.00  0.00    -0.000 C 
BRANCH  14  15
ATOM     15  C   UNL     1      18.241  13.406  27.578  1.00  0.00    -0.000 C 
BRANCH  15  16
ATOM     16  C   UNL     1      17.560  13.945  26.311  1.00  0.00    -0.000 C 
BRANCH  16  17
ATOM     17  C   UNL     1      17.553  15.482  26.252  1.00  0.00    -0.000 C 
BRANCH  17  18
ATOM     18  C   UNL     1      16.198  16.057  25.796  1.00  0.00    -0.000 C 
BRANCH  18  19
ATOM     19  C   UNL     1      15.894  15.883  24.299  1.00  0.00    -0.003 C 
ATOM     20  C   UNL     1      14.951  14.714  24.011  1.00  0.00     0.004 C 
ENDBRANCH  18  19
ENDBRANCH  17  18
ENDBRANCH  16  17
ENDBRANCH  15  16
ENDBRANCH  14  15
ENDBRANCH  13  14
ENDBRANCH  12  13
ENDBRANCH   1  12
TORSDOF 16
ENDMDL
MODEL 2
REMARK VINA RESULT:    -3.820      3.248      6.071
REMARK INTER + INTRA:          -9.404
REMARK INTER:                  -7.073
REMARK INTRA:                  -2.331
REMARK UNBOUND:                -2.011
REMARK SMILES CCCCCCCCCCCCCCCCCC(=O)[O-]
REMARK SMILES IDX 10 1 11 2 12 3 13 4 14 5 15 6 16 7 17 8 18 9 19 10 20 11
REMARK SMILES IDX 9 12 8 13 7 14 6 15 5 16 4 17 3 18 2 19 1 20
REMARK H PARENT
REMARK Flexibility Score: inf
ROOT
ATOM      1  C   UNL     1      16.680  12.205  30.907  1.00  0.00     0.000 C 
ENDROOT
BRANCH   1   2
ATOM      2  C   UNL     1      17.008  13.538  31.604  1.00  0.00     0.000 C 
BRANCH   2   3
ATOM      3  C   UNL     1      18.278  14.244  31.090  1.00  0.00     0.000 C 
BRANCH   3   4
ATOM      4  C   UNL     1      18.014  15.241  29.939  1.00  0.00     0.000 C 
BRANCH   4   5
ATOM      5  C   UNL     1      16.654  15.948  30.076  1.00  0.00     0.000 C 
BRANCH   5   6
ATOM      6  C   UNL     1      15.694  15.635  28.913  1.00  0.00     0.000 C 
BRANCH   6   7
ATOM      7  C   UNL     1      16.274  14.719  27.820  1.00  0.00     0.006 C 
BRANCH   7   8
ATOM      8  C   UNL     1      15.572  14.884  26.466  1.00  0.00     0.053 C 
BRANCH   8   9
ATOM      9  C   UNL     1      16.384  15.752  25.557  1.00  0.00     0.041 C 
ATOM     10  O   UNL     1      17.563  16.065  25.868  1.00  0.00    -0.550 OA
ATOM     11  O   UNL     1      15.860  16.166  24.340  1.00  0.00    -0.550 OA
ENDBRANCH   8   9
ENDBRANCH   7   8
ENDBRANCH   6   7
ENDBRANCH   5   6
ENDBRANCH   4   5
ENDBRANCH   3   4
ENDBRANCH   2   3
ENDBRANCH   1   2
BRANCH   1  12
ATOM     12  C   UNL     1      15.212  12.050  30.455  1.00  0.00     0.000 C 
BRANCH  12  13
ATOM     13  C   UNL     1      14.219  13.028  31.112  1.00  0.00    -0.000 C 
BRANCH  13  14
ATOM     14  C   UNL     1      13.336  12.414  32.212  1.00  0.00    -0.000 C 
BRANCH  14  15
ATOM     15  C   UNL     1      11.835  12.674  31.986  1.00  0.00    -0.000 C 
BRANCH  15  16
ATOM     16  C   UNL     1      11.381  14.034  32.536  1.00  0.00    -0.000 C 
BRANCH  16  17
ATOM     17  C   UNL     1      10.598  14.859  31.501  1.00  0.00    -0.000 C 
BRANCH  17  18
ATOM     18  C   UNL     1      11.455  15.267  30.288  1.00  0.00    -0.000 C 
BRANCH  18  19
ATOM     19  C   UNL     1      10.994  14.677  28.944  1.00  0.00    -0.003 C 
ATOM     20  C   UNL     1      12.059  13.809  28.274  1.00  0.00     0.004 C 
ENDBRANCH  18  19
ENDBRANCH  17  18
ENDBRANCH  16  17
ENDBRANCH  15  16
ENDBRANCH  14  15
ENDBRANCH  13  14
ENDBRANCH  12  13
ENDBRANCH   1  12
TORSDOF 16
ENDMDL
MODEL 3
REMARK VINA RESULT:    -3.769      2.009      3.912
REMARK INTER + INTRA:          -9.305
REMARK INTER:                  -6.963
REMARK INTRA:                  -2.342
REMARK UNBOUND:                -2.011
REMARK SMILES CCCCCCCCCCCCCCCCCC(=O)[O-]
REMARK SMILES IDX 10 1 11 2 12 3 13 4 14 5 15 6 16 7 17 8 18 9 19 10 20 11
REMARK SMILES IDX 9 12 8 13 7 14 6 15 5 16 4 17 3 18 2 19 1 20
REMARK H PARENT
REMARK Flexibility Score: inf
ROOT
ATOM      1  C   UNL     1      14.951  12.344  29.769  1.00  0.00     0.000 C 
ENDROOT
BRANCH   1   2
ATOM      2  C   UNL     1      13.664  12.526  28.943  1.00  0.00     0.000 C 
BRANCH   2   3
ATOM      3  C   UNL     1      13.069  13.947  28.971  1.00  0.00     0.000 C 
BRANCH   3   4
ATOM      4  C   UNL     1      11.660  14.044  28.344  1.00  0.00     0.000 C 
BRANCH   4   5
ATOM      5  C   UNL     1      10.686  14.860  29.213  1.00  0.00     0.000 C 
BRANCH   5   6
ATOM      6  C   UNL     1      11.272  15.229  30.588  1.00  0.00     0.000 C 
BRANCH   6   7
ATOM      7  C   UNL     1      10.706  14.425  31.773  1.00  0.00     0.006 C 
BRANCH   7   8
ATOM      8  C   UNL     1      11.768  13.574  32.481  1.00  0.00     0.053 C 
BRANCH   8   9
ATOM      9  C   UNL     1      11.517  12.119  32.245  1.00  0.00     0.041 C 
ATOM     10  O   UNL     1      11.731  11.283  33.162  1.00  0.00    -0.550 OA
ATOM     11  O   UNL     1      10.989  11.691  31.033  1.00  0.00    -0.550 OA
ENDBRANCH   8   9
ENDBRANCH   7   8
ENDBRANCH   6   7
ENDBRANCH   5   6
ENDBRANCH   4   5
ENDBRANCH   3   4
ENDBRANCH   2   3
ENDBRANCH   1   2
BRANCH   1  12
ATOM     12  C   UNL     1      15.137  13.359  30.917  1.00  0.00     0.000 C 
BRANCH  12  13
ATOM     13  C   UNL     1      16.536  13.364  31.565  1.00  0.00    -0.000 C 
BRANCH  13  14
ATOM     14  C   UNL     1      17.386  14.610  31.262  1.00  0.00    -0.000 C 
BRANCH  14  15
ATOM     15  C   UNL     1      16.736  15.535  30.216  1.00  0.00    -0.000 C 
BRANCH  15  16
ATOM     16  C   UNL     1      17.213  15.238  28.787  1.00  0.00    -0.000 C 
BRANCH  16  17
ATOM     17  C   UNL     1      16.156  15.592  27.725  1.00  0.00    -0.000 C 
BRANCH  17  18
ATOM     18  C   UNL     1      15.908  14.447  26.724  1.00  0.00    -0.000 C 
BRANCH  18  19
ATOM     19  C   UNL     1      15.926  14.869  25.245  1.00  0.00    -0.003 C 
ATOM     20  C   UNL     1      16.235  16.354  25.050  1.00  0.00     0.004 C 
ENDBRANCH  18  19
ENDBRANCH  17  18
ENDBRANCH  16  17
ENDBRANCH  15  16
ENDBRANCH  14  15
ENDBRANCH  13  14
ENDBRANCH  12  13
ENDBRANCH   1  12
TORSDOF 16
ENDMDL
MODEL 4
REMARK VINA RESULT:    -3.751      2.741      5.627
REMARK INTER + INTRA:          -9.270
REMARK INTER:                  -7.215
REMARK INTRA:                  -2.055
REMARK UNBOUND:                -2.011
REMARK SMILES CCCCCCCCCCCCCCCCCC(=O)[O-]
REMARK SMILES IDX 10 1 11 2 12 3 13 4 14 5 15 6 16 7 17 8 18 9 19 10 20 11
REMARK SMILES IDX 9 12 8 13 7 14 6 15 5 16 4 17 3 18 2 19 1 20
REMARK H PARENT
REMARK Flexibility Score: inf
ROOT
ATOM      1  C   UNL     1      19.296  13.169  31.266  1.00  0.00     0.000 C 
ENDROOT
BRANCH   1   2
ATOM      2  C   UNL     1      20.326  13.815  30.319  1.00  0.00     0.000 C 
BRANCH   2   3
ATOM      3  C   UNL     1      20.016  13.657  28.818  1.00  0.00     0.000 C 
BRANCH   3   4
ATOM      4  C   UNL     1      19.277  14.868  28.205  1.00  0.00     0.000 C 
BRANCH   4   5
ATOM      5  C   UNL     1      18.578  14.518  26.879  1.00  0.00     0.000 C 
BRANCH   5   6
ATOM      6  C   UNL     1      18.515  15.706  25.901  1.00  0.00     0.000 C 
BRANCH   6   7
ATOM      7  C   UNL     1      17.095  16.140  25.495  1.00  0.00     0.006 C 
BRANCH   7   8
ATOM      8  C   UNL     1      16.078  14.993  25.557  1.00  0.00     0.053 C 
BRANCH   8   9
ATOM      9  C   UNL     1      15.483  14.747  24.206  1.00  0.00     0.041 C 
ATOM     10  O   UNL     1      14.294  14.347  24.102  1.00  0.00    -0.550 OA
ATOM     11  O   UNL     1      16.222  15.016  23.061  1.00  0.00    -0.550 OA
ENDBRANCH   8   9
ENDBRANCH   7   8
ENDBRANCH   6   7
ENDBRANCH   5   6
ENDBRANCH   4   5
ENDBRANCH   3   4
ENDBRANCH   2   3
ENDBRANCH   1   2
BRANCH   1  12
ATOM     12  C   UNL     1      18.322  14.158  31.939  1.00  0.00     0.000 C 
BRANCH  12  13
ATOM     13  C   UNL     1      16.992  14.378  31.191  1.00  0.00    -0.000 C 
BRANCH  13  14
ATOM     14  C   UNL     1      16.874  15.729  30.462  1.00  0.00    -0.000 C 
BRANCH  14  15
ATOM     15  C   UNL     1      15.899  15.681  29.272  1.00  0.00    -0.000 C 
BRANCH  15  16
ATOM     16  C   UNL     1      15.313  14.280  29.044  1.00  0.00    -0.000 C 
BRANCH  16  17
ATOM     17  C   UNL     1      13.799  14.309  28.772  1.00  0.00    -0.000 C 
BRANCH  17  18
ATOM     18  C   UNL     1      13.023  13.267  29.599  1.00  0.00    -0.000 C 
BRANCH  18  19
ATOM     19  C   UNL     1      13.236  13.362  31.120  1.00  0.00    -0.003 C 
ATOM     20  C   UNL     1      11.986  13.818  31.873  1.00  0.00     0.004 C 
ENDBRANCH  18  19
ENDBRANCH  17  18
ENDBRANCH  16  17
ENDBRANCH  15  16
ENDBRANCH  14  15
ENDBRANCH  13  14
ENDBRANCH  12  13
ENDBRANCH   1  12
TORSDOF 16
ENDMDL
MODEL 5
REMARK VINA RESULT:    -3.747      1.728      5.147
REMARK INTER + INTRA:          -9.263
REMARK INTER:                  -6.906
REMARK INTRA:                  -2.358
REMARK UNBOUND:                -2.011
REMARK SMILES CCCCCCCCCCCCCCCCCC(=O)[O-]
REMARK SMILES IDX 10 1 11 2 12 3 13 4 14 5 15 6 16 7 17 8 18 9 19 10 20 11
REMARK SMILES IDX 9 12 8 13 7 14 6 15 5 16 4 17 3 18 2 19 1 20
REMARK H PARENT
REMARK Flexibility Score: inf
ROOT
ATOM      1  C   UNL     1      14.969  13.505  24.076  1.00  0.00     0.000 C 
ENDROOT
BRANCH   1   2
ATOM      2  C   UNL     1      15.374  12.330  24.986  1.00  0.00     0.000 C 
BRANCH   2   3
ATOM      3  C   UNL     1      14.601  12.243  26.317  1.00  0.00     0.000 C 
BRANCH   3   4
ATOM      4  C   UNL     1      13.576  13.383  26.517  1.00  0.00     0.000 C 
BRANCH   4   5
ATOM      5  C   UNL     1      12.152  12.854  26.764  1.00  0.00     0.000 C 
BRANCH   5   6
ATOM      6  C   UNL     1      11.636  13.158  28.182  1.00  0.00     0.000 C 
BRANCH   6   7
ATOM      7  C   UNL     1      12.359  14.309  28.904  1.00  0.00     0.006 C 
BRANCH   7   8
ATOM      8  C   UNL     1      12.865  13.917  30.298  1.00  0.00     0.053 C 
BRANCH   8   9
ATOM      9  C   UNL     1      11.833  14.226  31.336  1.00  0.00     0.041 C 
ATOM     10  O   UNL     1      11.854  13.633  32.446  1.00  0.00    -0.550 OA
ATOM     11  O   UNL     1      10.883  15.211  31.101  1.00  0.00    -0.550 OA
ENDBRANCH   8   9
ENDBRANCH   7   8
ENDBRANCH   6   7
ENDBRANCH   5   6
ENDBRANCH   4   5
ENDBRANCH   3   4
ENDBRANCH   2   3
ENDBRANCH   1   2
BRANCH   1  12
ATOM     12  C   UNL     1      16.078  14.549  23.829  1.00  0.00     0.000 C 
BRANCH  12  13
ATOM     13  C   UNL     1      15.716  15.994  24.228  1.00  0.00    -0.000 C 
BRANCH  13  14
ATOM     14  C   UNL     1      16.189  16.416  25.630  1.00  0.00    -0.000 C 
BRANCH  14  15
ATOM     15  C   UNL     1      17.308  15.512  26.179  1.00  0.00    -0.000 C 
BRANCH  15  16
ATOM     16  C   UNL     1      16.930  14.846  27.510  1.00  0.00    -0.000 C 
BRANCH  16  17
ATOM     17  C   UNL     1      15.848  15.627  28.276  1.00  0.00    -0.000 C 
BRANCH  17  18
ATOM     18  C   UNL     1      16.198  15.834  29.762  1.00  0.00    -0.000 C 
BRANCH  18  19
ATOM     19  C   UNL     1      16.416  14.537  30.559  1.00  0.00    -0.003 C 
ATOM     20  C   UNL     1      17.704  14.550  31.383  1.00  0.00     0.004 C 
ENDBRANCH  18  19
ENDBRANCH  17  18
ENDBRANCH  16  17
ENDBRANCH  15  16
ENDBRANCH  14  15
ENDBRANCH  13  14
ENDBRANCH  12  13
ENDBRANCH   1  12
TORSDOF 16
ENDMDL
MODEL 6
REMARK VINA RESULT:    -3.732      1.845      3.085
REMARK INTER + INTRA:          -9.235
REMARK INTER:                  -7.444
REMARK INTRA:                  -1.791
REMARK UNBOUND:                -2.011
REMARK SMILES CCCCCCCCCCCCCCCCCC(=O)[O-]
REMARK SMILES IDX 10 1 11 2 12 3 13 4 14 5 15 6 16 7 17 8 18 9 19 10 20 11
REMARK SMILES IDX 9 12 8 13 7 14 6 15 5 16 4 17 3 18 2 19 1 20
REMARK H PARENT
REMARK Flexibility Score: inf
ROOT
ATOM      1  C   UNL     1      17.247  15.462  30.150  1.00  0.00     0.000 C 
ENDROOT
BRANCH   1   2
ATOM      2  C   UNL     1      17.147  14.429  31.288  1.00  0.00     0.000 C 
BRANCH   2   3
ATOM      3  C   UNL     1      16.587  13.055  30.871  1.00  0.00     0.000 C 
BRANCH   3   4
ATOM      4  C   UNL     1      15.299  12.654  31.625  1.00  0.00     0.000 C 
BRANCH   4   5
ATOM      5  C   UNL     1      14.025  13.141  30.911  1.00  0.00     0.000 C 
BRANCH   5   6
ATOM      6  C   UNL     1      12.743  12.871  31.719  1.00  0.00     0.000 C 
BRANCH   6   7
ATOM      7  C   UNL     1      11.765  14.057  31.802  1.00  0.00     0.006 C 
BRANCH   7   8
ATOM      8  C   UNL     1      11.770  14.927  30.538  1.00  0.00     0.053 C 
BRANCH   8   9
ATOM      9  C   UNL     1      10.600  14.594  29.668  1.00  0.00     0.041 C 
ATOM     10  O   UNL     1       9.465  14.405  30.179  1.00  0.00    -0.550 OA
ATOM     11  O   UNL     1      10.749  14.551  28.288  1.00  0.00    -0.550 OA
ENDBRANCH   8   9
ENDBRANCH   7   8
ENDBRANCH   6   7
ENDBRANCH   5   6
ENDBRANCH   4   5
ENDBRANCH   3   4
ENDBRANCH   2   3
ENDBRANCH   1   2
BRANCH   1  12
ATOM     12  C   UNL     1      15.915  15.777  29.437  1.00  0.00     0.000 C 
BRANCH  12  13
ATOM     13  C   UNL     1      15.956  15.673  27.899  1.00  0.00    -0.000 C 
BRANCH  13  14
ATOM     14  C   UNL     1      17.263  15.098  27.323  1.00  0.00    -0.000 C 
BRANCH  14  15
ATOM     15  C   UNL     1      17.597  15.660  25.929  1.00  0.00    -0.000 C 
BRANCH  15  16
ATOM     16  C   UNL     1      16.401  16.366  25.274  1.00  0.00    -0.000 C 
BRANCH  16  17
ATOM     17  C   UNL     1      15.890  15.627  24.026  1.00  0.00    -0.000 C 
BRANCH  17  18
ATOM     18  C   UNL     1      14.844  14.546  24.357  1.00  0.00    -0.000 C 
BRANCH  18  19
ATOM     19  C   UNL     1      15.388  13.107  24.377  1.00  0.00    -0.003 C 
ATOM     20  C   UNL     1      15.223  12.422  25.734  1.00  0.00     0.004 C 
ENDBRANCH  18  19
ENDBRANCH  17  18
ENDBRANCH  16  17
ENDBRANCH  15  16
ENDBRANCH  14  15
ENDBRANCH  13  14
ENDBRANCH  12  13
ENDBRANCH   1  12
TORSDOF 16
ENDMDL
MODEL 7
REMARK VINA RESULT:    -3.712      1.879      3.141
REMARK INTER + INTRA:          -9.195
REMARK INTER:                  -7.065
REMARK INTRA:                  -2.130
REMARK UNBOUND:                -2.011
REMARK SMILES CCCCCCCCCCCCCCCCCC(=O)[O-]
REMARK SMILES IDX 10 1 11 2 12 3 13 4 14 5 15 6 16 7 17 8 18 9 19 10 20 11
REMARK SMILES IDX 9 12 8 13 7 14 6 15 5 16 4 17 3 18 2 19 1 20
REMARK H PARENT
REMARK Flexibility Score: inf
ROOT
ATOM      1  C   UNL     1      17.521  12.370  30.353  1.00  0.00     0.000 C 
ENDROOT
BRANCH   1   2
ATOM      2  C   UNL     1      16.228  11.831  29.712  1.00  0.00     0.000 C 
BRANCH   2   3
ATOM      3  C   UNL     1      14.956  12.016  30.561  1.00  0.00     0.000 C 
BRANCH   3   4
ATOM      4  C   UNL     1      13.805  12.725  29.812  1.00  0.00     0.000 C 
BRANCH   4   5
ATOM      5  C   UNL     1      13.242  13.922  30.599  1.00  0.00     0.000 C 
BRANCH   5   6
ATOM      6  C   UNL     1      11.955  13.581  31.372  1.00  0.00     0.000 C 
BRANCH   6   7
ATOM      7  C   UNL     1      10.925  14.722  31.456  1.00  0.00     0.006 C 
BRANCH   7   8
ATOM      8  C   UNL     1       9.572  14.354  30.834  1.00  0.00     0.053 C 
BRANCH   8   9
ATOM      9  C   UNL     1       9.617  14.519  29.347  1.00  0.00     0.041 C 
ATOM     10  O   UNL     1      10.309  15.437  28.833  1.00  0.00    -0.550 OA
ATOM     11  O   UNL     1       8.942  13.624  28.527  1.00  0.00    -0.550 OA
ENDBRANCH   8   9
ENDBRANCH   7   8
ENDBRANCH   6   7
ENDBRANCH   5   6
ENDBRANCH   4   5
ENDBRANCH   3   4
ENDBRANCH   2   3
ENDBRANCH   1   2
BRANCH   1  12
ATOM     12  C   UNL     1      17.312  13.223  31.622  1.00  0.00     0.000 C 
BRANCH  12  13
ATOM     13  C   UNL     1      17.684  14.712  31.477  1.00  0.00    -0.000 C 
BRANCH  13  14
ATOM     14  C   UNL     1      17.596  15.265  30.044  1.00  0.00    -0.000 C 
BRANCH  14  15
ATOM     15  C   UNL     1      16.209  15.844  29.713  1.00  0.00    -0.000 C 
BRANCH  15  16
ATOM     16  C   UNL     1      15.818  15.640  28.242  1.00  0.00    -0.000 C 
BRANCH  16  17
ATOM     17  C   UNL     1      16.838  14.783  27.472  1.00  0.00    -0.000 C 
BRANCH  17  18
ATOM     18  C   UNL     1      17.384  15.487  26.216  1.00  0.00    -0.000 C 
BRANCH  18  19
ATOM     19  C   UNL     1      16.368  16.379  25.483  1.00  0.00    -0.003 C 
ATOM     20  C   UNL     1      15.782  15.719  24.235  1.00  0.00     0.004 C 
ENDBRANCH  18  19
ENDBRANCH  17  18
ENDBRANCH  16  17
ENDBRANCH  15  16
ENDBRANCH  14  15
ENDBRANCH  13  14
ENDBRANCH  12  13
ENDBRANCH   1  12
TORSDOF 16
ENDMDL
MODEL 8
REMARK VINA RESULT:    -3.697      2.835      4.016
REMARK INTER + INTRA:          -9.166
REMARK INTER:                  -6.720
REMARK INTRA:                  -2.447
REMARK UNBOUND:                -2.011
REMARK SMILES CCCCCCCCCCCCCCCCCC(=O)[O-]
REMARK SMILES IDX 10 1 11 2 12 3 13 4 14 5 15 6 16 7 17 8 18 9 19 10 20 11
REMARK SMILES IDX 9 12 8 13 7 14 6 15 5 16 4 17 3 18 2 19 1 20
REMARK H PARENT
REMARK Flexibility Score: inf
ROOT
ATOM      1  C   UNL     1      16.405  12.234  30.835  1.00  0.00     0.000 C 
ENDROOT
BRANCH   1   2
ATOM      2  C   UNL     1      15.003  12.654  31.315  1.00  0.00     0.000 C 
BRANCH   2   3
ATOM      3  C   UNL     1      13.967  12.861  30.193  1.00  0.00     0.000 C 
BRANCH   3   4
ATOM      4  C   UNL     1      13.058  14.093  30.404  1.00  0.00     0.000 C 
BRANCH   4   5
ATOM      5  C   UNL     1      12.246  14.445  29.145  1.00  0.00     0.000 C 
BRANCH   5   6
ATOM      6  C   UNL     1      10.923  15.164  29.466  1.00  0.00     0.000 C 
BRANCH   6   7
ATOM      7  C   UNL     1       9.667  14.524  28.846  1.00  0.00     0.006 C 
BRANCH   7   8
ATOM      8  C   UNL     1       8.913  15.473  27.906  1.00  0.00     0.053 C 
BRANCH   8   9
ATOM      9  C   UNL     1       9.271  15.192  26.481  1.00  0.00     0.041 C 
ATOM     10  O   UNL     1       9.016  16.040  25.586  1.00  0.00    -0.550 OA
ATOM     11  O   UNL     1       9.940  14.021  26.149  1.00  0.00    -0.550 OA
ENDBRANCH   8   9
ENDBRANCH   7   8
ENDBRANCH   6   7
ENDBRANCH   5   6
ENDBRANCH   4   5
ENDBRANCH   3   4
ENDBRANCH   2   3
ENDBRANCH   1   2
BRANCH   1  12
ATOM     12  C   UNL     1      17.574  13.005  31.483  1.00  0.00     0.000 C 
BRANCH  12  13
ATOM     13  C   UNL     1      17.406  14.537  31.520  1.00  0.00    -0.000 C 
BRANCH  13  14
ATOM     14  C   UNL     1      17.526  15.235  30.154  1.00  0.00    -0.000 C 
BRANCH  14  15
ATOM     15  C   UNL     1      16.222  15.932  29.725  1.00  0.00    -0.000 C 
BRANCH  15  16
ATOM     16  C   UNL     1      15.818  15.594  28.282  1.00  0.00    -0.000 C 
BRANCH  16  17
ATOM     17  C   UNL     1      16.749  14.555  27.635  1.00  0.00    -0.000 C 
BRANCH  17  18
ATOM     18  C   UNL     1      15.989  13.335  27.079  1.00  0.00    -0.000 C 
BRANCH  18  19
ATOM     19  C   UNL     1      14.624  13.659  26.448  1.00  0.00    -0.003 C 
ATOM     20  C   UNL     1      14.709  13.944  24.948  1.00  0.00     0.004 C 
ENDBRANCH  18  19
ENDBRANCH  17  18
ENDBRANCH  16  17
ENDBRANCH  15  16
ENDBRANCH  14  15
ENDBRANCH  13  14
ENDBRANCH  12  13
ENDBRANCH   1  12
TORSDOF 16
ENDMDL
MODEL 9
REMARK VINA RESULT:    -3.682      1.770      4.622
REMARK INTER + INTRA:          -9.137
REMARK INTER:                  -6.336
REMARK INTRA:                  -2.802
REMARK UNBOUND:                -2.011
REMARK SMILES CCCCCCCCCCCCCCCCCC(=O)[O-]
REMARK SMILES IDX 10 1 11 2 12 3 13 4 14 5 15 6 16 7 17 8 18 9 19 10 20 11
REMARK SMILES IDX 9 12 8 13 7 14 6 15 5 16 4 17 3 18 2 19 1 20
REMARK H PARENT
REMARK Flexibility Score: inf
ROOT
ATOM      1  C   UNL     1      17.191  12.805  27.016  1.00  0.00     0.000 C 
ENDROOT
BRANCH   1   2
ATOM      2  C   UNL     1      17.319  11.967  28.302  1.00  0.00     0.000 C 
BRANCH   2   3
ATOM      3  C   UNL     1      15.980  11.580  28.960  1.00  0.00     0.000 C 
BRANCH   3   4
ATOM      4  C   UNL     1      14.739  11.998  28.139  1.00  0.00     0.000 C 
BRANCH   4   5
ATOM      5  C   UNL     1      13.540  12.363  29.032  1.00  0.00     0.000 C 
BRANCH   5   6
ATOM      6  C   UNL     1      12.702  13.524  28.467  1.00  0.00     0.000 C 
BRANCH   6   7
ATOM      7  C   UNL     1      12.147  14.499  29.522  1.00  0.00     0.006 C 
BRANCH   7   8
ATOM      8  C   UNL     1      12.518  14.104  30.957  1.00  0.00     0.053 C 
BRANCH   8   9
ATOM      9  C   UNL     1      11.366  14.341  31.880  1.00  0.00     0.041 C 
ATOM     10  O   UNL     1      11.483  14.108  33.112  1.00  0.00    -0.550 OA
ATOM     11  O   UNL     1      10.181  14.876  31.391  1.00  0.00    -0.550 OA
ENDBRANCH   8   9
ENDBRANCH   7   8
ENDBRANCH   6   7
ENDBRANCH   5   6
ENDBRANCH   4   5
ENDBRANCH   3   4
ENDBRANCH   2   3
ENDBRANCH   1   2
BRANCH   1  12
ATOM     12  C   UNL     1      18.187  13.978  26.901  1.00  0.00     0.000 C 
BRANCH  12  13
ATOM     13  C   UNL     1      17.671  15.329  27.434  1.00  0.00    -0.000 C 
BRANCH  13  14
ATOM     14  C   UNL     1      16.141  15.428  27.575  1.00  0.00    -0.000 C 
BRANCH  14  15
ATOM     15  C   UNL     1      15.689  15.621  29.034  1.00  0.00    -0.000 C 
BRANCH  15  16
ATOM     16  C   UNL     1      16.864  15.621  30.023  1.00  0.00    -0.000 C 
BRANCH  16  17
ATOM     17  C   UNL     1      16.794  14.456  31.025  1.00  0.00    -0.000 C 
BRANCH  17  18
ATOM     18  C   UNL     1      18.158  14.133  31.663  1.00  0.00    -0.000 C 
BRANCH  18  19
ATOM     19  C   UNL     1      18.120  13.047  32.752  1.00  0.00    -0.003 C 
ATOM     20  C   UNL     1      16.944  12.082  32.594  1.00  0.00     0.004 C 
ENDBRANCH  18  19
ENDBRANCH  17  18
ENDBRANCH  16  17
ENDBRANCH  15  16
ENDBRANCH  14  15
ENDBRANCH  13  14
ENDBRANCH  12  13
ENDBRANCH   1  12
TORSDOF 16
ENDMDL
