MODEL 1
REMARK VINA RESULT:    -4.873      0.000      0.000
REMARK INTER + INTRA:         -10.381
REMARK INTER:                  -8.860
REMARK INTRA:                  -1.521
REMARK UNBOUND:                -1.521
REMARK SMILES CCCCCCCCCCCCCCCC(=O)[O-]
REMARK SMILES IDX 9 1 10 2 11 3 12 4 13 5 14 6 15 7 16 8 17 9 18 10 8 11 7 12
REMARK SMILES IDX 6 13 5 14 4 15 3 16 2 17 1 18
REMARK H PARENT
REMARK Flexibility Score: inf
ROOT
ATOM      1  C   UNL     1       1.375 -37.849  19.670  1.00  0.00     0.000 C 
ENDROOT
BRANCH   1   2
ATOM      2  C   UNL     1       0.599 -37.646  20.981  1.00  0.00     0.000 C 
BRANCH   2   3
ATOM      3  C   UNL     1      -0.136 -36.297  21.029  1.00  0.00     0.000 C 
BRANCH   3   4
ATOM      4  C   UNL     1      -1.659 -36.503  21.024  1.00  0.00     0.000 C 
BRANCH   4   5
ATOM      5  C   UNL     1      -2.399 -35.469  21.887  1.00  0.00     0.000 C 
BRANCH   5   6
ATOM      6  C   UNL     1      -1.455 -34.430  22.508  1.00  0.00     0.006 C 
BRANCH   6   7
ATOM      7  C   UNL     1      -2.245 -33.260  23.105  1.00  0.00     0.053 C 
BRANCH   7   8
ATOM      8  C   UNL     1      -1.502 -32.660  24.257  1.00  0.00     0.041 C 
ATOM      9  O   UNL     1      -1.660 -33.116  25.419  1.00  0.00    -0.550 OA
ATOM     10  O   UNL     1      -0.671 -31.566  24.054  1.00  0.00    -0.550 OA
ENDBRANCH   7   8
ENDBRANCH   6   7
ENDBRANCH   5   6
ENDBRANCH   4   5
ENDBRANCH   3   4
ENDBRANCH   2   3
ENDBRANCH   1   2
BRANCH   1  11
ATOM     11  C   UNL     1       1.914 -36.529  19.090  1.00  0.00     0.000 C 
BRANCH  11  12
ATOM     12  C   UNL     1       2.849 -36.748  17.890  1.00  0.00    -0.000 C 
BRANCH  12  13
ATOM     13  C   UNL     1       4.305 -36.358  18.198  1.00  0.00    -0.000 C 
BRANCH  13  14
ATOM     14  C   UNL     1       5.106 -37.513  18.820  1.00  0.00    -0.000 C 
BRANCH  14  15
ATOM     15  C   UNL     1       5.740 -37.136  20.170  1.00  0.00    -0.000 C 
BRANCH  15  16
ATOM     16  C   UNL     1       4.724 -37.151  21.323  1.00  0.00    -0.000 C 
BRANCH  16  17
ATOM     17  C   UNL     1       4.686 -35.824  22.094  1.00  0.00    -0.003 C 
ATOM     18  C   UNL     1       3.250 -35.353  22.306  1.00  0.00     0.004 C 
ENDBRANCH  16  17
ENDBRANCH  15  16
ENDBRANCH  14  15
ENDBRANCH  13  14
ENDBRANCH  12  13
ENDBRANCH  11  12
ENDBRANCH   1  11
TORSDOF 14
ENDMDL
MODEL 2
REMARK VINA RESULT:    -4.596      2.929      7.103
REMARK INTER + INTRA:          -9.878
REMARK INTER:                  -8.614
REMARK INTRA:                  -1.264
REMARK UNBOUND:                -1.521
REMARK SMILES CCCCCCCCCCCCCCCC(=O)[O-]
REMARK SMILES IDX 9 1 10 2 11 3 12 4 13 5 14 6 15 7 16 8 17 9 18 10 8 11 7 12
REMARK SMILES IDX 6 13 5 14 4 15 3 16 2 17 1 18
REMARK H PARENT
REMARK Flexibility Score: inf
ROOT
ATOM      1  C   UNL     1       1.433 -38.005  20.661  1.00  0.00     0.000 C 
ENDROOT
BRANCH   1   2
ATOM      2  C   UNL     1       1.495 -38.123  19.130  1.00  0.00     0.000 C 
BRANCH   2   3
ATOM      3  C   UNL     1       2.370 -37.034  18.489  1.00  0.00     0.000 C 
BRANCH   3   4
ATOM      4  C   UNL     1       3.670 -37.633  17.931  1.00  0.00     0.000 C 
BRANCH   4   5
ATOM      5  C   UNL     1       4.917 -37.155  18.692  1.00  0.00     0.000 C 
BRANCH   5   6
ATOM      6  C   UNL     1       5.038 -37.783  20.087  1.00  0.00     0.006 C 
BRANCH   6   7
ATOM      7  C   UNL     1       5.742 -36.829  21.058  1.00  0.00     0.053 C 
BRANCH   7   8
ATOM      8  C   UNL     1       4.738 -36.082  21.878  1.00  0.00     0.041 C 
ATOM      9  O   UNL     1       3.785 -35.480  21.319  1.00  0.00    -0.550 OA
ATOM     10  O   UNL     1       4.883 -36.009  23.258  1.00  0.00    -0.550 OA
ENDBRANCH   7   8
ENDBRANCH   6   7
ENDBRANCH   5   6
ENDBRANCH   4   5
ENDBRANCH   3   4
ENDBRANCH   2   3
ENDBRANCH   1   2
BRANCH   1  11
ATOM     11  C   UNL     1       0.011 -37.724  21.177  1.00  0.00     0.000 C 
BRANCH  11  12
ATOM     12  C   UNL     1      -0.412 -36.259  20.983  1.00  0.00    -0.000 C 
BRANCH  12  13
ATOM     13  C   UNL     1      -1.913 -36.114  20.678  1.00  0.00    -0.000 C 
BRANCH  13  14
ATOM     14  C   UNL     1      -2.757 -37.217  21.336  1.00  0.00    -0.000 C 
BRANCH  14  15
ATOM     15  C   UNL     1      -3.669 -37.945  20.332  1.00  0.00    -0.000 C 
BRANCH  15  16
ATOM     16  C   UNL     1      -3.210 -37.760  18.877  1.00  0.00    -0.000 C 
BRANCH  16  17
ATOM     17  C   UNL     1      -4.369 -37.413  17.932  1.00  0.00    -0.003 C 
ATOM     18  C   UNL     1      -4.396 -35.920  17.620  1.00  0.00     0.004 C 
ENDBRANCH  16  17
ENDBRANCH  15  16
ENDBRANCH  14  15
ENDBRANCH  13  14
ENDBRANCH  12  13
ENDBRANCH  11  12
ENDBRANCH   1  11
TORSDOF 14
ENDMDL
MODEL 3
REMARK VINA RESULT:    -4.577      2.570      6.578
REMARK INTER + INTRA:          -9.843
REMARK INTER:                  -7.996
REMARK INTRA:                  -1.846
REMARK UNBOUND:                -1.521
REMARK SMILES CCCCCCCCCCCCCCCC(=O)[O-]
REMARK SMILES IDX 9 1 10 2 11 3 12 4 13 5 14 6 15 7 16 8 17 9 18 10 8 11 7 12
REMARK SMILES IDX 6 13 5 14 4 15 3 16 2 17 1 18
REMARK H PARENT
REMARK Flexibility Score: inf
ROOT
ATOM      1  C   UNL     1       1.970 -35.989  19.138  1.00  0.00     0.000 C 
ENDROOT
BRANCH   1   2
ATOM      2  C   UNL     1       2.188 -37.337  18.431  1.00  0.00     0.000 C 
BRANCH   2   3
ATOM      3  C   UNL     1       3.478 -37.363  17.596  1.00  0.00     0.000 C 
BRANCH   3   4
ATOM      4  C   UNL     1       4.626 -38.016  18.380  1.00  0.00     0.000 C 
BRANCH   4   5
ATOM      5  C   UNL     1       5.719 -37.012  18.778  1.00  0.00     0.000 C 
BRANCH   5   6
ATOM      6  C   UNL     1       6.093 -37.101  20.265  1.00  0.00     0.006 C 
BRANCH   6   7
ATOM      7  C   UNL     1       4.846 -37.312  21.131  1.00  0.00     0.053 C 
BRANCH   7   8
ATOM      8  C   UNL     1       4.771 -36.271  22.203  1.00  0.00     0.041 C 
ATOM      9  O   UNL     1       3.874 -35.389  22.167  1.00  0.00    -0.550 OA
ATOM     10  O   UNL     1       5.722 -36.245  23.215  1.00  0.00    -0.550 OA
ENDBRANCH   7   8
ENDBRANCH   6   7
ENDBRANCH   5   6
ENDBRANCH   4   5
ENDBRANCH   3   4
ENDBRANCH   2   3
ENDBRANCH   1   2
BRANCH   1  11
ATOM     11  C   UNL     1       0.999 -36.094  20.327  1.00  0.00     0.000 C 
BRANCH  11  12
ATOM     12  C   UNL     1       1.174 -37.397  21.123  1.00  0.00    -0.000 C 
BRANCH  12  13
ATOM     13  C   UNL     1      -0.160 -38.125  21.364  1.00  0.00    -0.000 C 
BRANCH  13  14
ATOM     14  C   UNL     1      -1.066 -38.121  20.123  1.00  0.00    -0.000 C 
BRANCH  14  15
ATOM     15  C   UNL     1      -2.536 -37.815  20.461  1.00  0.00    -0.000 C 
BRANCH  15  16
ATOM     16  C   UNL     1      -2.813 -36.308  20.575  1.00  0.00    -0.000 C 
BRANCH  16  17
ATOM     17  C   UNL     1      -3.115 -35.870  22.016  1.00  0.00    -0.003 C 
ATOM     18  C   UNL     1      -2.129 -34.805  22.485  1.00  0.00     0.004 C 
ENDBRANCH  16  17
ENDBRANCH  15  16
ENDBRANCH  14  15
ENDBRANCH  13  14
ENDBRANCH  12  13
ENDBRANCH  11  12
ENDBRANCH   1  11
TORSDOF 14
ENDMDL
MODEL 4
REMARK VINA RESULT:    -4.549      2.663      6.801
REMARK INTER + INTRA:          -9.793
REMARK INTER:                  -8.305
REMARK INTRA:                  -1.488
REMARK UNBOUND:                -1.521
REMARK SMILES CCCCCCCCCCCCCCCC(=O)[O-]
REMARK SMILES IDX 9 1 10 2 11 3 12 4 13 5 14 6 15 7 16 8 17 9 18 10 8 11 7 12
REMARK SMILES IDX 6 13 5 14 4 15 3 16 2 17 1 18
REMARK H PARENT
REMARK Flexibility Score: inf
ROOT
ATOM      1  C   UNL     1       1.051 -36.072  20.602  1.00  0.00     0.000 C 
ENDROOT
BRANCH   1   2
ATOM      2  C   UNL     1       2.042 -35.842  19.450  1.00  0.00     0.000 C 
BRANCH   2   3
ATOM      3  C   UNL     1       2.134 -37.048  18.501  1.00  0.00     0.000 C 
BRANCH   3   4
ATOM      4  C   UNL     1       3.339 -36.912  17.558  1.00  0.00     0.000 C 
BRANCH   4   5
ATOM      5  C   UNL     1       4.617 -36.469  18.288  1.00  0.00     0.000 C 
BRANCH   5   6
ATOM      6  C   UNL     1       5.271 -37.609  19.081  1.00  0.00     0.006 C 
BRANCH   6   7
ATOM      7  C   UNL     1       5.887 -37.087  20.384  1.00  0.00     0.053 C 
BRANCH   7   8
ATOM      8  C   UNL     1       4.842 -36.977  21.449  1.00  0.00     0.041 C 
ATOM      9  O   UNL     1       4.146 -37.979  21.760  1.00  0.00    -0.550 OA
ATOM     10  O   UNL     1       4.603 -35.755  22.066  1.00  0.00    -0.550 OA
ENDBRANCH   7   8
ENDBRANCH   6   7
ENDBRANCH   5   6
ENDBRANCH   4   5
ENDBRANCH   3   4
ENDBRANCH   2   3
ENDBRANCH   1   2
BRANCH   1  11
ATOM     11  C   UNL     1       0.787 -37.565  20.868  1.00  0.00     0.000 C 
BRANCH  11  12
ATOM     12  C   UNL     1      -0.710 -37.887  21.007  1.00  0.00    -0.000 C 
BRANCH  12  13
ATOM     13  C   UNL     1      -1.603 -36.660  20.751  1.00  0.00    -0.000 C 
BRANCH  13  14
ATOM     14  C   UNL     1      -2.921 -36.716  21.540  1.00  0.00    -0.000 C 
BRANCH  14  15
ATOM     15  C   UNL     1      -3.134 -35.478  22.428  1.00  0.00    -0.000 C 
BRANCH  15  16
ATOM     16  C   UNL     1      -1.900 -34.562  22.468  1.00  0.00    -0.000 C 
BRANCH  16  17
ATOM     17  C   UNL     1      -2.196 -33.202  23.115  1.00  0.00    -0.003 C 
ATOM     18  C   UNL     1      -1.181 -32.882  24.209  1.00  0.00     0.004 C 
ENDBRANCH  16  17
ENDBRANCH  15  16
ENDBRANCH  14  15
ENDBRANCH  13  14
ENDBRANCH  12  13
ENDBRANCH  11  12
ENDBRANCH   1  11
TORSDOF 14
ENDMDL
MODEL 5
REMARK VINA RESULT:    -4.492      1.068      2.706
REMARK INTER + INTRA:          -9.689
REMARK INTER:                  -8.335
REMARK INTRA:                  -1.354
REMARK UNBOUND:                -1.521
REMARK SMILES CCCCCCCCCCCCCCCC(=O)[O-]
REMARK SMILES IDX 9 1 10 2 11 3 12 4 13 5 14 6 15 7 16 8 17 9 18 10 8 11 7 12
REMARK SMILES IDX 6 13 5 14 4 15 3 16 2 17 1 18
REMARK H PARENT
REMARK Flexibility Score: inf
ROOT
ATOM      1  C   UNL     1       1.817 -35.916  21.723  1.00  0.00     0.000 C 
ENDROOT
BRANCH   1   2
ATOM      2  C   UNL     1       1.411 -37.153  20.907  1.00  0.00     0.000 C 
BRANCH   2   3
ATOM      3  C   UNL     1      -0.111 -37.271  20.731  1.00  0.00     0.000 C 
BRANCH   3   4
ATOM      4  C   UNL     1      -0.803 -35.932  21.031  1.00  0.00     0.000 C 
BRANCH   4   5
ATOM      5  C   UNL     1      -2.196 -36.112  21.653  1.00  0.00     0.000 C 
BRANCH   5   6
ATOM      6  C   UNL     1      -2.590 -34.946  22.572  1.00  0.00     0.006 C 
BRANCH   6   7
ATOM      7  C   UNL     1      -1.448 -33.931  22.687  1.00  0.00     0.053 C 
BRANCH   7   8
ATOM      8  C   UNL     1      -1.798 -32.859  23.671  1.00  0.00     0.041 C 
ATOM      9  O   UNL     1      -2.921 -32.293  23.619  1.00  0.00    -0.550 OA
ATOM     10  O   UNL     1      -0.865 -32.451  24.616  1.00  0.00    -0.550 OA
ENDBRANCH   7   8
ENDBRANCH   6   7
ENDBRANCH   5   6
ENDBRANCH   4   5
ENDBRANCH   3   4
ENDBRANCH   2   3
ENDBRANCH   1   2
BRANCH   1  11
ATOM     11  C   UNL     1       3.264 -35.471  21.445  1.00  0.00     0.000 C 
BRANCH  11  12
ATOM     12  C   UNL     1       4.250 -35.957  22.519  1.00  0.00    -0.000 C 
BRANCH  12  13
ATOM     13  C   UNL     1       5.505 -36.612  21.915  1.00  0.00    -0.000 C 
BRANCH  13  14
ATOM     14  C   UNL     1       5.165 -37.637  20.821  1.00  0.00    -0.000 C 
BRANCH  14  15
ATOM     15  C   UNL     1       5.648 -37.199  19.427  1.00  0.00    -0.000 C 
BRANCH  15  16
ATOM     16  C   UNL     1       5.069 -38.071  18.303  1.00  0.00    -0.000 C 
BRANCH  16  17
ATOM     17  C   UNL     1       3.533 -38.084  18.298  1.00  0.00    -0.003 C 
ATOM     18  C   UNL     1       2.978 -36.988  17.393  1.00  0.00     0.004 C 
ENDBRANCH  16  17
ENDBRANCH  15  16
ENDBRANCH  14  15
ENDBRANCH  13  14
ENDBRANCH  12  13
ENDBRANCH  11  12
ENDBRANCH   1  11
TORSDOF 14
ENDMDL
MODEL 6
REMARK VINA RESULT:    -4.109      4.027      7.630
REMARK INTER + INTRA:          -8.992
REMARK INTER:                  -7.795
REMARK INTRA:                  -1.197
REMARK UNBOUND:                -1.521
REMARK SMILES CCCCCCCCCCCCCCCC(=O)[O-]
REMARK SMILES IDX 9 1 10 2 11 3 12 4 13 5 14 6 15 7 16 8 17 9 18 10 8 11 7 12
REMARK SMILES IDX 6 13 5 14 4 15 3 16 2 17 1 18
REMARK H PARENT
REMARK Flexibility Score: inf
ROOT
ATOM      1  C   UNL     1      -0.500 -34.981  21.927  1.00  0.00     0.000 C 
ENDROOT
BRANCH   1   2
ATOM      2  C   UNL     1      -0.214 -35.856  20.697  1.00  0.00     0.000 C 
BRANCH   2   3
ATOM      3  C   UNL     1       0.232 -37.278  21.075  1.00  0.00     0.000 C 
BRANCH   3   4
ATOM      4  C   UNL     1       1.484 -37.688  20.285  1.00  0.00     0.000 C 
BRANCH   4   5
ATOM      5  C   UNL     1       2.788 -37.236  20.962  1.00  0.00     0.000 C 
BRANCH   5   6
ATOM      6  C   UNL     1       3.339 -35.929  20.375  1.00  0.00     0.006 C 
BRANCH   6   7
ATOM      7  C   UNL     1       3.175 -35.902  18.851  1.00  0.00     0.053 C 
BRANCH   7   8
ATOM      8  C   UNL     1       4.162 -36.821  18.202  1.00  0.00     0.041 C 
ATOM      9  O   UNL     1       5.397 -36.635  18.357  1.00  0.00    -0.550 OA
ATOM     10  O   UNL     1       3.719 -37.853  17.386  1.00  0.00    -0.550 OA
ENDBRANCH   7   8
ENDBRANCH   6   7
ENDBRANCH   5   6
ENDBRANCH   4   5
ENDBRANCH   3   4
ENDBRANCH   2   3
ENDBRANCH   1   2
BRANCH   1  11
ATOM     11  C   UNL     1      -1.998 -34.912  22.271  1.00  0.00     0.000 C 
BRANCH  11  12
ATOM     12  C   UNL     1      -2.877 -35.633  21.236  1.00  0.00    -0.000 C 
BRANCH  12  13
ATOM     13  C   UNL     1      -3.443 -36.962  21.766  1.00  0.00    -0.000 C 
BRANCH  13  14
ATOM     14  C   UNL     1      -3.239 -38.123  20.781  1.00  0.00    -0.000 C 
BRANCH  14  15
ATOM     15  C   UNL     1      -4.205 -38.063  19.584  1.00  0.00    -0.000 C 
BRANCH  15  16
ATOM     16  C   UNL     1      -3.479 -37.810  18.253  1.00  0.00    -0.000 C 
BRANCH  16  17
ATOM     17  C   UNL     1      -4.432 -37.363  17.136  1.00  0.00    -0.003 C 
ATOM     18  C   UNL     1      -4.778 -35.882  17.270  1.00  0.00     0.004 C 
ENDBRANCH  16  17
ENDBRANCH  15  16
ENDBRANCH  14  15
ENDBRANCH  13  14
ENDBRANCH  12  13
ENDBRANCH  11  12
ENDBRANCH   1  11
TORSDOF 14
ENDMDL
MODEL 7
REMARK VINA RESULT:    -4.059      3.014      6.892
REMARK INTER + INTRA:          -8.902
REMARK INTER:                  -7.508
REMARK INTRA:                  -1.394
REMARK UNBOUND:                -1.521
REMARK SMILES CCCCCCCCCCCCCCCC(=O)[O-]
REMARK SMILES IDX 9 1 10 2 11 3 12 4 13 5 14 6 15 7 16 8 17 9 18 10 8 11 7 12
REMARK SMILES IDX 6 13 5 14 4 15 3 16 2 17 1 18
REMARK H PARENT
REMARK Flexibility Score: inf
ROOT
ATOM      1  C   UNL     1      -0.555 -35.276  21.867  1.00  0.00     0.000 C 
ENDROOT
BRANCH   1   2
ATOM      2  C   UNL     1      -0.349 -36.173  20.637  1.00  0.00     0.000 C 
BRANCH   2   3
ATOM      3  C   UNL     1       0.249 -37.542  20.998  1.00  0.00     0.000 C 
BRANCH   3   4
ATOM      4  C   UNL     1       1.047 -38.120  19.819  1.00  0.00     0.000 C 
BRANCH   4   5
ATOM      5  C   UNL     1       2.566 -38.004  20.017  1.00  0.00     0.000 C 
BRANCH   5   6
ATOM      6  C   UNL     1       2.943 -37.467  21.406  1.00  0.00     0.006 C 
BRANCH   6   7
ATOM      7  C   UNL     1       3.810 -36.209  21.289  1.00  0.00     0.053 C 
BRANCH   7   8
ATOM      8  C   UNL     1       3.909 -35.517  22.613  1.00  0.00     0.041 C 
ATOM      9  O   UNL     1       3.030 -34.685  22.960  1.00  0.00    -0.550 OA
ATOM     10  O   UNL     1       4.997 -35.755  23.442  1.00  0.00    -0.550 OA
ENDBRANCH   7   8
ENDBRANCH   6   7
ENDBRANCH   5   6
ENDBRANCH   4   5
ENDBRANCH   3   4
ENDBRANCH   2   3
ENDBRANCH   1   2
BRANCH   1  11
ATOM     11  C   UNL     1      -2.037 -34.937  22.112  1.00  0.00     0.000 C 
BRANCH  11  12
ATOM     12  C   UNL     1      -2.980 -35.672  21.146  1.00  0.00    -0.000 C 
BRANCH  12  13
ATOM     13  C   UNL     1      -3.499 -37.000  21.725  1.00  0.00    -0.000 C 
BRANCH  13  14
ATOM     14  C   UNL     1      -3.606 -38.104  20.662  1.00  0.00    -0.000 C 
BRANCH  14  15
ATOM     15  C   UNL     1      -3.179 -37.625  19.263  1.00  0.00    -0.000 C 
BRANCH  15  16
ATOM     16  C   UNL     1      -4.148 -38.082  18.162  1.00  0.00    -0.000 C 
BRANCH  16  17
ATOM     17  C   UNL     1      -4.345 -37.021  17.071  1.00  0.00    -0.003 C 
ATOM     18  C   UNL     1      -4.716 -35.671  17.678  1.00  0.00     0.004 C 
ENDBRANCH  16  17
ENDBRANCH  15  16
ENDBRANCH  14  15
ENDBRANCH  13  14
ENDBRANCH  12  13
ENDBRANCH  11  12
ENDBRANCH   1  11
TORSDOF 14
ENDMDL
MODEL 8
REMARK VINA RESULT:    -4.028      3.610      7.436
REMARK INTER + INTRA:          -8.846
REMARK INTER:                  -7.513
REMARK INTRA:                  -1.333
REMARK UNBOUND:                -1.521
REMARK SMILES CCCCCCCCCCCCCCCC(=O)[O-]
REMARK SMILES IDX 9 1 10 2 11 3 12 4 13 5 14 6 15 7 16 8 17 9 18 10 8 11 7 12
REMARK SMILES IDX 6 13 5 14 4 15 3 16 2 17 1 18
REMARK H PARENT
REMARK Flexibility Score: inf
ROOT
ATOM      1  C   UNL     1       1.835 -35.597  21.868  1.00  0.00     0.000 C 
ENDROOT
BRANCH   1   2
ATOM      2  C   UNL     1       3.363 -35.546  21.709  1.00  0.00     0.000 C 
BRANCH   2   3
ATOM      3  C   UNL     1       4.046 -36.850  22.150  1.00  0.00     0.000 C 
BRANCH   3   4
ATOM      4  C   UNL     1       5.479 -36.930  21.604  1.00  0.00     0.000 C 
BRANCH   4   5
ATOM      5  C   UNL     1       5.671 -38.086  20.609  1.00  0.00     0.000 C 
BRANCH   5   6
ATOM      6  C   UNL     1       5.500 -37.645  19.148  1.00  0.00     0.006 C 
BRANCH   6   7
ATOM      7  C   UNL     1       4.107 -38.011  18.625  1.00  0.00     0.053 C 
BRANCH   7   8
ATOM      8  C   UNL     1       3.473 -36.831  17.957  1.00  0.00     0.041 C 
ATOM      9  O   UNL     1       3.768 -35.663  18.320  1.00  0.00    -0.550 OA
ATOM     10  O   UNL     1       2.520 -37.023  16.965  1.00  0.00    -0.550 OA
ENDBRANCH   7   8
ENDBRANCH   6   7
ENDBRANCH   5   6
ENDBRANCH   4   5
ENDBRANCH   3   4
ENDBRANCH   2   3
ENDBRANCH   1   2
BRANCH   1  11
ATOM     11  C   UNL     1       1.127 -36.152  20.618  1.00  0.00     0.000 C 
BRANCH  11  12
ATOM     12  C   UNL     1       0.897 -37.670  20.693  1.00  0.00    -0.000 C 
BRANCH  12  13
ATOM     13  C   UNL     1      -0.525 -38.072  20.267  1.00  0.00    -0.000 C 
BRANCH  13  14
ATOM     14  C   UNL     1      -1.591 -37.632  21.283  1.00  0.00    -0.000 C 
BRANCH  14  15
ATOM     15  C   UNL     1      -2.997 -37.535  20.664  1.00  0.00    -0.000 C 
BRANCH  15  16
ATOM     16  C   UNL     1      -2.976 -37.658  19.132  1.00  0.00    -0.000 C 
BRANCH  16  17
ATOM     17  C   UNL     1      -4.367 -37.480  18.507  1.00  0.00    -0.003 C 
ATOM     18  C   UNL     1      -4.434 -36.203  17.673  1.00  0.00     0.004 C 
ENDBRANCH  16  17
ENDBRANCH  15  16
ENDBRANCH  14  15
ENDBRANCH  13  14
ENDBRANCH  12  13
ENDBRANCH  11  12
ENDBRANCH   1  11
TORSDOF 14
ENDMDL
MODEL 9
REMARK VINA RESULT:    -3.984      1.622      3.533
REMARK INTER + INTRA:          -8.766
REMARK INTER:                  -6.826
REMARK INTRA:                  -1.940
REMARK UNBOUND:                -1.521
REMARK SMILES CCCCCCCCCCCCCCCC(=O)[O-]
REMARK SMILES IDX 9 1 10 2 11 3 12 4 13 5 14 6 15 7 16 8 17 9 18 10 8 11 7 12
REMARK SMILES IDX 6 13 5 14 4 15 3 16 2 17 1 18
REMARK H PARENT
REMARK Flexibility Score: inf
ROOT
ATOM      1  C   UNL     1       3.384 -35.570  22.241  1.00  0.00     0.000 C 
ENDROOT
BRANCH   1   2
ATOM      2  C   UNL     1       2.208 -35.963  21.333  1.00  0.00     0.000 C 
BRANCH   2   3
ATOM      3  C   UNL     1       2.065 -37.485  21.176  1.00  0.00     0.000 C 
BRANCH   3   4
ATOM      4  C   UNL     1       0.619 -37.930  21.439  1.00  0.00     0.000 C 
BRANCH   4   5
ATOM      5  C   UNL     1      -0.294 -37.730  20.219  1.00  0.00     0.000 C 
BRANCH   5   6
ATOM      6  C   UNL     1      -1.535 -36.884  20.540  1.00  0.00     0.006 C 
BRANCH   6   7
ATOM      7  C   UNL     1      -1.142 -35.583  21.248  1.00  0.00     0.053 C 
BRANCH   7   8
ATOM      8  C   UNL     1      -2.214 -35.161  22.202  1.00  0.00     0.041 C 
ATOM      9  O   UNL     1      -3.271 -35.836  22.305  1.00  0.00    -0.550 OA
ATOM     10  O   UNL     1      -2.068 -33.995  22.942  1.00  0.00    -0.550 OA
ENDBRANCH   7   8
ENDBRANCH   6   7
ENDBRANCH   5   6
ENDBRANCH   4   5
ENDBRANCH   3   4
ENDBRANCH   2   3
ENDBRANCH   1   2
BRANCH   1  11
ATOM     11  C   UNL     1       4.218 -36.783  22.689  1.00  0.00     0.000 C 
BRANCH  11  12
ATOM     12  C   UNL     1       5.722 -36.596  22.433  1.00  0.00    -0.000 C 
BRANCH  12  13
ATOM     13  C   UNL     1       6.099 -36.802  20.956  1.00  0.00    -0.000 C 
BRANCH  13  14
ATOM     14  C   UNL     1       5.559 -38.125  20.390  1.00  0.00    -0.000 C 
BRANCH  14  15
ATOM     15  C   UNL     1       4.934 -37.962  18.992  1.00  0.00    -0.000 C 
BRANCH  15  16
ATOM     16  C   UNL     1       4.884 -36.495  18.537  1.00  0.00    -0.000 C 
BRANCH  16  17
ATOM     17  C   UNL     1       3.540 -36.122  17.895  1.00  0.00    -0.003 C 
ATOM     18  C   UNL     1       2.696 -37.365  17.626  1.00  0.00     0.004 C 
ENDBRANCH  16  17
ENDBRANCH  15  16
ENDBRANCH  14  15
ENDBRANCH  13  14
ENDBRANCH  12  13
ENDBRANCH  11  12
ENDBRANCH   1  11
TORSDOF 14
ENDMDL
