MODEL 1
REMARK VINA RESULT:    -7.806      0.000      0.000
REMARK INTER + INTRA:         -21.870
REMARK INTER:                 -20.584
REMARK INTRA:                  -1.286
REMARK UNBOUND:                -1.286
REMARK SMILES CCCCCCCCCCCCCCCCCCCCCCCCCCCCCC(=O)[O-]
REMARK SMILES IDX 16 1 17 2 18 3 19 4 20 5 21 6 22 7 23 8 24 9 25 10 26 11
REMARK SMILES IDX 27 12 28 13 29 14 30 15 31 16 32 17 15 18 14 19 13 20 12 21
REMARK SMILES IDX 11 22 10 23 9 24 8 25 7 26 6 27 5 28 4 29 3 30 2 31 1 32
REMARK H PARENT
REMARK Flexibility Score: inf
ROOT
ATOM      1  C   UNL     1      -1.922   1.745 -18.166  1.00  0.00     0.000 C 
ENDROOT
BRANCH   1   2
ATOM      2  C   UNL     1      -1.883   3.119 -17.475  1.00  0.00     0.000 C 
BRANCH   2   3
ATOM      3  C   UNL     1      -3.227   3.871 -17.453  1.00  0.00     0.000 C 
BRANCH   3   4
ATOM      4  C   UNL     1      -3.076   5.358 -17.098  1.00  0.00     0.000 C 
BRANCH   4   5
ATOM      5  C   UNL     1      -4.446   6.042 -16.978  1.00  0.00     0.000 C 
BRANCH   5   6
ATOM      6  C   UNL     1      -4.785   6.452 -15.534  1.00  0.00     0.000 C 
BRANCH   6   7
ATOM      7  C   UNL     1      -5.536   5.388 -14.709  1.00  0.00     0.000 C 
BRANCH   7   8
ATOM      8  C   UNL     1      -6.881   5.874 -14.129  1.00  0.00     0.000 C 
BRANCH   8   9
ATOM      9  C   UNL     1      -6.702   6.869 -12.967  1.00  0.00     0.000 C 
BRANCH   9  10
ATOM     10  C   UNL     1      -7.770   6.711 -11.874  1.00  0.00     0.000 C 
BRANCH  10  11
ATOM     11  C   UNL     1      -7.539   7.644 -10.673  1.00  0.00     0.000 C 
BRANCH  11  12
ATOM     12  C   UNL     1      -6.048   7.998 -10.493  1.00  0.00     0.000 C 
BRANCH  12  13
ATOM     13  C   UNL     1      -5.180   6.830  -9.984  1.00  0.00     0.006 C 
BRANCH  13  14
ATOM     14  C   UNL     1      -3.740   7.231  -9.608  1.00  0.00     0.053 C 
BRANCH  14  15
ATOM     15  C   UNL     1      -2.735   6.912 -10.679  1.00  0.00     0.041 C 
ATOM     16  O   UNL     1      -2.537   7.731 -11.615  1.00  0.00    -0.550 OA
ATOM     17  O   UNL     1      -2.094   5.679 -10.707  1.00  0.00    -0.550 OA
ENDBRANCH  14  15
ENDBRANCH  13  14
ENDBRANCH  12  13
ENDBRANCH  11  12
ENDBRANCH  10  11
ENDBRANCH   9  10
ENDBRANCH   8   9
ENDBRANCH   7   8
ENDBRANCH   6   7
ENDBRANCH   5   6
ENDBRANCH   4   5
ENDBRANCH   3   4
ENDBRANCH   2   3
ENDBRANCH   1   2
BRANCH   1  18
ATOM     18  C   UNL     1      -1.978   0.579 -17.170  1.00  0.00     0.000 C 
BRANCH  18  19
ATOM     19  C   UNL     1      -3.434   0.211 -16.849  1.00  0.00     0.000 C 
BRANCH  19  20
ATOM     20  C   UNL     1      -4.301   0.054 -18.112  1.00  0.00     0.000 C 
BRANCH  20  21
ATOM     21  C   UNL     1      -3.880  -1.096 -19.051  1.00  0.00     0.000 C 
BRANCH  21  22
ATOM     22  C   UNL     1      -5.044  -1.916 -19.640  1.00  0.00     0.000 C 
BRANCH  22  23
ATOM     23  C   UNL     1      -6.424  -1.335 -19.283  1.00  0.00     0.000 C 
BRANCH  23  24
ATOM     24  C   UNL     1      -7.581  -2.168 -19.854  1.00  0.00    -0.000 C 
BRANCH  24  25
ATOM     25  C   UNL     1      -7.153  -3.020 -21.062  1.00  0.00    -0.000 C 
BRANCH  25  26
ATOM     26  C   UNL     1      -6.818  -4.470 -20.676  1.00  0.00    -0.000 C 
BRANCH  26  27
ATOM     27  C   UNL     1      -8.053  -5.257 -20.215  1.00  0.00    -0.000 C 
BRANCH  27  28
ATOM     28  C   UNL     1      -7.666  -6.669 -19.751  1.00  0.00    -0.000 C 
BRANCH  28  29
ATOM     29  C   UNL     1      -8.877  -7.610 -19.621  1.00  0.00    -0.000 C 
BRANCH  29  30
ATOM     30  C   UNL     1      -8.530  -9.106 -19.465  1.00  0.00    -0.000 C 
BRANCH  30  31
ATOM     31  C   UNL     1      -7.673  -9.696 -20.596  1.00  0.00    -0.003 C 
ATOM     32  C   UNL     1      -8.400  -9.715 -21.940  1.00  0.00     0.004 C 
ENDBRANCH  30  31
ENDBRANCH  29  30
ENDBRANCH  28  29
ENDBRANCH  27  28
ENDBRANCH  26  27
ENDBRANCH  25  26
ENDBRANCH  24  25
ENDBRANCH  23  24
ENDBRANCH  22  23
ENDBRANCH  21  22
ENDBRANCH  20  21
ENDBRANCH  19  20
ENDBRANCH  18  19
ENDBRANCH   1  18
TORSDOF 28
ENDMDL
MODEL 2
REMARK VINA RESULT:    -7.770      1.826      2.546
REMARK INTER + INTRA:         -21.774
REMARK INTER:                 -19.904
REMARK INTRA:                  -1.870
REMARK UNBOUND:                -1.286
REMARK SMILES CCCCCCCCCCCCCCCCCCCCCCCCCCCCCC(=O)[O-]
REMARK SMILES IDX 16 1 17 2 18 3 19 4 20 5 21 6 22 7 23 8 24 9 25 10 26 11
REMARK SMILES IDX 27 12 28 13 29 14 30 15 31 16 32 17 15 18 14 19 13 20 12 21
REMARK SMILES IDX 11 22 10 23 9 24 8 25 7 26 6 27 5 28 4 29 3 30 2 31 1 32
REMARK H PARENT
REMARK Flexibility Score: inf
ROOT
ATOM      1  C   UNL     1      -1.999   1.643 -17.436  1.00  0.00     0.000 C 
ENDROOT
BRANCH   1   2
ATOM      2  C   UNL     1      -1.875   3.156 -17.187  1.00  0.00     0.000 C 
BRANCH   2   3
ATOM      3  C   UNL     1      -3.150   3.967 -17.485  1.00  0.00     0.000 C 
BRANCH   3   4
ATOM      4  C   UNL     1      -2.854   5.425 -17.873  1.00  0.00     0.000 C 
BRANCH   4   5
ATOM      5  C   UNL     1      -3.562   6.405 -16.924  1.00  0.00     0.000 C 
BRANCH   5   6
ATOM      6  C   UNL     1      -4.467   5.698 -15.901  1.00  0.00     0.000 C 
BRANCH   6   7
ATOM      7  C   UNL     1      -5.237   6.633 -14.947  1.00  0.00     0.000 C 
BRANCH   7   8
ATOM      8  C   UNL     1      -4.332   7.471 -14.020  1.00  0.00     0.000 C 
BRANCH   8   9
ATOM      9  C   UNL     1      -3.964   6.729 -12.720  1.00  0.00     0.000 C 
BRANCH   9  10
ATOM     10  C   UNL     1      -3.907   7.658 -11.498  1.00  0.00     0.000 C 
BRANCH  10  11
ATOM     11  C   UNL     1      -4.199   6.924 -10.177  1.00  0.00     0.000 C 
BRANCH  11  12
ATOM     12  C   UNL     1      -5.696   6.589 -10.019  1.00  0.00     0.000 C 
BRANCH  12  13
ATOM     13  C   UNL     1      -6.623   7.821 -10.046  1.00  0.00     0.006 C 
BRANCH  13  14
ATOM     14  C   UNL     1      -7.764   7.730 -11.079  1.00  0.00     0.053 C 
BRANCH  14  15
ATOM     15  C   UNL     1      -8.074   6.321 -11.499  1.00  0.00     0.041 C 
ATOM     16  O   UNL     1      -7.554   5.850 -12.545  1.00  0.00    -0.550 OA
ATOM     17  O   UNL     1      -9.009   5.562 -10.804  1.00  0.00    -0.550 OA
ENDBRANCH  14  15
ENDBRANCH  13  14
ENDBRANCH  12  13
ENDBRANCH  11  12
ENDBRANCH  10  11
ENDBRANCH   9  10
ENDBRANCH   8   9
ENDBRANCH   7   8
ENDBRANCH   6   7
ENDBRANCH   5   6
ENDBRANCH   4   5
ENDBRANCH   3   4
ENDBRANCH   2   3
ENDBRANCH   1   2
BRANCH   1  18
ATOM     18  C   UNL     1      -3.094   1.294 -18.453  1.00  0.00     0.000 C 
BRANCH  18  19
ATOM     19  C   UNL     1      -3.830   0.011 -18.037  1.00  0.00     0.000 C 
BRANCH  19  20
ATOM     20  C   UNL     1      -3.600  -1.152 -19.020  1.00  0.00     0.000 C 
BRANCH  20  21
ATOM     21  C   UNL     1      -4.781  -2.136 -19.151  1.00  0.00     0.000 C 
BRANCH  21  22
ATOM     22  C   UNL     1      -6.172  -1.522 -18.906  1.00  0.00     0.000 C 
BRANCH  22  23
ATOM     23  C   UNL     1      -7.107  -1.660 -20.120  1.00  0.00     0.000 C 
BRANCH  23  24
ATOM     24  C   UNL     1      -6.523  -2.562 -21.217  1.00  0.00    -0.000 C 
BRANCH  24  25
ATOM     25  C   UNL     1      -7.189  -3.949 -21.255  1.00  0.00    -0.000 C 
BRANCH  25  26
ATOM     26  C   UNL     1      -8.079  -4.213 -20.029  1.00  0.00    -0.000 C 
BRANCH  26  27
ATOM     27  C   UNL     1      -7.328  -4.936 -18.901  1.00  0.00    -0.000 C 
BRANCH  27  28
ATOM     28  C   UNL     1      -8.110  -6.167 -18.419  1.00  0.00    -0.000 C 
BRANCH  28  29
ATOM     29  C   UNL     1      -8.753  -6.958 -19.571  1.00  0.00    -0.000 C 
BRANCH  29  30
ATOM     30  C   UNL     1      -8.551  -8.486 -19.509  1.00  0.00    -0.000 C 
BRANCH  30  31
ATOM     31  C   UNL     1      -7.628  -9.065 -20.594  1.00  0.00    -0.003 C 
ATOM     32  C   UNL     1      -7.805 -10.571 -20.780  1.00  0.00     0.004 C 
ENDBRANCH  30  31
ENDBRANCH  29  30
ENDBRANCH  28  29
ENDBRANCH  27  28
ENDBRANCH  26  27
ENDBRANCH  25  26
ENDBRANCH  24  25
ENDBRANCH  23  24
ENDBRANCH  22  23
ENDBRANCH  21  22
ENDBRANCH  20  21
ENDBRANCH  19  20
ENDBRANCH  18  19
ENDBRANCH   1  18
TORSDOF 28
ENDMDL
MODEL 3
REMARK VINA RESULT:    -7.703      1.736      3.823
REMARK INTER + INTRA:         -21.598
REMARK INTER:                 -19.329
REMARK INTRA:                  -2.269
REMARK UNBOUND:                -1.286
REMARK SMILES CCCCCCCCCCCCCCCCCCCCCCCCCCCCCC(=O)[O-]
REMARK SMILES IDX 16 1 17 2 18 3 19 4 20 5 21 6 22 7 23 8 24 9 25 10 26 11
REMARK SMILES IDX 27 12 28 13 29 14 30 15 31 16 32 17 15 18 14 19 13 20 12 21
REMARK SMILES IDX 11 22 10 23 9 24 8 25 7 26 6 27 5 28 4 29 3 30 2 31 1 32
REMARK H PARENT
REMARK Flexibility Score: inf
ROOT
ATOM      1  C   UNL     1      -4.549  -1.076 -17.999  1.00  0.00     0.000 C 
ENDROOT
BRANCH   1   2
ATOM      2  C   UNL     1      -3.254  -1.012 -18.828  1.00  0.00     0.000 C 
BRANCH   2   3
ATOM      3  C   UNL     1      -1.992  -0.637 -18.029  1.00  0.00     0.000 C 
BRANCH   3   4
ATOM      4  C   UNL     1      -2.209   0.563 -17.094  1.00  0.00     0.000 C 
BRANCH   4   5
ATOM      5  C   UNL     1      -1.964   1.890 -17.829  1.00  0.00     0.000 C 
BRANCH   5   6
ATOM      6  C   UNL     1      -2.981   2.980 -17.448  1.00  0.00     0.000 C 
BRANCH   6   7
ATOM      7  C   UNL     1      -2.420   4.415 -17.404  1.00  0.00     0.000 C 
BRANCH   7   8
ATOM      8  C   UNL     1      -3.468   5.511 -17.693  1.00  0.00     0.000 C 
BRANCH   8   9
ATOM      9  C   UNL     1      -4.451   5.714 -16.523  1.00  0.00     0.000 C 
BRANCH   9  10
ATOM     10  C   UNL     1      -4.315   7.095 -15.863  1.00  0.00     0.000 C 
BRANCH  10  11
ATOM     11  C   UNL     1      -3.318   7.100 -14.691  1.00  0.00     0.000 C 
BRANCH  11  12
ATOM     12  C   UNL     1      -4.001   7.436 -13.350  1.00  0.00     0.000 C 
BRANCH  12  13
ATOM     13  C   UNL     1      -4.757   6.252 -12.714  1.00  0.00     0.006 C 
BRANCH  13  14
ATOM     14  C   UNL     1      -6.292   6.357 -12.812  1.00  0.00     0.053 C 
BRANCH  14  15
ATOM     15  C   UNL     1      -6.921   7.013 -11.616  1.00  0.00     0.041 C 
ATOM     16  O   UNL     1      -7.865   7.831 -11.773  1.00  0.00    -0.550 OA
ATOM     17  O   UNL     1      -6.406   6.807 -10.340  1.00  0.00    -0.550 OA
ENDBRANCH  14  15
ENDBRANCH  13  14
ENDBRANCH  12  13
ENDBRANCH  11  12
ENDBRANCH  10  11
ENDBRANCH   9  10
ENDBRANCH   8   9
ENDBRANCH   7   8
ENDBRANCH   6   7
ENDBRANCH   5   6
ENDBRANCH   4   5
ENDBRANCH   3   4
ENDBRANCH   2   3
ENDBRANCH   1   2
BRANCH   1  18
ATOM     18  C   UNL     1      -5.659  -0.178 -18.560  1.00  0.00     0.000 C 
BRANCH  18  19
ATOM     19  C   UNL     1      -6.895  -1.012 -18.930  1.00  0.00     0.000 C 
BRANCH  19  20
ATOM     20  C   UNL     1      -7.371  -0.762 -20.373  1.00  0.00     0.000 C 
BRANCH  20  21
ATOM     21  C   UNL     1      -7.473  -2.025 -21.252  1.00  0.00     0.000 C 
BRANCH  21  22
ATOM     22  C   UNL     1      -6.233  -2.938 -21.228  1.00  0.00     0.000 C 
BRANCH  22  23
ATOM     23  C   UNL     1      -6.554  -4.368 -20.758  1.00  0.00     0.000 C 
BRANCH  23  24
ATOM     24  C   UNL     1      -6.127  -4.623 -19.305  1.00  0.00    -0.000 C 
BRANCH  24  25
ATOM     25  C   UNL     1      -7.314  -4.579 -18.326  1.00  0.00    -0.000 C 
BRANCH  25  26
ATOM     26  C   UNL     1      -8.664  -4.395 -19.040  1.00  0.00    -0.000 C 
BRANCH  26  27
ATOM     27  C   UNL     1      -9.337  -5.733 -19.380  1.00  0.00    -0.000 C 
BRANCH  27  28
ATOM     28  C   UNL     1      -8.440  -6.917 -18.986  1.00  0.00    -0.000 C 
BRANCH  28  29
ATOM     29  C   UNL     1      -8.264  -7.939 -20.123  1.00  0.00    -0.000 C 
BRANCH  29  30
ATOM     30  C   UNL     1      -8.401  -9.417 -19.702  1.00  0.00    -0.000 C 
BRANCH  30  31
ATOM     31  C   UNL     1      -7.743 -10.428 -20.655  1.00  0.00    -0.003 C 
ATOM     32  C   UNL     1      -8.301 -10.351 -22.075  1.00  0.00     0.004 C 
ENDBRANCH  30  31
ENDBRANCH  29  30
ENDBRANCH  28  29
ENDBRANCH  27  28
ENDBRANCH  26  27
ENDBRANCH  25  26
ENDBRANCH  24  25
ENDBRANCH  23  24
ENDBRANCH  22  23
ENDBRANCH  21  22
ENDBRANCH  20  21
ENDBRANCH  19  20
ENDBRANCH  18  19
ENDBRANCH   1  18
TORSDOF 28
ENDMDL
MODEL 4
REMARK VINA RESULT:    -7.697      4.909     13.609
REMARK INTER + INTRA:         -21.583
REMARK INTER:                 -19.434
REMARK INTRA:                  -2.149
REMARK UNBOUND:                -1.286
REMARK SMILES CCCCCCCCCCCCCCCCCCCCCCCCCCCCCC(=O)[O-]
REMARK SMILES IDX 16 1 17 2 18 3 19 4 20 5 21 6 22 7 23 8 24 9 25 10 26 11
REMARK SMILES IDX 27 12 28 13 29 14 30 15 31 16 32 17 15 18 14 19 13 20 12 21
REMARK SMILES IDX 11 22 10 23 9 24 8 25 7 26 6 27 5 28 4 29 3 30 2 31 1 32
REMARK H PARENT
REMARK Flexibility Score: inf
ROOT
ATOM      1  C   UNL     1      -2.414   3.902 -17.158  1.00  0.00     0.000 C 
ENDROOT
BRANCH   1   2
ATOM      2  C   UNL     1      -2.997   2.680 -17.888  1.00  0.00     0.000 C 
BRANCH   2   3
ATOM      3  C   UNL     1      -2.240   1.361 -17.650  1.00  0.00     0.000 C 
BRANCH   3   4
ATOM      4  C   UNL     1      -3.178   0.166 -17.415  1.00  0.00     0.000 C 
BRANCH   4   5
ATOM      5  C   UNL     1      -3.588  -0.486 -18.745  1.00  0.00     0.000 C 
BRANCH   5   6
ATOM      6  C   UNL     1      -4.925  -1.242 -18.652  1.00  0.00     0.000 C 
BRANCH   6   7
ATOM      7  C   UNL     1      -6.126  -0.536 -19.313  1.00  0.00     0.000 C 
BRANCH   7   8
ATOM      8  C   UNL     1      -7.351  -1.448 -19.530  1.00  0.00     0.000 C 
BRANCH   8   9
ATOM      9  C   UNL     1      -7.234  -2.307 -20.805  1.00  0.00     0.000 C 
BRANCH   9  10
ATOM     10  C   UNL     1      -7.336  -3.813 -20.522  1.00  0.00     0.000 C 
BRANCH  10  11
ATOM     11  C   UNL     1      -8.134  -4.127 -19.244  1.00  0.00     0.000 C 
BRANCH  11  12
ATOM     12  C   UNL     1      -8.959  -5.423 -19.380  1.00  0.00     0.000 C 
BRANCH  12  13
ATOM     13  C   UNL     1      -8.112  -6.712 -19.389  1.00  0.00     0.006 C 
BRANCH  13  14
ATOM     14  C   UNL     1      -8.528  -7.734 -20.464  1.00  0.00     0.053 C 
BRANCH  14  15
ATOM     15  C   UNL     1      -8.269  -9.159 -20.063  1.00  0.00     0.041 C 
ATOM     16  O   UNL     1      -8.648  -9.570 -18.935  1.00  0.00    -0.550 OA
ATOM     17  O   UNL     1      -7.525 -10.003 -20.879  1.00  0.00    -0.550 OA
ENDBRANCH  14  15
ENDBRANCH  13  14
ENDBRANCH  12  13
ENDBRANCH  11  12
ENDBRANCH  10  11
ENDBRANCH   9  10
ENDBRANCH   8   9
ENDBRANCH   7   8
ENDBRANCH   6   7
ENDBRANCH   5   6
ENDBRANCH   4   5
ENDBRANCH   3   4
ENDBRANCH   2   3
ENDBRANCH   1   2
BRANCH   1  18
ATOM     18  C   UNL     1      -3.189   5.195 -17.448  1.00  0.00     0.000 C 
BRANCH  18  19
ATOM     19  C   UNL     1      -3.906   5.691 -16.184  1.00  0.00     0.000 C 
BRANCH  19  20
ATOM     20  C   UNL     1      -4.061   7.222 -16.149  1.00  0.00     0.000 C 
BRANCH  20  21
ATOM     21  C   UNL     1      -3.933   7.858 -14.750  1.00  0.00     0.000 C 
BRANCH  21  22
ATOM     22  C   UNL     1      -4.904   7.305 -13.690  1.00  0.00     0.000 C 
BRANCH  22  23
ATOM     23  C   UNL     1      -4.220   6.355 -12.691  1.00  0.00     0.000 C 
BRANCH  23  24
ATOM     24  C   UNL     1      -2.840   6.860 -12.245  1.00  0.00    -0.000 C 
BRANCH  24  25
ATOM     25  C   UNL     1      -2.757   7.080 -10.724  1.00  0.00    -0.000 C 
BRANCH  25  26
ATOM     26  C   UNL     1      -4.122   6.942 -10.030  1.00  0.00    -0.000 C 
BRANCH  26  27
ATOM     27  C   UNL     1      -4.709   8.298  -9.610  1.00  0.00    -0.000 C 
BRANCH  27  28
ATOM     28  C   UNL     1      -6.026   8.581 -10.350  1.00  0.00    -0.000 C 
BRANCH  28  29
ATOM     29  C   UNL     1      -7.045   7.435 -10.219  1.00  0.00    -0.000 C 
BRANCH  29  30
ATOM     30  C   UNL     1      -7.903   7.176 -11.475  1.00  0.00    -0.000 C 
BRANCH  30  31
ATOM     31  C   UNL     1      -8.363   5.720 -11.659  1.00  0.00    -0.003 C 
ATOM     32  C   UNL     1      -8.987   5.133 -10.394  1.00  0.00     0.004 C 
ENDBRANCH  30  31
ENDBRANCH  29  30
ENDBRANCH  28  29
ENDBRANCH  27  28
ENDBRANCH  26  27
ENDBRANCH  25  26
ENDBRANCH  24  25
ENDBRANCH  23  24
ENDBRANCH  22  23
ENDBRANCH  21  22
ENDBRANCH  20  21
ENDBRANCH  19  20
ENDBRANCH  18  19
ENDBRANCH   1  18
TORSDOF 28
ENDMDL
MODEL 5
REMARK VINA RESULT:    -7.671      1.093      2.046
REMARK INTER + INTRA:         -21.514
REMARK INTER:                 -19.204
REMARK INTRA:                  -2.310
REMARK UNBOUND:                -1.286
REMARK SMILES CCCCCCCCCCCCCCCCCCCCCCCCCCCCCC(=O)[O-]
REMARK SMILES IDX 16 1 17 2 18 3 19 4 20 5 21 6 22 7 23 8 24 9 25 10 26 11
REMARK SMILES IDX 27 12 28 13 29 14 30 15 31 16 32 17 15 18 14 19 13 20 12 21
REMARK SMILES IDX 11 22 10 23 9 24 8 25 7 26 6 27 5 28 4 29 3 30 2 31 1 32
REMARK H PARENT
REMARK Flexibility Score: inf
ROOT
ATOM      1  C   UNL     1      -3.018   0.010 -17.056  1.00  0.00     0.000 C 
ENDROOT
BRANCH   1   2
ATOM      2  C   UNL     1      -2.036   1.195 -17.075  1.00  0.00     0.000 C 
BRANCH   2   3
ATOM      3  C   UNL     1      -2.264   2.206 -18.214  1.00  0.00     0.000 C 
BRANCH   3   4
ATOM      4  C   UNL     1      -1.887   3.644 -17.823  1.00  0.00     0.000 C 
BRANCH   4   5
ATOM      5  C   UNL     1      -2.920   4.244 -16.856  1.00  0.00     0.000 C 
BRANCH   5   6
ATOM      6  C   UNL     1      -3.867   5.245 -17.539  1.00  0.00     0.000 C 
BRANCH   6   7
ATOM      7  C   UNL     1      -4.040   6.591 -16.807  1.00  0.00     0.000 C 
BRANCH   7   8
ATOM      8  C   UNL     1      -4.333   6.454 -15.298  1.00  0.00     0.000 C 
BRANCH   8   9
ATOM      9  C   UNL     1      -5.499   5.490 -15.005  1.00  0.00     0.000 C 
BRANCH   9  10
ATOM     10  C   UNL     1      -6.777   6.217 -14.559  1.00  0.00     0.000 C 
BRANCH  10  11
ATOM     11  C   UNL     1      -7.145   5.932 -13.093  1.00  0.00     0.000 C 
BRANCH  11  12
ATOM     12  C   UNL     1      -6.738   7.088 -12.157  1.00  0.00     0.000 C 
BRANCH  12  13
ATOM     13  C   UNL     1      -5.781   6.673 -11.022  1.00  0.00     0.006 C 
BRANCH  13  14
ATOM     14  C   UNL     1      -4.288   6.726 -11.403  1.00  0.00     0.053 C 
BRANCH  14  15
ATOM     15  C   UNL     1      -3.390   7.060 -10.246  1.00  0.00     0.041 C 
ATOM     16  O   UNL     1      -3.891   7.420  -9.148  1.00  0.00    -0.550 OA
ATOM     17  O   UNL     1      -2.008   7.077 -10.400  1.00  0.00    -0.550 OA
ENDBRANCH  14  15
ENDBRANCH  13  14
ENDBRANCH  12  13
ENDBRANCH  11  12
ENDBRANCH  10  11
ENDBRANCH   9  10
ENDBRANCH   8   9
ENDBRANCH   7   8
ENDBRANCH   6   7
ENDBRANCH   5   6
ENDBRANCH   4   5
ENDBRANCH   3   4
ENDBRANCH   2   3
ENDBRANCH   1   2
BRANCH   1  18
ATOM     18  C   UNL     1      -4.454   0.421 -17.409  1.00  0.00     0.000 C 
BRANCH  18  19
ATOM     19  C   UNL     1      -4.972  -0.393 -18.604  1.00  0.00     0.000 C 
BRANCH  19  20
ATOM     20  C   UNL     1      -4.767  -1.908 -18.426  1.00  0.00     0.000 C 
BRANCH  20  21
ATOM     21  C   UNL     1      -4.112  -2.622 -19.626  1.00  0.00     0.000 C 
BRANCH  21  22
ATOM     22  C   UNL     1      -4.641  -2.194 -21.008  1.00  0.00     0.000 C 
BRANCH  22  23
ATOM     23  C   UNL     1      -5.607  -3.223 -21.621  1.00  0.00     0.000 C 
BRANCH  23  24
ATOM     24  C   UNL     1      -7.081  -2.835 -21.432  1.00  0.00    -0.000 C 
BRANCH  24  25
ATOM     25  C   UNL     1      -7.892  -3.934 -20.722  1.00  0.00    -0.000 C 
BRANCH  25  26
ATOM     26  C   UNL     1      -7.732  -3.895 -19.193  1.00  0.00    -0.000 C 
BRANCH  26  27
ATOM     27  C   UNL     1      -7.723  -5.297 -18.566  1.00  0.00    -0.000 C 
BRANCH  27  28
ATOM     28  C   UNL     1      -7.497  -6.377 -19.635  1.00  0.00    -0.000 C 
BRANCH  28  29
ATOM     29  C   UNL     1      -8.733  -7.266 -19.859  1.00  0.00    -0.000 C 
BRANCH  29  30
ATOM     30  C   UNL     1      -8.521  -8.767 -19.569  1.00  0.00    -0.000 C 
BRANCH  30  31
ATOM     31  C   UNL     1      -7.606  -9.498 -20.564  1.00  0.00    -0.003 C 
ATOM     32  C   UNL     1      -8.381 -10.168 -21.698  1.00  0.00     0.004 C 
ENDBRANCH  30  31
ENDBRANCH  29  30
ENDBRANCH  28  29
ENDBRANCH  27  28
ENDBRANCH  26  27
ENDBRANCH  25  26
ENDBRANCH  24  25
ENDBRANCH  23  24
ENDBRANCH  22  23
ENDBRANCH  21  22
ENDBRANCH  20  21
ENDBRANCH  19  20
ENDBRANCH  18  19
ENDBRANCH   1  18
TORSDOF 28
ENDMDL
MODEL 6
REMARK VINA RESULT:    -7.570      2.053      3.761
REMARK INTER + INTRA:         -21.246
REMARK INTER:                 -19.566
REMARK INTRA:                  -1.680
REMARK UNBOUND:                -1.286
REMARK SMILES CCCCCCCCCCCCCCCCCCCCCCCCCCCCCC(=O)[O-]
REMARK SMILES IDX 16 1 17 2 18 3 19 4 20 5 21 6 22 7 23 8 24 9 25 10 26 11
REMARK SMILES IDX 27 12 28 13 29 14 30 15 31 16 32 17 15 18 14 19 13 20 12 21
REMARK SMILES IDX 11 22 10 23 9 24 8 25 7 26 6 27 5 28 4 29 3 30 2 31 1 32
REMARK H PARENT
REMARK Flexibility Score: inf
ROOT
ATOM      1  C   UNL     1      -2.332   5.228 -17.255  1.00  0.00     0.000 C 
ENDROOT
BRANCH   1   2
ATOM      2  C   UNL     1      -3.717   5.124 -16.593  1.00  0.00     0.000 C 
BRANCH   2   3
ATOM      3  C   UNL     1      -4.284   6.454 -16.064  1.00  0.00     0.000 C 
BRANCH   3   4
ATOM      4  C   UNL     1      -4.879   6.332 -14.653  1.00  0.00     0.000 C 
BRANCH   4   5
ATOM      5  C   UNL     1      -4.323   7.419 -13.720  1.00  0.00     0.000 C 
BRANCH   5   6
ATOM      6  C   UNL     1      -2.880   7.135 -13.267  1.00  0.00     0.000 C 
BRANCH   6   7
ATOM      7  C   UNL     1      -2.655   7.157 -11.741  1.00  0.00     0.000 C 
BRANCH   7   8
ATOM      8  C   UNL     1      -3.812   6.546 -10.924  1.00  0.00     0.000 C 
BRANCH   8   9
ATOM      9  C   UNL     1      -3.948   7.176  -9.525  1.00  0.00     0.000 C 
BRANCH   9  10
ATOM     10  C   UNL     1      -5.020   8.276  -9.467  1.00  0.00     0.000 C 
BRANCH  10  11
ATOM     11  C   UNL     1      -5.877   8.340 -10.743  1.00  0.00     0.000 C 
BRANCH  11  12
ATOM     12  C   UNL     1      -7.202   7.564 -10.592  1.00  0.00     0.000 C 
BRANCH  12  13
ATOM     13  C   UNL     1      -7.564   6.692 -11.812  1.00  0.00     0.006 C 
BRANCH  13  14
ATOM     14  C   UNL     1      -8.737   5.722 -11.568  1.00  0.00     0.053 C 
BRANCH  14  15
ATOM     15  C   UNL     1      -8.745   5.135 -10.185  1.00  0.00     0.041 C 
ATOM     16  O   UNL     1      -7.664   4.775  -9.651  1.00  0.00    -0.550 OA
ATOM     17  O   UNL     1      -9.944   4.889  -9.525  1.00  0.00    -0.550 OA
ENDBRANCH  14  15
ENDBRANCH  13  14
ENDBRANCH  12  13
ENDBRANCH  11  12
ENDBRANCH  10  11
ENDBRANCH   9  10
ENDBRANCH   8   9
ENDBRANCH   7   8
ENDBRANCH   6   7
ENDBRANCH   5   6
ENDBRANCH   4   5
ENDBRANCH   3   4
ENDBRANCH   2   3
ENDBRANCH   1   2
BRANCH   1  18
ATOM     18  C   UNL     1      -1.875   3.909 -17.892  1.00  0.00     0.000 C 
BRANCH  18  19
ATOM     19  C   UNL     1      -2.994   2.858 -17.822  1.00  0.00     0.000 C 
BRANCH  19  20
ATOM     20  C   UNL     1      -2.535   1.468 -18.298  1.00  0.00     0.000 C 
BRANCH  20  21
ATOM     21  C   UNL     1      -3.137   0.282 -17.517  1.00  0.00     0.000 C 
BRANCH  21  22
ATOM     22  C   UNL     1      -2.675  -1.111 -17.987  1.00  0.00     0.000 C 
BRANCH  22  23
ATOM     23  C   UNL     1      -3.847  -2.020 -18.399  1.00  0.00     0.000 C 
BRANCH  23  24
ATOM     24  C   UNL     1      -4.587  -1.505 -19.641  1.00  0.00    -0.000 C 
BRANCH  24  25
ATOM     25  C   UNL     1      -5.922  -0.823 -19.290  1.00  0.00    -0.000 C 
BRANCH  25  26
ATOM     26  C   UNL     1      -7.119  -1.784 -19.376  1.00  0.00    -0.000 C 
BRANCH  26  27
ATOM     27  C   UNL     1      -7.315  -2.355 -20.788  1.00  0.00    -0.000 C 
BRANCH  27  28
ATOM     28  C   UNL     1      -7.110  -3.877 -20.800  1.00  0.00    -0.000 C 
BRANCH  28  29
ATOM     29  C   UNL     1      -8.152  -4.629 -19.953  1.00  0.00    -0.000 C 
BRANCH  29  30
ATOM     30  C   UNL     1      -7.771  -6.077 -19.580  1.00  0.00    -0.000 C 
BRANCH  30  31
ATOM     31  C   UNL     1      -8.775  -7.150 -20.031  1.00  0.00    -0.003 C 
ATOM     32  C   UNL     1      -8.360  -8.561 -19.613  1.00  0.00     0.004 C 
ENDBRANCH  30  31
ENDBRANCH  29  30
ENDBRANCH  28  29
ENDBRANCH  27  28
ENDBRANCH  26  27
ENDBRANCH  25  26
ENDBRANCH  24  25
ENDBRANCH  23  24
ENDBRANCH  22  23
ENDBRANCH  21  22
ENDBRANCH  20  21
ENDBRANCH  19  20
ENDBRANCH  18  19
ENDBRANCH   1  18
TORSDOF 28
ENDMDL
MODEL 7
REMARK VINA RESULT:    -7.486      4.166     12.917
REMARK INTER + INTRA:         -21.026
REMARK INTER:                 -18.720
REMARK INTRA:                  -2.306
REMARK UNBOUND:                -1.286
REMARK SMILES CCCCCCCCCCCCCCCCCCCCCCCCCCCCCC(=O)[O-]
REMARK SMILES IDX 16 1 17 2 18 3 19 4 20 5 21 6 22 7 23 8 24 9 25 10 26 11
REMARK SMILES IDX 27 12 28 13 29 14 30 15 31 16 32 17 15 18 14 19 13 20 12 21
REMARK SMILES IDX 11 22 10 23 9 24 8 25 7 26 6 27 5 28 4 29 3 30 2 31 1 32
REMARK H PARENT
REMARK Flexibility Score: inf
ROOT
ATOM      1  C   UNL     1      -2.976   6.254 -17.951  1.00  0.00     0.000 C 
ENDROOT
BRANCH   1   2
ATOM      2  C   UNL     1      -2.161   4.960 -17.782  1.00  0.00     0.000 C 
BRANCH   2   3
ATOM      3  C   UNL     1      -2.998   3.700 -17.496  1.00  0.00     0.000 C 
BRANCH   3   4
ATOM      4  C   UNL     1      -2.174   2.405 -17.571  1.00  0.00     0.000 C 
BRANCH   4   5
ATOM      5  C   UNL     1      -2.960   1.287 -18.274  1.00  0.00     0.000 C 
BRANCH   5   6
ATOM      6  C   UNL     1      -3.003  -0.017 -17.458  1.00  0.00     0.000 C 
BRANCH   6   7
ATOM      7  C   UNL     1      -3.043  -1.313 -18.292  1.00  0.00     0.000 C 
BRANCH   7   8
ATOM      8  C   UNL     1      -4.148  -1.336 -19.369  1.00  0.00     0.000 C 
BRANCH   8   9
ATOM      9  C   UNL     1      -5.464  -1.951 -18.857  1.00  0.00     0.000 C 
BRANCH   9  10
ATOM     10  C   UNL     1      -6.698  -1.113 -19.224  1.00  0.00     0.000 C 
BRANCH  10  11
ATOM     11  C   UNL     1      -7.342  -1.550 -20.551  1.00  0.00     0.000 C 
BRANCH  11  12
ATOM     12  C   UNL     1      -6.752  -2.876 -21.073  1.00  0.00     0.000 C 
BRANCH  12  13
ATOM     13  C   UNL     1      -7.676  -4.096 -20.880  1.00  0.00     0.006 C 
BRANCH  13  14
ATOM     14  C   UNL     1      -6.995  -5.302 -20.203  1.00  0.00     0.053 C 
BRANCH  14  15
ATOM     15  C   UNL     1      -7.879  -6.003 -19.211  1.00  0.00     0.041 C 
ATOM     16  O   UNL     1      -8.224  -5.413 -18.153  1.00  0.00    -0.550 OA
ATOM     17  O   UNL     1      -8.238  -7.334 -19.395  1.00  0.00    -0.550 OA
ENDBRANCH  14  15
ENDBRANCH  13  14
ENDBRANCH  12  13
ENDBRANCH  11  12
ENDBRANCH  10  11
ENDBRANCH   9  10
ENDBRANCH   8   9
ENDBRANCH   7   8
ENDBRANCH   6   7
ENDBRANCH   5   6
ENDBRANCH   4   5
ENDBRANCH   3   4
ENDBRANCH   2   3
ENDBRANCH   1   2
BRANCH   1  18
ATOM     18  C   UNL     1      -3.906   6.530 -16.761  1.00  0.00     0.000 C 
BRANCH  18  19
ATOM     19  C   UNL     1      -3.092   6.775 -15.483  1.00  0.00     0.000 C 
BRANCH  19  20
ATOM     20  C   UNL     1      -3.553   8.027 -14.713  1.00  0.00     0.000 C 
BRANCH  20  21
ATOM     21  C   UNL     1      -4.302   7.741 -13.395  1.00  0.00     0.000 C 
BRANCH  21  22
ATOM     22  C   UNL     1      -4.771   6.285 -13.214  1.00  0.00     0.000 C 
BRANCH  22  23
ATOM     23  C   UNL     1      -4.553   5.762 -11.783  1.00  0.00     0.000 C 
BRANCH  23  24
ATOM     24  C   UNL     1      -3.634   6.672 -10.955  1.00  0.00    -0.000 C 
BRANCH  24  25
ATOM     25  C   UNL     1      -4.311   7.177  -9.668  1.00  0.00    -0.000 C 
BRANCH  25  26
ATOM     26  C   UNL     1      -4.831   8.619  -9.799  1.00  0.00    -0.000 C 
BRANCH  26  27
ATOM     27  C   UNL     1      -6.353   8.714  -9.622  1.00  0.00    -0.000 C 
BRANCH  27  28
ATOM     28  C   UNL     1      -7.071   8.652 -10.978  1.00  0.00    -0.000 C 
BRANCH  28  29
ATOM     29  C   UNL     1      -8.223   7.631 -11.000  1.00  0.00    -0.000 C 
BRANCH  29  30
ATOM     30  C   UNL     1      -7.810   6.184 -11.342  1.00  0.00    -0.000 C 
BRANCH  30  31
ATOM     31  C   UNL     1      -8.884   5.120 -11.069  1.00  0.00    -0.003 C 
ATOM     32  C   UNL     1      -9.525   5.266  -9.690  1.00  0.00     0.004 C 
ENDBRANCH  30  31
ENDBRANCH  29  30
ENDBRANCH  28  29
ENDBRANCH  27  28
ENDBRANCH  26  27
ENDBRANCH  25  26
ENDBRANCH  24  25
ENDBRANCH  23  24
ENDBRANCH  22  23
ENDBRANCH  21  22
ENDBRANCH  20  21
ENDBRANCH  19  20
ENDBRANCH  18  19
ENDBRANCH   1  18
TORSDOF 28
ENDMDL
MODEL 8
REMARK VINA RESULT:    -7.456      1.773      3.076
REMARK INTER + INTRA:         -20.947
REMARK INTER:                 -18.676
REMARK INTRA:                  -2.271
REMARK UNBOUND:                -1.286
REMARK SMILES CCCCCCCCCCCCCCCCCCCCCCCCCCCCCC(=O)[O-]
REMARK SMILES IDX 16 1 17 2 18 3 19 4 20 5 21 6 22 7 23 8 24 9 25 10 26 11
REMARK SMILES IDX 27 12 28 13 29 14 30 15 31 16 32 17 15 18 14 19 13 20 12 21
REMARK SMILES IDX 11 22 10 23 9 24 8 25 7 26 6 27 5 28 4 29 3 30 2 31 1 32
REMARK H PARENT
REMARK Flexibility Score: inf
ROOT
ATOM      1  C   UNL     1      -3.225   3.584 -17.826  1.00  0.00     0.000 C 
ENDROOT
BRANCH   1   2
ATOM      2  C   UNL     1      -3.279   5.020 -17.277  1.00  0.00     0.000 C 
BRANCH   2   3
ATOM      3  C   UNL     1      -1.905   5.677 -17.046  1.00  0.00     0.000 C 
BRANCH   3   4
ATOM      4  C   UNL     1      -2.003   7.036 -16.335  1.00  0.00     0.000 C 
BRANCH   4   5
ATOM      5  C   UNL     1      -3.017   6.986 -15.182  1.00  0.00     0.000 C 
BRANCH   5   6
ATOM      6  C   UNL     1      -2.928   8.212 -14.256  1.00  0.00     0.000 C 
BRANCH   6   7
ATOM      7  C   UNL     1      -2.667   7.895 -12.770  1.00  0.00     0.000 C 
BRANCH   7   8
ATOM      8  C   UNL     1      -3.926   7.962 -11.880  1.00  0.00     0.000 C 
BRANCH   8   9
ATOM      9  C   UNL     1      -3.812   7.079 -10.622  1.00  0.00     0.000 C 
BRANCH   9  10
ATOM     10  C   UNL     1      -5.161   6.491 -10.181  1.00  0.00     0.000 C 
BRANCH  10  11
ATOM     11  C   UNL     1      -6.320   7.496 -10.308  1.00  0.00     0.000 C 
BRANCH  11  12
ATOM     12  C   UNL     1      -7.667   6.796 -10.577  1.00  0.00     0.000 C 
BRANCH  12  13
ATOM     13  C   UNL     1      -7.739   6.067 -11.934  1.00  0.00     0.006 C 
BRANCH  13  14
ATOM     14  C   UNL     1      -7.176   6.879 -13.118  1.00  0.00     0.053 C 
BRANCH  14  15
ATOM     15  C   UNL     1      -6.325   6.062 -14.048  1.00  0.00     0.041 C 
ATOM     16  O   UNL     1      -5.397   5.348 -13.584  1.00  0.00    -0.550 OA
ATOM     17  O   UNL     1      -6.482   6.161 -15.426  1.00  0.00    -0.550 OA
ENDBRANCH  14  15
ENDBRANCH  13  14
ENDBRANCH  12  13
ENDBRANCH  11  12
ENDBRANCH  10  11
ENDBRANCH   9  10
ENDBRANCH   8   9
ENDBRANCH   7   8
ENDBRANCH   6   7
ENDBRANCH   5   6
ENDBRANCH   4   5
ENDBRANCH   3   4
ENDBRANCH   2   3
ENDBRANCH   1   2
BRANCH   1  18
ATOM     18  C   UNL     1      -1.875   2.899 -17.572  1.00  0.00     0.000 C 
BRANCH  18  19
ATOM     19  C   UNL     1      -2.038   1.372 -17.551  1.00  0.00     0.000 C 
BRANCH  19  20
ATOM     20  C   UNL     1      -3.250   0.891 -18.370  1.00  0.00     0.000 C 
BRANCH  20  21
ATOM     21  C   UNL     1      -4.214  -0.046 -17.614  1.00  0.00     0.000 C 
BRANCH  21  22
ATOM     22  C   UNL     1      -5.134  -0.896 -18.511  1.00  0.00     0.000 C 
BRANCH  22  23
ATOM     23  C   UNL     1      -4.433  -2.148 -19.068  1.00  0.00     0.000 C 
BRANCH  23  24
ATOM     24  C   UNL     1      -4.206  -2.072 -20.585  1.00  0.00    -0.000 C 
BRANCH  24  25
ATOM     25  C   UNL     1      -5.181  -2.967 -21.372  1.00  0.00    -0.000 C 
BRANCH  25  26
ATOM     26  C   UNL     1      -6.641  -2.497 -21.255  1.00  0.00    -0.000 C 
BRANCH  26  27
ATOM     27  C   UNL     1      -7.597  -3.638 -20.876  1.00  0.00    -0.000 C 
BRANCH  27  28
ATOM     28  C   UNL     1      -7.710  -3.778 -19.350  1.00  0.00    -0.000 C 
BRANCH  28  29
ATOM     29  C   UNL     1      -8.732  -4.845 -18.921  1.00  0.00    -0.000 C 
BRANCH  29  30
ATOM     30  C   UNL     1      -8.202  -6.295 -18.915  1.00  0.00    -0.000 C 
BRANCH  30  31
ATOM     31  C   UNL     1      -8.864  -7.233 -19.937  1.00  0.00    -0.003 C 
ATOM     32  C   UNL     1      -8.095  -8.540 -20.127  1.00  0.00     0.004 C 
ENDBRANCH  30  31
ENDBRANCH  29  30
ENDBRANCH  28  29
ENDBRANCH  27  28
ENDBRANCH  26  27
ENDBRANCH  25  26
ENDBRANCH  24  25
ENDBRANCH  23  24
ENDBRANCH  22  23
ENDBRANCH  21  22
ENDBRANCH  20  21
ENDBRANCH  19  20
ENDBRANCH  18  19
ENDBRANCH   1  18
TORSDOF 28
ENDMDL
MODEL 9
REMARK VINA RESULT:    -7.407      2.108      3.352
REMARK INTER + INTRA:         -20.818
REMARK INTER:                 -19.263
REMARK INTRA:                  -1.555
REMARK UNBOUND:                -1.286
REMARK SMILES CCCCCCCCCCCCCCCCCCCCCCCCCCCCCC(=O)[O-]
REMARK SMILES IDX 16 1 17 2 18 3 19 4 20 5 21 6 22 7 23 8 24 9 25 10 26 11
REMARK SMILES IDX 27 12 28 13 29 14 30 15 31 16 32 17 15 18 14 19 13 20 12 21
REMARK SMILES IDX 11 22 10 23 9 24 8 25 7 26 6 27 5 28 4 29 3 30 2 31 1 32
REMARK H PARENT
REMARK Flexibility Score: inf
ROOT
ATOM      1  C   UNL     1      -4.347  -0.354 -17.129  1.00  0.00     0.000 C 
ENDROOT
BRANCH   1   2
ATOM      2  C   UNL     1      -3.676   1.012 -16.900  1.00  0.00     0.000 C 
BRANCH   2   3
ATOM      3  C   UNL     1      -2.207   1.096 -17.355  1.00  0.00     0.000 C 
BRANCH   3   4
ATOM      4  C   UNL     1      -1.882   2.407 -18.089  1.00  0.00     0.000 C 
BRANCH   4   5
ATOM      5  C   UNL     1      -2.184   3.627 -17.204  1.00  0.00     0.000 C 
BRANCH   5   6
ATOM      6  C   UNL     1      -3.046   4.683 -17.918  1.00  0.00     0.000 C 
BRANCH   6   7
ATOM      7  C   UNL     1      -3.329   5.960 -17.102  1.00  0.00     0.000 C 
BRANCH   7   8
ATOM      8  C   UNL     1      -4.805   6.126 -16.683  1.00  0.00     0.000 C 
BRANCH   8   9
ATOM      9  C   UNL     1      -5.069   5.652 -15.240  1.00  0.00     0.000 C 
BRANCH   9  10
ATOM     10  C   UNL     1      -4.915   6.777 -14.205  1.00  0.00     0.000 C 
BRANCH  10  11
ATOM     11  C   UNL     1      -5.342   6.347 -12.790  1.00  0.00     0.000 C 
BRANCH  11  12
ATOM     12  C   UNL     1      -6.188   7.428 -12.087  1.00  0.00     0.000 C 
BRANCH  12  13
ATOM     13  C   UNL     1      -6.652   7.041 -10.668  1.00  0.00     0.006 C 
BRANCH  13  14
ATOM     14  C   UNL     1      -8.170   6.801 -10.544  1.00  0.00     0.053 C 
BRANCH  14  15
ATOM     15  C   UNL     1      -8.612   5.483 -11.116  1.00  0.00     0.041 C 
ATOM     16  O   UNL     1      -8.915   4.536 -10.345  1.00  0.00    -0.550 OA
ATOM     17  O   UNL     1      -8.593   5.262 -12.489  1.00  0.00    -0.550 OA
ENDBRANCH  14  15
ENDBRANCH  13  14
ENDBRANCH  12  13
ENDBRANCH  11  12
ENDBRANCH  10  11
ENDBRANCH   9  10
ENDBRANCH   8   9
ENDBRANCH   7   8
ENDBRANCH   6   7
ENDBRANCH   5   6
ENDBRANCH   4   5
ENDBRANCH   3   4
ENDBRANCH   2   3
ENDBRANCH   1   2
BRANCH   1  18
ATOM     18  C   UNL     1      -4.752  -0.580 -18.592  1.00  0.00     0.000 C 
BRANCH  18  19
ATOM     19  C   UNL     1      -3.735  -1.487 -19.302  1.00  0.00     0.000 C 
BRANCH  19  20
ATOM     20  C   UNL     1      -4.402  -2.639 -20.075  1.00  0.00     0.000 C 
BRANCH  20  21
ATOM     21  C   UNL     1      -4.575  -2.393 -21.587  1.00  0.00     0.000 C 
BRANCH  21  22
ATOM     22  C   UNL     1      -5.577  -3.329 -22.290  1.00  0.00     0.000 C 
BRANCH  22  23
ATOM     23  C   UNL     1      -6.703  -3.807 -21.356  1.00  0.00     0.000 C 
BRANCH  23  24
ATOM     24  C   UNL     1      -7.394  -2.649 -20.622  1.00  0.00    -0.000 C 
BRANCH  24  25
ATOM     25  C   UNL     1      -7.894  -3.053 -19.223  1.00  0.00    -0.000 C 
BRANCH  25  26
ATOM     26  C   UNL     1      -7.258  -4.360 -18.721  1.00  0.00    -0.000 C 
BRANCH  26  27
ATOM     27  C   UNL     1      -8.299  -5.349 -18.178  1.00  0.00    -0.000 C 
BRANCH  27  28
ATOM     28  C   UNL     1      -9.002  -6.095 -19.322  1.00  0.00    -0.000 C 
BRANCH  28  29
ATOM     29  C   UNL     1      -8.077  -7.088 -20.047  1.00  0.00    -0.000 C 
BRANCH  29  30
ATOM     30  C   UNL     1      -8.329  -8.575 -19.719  1.00  0.00    -0.000 C 
BRANCH  30  31
ATOM     31  C   UNL     1      -7.838  -9.568 -20.786  1.00  0.00    -0.003 C 
ATOM     32  C   UNL     1      -8.032 -11.026 -20.370  1.00  0.00     0.004 C 
ENDBRANCH  30  31
ENDBRANCH  29  30
ENDBRANCH  28  29
ENDBRANCH  27  28
ENDBRANCH  26  27
ENDBRANCH  25  26
ENDBRANCH  24  25
ENDBRANCH  23  24
ENDBRANCH  22  23
ENDBRANCH  21  22
ENDBRANCH  20  21
ENDBRANCH  19  20
ENDBRANCH  18  19
ENDBRANCH   1  18
TORSDOF 28
ENDMDL
