MODEL 1
REMARK VINA RESULT:    -8.169      0.000      0.000
REMARK INTER + INTRA:          -9.946
REMARK INTER:                  -9.840
REMARK INTRA:                  -0.106
REMARK UNBOUND:                -0.106
REMARK SMILES O=c1c(O)c(-c2ccc(O)c(O)c2)oc2cc(O)cc(O)c12
REMARK SMILES IDX 5 1 3 2 2 3 1 4 22 5 20 6 19 7 17 8 16 9 15 10 14 11 6 12
REMARK SMILES IDX 7 13 8 14 9 15 13 16 11 17 10 18 12 20 4 22 21 24 18 26
REMARK H PARENT 10 19 12 21 4 23 21 25 18 27
REMARK Flexibility Score: inf
ROOT
ATOM      1  C   UNL     1      46.301  -5.374  26.114  1.00  0.00     0.180 A 
ATOM      2  C   UNL     1      45.272  -6.040  26.805  1.00  0.00     0.208 A 
ATOM      3  C   UNL     1      44.485  -5.315  27.715  1.00  0.00     0.238 A 
ATOM      4  O   UNL     1      43.554  -5.899  28.332  1.00  0.00    -0.285 OA
ATOM      5  C   UNL     1      44.753  -3.949  27.933  1.00  0.00     0.111 A 
ATOM      6  C   UNL     1      44.012  -3.148  28.834  1.00  0.00     0.134 A 
ATOM      7  C   UNL     1      44.347  -1.796  29.002  1.00  0.00     0.093 A 
ATOM      8  C   UNL     1      45.406  -1.231  28.288  1.00  0.00     0.123 A 
ATOM      9  C   UNL     1      46.142  -2.016  27.395  1.00  0.00     0.094 A 
ATOM     10  C   UNL     1      45.823  -3.366  27.213  1.00  0.00     0.146 A 
ATOM     11  O   UNL     1      46.534  -4.088  26.356  1.00  0.00    -0.452 OA
ENDROOT
BRANCH   1  12
ATOM     12  C   UNL     1      47.160  -6.065  25.125  1.00  0.00     0.025 A 
ATOM     13  C   UNL     1      46.609  -6.725  24.012  1.00  0.00     0.016 A 
ATOM     14  C   UNL     1      47.442  -7.350  23.079  1.00  0.00     0.051 A 
ATOM     15  C   UNL     1      48.830  -7.314  23.234  1.00  0.00     0.157 A 
ATOM     16  C   UNL     1      48.556  -6.013  25.266  1.00  0.00     0.062 A 
ATOM     17  C   UNL     1      49.392  -6.641  24.331  1.00  0.00     0.158 A 
BRANCH  15  18
ATOM     18  O   UNL     1      49.635  -7.949  22.287  1.00  0.00    -0.504 OA
ATOM     19  H   UNL     1      49.904  -8.922  22.376  1.00  0.00     0.293 HD
ENDBRANCH  15  18
BRANCH  17  20
ATOM     20  O   UNL     1      50.777  -6.595  24.488  1.00  0.00    -0.504 OA
ATOM     21  H   UNL     1      51.286  -7.350  24.931  1.00  0.00     0.293 HD
ENDBRANCH  17  20
ENDBRANCH   1  12
BRANCH   2  22
ATOM     22  O   UNL     1      45.058  -7.407  26.608  1.00  0.00    -0.502 OA
ATOM     23  H   UNL     1      45.617  -8.116  27.069  1.00  0.00     0.293 HD
ENDBRANCH   2  22
BRANCH   6  24
ATOM     24  O   UNL     1      42.949  -3.683  29.563  1.00  0.00    -0.507 OA
ATOM     25  H   UNL     1      43.055  -3.970  30.528  1.00  0.00     0.293 HD
ENDBRANCH   6  24
BRANCH   8  26
ATOM     26  O   UNL     1      45.718   0.114  28.474  1.00  0.00    -0.508 OA
ATOM     27  H   UNL     1      46.371   0.412  29.190  1.00  0.00     0.293 HD
ENDBRANCH   8  26
TORSDOF 6
ENDMDL
MODEL 2
REMARK VINA RESULT:    -7.877      2.235      7.146
REMARK INTER + INTRA:          -9.594
REMARK INTER:                  -9.466
REMARK INTRA:                  -0.128
REMARK UNBOUND:                -0.106
REMARK SMILES O=c1c(O)c(-c2ccc(O)c(O)c2)oc2cc(O)cc(O)c12
REMARK SMILES IDX 5 1 3 2 2 3 1 4 22 5 20 6 19 7 17 8 16 9 15 10 14 11 6 12
REMARK SMILES IDX 7 13 8 14 9 15 13 16 11 17 10 18 12 20 4 22 21 24 18 26
REMARK H PARENT 10 19 12 21 4 23 21 25 18 27
REMARK Flexibility Score: inf
ROOT
ATOM      1  C   UNL     1      44.894  -5.604  26.382  1.00  0.00     0.180 A 
ATOM      2  C   UNL     1      45.954  -4.766  26.775  1.00  0.00     0.208 A 
ATOM      3  C   UNL     1      47.167  -4.830  26.071  1.00  0.00     0.238 A 
ATOM      4  O   UNL     1      48.120  -4.076  26.408  1.00  0.00    -0.285 OA
ATOM      5  C   UNL     1      47.306  -5.739  25.003  1.00  0.00     0.111 A 
ATOM      6  C   UNL     1      48.494  -5.869  24.245  1.00  0.00     0.134 A 
ATOM      7  C   UNL     1      48.556  -6.806  23.203  1.00  0.00     0.093 A 
ATOM      8  C   UNL     1      47.457  -7.613  22.905  1.00  0.00     0.123 A 
ATOM      9  C   UNL     1      46.279  -7.490  23.649  1.00  0.00     0.094 A 
ATOM     10  C   UNL     1      46.197  -6.561  24.692  1.00  0.00     0.146 A 
ATOM     11  O   UNL     1      45.066  -6.461  25.379  1.00  0.00    -0.452 OA
ENDROOT
BRANCH   1  12
ATOM     12  C   UNL     1      43.578  -5.582  27.062  1.00  0.00     0.025 A 
ATOM     13  C   UNL     1      43.455  -5.893  28.427  1.00  0.00     0.016 A 
ATOM     14  C   UNL     1      42.207  -5.842  29.053  1.00  0.00     0.051 A 
ATOM     15  C   UNL     1      41.069  -5.469  28.333  1.00  0.00     0.157 A 
ATOM     16  C   UNL     1      42.437  -5.187  26.346  1.00  0.00     0.062 A 
ATOM     17  C   UNL     1      41.183  -5.136  26.973  1.00  0.00     0.158 A 
BRANCH  15  18
ATOM     18  O   UNL     1      39.836  -5.430  28.984  1.00  0.00    -0.504 OA
ATOM     19  H   UNL     1      39.751  -5.569  29.984  1.00  0.00     0.293 HD
ENDBRANCH  15  18
BRANCH  17  20
ATOM     20  O   UNL     1      40.054  -4.756  26.249  1.00  0.00    -0.504 OA
ATOM     21  H   UNL     1      39.555  -5.412  25.660  1.00  0.00     0.293 HD
ENDBRANCH  17  20
ENDBRANCH   1  12
BRANCH   2  22
ATOM     22  O   UNL     1      45.807  -3.908  27.868  1.00  0.00    -0.502 OA
ATOM     23  H   UNL     1      44.911  -3.517  28.135  1.00  0.00     0.293 HD
ENDBRANCH   2  22
BRANCH   6  24
ATOM     24  O   UNL     1      49.610  -5.078  24.519  1.00  0.00    -0.507 OA
ATOM     25  H   UNL     1      49.949  -4.387  23.860  1.00  0.00     0.293 HD
ENDBRANCH   6  24
BRANCH   8  26
ATOM     26  O   UNL     1      47.545  -8.536  21.865  1.00  0.00    -0.508 OA
ATOM     27  H   UNL     1      48.387  -9.080  21.710  1.00  0.00     0.293 HD
ENDBRANCH   8  26
TORSDOF 6
ENDMDL
MODEL 3
REMARK VINA RESULT:    -7.775      1.616      6.769
REMARK INTER + INTRA:          -9.471
REMARK INTER:                  -9.476
REMARK INTRA:                   0.005
REMARK UNBOUND:                -0.106
REMARK SMILES O=c1c(O)c(-c2ccc(O)c(O)c2)oc2cc(O)cc(O)c12
REMARK SMILES IDX 5 1 3 2 2 3 1 4 22 5 20 6 19 7 17 8 16 9 15 10 14 11 6 12
REMARK SMILES IDX 7 13 8 14 9 15 13 16 11 17 10 18 12 20 4 22 21 24 18 26
REMARK H PARENT 10 19 12 21 4 23 21 25 18 27
REMARK Flexibility Score: inf
ROOT
ATOM      1  C   UNL     1      44.955  -4.726  27.398  1.00  0.00     0.180 A 
ATOM      2  C   UNL     1      44.359  -5.659  26.529  1.00  0.00     0.208 A 
ATOM      3  C   UNL     1      45.164  -6.321  25.588  1.00  0.00     0.238 A 
ATOM      4  O   UNL     1      44.643  -7.166  24.811  1.00  0.00    -0.285 OA
ATOM      5  C   UNL     1      46.540  -6.025  25.517  1.00  0.00     0.111 A 
ATOM      6  C   UNL     1      47.420  -6.643  24.597  1.00  0.00     0.134 A 
ATOM      7  C   UNL     1      48.776  -6.287  24.584  1.00  0.00     0.093 A 
ATOM      8  C   UNL     1      49.270  -5.328  25.470  1.00  0.00     0.123 A 
ATOM      9  C   UNL     1      48.407  -4.713  26.383  1.00  0.00     0.094 A 
ATOM     10  C   UNL     1      47.051  -5.055  26.413  1.00  0.00     0.146 A 
ATOM     11  O   UNL     1      46.254  -4.462  27.293  1.00  0.00    -0.452 OA
ENDROOT
BRANCH   1  12
ATOM     12  C   UNL     1      44.177  -4.002  28.430  1.00  0.00     0.025 A 
ATOM     13  C   UNL     1      43.296  -4.680  29.290  1.00  0.00     0.016 A 
ATOM     14  C   UNL     1      42.590  -3.979  30.272  1.00  0.00     0.051 A 
ATOM     15  C   UNL     1      42.762  -2.600  30.419  1.00  0.00     0.157 A 
ATOM     16  C   UNL     1      44.363  -2.620  28.593  1.00  0.00     0.062 A 
ATOM     17  C   UNL     1      43.655  -1.916  29.578  1.00  0.00     0.158 A 
BRANCH  15  18
ATOM     18  O   UNL     1      42.042  -1.927  31.406  1.00  0.00    -0.504 OA
ATOM     19  H   UNL     1      41.030  -1.870  31.389  1.00  0.00     0.293 HD
ENDBRANCH  15  18
BRANCH  17  20
ATOM     20  O   UNL     1      43.837  -0.541  29.722  1.00  0.00    -0.504 OA
ATOM     21  H   UNL     1      44.736  -0.148  29.973  1.00  0.00     0.293 HD
ENDBRANCH  17  20
ENDBRANCH   1  12
BRANCH   2  22
ATOM     22  O   UNL     1      42.983  -5.899  26.586  1.00  0.00    -0.502 OA
ATOM     23  H   UNL     1      42.299  -5.159  26.479  1.00  0.00     0.293 HD
ENDBRANCH   2  22
BRANCH   6  24
ATOM     24  O   UNL     1      46.958  -7.605  23.697  1.00  0.00    -0.507 OA
ATOM     25  H   UNL     1      47.445  -8.482  23.557  1.00  0.00     0.293 HD
ENDBRANCH   6  24
BRANCH   8  26
ATOM     26  O   UNL     1      50.622  -4.992  25.435  1.00  0.00    -0.508 OA
ATOM     27  H   UNL     1      50.960  -4.218  24.875  1.00  0.00     0.293 HD
ENDBRANCH   8  26
TORSDOF 6
ENDMDL
MODEL 4
REMARK VINA RESULT:    -7.611      2.297      3.298
REMARK INTER + INTRA:          -9.274
REMARK INTER:                  -9.111
REMARK INTRA:                  -0.163
REMARK UNBOUND:                -0.106
REMARK SMILES O=c1c(O)c(-c2ccc(O)c(O)c2)oc2cc(O)cc(O)c12
REMARK SMILES IDX 5 1 3 2 2 3 1 4 22 5 20 6 19 7 17 8 16 9 15 10 14 11 6 12
REMARK SMILES IDX 7 13 8 14 9 15 13 16 11 17 10 18 12 20 4 22 21 24 18 26
REMARK H PARENT 10 19 12 21 4 23 21 25 18 27
REMARK Flexibility Score: inf
ROOT
ATOM      1  C   UNL     1      43.888  -4.746  27.493  1.00  0.00     0.180 A 
ATOM      2  C   UNL     1      42.552  -4.913  27.082  1.00  0.00     0.208 A 
ATOM      3  C   UNL     1      41.551  -4.147  27.702  1.00  0.00     0.238 A 
ATOM      4  O   UNL     1      40.352  -4.281  27.334  1.00  0.00    -0.285 OA
ATOM      5  C   UNL     1      41.897  -3.248  28.730  1.00  0.00     0.111 A 
ATOM      6  C   UNL     1      40.950  -2.444  29.408  1.00  0.00     0.134 A 
ATOM      7  C   UNL     1      41.375  -1.580  30.428  1.00  0.00     0.093 A 
ATOM      8  C   UNL     1      42.723  -1.504  30.783  1.00  0.00     0.123 A 
ATOM      9  C   UNL     1      43.664  -2.295  30.117  1.00  0.00     0.094 A 
ATOM     10  C   UNL     1      43.262  -3.163  29.096  1.00  0.00     0.146 A 
ATOM     11  O   UNL     1      44.176  -3.899  28.476  1.00  0.00    -0.452 OA
ENDROOT
BRANCH   1  12
ATOM     12  C   UNL     1      45.002  -5.502  26.874  1.00  0.00     0.025 A 
ATOM     13  C   UNL     1      45.086  -6.901  26.984  1.00  0.00     0.016 A 
ATOM     14  C   UNL     1      46.134  -7.595  26.372  1.00  0.00     0.051 A 
ATOM     15  C   UNL     1      47.102  -6.908  25.633  1.00  0.00     0.157 A 
ATOM     16  C   UNL     1      45.964  -4.817  26.115  1.00  0.00     0.062 A 
ATOM     17  C   UNL     1      47.016  -5.512  25.500  1.00  0.00     0.158 A 
BRANCH  15  18
ATOM     18  O   UNL     1      48.136  -7.627  25.036  1.00  0.00    -0.504 OA
ATOM     19  H   UNL     1      48.313  -7.590  24.039  1.00  0.00     0.293 HD
ENDBRANCH  15  18
BRANCH  17  20
ATOM     20  O   UNL     1      47.973  -4.820  24.760  1.00  0.00    -0.504 OA
ATOM     21  H   UNL     1      48.863  -5.239  24.519  1.00  0.00     0.293 HD
ENDBRANCH  17  20
ENDBRANCH   1  12
BRANCH   2  22
ATOM     22  O   UNL     1      42.228  -5.847  26.094  1.00  0.00    -0.502 OA
ATOM     23  H   UNL     1      41.270  -6.097  25.877  1.00  0.00     0.293 HD
ENDBRANCH   2  22
BRANCH   6  24
ATOM     24  O   UNL     1      39.596  -2.497  29.077  1.00  0.00    -0.507 OA
ATOM     25  H   UNL     1      38.890  -2.047  29.648  1.00  0.00     0.293 HD
ENDBRANCH   6  24
BRANCH   8  26
ATOM     26  O   UNL     1      43.117  -0.637  31.800  1.00  0.00    -0.508 OA
ATOM     27  H   UNL     1      43.726  -0.944  32.550  1.00  0.00     0.293 HD
ENDBRANCH   8  26
TORSDOF 6
ENDMDL
MODEL 5
REMARK VINA RESULT:    -7.479      2.887      7.033
REMARK INTER + INTRA:          -9.114
REMARK INTER:                  -8.818
REMARK INTRA:                  -0.296
REMARK UNBOUND:                -0.106
REMARK SMILES O=c1c(O)c(-c2ccc(O)c(O)c2)oc2cc(O)cc(O)c12
REMARK SMILES IDX 5 1 3 2 2 3 1 4 22 5 20 6 19 7 17 8 16 9 15 10 14 11 6 12
REMARK SMILES IDX 7 13 8 14 9 15 13 16 11 17 10 18 12 20 4 22 21 24 18 26
REMARK H PARENT 10 19 12 21 4 23 21 25 18 27
REMARK Flexibility Score: inf
ROOT
ATOM      1  C   UNL     1      43.571  -5.122  27.139  1.00  0.00     0.180 A 
ATOM      2  C   UNL     1      44.217  -3.973  27.633  1.00  0.00     0.208 A 
ATOM      3  C   UNL     1      45.580  -3.787  27.351  1.00  0.00     0.238 A 
ATOM      4  O   UNL     1      46.167  -2.756  27.779  1.00  0.00    -0.285 OA
ATOM      5  C   UNL     1      46.275  -4.757  26.601  1.00  0.00     0.111 A 
ATOM      6  C   UNL     1      47.649  -4.648  26.277  1.00  0.00     0.134 A 
ATOM      7  C   UNL     1      48.271  -5.662  25.534  1.00  0.00     0.093 A 
ATOM      8  C   UNL     1      47.549  -6.780  25.111  1.00  0.00     0.123 A 
ATOM      9  C   UNL     1      46.192  -6.894  25.427  1.00  0.00     0.094 A 
ATOM     10  C   UNL     1      45.553  -5.893  26.166  1.00  0.00     0.146 A 
ATOM     11  O   UNL     1      44.262  -6.023  26.448  1.00  0.00    -0.452 OA
ENDROOT
BRANCH   1  12
ATOM     12  C   UNL     1      42.131  -5.379  27.378  1.00  0.00     0.025 A 
ATOM     13  C   UNL     1      41.675  -5.903  28.599  1.00  0.00     0.016 A 
ATOM     14  C   UNL     1      40.309  -6.115  28.810  1.00  0.00     0.051 A 
ATOM     15  C   UNL     1      39.382  -5.797  27.814  1.00  0.00     0.157 A 
ATOM     16  C   UNL     1      41.196  -5.041  26.387  1.00  0.00     0.062 A 
ATOM     17  C   UNL     1      39.825  -5.254  26.596  1.00  0.00     0.158 A 
BRANCH  15  18
ATOM     18  O   UNL     1      38.026  -6.022  28.052  1.00  0.00    -0.504 OA
ATOM     19  H   UNL     1      37.306  -5.680  27.426  1.00  0.00     0.293 HD
ENDBRANCH  15  18
BRANCH  17  20
ATOM     20  O   UNL     1      38.906  -4.928  25.600  1.00  0.00    -0.504 OA
ATOM     21  H   UNL     1      38.116  -4.321  25.784  1.00  0.00     0.293 HD
ENDBRANCH  17  20
ENDBRANCH   1  12
BRANCH   2  22
ATOM     22  O   UNL     1      43.518  -3.050  28.415  1.00  0.00    -0.502 OA
ATOM     23  H   UNL     1      42.849  -3.334  29.123  1.00  0.00     0.293 HD
ENDBRANCH   2  22
BRANCH   6  24
ATOM     24  O   UNL     1      48.398  -3.544  26.686  1.00  0.00    -0.507 OA
ATOM     25  H   UNL     1      48.663  -2.810  26.040  1.00  0.00     0.293 HD
ENDBRANCH   6  24
BRANCH   8  26
ATOM     26  O   UNL     1      48.192  -7.773  24.374  1.00  0.00    -0.508 OA
ATOM     27  H   UNL     1      47.785  -8.151  23.526  1.00  0.00     0.293 HD
ENDBRANCH   8  26
TORSDOF 6
ENDMDL
MODEL 6
REMARK VINA RESULT:    -7.351      1.667      3.419
REMARK INTER + INTRA:          -8.961
REMARK INTER:                  -9.476
REMARK INTRA:                   0.515
REMARK UNBOUND:                -0.106
REMARK SMILES O=c1c(O)c(-c2ccc(O)c(O)c2)oc2cc(O)cc(O)c12
REMARK SMILES IDX 5 1 3 2 2 3 1 4 22 5 20 6 19 7 17 8 16 9 15 10 14 11 6 12
REMARK SMILES IDX 7 13 8 14 9 15 13 16 11 17 10 18 12 20 4 22 21 24 18 26
REMARK H PARENT 10 19 12 21 4 23 21 25 18 27
REMARK Flexibility Score: inf
ROOT
ATOM      1  C   UNL     1      45.589  -4.212  27.360  1.00  0.00     0.180 A 
ATOM      2  C   UNL     1      45.991  -2.874  27.532  1.00  0.00     0.208 A 
ATOM      3  C   UNL     1      45.192  -2.019  28.308  1.00  0.00     0.238 A 
ATOM      4  O   UNL     1      45.548  -0.822  28.476  1.00  0.00    -0.285 OA
ATOM      5  C   UNL     1      44.000  -2.508  28.879  1.00  0.00     0.111 A 
ATOM      6  C   UNL     1      43.137  -1.712  29.670  1.00  0.00     0.134 A 
ATOM      7  C   UNL     1      41.963  -2.271  30.196  1.00  0.00     0.093 A 
ATOM      8  C   UNL     1      41.635  -3.605  29.948  1.00  0.00     0.123 A 
ATOM      9  C   UNL     1      42.484  -4.398  29.168  1.00  0.00     0.094 A 
ATOM     10  C   UNL     1      43.659  -3.860  28.635  1.00  0.00     0.146 A 
ATOM     11  O   UNL     1      44.450  -4.634  27.903  1.00  0.00    -0.452 OA
ENDROOT
BRANCH   1  12
ATOM     12  C   UNL     1      46.387  -5.180  26.573  1.00  0.00     0.025 A 
ATOM     13  C   UNL     1      46.062  -6.547  26.547  1.00  0.00     0.016 A 
ATOM     14  C   UNL     1      46.816  -7.437  25.777  1.00  0.00     0.051 A 
ATOM     15  C   UNL     1      47.893  -6.977  25.015  1.00  0.00     0.157 A 
ATOM     16  C   UNL     1      47.457  -4.717  25.790  1.00  0.00     0.062 A 
ATOM     17  C   UNL     1      48.216  -5.610  25.019  1.00  0.00     0.158 A 
BRANCH  15  18
ATOM     18  O   UNL     1      48.629  -7.890  24.260  1.00  0.00    -0.504 OA
ATOM     19  H   UNL     1      48.255  -8.794  23.995  1.00  0.00     0.293 HD
ENDBRANCH  15  18
BRANCH  17  20
ATOM     20  O   UNL     1      49.285  -5.142  24.256  1.00  0.00    -0.504 OA
ATOM     21  H   UNL     1      49.251  -4.245  23.787  1.00  0.00     0.293 HD
ENDBRANCH  17  20
ENDBRANCH   1  12
BRANCH   2  22
ATOM     22  O   UNL     1      47.151  -2.401  26.914  1.00  0.00    -0.502 OA
ATOM     23  H   UNL     1      47.146  -1.999  25.983  1.00  0.00     0.293 HD
ENDBRANCH   2  22
BRANCH   6  24
ATOM     24  O   UNL     1      43.435  -0.375  29.936  1.00  0.00    -0.507 OA
ATOM     25  H   UNL     1      42.708   0.308  30.112  1.00  0.00     0.293 HD
ENDBRANCH   6  24
BRANCH   8  26
ATOM     26  O   UNL     1      40.462  -4.135  30.482  1.00  0.00    -0.508 OA
ATOM     27  H   UNL     1      39.943  -4.862  30.002  1.00  0.00     0.293 HD
ENDBRANCH   8  26
TORSDOF 6
ENDMDL
MODEL 7
REMARK VINA RESULT:    -7.097      3.034      4.606
REMARK INTER + INTRA:          -8.655
REMARK INTER:                  -8.613
REMARK INTRA:                  -0.042
REMARK UNBOUND:                -0.106
REMARK SMILES O=c1c(O)c(-c2ccc(O)c(O)c2)oc2cc(O)cc(O)c12
REMARK SMILES IDX 5 1 3 2 2 3 1 4 22 5 20 6 19 7 17 8 16 9 15 10 14 11 6 12
REMARK SMILES IDX 7 13 8 14 9 15 13 16 11 17 10 18 12 20 4 22 21 24 18 26
REMARK H PARENT 10 19 12 21 4 23 21 25 18 27
REMARK Flexibility Score: inf
ROOT
ATOM      1  C   UNL     1      43.619  -5.119  27.144  1.00  0.00     0.180 A 
ATOM      2  C   UNL     1      43.660  -4.022  28.026  1.00  0.00     0.208 A 
ATOM      3  C   UNL     1      42.451  -3.469  28.477  1.00  0.00     0.238 A 
ATOM      4  O   UNL     1      42.476  -2.493  29.275  1.00  0.00    -0.285 OA
ATOM      5  C   UNL     1      41.228  -4.004  28.026  1.00  0.00     0.111 A 
ATOM      6  C   UNL     1      39.967  -3.503  28.429  1.00  0.00     0.134 A 
ATOM      7  C   UNL     1      38.794  -4.086  27.927  1.00  0.00     0.093 A 
ATOM      8  C   UNL     1      38.856  -5.156  27.033  1.00  0.00     0.123 A 
ATOM      9  C   UNL     1      40.099  -5.657  26.631  1.00  0.00     0.094 A 
ATOM     10  C   UNL     1      41.280  -5.091  27.121  1.00  0.00     0.146 A 
ATOM     11  O   UNL     1      42.446  -5.589  26.728  1.00  0.00    -0.452 OA
ENDROOT
BRANCH   1  12
ATOM     12  C   UNL     1      44.850  -5.770  26.639  1.00  0.00     0.025 A 
ATOM     13  C   UNL     1      45.056  -7.153  26.781  1.00  0.00     0.016 A 
ATOM     14  C   UNL     1      46.215  -7.749  26.275  1.00  0.00     0.051 A 
ATOM     15  C   UNL     1      47.175  -6.980  25.612  1.00  0.00     0.157 A 
ATOM     16  C   UNL     1      45.806  -5.003  25.954  1.00  0.00     0.062 A 
ATOM     17  C   UNL     1      46.970  -5.600  25.447  1.00  0.00     0.158 A 
BRANCH  15  18
ATOM     18  O   UNL     1      48.323  -7.602  25.121  1.00  0.00    -0.504 OA
ATOM     19  H   UNL     1      48.294  -8.517  24.686  1.00  0.00     0.293 HD
ENDBRANCH  15  18
BRANCH  17  20
ATOM     20  O   UNL     1      47.919  -4.826  24.781  1.00  0.00    -0.504 OA
ATOM     21  H   UNL     1      48.256  -3.952  25.165  1.00  0.00     0.293 HD
ENDBRANCH  17  20
ENDBRANCH   1  12
BRANCH   2  22
ATOM     22  O   UNL     1      44.885  -3.478  28.420  1.00  0.00    -0.502 OA
ATOM     23  H   UNL     1      45.669  -3.387  27.783  1.00  0.00     0.293 HD
ENDBRANCH   2  22
BRANCH   6  24
ATOM     24  O   UNL     1      39.871  -2.434  29.320  1.00  0.00    -0.507 OA
ATOM     25  H   UNL     1      40.024  -2.553  30.314  1.00  0.00     0.293 HD
ENDBRANCH   6  24
BRANCH   8  26
ATOM     26  O   UNL     1      37.676  -5.716  26.549  1.00  0.00    -0.508 OA
ATOM     27  H   UNL     1      37.416  -5.642  25.572  1.00  0.00     0.293 HD
ENDBRANCH   8  26
TORSDOF 6
ENDMDL
MODEL 8
REMARK VINA RESULT:    -7.023      1.519      2.264
REMARK INTER + INTRA:          -8.565
REMARK INTER:                  -9.070
REMARK INTRA:                   0.505
REMARK UNBOUND:                -0.106
REMARK SMILES O=c1c(O)c(-c2ccc(O)c(O)c2)oc2cc(O)cc(O)c12
REMARK SMILES IDX 5 1 3 2 2 3 1 4 22 5 20 6 19 7 17 8 16 9 15 10 14 11 6 12
REMARK SMILES IDX 7 13 8 14 9 15 13 16 11 17 10 18 12 20 4 22 21 24 18 26
REMARK H PARENT 10 19 12 21 4 23 21 25 18 27
REMARK Flexibility Score: inf
ROOT
ATOM      1  C   UNL     1      45.512  -4.790  26.963  1.00  0.00     0.180 A 
ATOM      2  C   UNL     1      44.353  -5.584  26.886  1.00  0.00     0.208 A 
ATOM      3  C   UNL     1      43.180  -5.136  27.514  1.00  0.00     0.238 A 
ATOM      4  O   UNL     1      42.133  -5.835  27.442  1.00  0.00    -0.285 OA
ATOM      5  C   UNL     1      43.190  -3.918  28.222  1.00  0.00     0.111 A 
ATOM      6  C   UNL     1      42.053  -3.397  28.885  1.00  0.00     0.134 A 
ATOM      7  C   UNL     1      42.147  -2.181  29.577  1.00  0.00     0.093 A 
ATOM      8  C   UNL     1      43.352  -1.476  29.619  1.00  0.00     0.123 A 
ATOM      9  C   UNL     1      44.479  -1.984  28.965  1.00  0.00     0.094 A 
ATOM     10  C   UNL     1      44.406  -3.195  28.269  1.00  0.00     0.146 A 
ATOM     11  O   UNL     1      45.488  -3.652  27.652  1.00  0.00    -0.452 OA
ENDROOT
BRANCH   1  12
ATOM     12  C   UNL     1      46.783  -5.184  26.311  1.00  0.00     0.025 A 
ATOM     13  C   UNL     1      47.995  -4.547  26.627  1.00  0.00     0.016 A 
ATOM     14  C   UNL     1      49.185  -4.952  26.016  1.00  0.00     0.051 A 
ATOM     15  C   UNL     1      49.185  -6.004  25.095  1.00  0.00     0.157 A 
ATOM     16  C   UNL     1      46.789  -6.253  25.402  1.00  0.00     0.062 A 
ATOM     17  C   UNL     1      47.982  -6.661  24.787  1.00  0.00     0.158 A 
BRANCH  15  18
ATOM     18  O   UNL     1      50.388  -6.384  24.500  1.00  0.00    -0.504 OA
ATOM     19  H   UNL     1      51.270  -6.344  24.997  1.00  0.00     0.293 HD
ENDBRANCH  15  18
BRANCH  17  20
ATOM     20  O   UNL     1      47.975  -7.715  23.875  1.00  0.00    -0.504 OA
ATOM     21  H   UNL     1      48.639  -8.477  23.939  1.00  0.00     0.293 HD
ENDBRANCH  17  20
ENDBRANCH   1  12
BRANCH   2  22
ATOM     22  O   UNL     1      44.382  -6.812  26.219  1.00  0.00    -0.502 OA
ATOM     23  H   UNL     1      43.943  -6.951  25.316  1.00  0.00     0.293 HD
ENDBRANCH   2  22
BRANCH   6  24
ATOM     24  O   UNL     1      40.835  -4.078  28.863  1.00  0.00    -0.507 OA
ATOM     25  H   UNL     1      40.474  -4.552  29.682  1.00  0.00     0.293 HD
ENDBRANCH   6  24
BRANCH   8  26
ATOM     26  O   UNL     1      43.418  -0.271  30.314  1.00  0.00    -0.508 OA
ATOM     27  H   UNL     1      42.580   0.238  30.572  1.00  0.00     0.293 HD
ENDBRANCH   8  26
TORSDOF 6
ENDMDL
MODEL 9
REMARK VINA RESULT:    -7.002      3.234      8.307
REMARK INTER + INTRA:          -8.541
REMARK INTER:                  -8.223
REMARK INTRA:                  -0.318
REMARK UNBOUND:                -0.106
REMARK SMILES O=c1c(O)c(-c2ccc(O)c(O)c2)oc2cc(O)cc(O)c12
REMARK SMILES IDX 5 1 3 2 2 3 1 4 22 5 20 6 19 7 17 8 16 9 15 10 14 11 6 12
REMARK SMILES IDX 7 13 8 14 9 15 13 16 11 17 10 18 12 20 4 22 21 24 18 26
REMARK H PARENT 10 19 12 21 4 23 21 25 18 27
REMARK Flexibility Score: inf
ROOT
ATOM      1  C   UNL     1      42.917  -2.372  29.988  1.00  0.00     0.180 A 
ATOM      2  C   UNL     1      41.633  -2.736  29.540  1.00  0.00     0.208 A 
ATOM      3  C   UNL     1      41.517  -3.676  28.503  1.00  0.00     0.238 A 
ATOM      4  O   UNL     1      40.372  -4.016  28.101  1.00  0.00    -0.285 OA
ATOM      5  C   UNL     1      42.680  -4.218  27.921  1.00  0.00     0.111 A 
ATOM      6  C   UNL     1      42.651  -5.167  26.871  1.00  0.00     0.134 A 
ATOM      7  C   UNL     1      43.854  -5.652  26.338  1.00  0.00     0.093 A 
ATOM      8  C   UNL     1      45.082  -5.210  26.833  1.00  0.00     0.123 A 
ATOM      9  C   UNL     1      45.119  -4.274  27.871  1.00  0.00     0.094 A 
ATOM     10  C   UNL     1      43.930  -3.778  28.417  1.00  0.00     0.146 A 
ATOM     11  O   UNL     1      43.992  -2.895  29.405  1.00  0.00    -0.452 OA
ENDROOT
BRANCH   1  12
ATOM     12  C   UNL     1      43.122  -1.403  31.090  1.00  0.00     0.025 A 
ATOM     13  C   UNL     1      43.141  -0.018  30.851  1.00  0.00     0.016 A 
ATOM     14  C   UNL     1      43.312   0.878  31.910  1.00  0.00     0.051 A 
ATOM     15  C   UNL     1      43.452   0.408  33.219  1.00  0.00     0.157 A 
ATOM     16  C   UNL     1      43.242  -1.871  32.408  1.00  0.00     0.062 A 
ATOM     17  C   UNL     1      43.415  -0.973  33.471  1.00  0.00     0.158 A 
BRANCH  15  18
ATOM     18  O   UNL     1      43.624   1.327  34.254  1.00  0.00    -0.504 OA
ATOM     19  H   UNL     1      42.896   1.980  34.520  1.00  0.00     0.293 HD
ENDBRANCH  15  18
BRANCH  17  20
ATOM     20  O   UNL     1      43.548  -1.449  34.775  1.00  0.00    -0.504 OA
ATOM     21  H   UNL     1      44.237  -2.151  35.016  1.00  0.00     0.293 HD
ENDBRANCH  17  20
ENDBRANCH   1  12
BRANCH   2  22
ATOM     22  O   UNL     1      40.497  -2.146  30.100  1.00  0.00    -0.502 OA
ATOM     23  H   UNL     1      40.551  -1.462  30.845  1.00  0.00     0.293 HD
ENDBRANCH   2  22
BRANCH   6  24
ATOM     24  O   UNL     1      41.440  -5.628  26.353  1.00  0.00    -0.507 OA
ATOM     25  H   UNL     1      41.268  -6.613  26.195  1.00  0.00     0.293 HD
ENDBRANCH   6  24
BRANCH   8  26
ATOM     26  O   UNL     1      46.263  -5.709  26.285  1.00  0.00    -0.508 OA
ATOM     27  H   UNL     1      46.268  -6.541  25.707  1.00  0.00     0.293 HD
ENDBRANCH   8  26
TORSDOF 6
ENDMDL
