MODEL 1
REMARK VINA RESULT:    -7.554      0.000      0.000
REMARK INTER + INTRA:          -9.415
REMARK INTER:                  -9.100
REMARK INTRA:                  -0.315
REMARK UNBOUND:                -0.315
REMARK SMILES O=c1c(O)c(-c2ccc(O)c(O)c2)oc2cc(O)cc(O)c12
REMARK SMILES IDX 5 1 3 2 2 3 1 4 22 5 20 6 19 7 17 8 16 9 15 10 14 11 6 12
REMARK SMILES IDX 7 13 8 14 9 15 13 16 11 17 10 18 12 20 4 22 21 24 18 26
REMARK H PARENT 10 19 12 21 4 23 21 25 18 27
REMARK Flexibility Score: inf
ROOT
ATOM      1  C   UNL     1       5.775   8.530  14.179  1.00  0.00     0.180 A 
ATOM      2  C   UNL     1       4.585   9.284  14.205  1.00  0.00     0.208 A 
ATOM      3  C   UNL     1       4.092   9.813  13.002  1.00  0.00     0.238 A 
ATOM      4  O   UNL     1       3.034  10.499  13.013  1.00  0.00    -0.285 OA
ATOM      5  C   UNL     1       4.781   9.565  11.797  1.00  0.00     0.111 A 
ATOM      6  C   UNL     1       4.348  10.059  10.542  1.00  0.00     0.134 A 
ATOM      7  C   UNL     1       5.084   9.760   9.386  1.00  0.00     0.093 A 
ATOM      8  C   UNL     1       6.242   8.977   9.460  1.00  0.00     0.123 A 
ATOM      9  C   UNL     1       6.673   8.489  10.695  1.00  0.00     0.094 A 
ATOM     10  C   UNL     1       5.954   8.777  11.859  1.00  0.00     0.146 A 
ATOM     11  O   UNL     1       6.389   8.304  13.021  1.00  0.00    -0.452 OA
ENDROOT
BRANCH   1  12
ATOM     12  C   UNL     1       6.369   7.955  15.408  1.00  0.00     0.025 A 
ATOM     13  C   UNL     1       7.150   8.734  16.276  1.00  0.00     0.016 A 
ATOM     14  C   UNL     1       7.719   8.162  17.415  1.00  0.00     0.051 A 
ATOM     15  C   UNL     1       7.532   6.807  17.705  1.00  0.00     0.157 A 
ATOM     16  C   UNL     1       6.197   6.590  15.684  1.00  0.00     0.062 A 
ATOM     17  C   UNL     1       6.763   6.008  16.825  1.00  0.00     0.158 A 
BRANCH  15  18
ATOM     18  O   UNL     1       8.124   6.298  18.863  1.00  0.00    -0.504 OA
ATOM     19  H   UNL     1       8.133   6.780  19.750  1.00  0.00     0.293 HD
ENDBRANCH  15  18
BRANCH  17  20
ATOM     20  O   UNL     1       6.541   4.647  17.042  1.00  0.00    -0.504 OA
ATOM     21  H   UNL     1       7.185   4.040  17.526  1.00  0.00     0.293 HD
ENDBRANCH  17  20
ENDBRANCH   1  12
BRANCH   2  22
ATOM     22  O   UNL     1       3.895   9.474  15.404  1.00  0.00    -0.502 OA
ATOM     23  H   UNL     1       3.715  10.394  15.787  1.00  0.00     0.293 HD
ENDBRANCH   2  22
BRANCH   6  24
ATOM     24  O   UNL     1       3.197  10.840  10.435  1.00  0.00    -0.507 OA
ATOM     25  H   UNL     1       2.491  10.852  11.161  1.00  0.00     0.293 HD
ENDBRANCH   6  24
BRANCH   8  26
ATOM     26  O   UNL     1       6.973   8.680   8.311  1.00  0.00    -0.508 OA
ATOM     27  H   UNL     1       6.849   9.205   7.454  1.00  0.00     0.293 HD
ENDBRANCH   8  26
TORSDOF 6
ENDMDL
MODEL 2
REMARK VINA RESULT:    -6.535     19.837     21.643
REMARK INTER + INTRA:          -8.187
REMARK INTER:                  -7.862
REMARK INTRA:                  -0.325
REMARK UNBOUND:                -0.315
REMARK SMILES O=c1c(O)c(-c2ccc(O)c(O)c2)oc2cc(O)cc(O)c12
REMARK SMILES IDX 5 1 3 2 2 3 1 4 22 5 20 6 19 7 17 8 16 9 15 10 14 11 6 12
REMARK SMILES IDX 7 13 8 14 9 15 13 16 11 17 10 18 12 20 4 22 21 24 18 26
REMARK H PARENT 10 19 12 21 4 23 21 25 18 27
REMARK Flexibility Score: inf
ROOT
ATOM      1  C   UNL     1      -9.363  -2.314  24.189  1.00  0.00     0.180 A 
ATOM      2  C   UNL     1     -10.668  -2.382  23.662  1.00  0.00     0.208 A 
ATOM      3  C   UNL     1     -10.964  -3.372  22.713  1.00  0.00     0.238 A 
ATOM      4  O   UNL     1     -12.125  -3.437  22.225  1.00  0.00    -0.285 OA
ATOM      5  C   UNL     1      -9.964  -4.286  22.324  1.00  0.00     0.111 A 
ATOM      6  C   UNL     1     -10.183  -5.317  21.377  1.00  0.00     0.134 A 
ATOM      7  C   UNL     1      -9.137  -6.193  21.049  1.00  0.00     0.093 A 
ATOM      8  C   UNL     1      -7.880  -6.060  21.650  1.00  0.00     0.123 A 
ATOM      9  C   UNL     1      -7.660  -5.046  22.583  1.00  0.00     0.094 A 
ATOM     10  C   UNL     1      -8.688  -4.162  22.922  1.00  0.00     0.146 A 
ATOM     11  O   UNL     1      -8.449  -3.202  23.810  1.00  0.00    -0.452 OA
ENDROOT
BRANCH   1  12
ATOM     12  C   UNL     1      -8.967  -1.286  25.180  1.00  0.00     0.025 A 
ATOM     13  C   UNL     1      -9.125  -1.500  26.558  1.00  0.00     0.016 A 
ATOM     14  C   UNL     1      -8.768  -0.506  27.471  1.00  0.00     0.051 A 
ATOM     15  C   UNL     1      -8.260   0.721  27.030  1.00  0.00     0.157 A 
ATOM     16  C   UNL     1      -8.478  -0.048  24.733  1.00  0.00     0.062 A 
ATOM     17  C   UNL     1      -8.117   0.954  25.641  1.00  0.00     0.158 A 
BRANCH  15  18
ATOM     18  O   UNL     1      -7.917   1.671  27.994  1.00  0.00    -0.504 OA
ATOM     19  H   UNL     1      -8.570   2.064  28.656  1.00  0.00     0.293 HD
ENDBRANCH  15  18
BRANCH  17  20
ATOM     20  O   UNL     1      -7.626   2.156  25.126  1.00  0.00    -0.504 OA
ATOM     21  H   UNL     1      -7.359   2.946  25.693  1.00  0.00     0.293 HD
ENDBRANCH  17  20
ENDBRANCH   1  12
BRANCH   2  22
ATOM     22  O   UNL     1     -11.654  -1.495  24.101  1.00  0.00    -0.502 OA
ATOM     23  H   UNL     1     -12.600  -1.793  24.306  1.00  0.00     0.293 HD
ENDBRANCH   2  22
BRANCH   6  24
ATOM     24  O   UNL     1     -11.424  -5.476  20.762  1.00  0.00    -0.507 OA
ATOM     25  H   UNL     1     -12.292  -5.317  21.262  1.00  0.00     0.293 HD
ENDBRANCH   6  24
BRANCH   8  26
ATOM     26  O   UNL     1      -6.842  -6.931  21.325  1.00  0.00    -0.508 OA
ATOM     27  H   UNL     1      -6.625  -7.735  21.902  1.00  0.00     0.293 HD
ENDBRANCH   8  26
TORSDOF 6
ENDMDL
MODEL 3
REMARK VINA RESULT:    -6.387     19.921     22.374
REMARK INTER + INTRA:          -8.008
REMARK INTER:                  -7.685
REMARK INTRA:                  -0.324
REMARK UNBOUND:                -0.315
REMARK SMILES O=c1c(O)c(-c2ccc(O)c(O)c2)oc2cc(O)cc(O)c12
REMARK SMILES IDX 5 1 3 2 2 3 1 4 22 5 20 6 19 7 17 8 16 9 15 10 14 11 6 12
REMARK SMILES IDX 7 13 8 14 9 15 13 16 11 17 10 18 12 20 4 22 21 24 18 26
REMARK H PARENT 10 19 12 21 4 23 21 25 18 27
REMARK Flexibility Score: inf
ROOT
ATOM      1  C   UNL     1      -9.827  -3.251  23.702  1.00  0.00     0.180 A 
ATOM      2  C   UNL     1      -9.856  -3.644  25.055  1.00  0.00     0.208 A 
ATOM      3  C   UNL     1      -9.471  -2.720  26.038  1.00  0.00     0.238 A 
ATOM      4  O   UNL     1      -9.483  -3.062  27.251  1.00  0.00    -0.285 OA
ATOM      5  C   UNL     1      -9.085  -1.418  25.657  1.00  0.00     0.111 A 
ATOM      6  C   UNL     1      -8.687  -0.426  26.586  1.00  0.00     0.134 A 
ATOM      7  C   UNL     1      -8.326   0.851  26.128  1.00  0.00     0.093 A 
ATOM      8  C   UNL     1      -8.356   1.153  24.762  1.00  0.00     0.123 A 
ATOM      9  C   UNL     1      -8.746   0.177  23.842  1.00  0.00     0.094 A 
ATOM     10  C   UNL     1      -9.109  -1.100  24.278  1.00  0.00     0.146 A 
ATOM     11  O   UNL     1      -9.472  -2.010  23.382  1.00  0.00    -0.452 OA
ENDROOT
BRANCH   1  12
ATOM     12  C   UNL     1     -10.200  -4.175  22.606  1.00  0.00     0.025 A 
ATOM     13  C   UNL     1     -11.519  -4.249  22.130  1.00  0.00     0.016 A 
ATOM     14  C   UNL     1     -11.851  -5.146  21.113  1.00  0.00     0.051 A 
ATOM     15  C   UNL     1     -10.883  -5.992  20.561  1.00  0.00     0.157 A 
ATOM     16  C   UNL     1      -9.232  -5.037  22.069  1.00  0.00     0.062 A 
ATOM     17  C   UNL     1      -9.556  -5.939  21.049  1.00  0.00     0.158 A 
BRANCH  15  18
ATOM     18  O   UNL     1     -11.280  -6.861  19.543  1.00  0.00    -0.504 OA
ATOM     19  H   UNL     1     -11.690  -6.560  18.671  1.00  0.00     0.293 HD
ENDBRANCH  15  18
BRANCH  17  20
ATOM     20  O   UNL     1      -8.538  -6.758  20.554  1.00  0.00    -0.504 OA
ATOM     21  H   UNL     1      -7.713  -7.010  21.076  1.00  0.00     0.293 HD
ENDBRANCH  17  20
ENDBRANCH   1  12
BRANCH   2  22
ATOM     22  O   UNL     1     -10.290  -4.924  25.409  1.00  0.00    -0.502 OA
ATOM     23  H   UNL     1      -9.746  -5.536  26.005  1.00  0.00     0.293 HD
ENDBRANCH   2  22
BRANCH   6  24
ATOM     24  O   UNL     1      -8.649  -0.696  27.954  1.00  0.00    -0.507 OA
ATOM     25  H   UNL     1      -8.195  -0.070  28.609  1.00  0.00     0.293 HD
ENDBRANCH   6  24
BRANCH   8  26
ATOM     26  O   UNL     1      -7.997   2.420  24.307  1.00  0.00    -0.508 OA
ATOM     27  H   UNL     1      -7.048   2.764  24.392  1.00  0.00     0.293 HD
ENDBRANCH   8  26
TORSDOF 6
ENDMDL
MODEL 4
REMARK VINA RESULT:    -6.216      1.510      6.913
REMARK INTER + INTRA:          -7.803
REMARK INTER:                  -7.512
REMARK INTRA:                  -0.291
REMARK UNBOUND:                -0.315
REMARK SMILES O=c1c(O)c(-c2ccc(O)c(O)c2)oc2cc(O)cc(O)c12
REMARK SMILES IDX 5 1 3 2 2 3 1 4 22 5 20 6 19 7 17 8 16 9 15 10 14 11 6 12
REMARK SMILES IDX 7 13 8 14 9 15 13 16 11 17 10 18 12 20 4 22 21 24 18 26
REMARK H PARENT 10 19 12 21 4 23 21 25 18 27
REMARK Flexibility Score: inf
ROOT
ATOM      1  C   UNL     1       6.167   8.731  13.851  1.00  0.00     0.180 A 
ATOM      2  C   UNL     1       6.904   9.596  14.684  1.00  0.00     0.208 A 
ATOM      3  C   UNL     1       7.323   9.132  15.940  1.00  0.00     0.238 A 
ATOM      4  O   UNL     1       7.974   9.899  16.700  1.00  0.00    -0.285 OA
ATOM      5  C   UNL     1       7.020   7.812  16.333  1.00  0.00     0.111 A 
ATOM      6  C   UNL     1       7.410   7.266  17.580  1.00  0.00     0.134 A 
ATOM      7  C   UNL     1       7.077   5.939  17.893  1.00  0.00     0.093 A 
ATOM      8  C   UNL     1       6.364   5.150  16.984  1.00  0.00     0.123 A 
ATOM      9  C   UNL     1       5.976   5.684  15.754  1.00  0.00     0.094 A 
ATOM     10  C   UNL     1       6.298   7.003  15.424  1.00  0.00     0.146 A 
ATOM     11  O   UNL     1       5.912   7.488  14.248  1.00  0.00    -0.452 OA
ENDROOT
BRANCH   1  12
ATOM     12  C   UNL     1       5.672   9.153  12.520  1.00  0.00     0.025 A 
ATOM     13  C   UNL     1       4.551   9.987  12.388  1.00  0.00     0.016 A 
ATOM     14  C   UNL     1       4.089  10.351  11.122  1.00  0.00     0.051 A 
ATOM     15  C   UNL     1       4.725   9.884   9.967  1.00  0.00     0.157 A 
ATOM     16  C   UNL     1       6.300   8.665  11.363  1.00  0.00     0.062 A 
ATOM     17  C   UNL     1       5.844   9.025  10.089  1.00  0.00     0.158 A 
BRANCH  15  18
ATOM     18  O   UNL     1       4.217  10.290   8.731  1.00  0.00    -0.504 OA
ATOM     19  H   UNL     1       3.709  11.150   8.585  1.00  0.00     0.293 HD
ENDBRANCH  15  18
BRANCH  17  20
ATOM     20  O   UNL     1       6.524   8.511   8.983  1.00  0.00    -0.504 OA
ATOM     21  H   UNL     1       6.128   8.445   8.058  1.00  0.00     0.293 HD
ENDBRANCH  17  20
ENDBRANCH   1  12
BRANCH   2  22
ATOM     22  O   UNL     1       7.234  10.882  14.251  1.00  0.00    -0.502 OA
ATOM     23  H   UNL     1       6.934  11.248  13.355  1.00  0.00     0.293 HD
ENDBRANCH   2  22
BRANCH   6  24
ATOM     24  O   UNL     1       8.123   8.027  18.506  1.00  0.00    -0.507 OA
ATOM     25  H   UNL     1       7.822   8.115  19.470  1.00  0.00     0.293 HD
ENDBRANCH   6  24
BRANCH   8  26
ATOM     26  O   UNL     1       6.034   3.832  17.295  1.00  0.00    -0.508 OA
ATOM     27  H   UNL     1       6.592   3.054  16.964  1.00  0.00     0.293 HD
ENDBRANCH   8  26
TORSDOF 6
ENDMDL
MODEL 5
REMARK VINA RESULT:    -6.021      1.274      2.907
REMARK INTER + INTRA:          -7.568
REMARK INTER:                  -7.262
REMARK INTRA:                  -0.306
REMARK UNBOUND:                -0.315
REMARK SMILES O=c1c(O)c(-c2ccc(O)c(O)c2)oc2cc(O)cc(O)c12
REMARK SMILES IDX 5 1 3 2 2 3 1 4 22 5 20 6 19 7 17 8 16 9 15 10 14 11 6 12
REMARK SMILES IDX 7 13 8 14 9 15 13 16 11 17 10 18 12 20 4 22 21 24 18 26
REMARK H PARENT 10 19 12 21 4 23 21 25 18 27
REMARK Flexibility Score: inf
ROOT
ATOM      1  C   UNL     1       6.194   8.403  14.258  1.00  0.00     0.180 A 
ATOM      2  C   UNL     1       6.934   8.228  13.072  1.00  0.00     0.208 A 
ATOM      3  C   UNL     1       6.468   8.822  11.889  1.00  0.00     0.238 A 
ATOM      4  O   UNL     1       7.115   8.664  10.819  1.00  0.00    -0.285 OA
ATOM      5  C   UNL     1       5.289   9.595  11.914  1.00  0.00     0.111 A 
ATOM      6  C   UNL     1       4.755  10.231  10.767  1.00  0.00     0.134 A 
ATOM      7  C   UNL     1       3.581  10.991  10.876  1.00  0.00     0.093 A 
ATOM      8  C   UNL     1       2.932  11.128  12.108  1.00  0.00     0.123 A 
ATOM      9  C   UNL     1       3.454  10.502  13.242  1.00  0.00     0.094 A 
ATOM     10  C   UNL     1       4.622   9.740  13.154  1.00  0.00     0.146 A 
ATOM     11  O   UNL     1       5.094   9.151  14.247  1.00  0.00    -0.452 OA
ENDROOT
BRANCH   1  12
ATOM     12  C   UNL     1       6.609   7.793  15.542  1.00  0.00     0.025 A 
ATOM     13  C   UNL     1       7.351   8.516  16.489  1.00  0.00     0.016 A 
ATOM     14  C   UNL     1       7.752   7.911  17.682  1.00  0.00     0.051 A 
ATOM     15  C   UNL     1       7.434   6.574  17.947  1.00  0.00     0.157 A 
ATOM     16  C   UNL     1       6.308   6.446  15.796  1.00  0.00     0.062 A 
ATOM     17  C   UNL     1       6.705   5.830  16.989  1.00  0.00     0.158 A 
BRANCH  15  18
ATOM     18  O   UNL     1       7.861   6.030  19.161  1.00  0.00    -0.504 OA
ATOM     19  H   UNL     1       8.072   5.052  19.297  1.00  0.00     0.293 HD
ENDBRANCH  15  18
BRANCH  17  20
ATOM     20  O   UNL     1       6.360   4.490  17.179  1.00  0.00    -0.504 OA
ATOM     21  H   UNL     1       5.614   4.180  17.783  1.00  0.00     0.293 HD
ENDBRANCH  17  20
ENDBRANCH   1  12
BRANCH   2  22
ATOM     22  O   UNL     1       8.125   7.499  13.084  1.00  0.00    -0.502 OA
ATOM     23  H   UNL     1       8.969   7.831  12.634  1.00  0.00     0.293 HD
ENDBRANCH   2  22
BRANCH   6  24
ATOM     24  O   UNL     1       5.380  10.114   9.525  1.00  0.00    -0.507 OA
ATOM     25  H   UNL     1       5.104  10.683   8.733  1.00  0.00     0.293 HD
ENDBRANCH   6  24
BRANCH   8  26
ATOM     26  O   UNL     1       1.766  11.883  12.216  1.00  0.00    -0.508 OA
ATOM     27  H   UNL     1       0.850  11.453  12.168  1.00  0.00     0.293 HD
ENDBRANCH   8  26
TORSDOF 6
ENDMDL
MODEL 6
REMARK VINA RESULT:    -5.915      1.484      6.949
REMARK INTER + INTRA:          -7.441
REMARK INTER:                  -7.169
REMARK INTRA:                  -0.272
REMARK UNBOUND:                -0.315
REMARK SMILES O=c1c(O)c(-c2ccc(O)c(O)c2)oc2cc(O)cc(O)c12
REMARK SMILES IDX 5 1 3 2 2 3 1 4 22 5 20 6 19 7 17 8 16 9 15 10 14 11 6 12
REMARK SMILES IDX 7 13 8 14 9 15 13 16 11 17 10 18 12 20 4 22 21 24 18 26
REMARK H PARENT 10 19 12 21 4 23 21 25 18 27
REMARK Flexibility Score: inf
ROOT
ATOM      1  C   UNL     1       5.877   8.720  14.081  1.00  0.00     0.180 A 
ATOM      2  C   UNL     1       6.637   9.523  14.954  1.00  0.00     0.208 A 
ATOM      3  C   UNL     1       7.144   8.952  16.132  1.00  0.00     0.238 A 
ATOM      4  O   UNL     1       7.816   9.661  16.927  1.00  0.00    -0.285 OA
ATOM      5  C   UNL     1       6.901   7.590  16.406  1.00  0.00     0.111 A 
ATOM      6  C   UNL     1       7.379   6.937  17.568  1.00  0.00     0.134 A 
ATOM      7  C   UNL     1       7.103   5.575  17.764  1.00  0.00     0.093 A 
ATOM      8  C   UNL     1       6.360   4.855  16.821  1.00  0.00     0.123 A 
ATOM      9  C   UNL     1       5.885   5.495  15.675  1.00  0.00     0.094 A 
ATOM     10  C   UNL     1       6.149   6.851  15.462  1.00  0.00     0.146 A 
ATOM     11  O   UNL     1       5.681   7.436  14.365  1.00  0.00    -0.452 OA
ENDROOT
BRANCH   1  12
ATOM     12  C   UNL     1       5.293   9.255  12.829  1.00  0.00     0.025 A 
ATOM     13  C   UNL     1       5.887   9.008  11.581  1.00  0.00     0.016 A 
ATOM     14  C   UNL     1       5.332   9.543  10.418  1.00  0.00     0.051 A 
ATOM     15  C   UNL     1       4.186  10.343  10.475  1.00  0.00     0.157 A 
ATOM     16  C   UNL     1       4.156  10.075  12.892  1.00  0.00     0.062 A 
ATOM     17  C   UNL     1       3.591  10.616  11.731  1.00  0.00     0.158 A 
BRANCH  15  18
ATOM     18  O   UNL     1       3.677  10.844   9.275  1.00  0.00    -0.504 OA
ATOM     19  H   UNL     1       2.732  10.690   8.954  1.00  0.00     0.293 HD
ENDBRANCH  15  18
BRANCH  17  20
ATOM     20  O   UNL     1       2.453  11.413  11.868  1.00  0.00    -0.504 OA
ATOM     21  H   UNL     1       1.509  11.068  11.777  1.00  0.00     0.293 HD
ENDBRANCH  17  20
ENDBRANCH   1  12
BRANCH   2  22
ATOM     22  O   UNL     1       6.905  10.856  14.636  1.00  0.00    -0.502 OA
ATOM     23  H   UNL     1       7.513  11.120  13.869  1.00  0.00     0.293 HD
ENDBRANCH   2  22
BRANCH   6  24
ATOM     24  O   UNL     1       8.124   7.626  18.525  1.00  0.00    -0.507 OA
ATOM     25  H   UNL     1       7.796   8.493  18.934  1.00  0.00     0.293 HD
ENDBRANCH   6  24
BRANCH   8  26
ATOM     26  O   UNL     1       6.086   3.503  17.016  1.00  0.00    -0.508 OA
ATOM     27  H   UNL     1       5.663   2.938  16.289  1.00  0.00     0.293 HD
ENDBRANCH   8  26
TORSDOF 6
ENDMDL
MODEL 7
REMARK VINA RESULT:    -5.644      1.998      2.048
REMARK INTER + INTRA:          -7.115
REMARK INTER:                  -7.461
REMARK INTRA:                   0.346
REMARK UNBOUND:                -0.315
REMARK SMILES O=c1c(O)c(-c2ccc(O)c(O)c2)oc2cc(O)cc(O)c12
REMARK SMILES IDX 5 1 3 2 2 3 1 4 22 5 20 6 19 7 17 8 16 9 15 10 14 11 6 12
REMARK SMILES IDX 7 13 8 14 9 15 13 16 11 17 10 18 12 20 4 22 21 24 18 26
REMARK H PARENT 10 19 12 21 4 23 21 25 18 27
REMARK Flexibility Score: inf
ROOT
ATOM      1  C   UNL     1       7.088   8.862  14.468  1.00  0.00     0.180 A 
ATOM      2  C   UNL     1       7.191  10.268  14.476  1.00  0.00     0.208 A 
ATOM      3  C   UNL     1       7.124  10.958  13.256  1.00  0.00     0.238 A 
ATOM      4  O   UNL     1       7.225  12.215  13.247  1.00  0.00    -0.285 OA
ATOM      5  C   UNL     1       6.935  10.240  12.057  1.00  0.00     0.111 A 
ATOM      6  C   UNL     1       6.852  10.861  10.787  1.00  0.00     0.134 A 
ATOM      7  C   UNL     1       6.653  10.076   9.641  1.00  0.00     0.093 A 
ATOM      8  C   UNL     1       6.535   8.685   9.741  1.00  0.00     0.123 A 
ATOM      9  C   UNL     1       6.617   8.068  10.991  1.00  0.00     0.094 A 
ATOM     10  C   UNL     1       6.816   8.832  12.144  1.00  0.00     0.146 A 
ATOM     11  O   UNL     1       6.895   8.220  13.320  1.00  0.00    -0.452 OA
ENDROOT
BRANCH   1  12
ATOM     12  C   UNL     1       7.169   8.061  15.712  1.00  0.00     0.025 A 
ATOM     13  C   UNL     1       7.760   8.577  16.876  1.00  0.00     0.016 A 
ATOM     14  C   UNL     1       7.846   7.793  18.028  1.00  0.00     0.051 A 
ATOM     15  C   UNL     1       7.358   6.482  18.040  1.00  0.00     0.157 A 
ATOM     16  C   UNL     1       6.698   6.739  15.713  1.00  0.00     0.062 A 
ATOM     17  C   UNL     1       6.780   5.946  16.864  1.00  0.00     0.158 A 
BRANCH  15  18
ATOM     18  O   UNL     1       7.471   5.754  19.226  1.00  0.00    -0.504 OA
ATOM     19  H   UNL     1       6.781   5.091  19.548  1.00  0.00     0.293 HD
ENDBRANCH  15  18
BRANCH  17  20
ATOM     20  O   UNL     1       6.280   4.644  16.797  1.00  0.00    -0.504 OA
ATOM     21  H   UNL     1       5.319   4.398  16.981  1.00  0.00     0.293 HD
ENDBRANCH  17  20
ENDBRANCH   1  12
BRANCH   2  22
ATOM     22  O   UNL     1       7.328  10.959  15.681  1.00  0.00    -0.502 OA
ATOM     23  H   UNL     1       8.060  10.748  16.349  1.00  0.00     0.293 HD
ENDBRANCH   2  22
BRANCH   6  24
ATOM     24  O   UNL     1       6.963  12.245  10.655  1.00  0.00    -0.507 OA
ATOM     25  H   UNL     1       6.308  12.783  10.100  1.00  0.00     0.293 HD
ENDBRANCH   6  24
BRANCH   8  26
ATOM     26  O   UNL     1       6.337   7.906   8.603  1.00  0.00    -0.508 OA
ATOM     27  H   UNL     1       6.212   8.325   7.689  1.00  0.00     0.293 HD
ENDBRANCH   8  26
TORSDOF 6
ENDMDL
MODEL 8
REMARK VINA RESULT:    -5.554      1.303      1.856
REMARK INTER + INTRA:          -7.005
REMARK INTER:                  -6.684
REMARK INTRA:                  -0.322
REMARK UNBOUND:                -0.315
REMARK SMILES O=c1c(O)c(-c2ccc(O)c(O)c2)oc2cc(O)cc(O)c12
REMARK SMILES IDX 5 1 3 2 2 3 1 4 22 5 20 6 19 7 17 8 16 9 15 10 14 11 6 12
REMARK SMILES IDX 7 13 8 14 9 15 13 16 11 17 10 18 12 20 4 22 21 24 18 26
REMARK H PARENT 10 19 12 21 4 23 21 25 18 27
REMARK Flexibility Score: inf
ROOT
ATOM      1  C   UNL     1       5.930   9.175  13.567  1.00  0.00     0.180 A 
ATOM      2  C   UNL     1       4.778   9.984  13.506  1.00  0.00     0.208 A 
ATOM      3  C   UNL     1       4.505  10.687  12.323  1.00  0.00     0.238 A 
ATOM      4  O   UNL     1       3.483  11.422  12.259  1.00  0.00    -0.285 OA
ATOM      5  C   UNL     1       5.372  10.556  11.218  1.00  0.00     0.111 A 
ATOM      6  C   UNL     1       5.166  11.227   9.988  1.00  0.00     0.134 A 
ATOM      7  C   UNL     1       6.070  11.036   8.932  1.00  0.00     0.093 A 
ATOM      8  C   UNL     1       7.173  10.188   9.082  1.00  0.00     0.123 A 
ATOM      9  C   UNL     1       7.381   9.525  10.293  1.00  0.00     0.094 A 
ATOM     10  C   UNL     1       6.492   9.703  11.357  1.00  0.00     0.146 A 
ATOM     11  O   UNL     1       6.716   9.064  12.500  1.00  0.00    -0.452 OA
ENDROOT
BRANCH   1  12
ATOM     12  C   UNL     1       6.296   8.417  14.786  1.00  0.00     0.025 A 
ATOM     13  C   UNL     1       5.871   7.093  14.978  1.00  0.00     0.016 A 
ATOM     14  C   UNL     1       6.208   6.408  16.147  1.00  0.00     0.051 A 
ATOM     15  C   UNL     1       6.962   7.030  17.148  1.00  0.00     0.157 A 
ATOM     16  C   UNL     1       7.034   9.051  15.797  1.00  0.00     0.062 A 
ATOM     17  C   UNL     1       7.377   8.372  16.973  1.00  0.00     0.158 A 
BRANCH  15  18
ATOM     18  O   UNL     1       7.270   6.288  18.290  1.00  0.00    -0.504 OA
ATOM     19  H   UNL     1       7.013   6.562  19.228  1.00  0.00     0.293 HD
ENDBRANCH  15  18
BRANCH  17  20
ATOM     20  O   UNL     1       8.123   9.061  17.931  1.00  0.00    -0.504 OA
ATOM     21  H   UNL     1       8.202   8.778  18.896  1.00  0.00     0.293 HD
ENDBRANCH  17  20
ENDBRANCH   1  12
BRANCH   2  22
ATOM     22  O   UNL     1       3.909  10.058  14.597  1.00  0.00    -0.502 OA
ATOM     23  H   UNL     1       4.195  10.429  15.495  1.00  0.00     0.293 HD
ENDBRANCH   2  22
BRANCH   6  24
ATOM     24  O   UNL     1       4.075  12.077   9.807  1.00  0.00    -0.507 OA
ATOM     25  H   UNL     1       3.135  11.802  10.067  1.00  0.00     0.293 HD
ENDBRANCH   6  24
BRANCH   8  26
ATOM     26  O   UNL     1       8.070   9.999   8.033  1.00  0.00    -0.508 OA
ATOM     27  H   UNL     1       9.059  10.193   8.140  1.00  0.00     0.293 HD
ENDBRANCH   8  26
TORSDOF 6
ENDMDL
MODEL 9
REMARK VINA RESULT:    -5.162     20.247     22.463
REMARK INTER + INTRA:          -6.534
REMARK INTER:                  -6.730
REMARK INTRA:                   0.196
REMARK UNBOUND:                -0.315
REMARK SMILES O=c1c(O)c(-c2ccc(O)c(O)c2)oc2cc(O)cc(O)c12
REMARK SMILES IDX 5 1 3 2 2 3 1 4 22 5 20 6 19 7 17 8 16 9 15 10 14 11 6 12
REMARK SMILES IDX 7 13 8 14 9 15 13 16 11 17 10 18 12 20 4 22 21 24 18 26
REMARK H PARENT 10 19 12 21 4 23 21 25 18 27
REMARK Flexibility Score: inf
ROOT
ATOM      1  C   UNL     1      -9.761  -2.576  24.394  1.00  0.00     0.180 A 
ATOM      2  C   UNL     1     -10.721  -3.210  25.208  1.00  0.00     0.208 A 
ATOM      3  C   UNL     1     -11.206  -4.471  24.827  1.00  0.00     0.238 A 
ATOM      4  O   UNL     1     -12.073  -5.044  25.541  1.00  0.00    -0.285 OA
ATOM      5  C   UNL     1     -10.712  -5.084  23.657  1.00  0.00     0.111 A 
ATOM      6  C   UNL     1     -11.144  -6.354  23.207  1.00  0.00     0.134 A 
ATOM      7  C   UNL     1     -10.597  -6.901  22.036  1.00  0.00     0.093 A 
ATOM      8  C   UNL     1      -9.625  -6.203  21.310  1.00  0.00     0.123 A 
ATOM      9  C   UNL     1      -9.196  -4.949  21.750  1.00  0.00     0.094 A 
ATOM     10  C   UNL     1      -9.730  -4.387  22.913  1.00  0.00     0.146 A 
ATOM     11  O   UNL     1      -9.307  -3.191  23.306  1.00  0.00    -0.452 OA
ENDROOT
BRANCH   1  12
ATOM     12  C   UNL     1      -9.216  -1.238  24.719  1.00  0.00     0.025 A 
ATOM     13  C   UNL     1      -8.925  -0.304  23.712  1.00  0.00     0.016 A 
ATOM     14  C   UNL     1      -8.389   0.943  24.041  1.00  0.00     0.051 A 
ATOM     15  C   UNL     1      -8.121   1.277  25.373  1.00  0.00     0.157 A 
ATOM     16  C   UNL     1      -8.928  -0.914  26.053  1.00  0.00     0.062 A 
ATOM     17  C   UNL     1      -8.391   0.334  26.393  1.00  0.00     0.158 A 
BRANCH  15  18
ATOM     18  O   UNL     1      -7.589   2.541  25.635  1.00  0.00    -0.504 OA
ATOM     19  H   UNL     1      -8.094   3.405  25.497  1.00  0.00     0.293 HD
ENDBRANCH  15  18
BRANCH  17  20
ATOM     20  O   UNL     1      -8.141   0.591  27.743  1.00  0.00    -0.504 OA
ATOM     21  H   UNL     1      -7.837  -0.107  28.404  1.00  0.00     0.293 HD
ENDBRANCH  17  20
ENDBRANCH   1  12
BRANCH   2  22
ATOM     22  O   UNL     1     -11.158  -2.604  26.388  1.00  0.00    -0.502 OA
ATOM     23  H   UNL     1     -11.525  -1.660  26.410  1.00  0.00     0.293 HD
ENDBRANCH   2  22
BRANCH   6  24
ATOM     24  O   UNL     1     -12.110  -7.076  23.909  1.00  0.00    -0.507 OA
ATOM     25  H   UNL     1     -11.932  -7.443  24.837  1.00  0.00     0.293 HD
ENDBRANCH   6  24
BRANCH   8  26
ATOM     26  O   UNL     1      -9.081  -6.746  20.148  1.00  0.00    -0.508 OA
ATOM     27  H   UNL     1      -9.275  -7.700  19.869  1.00  0.00     0.293 HD
ENDBRANCH   8  26
TORSDOF 6
ENDMDL
