MODEL 1
REMARK VINA RESULT:    -8.051      0.000      0.000
REMARK INTER + INTRA:          -9.925
REMARK INTER:                  -9.698
REMARK INTRA:                  -0.227
REMARK UNBOUND:                -0.227
REMARK SMILES O=c1c(O)c(-c2ccc(O)c(O)c2)oc2cc(O)cc(O)c12
REMARK SMILES IDX 5 1 3 2 2 3 1 4 22 5 20 6 19 7 17 8 16 9 15 10 14 11 6 12
REMARK SMILES IDX 7 13 8 14 9 15 13 16 11 17 10 18 12 20 4 22 21 24 18 26
REMARK H PARENT 10 19 12 21 4 23 21 25 18 27
REMARK Flexibility Score: inf
ROOT
ATOM      1  C   UNL     1      11.179 -26.236   6.712  1.00  0.00     0.180 A 
ATOM      2  C   UNL     1      11.406 -26.899   5.494  1.00  0.00     0.208 A 
ATOM      3  C   UNL     1      12.529 -27.733   5.371  1.00  0.00     0.238 A 
ATOM      4  O   UNL     1      12.697 -28.366   4.296  1.00  0.00    -0.285 OA
ATOM      5  C   UNL     1      13.418 -27.882   6.462  1.00  0.00     0.111 A 
ATOM      6  C   UNL     1      14.608 -28.671   6.437  1.00  0.00     0.134 A 
ATOM      7  C   UNL     1      15.343 -28.850   7.614  1.00  0.00     0.093 A 
ATOM      8  C   UNL     1      14.968 -28.217   8.802  1.00  0.00     0.123 A 
ATOM      9  C   UNL     1      13.841 -27.398   8.823  1.00  0.00     0.094 A 
ATOM     10  C   UNL     1      13.067 -27.228   7.672  1.00  0.00     0.146 A 
ATOM     11  O   UNL     1      11.996 -26.447   7.739  1.00  0.00    -0.452 OA
ENDROOT
BRANCH   1  12
ATOM     12  C   UNL     1      10.032 -25.320   6.910  1.00  0.00     0.025 A 
ATOM     13  C   UNL     1       8.932 -25.687   7.704  1.00  0.00     0.016 A 
ATOM     14  C   UNL     1       7.850 -24.818   7.858  1.00  0.00     0.051 A 
ATOM     15  C   UNL     1       7.844 -23.574   7.212  1.00  0.00     0.157 A 
ATOM     16  C   UNL     1      10.013 -24.082   6.248  1.00  0.00     0.062 A 
ATOM     17  C   UNL     1       8.931 -23.207   6.400  1.00  0.00     0.158 A 
BRANCH  15  18
ATOM     18  O   UNL     1       6.764 -22.707   7.368  1.00  0.00    -0.504 OA
ATOM     19  H   UNL     1       5.941 -22.975   7.896  1.00  0.00     0.293 HD
ENDBRANCH  15  18
BRANCH  17  20
ATOM     20  O   UNL     1       8.953 -21.981   5.737  1.00  0.00    -0.504 OA
ATOM     21  H   UNL     1       9.661 -21.280   5.924  1.00  0.00     0.293 HD
ENDBRANCH  17  20
ENDBRANCH   1  12
BRANCH   2  22
ATOM     22  O   UNL     1      10.504 -26.754   4.437  1.00  0.00    -0.502 OA
ATOM     23  H   UNL     1      10.149 -27.545   3.912  1.00  0.00     0.293 HD
ENDBRANCH   2  22
BRANCH   6  24
ATOM     24  O   UNL     1      15.121 -29.270   5.283  1.00  0.00    -0.507 OA
ATOM     25  H   UNL     1      14.563 -29.697   4.560  1.00  0.00     0.293 HD
ENDBRANCH   6  24
BRANCH   8  26
ATOM     26  O   UNL     1      15.713 -28.389   9.966  1.00  0.00    -0.508 OA
ATOM     27  H   UNL     1      15.896 -29.311  10.346  1.00  0.00     0.293 HD
ENDBRANCH   8  26
TORSDOF 6
ENDMDL
MODEL 2
REMARK VINA RESULT:    -8.044      1.253      2.940
REMARK INTER + INTRA:          -9.917
REMARK INTER:                  -9.584
REMARK INTRA:                  -0.333
REMARK UNBOUND:                -0.227
REMARK SMILES O=c1c(O)c(-c2ccc(O)c(O)c2)oc2cc(O)cc(O)c12
REMARK SMILES IDX 5 1 3 2 2 3 1 4 22 5 20 6 19 7 17 8 16 9 15 10 14 11 6 12
REMARK SMILES IDX 7 13 8 14 9 15 13 16 11 17 10 18 12 20 4 22 21 24 18 26
REMARK H PARENT 10 19 12 21 4 23 21 25 18 27
REMARK Flexibility Score: inf
ROOT
ATOM      1  C   UNL     1      11.597 -25.708   8.019  1.00  0.00     0.180 A 
ATOM      2  C   UNL     1      12.519 -25.335   9.013  1.00  0.00     0.208 A 
ATOM      3  C   UNL     1      13.713 -26.062   9.141  1.00  0.00     0.238 A 
ATOM      4  O   UNL     1      14.558 -25.689   9.997  1.00  0.00    -0.285 OA
ATOM      5  C   UNL     1      13.965 -27.159   8.285  1.00  0.00     0.111 A 
ATOM      6  C   UNL     1      15.124 -27.990   8.351  1.00  0.00     0.134 A 
ATOM      7  C   UNL     1      15.331 -28.967   7.370  1.00  0.00     0.093 A 
ATOM      8  C   UNL     1      14.389 -29.188   6.363  1.00  0.00     0.123 A 
ATOM      9  C   UNL     1      13.225 -28.421   6.324  1.00  0.00     0.094 A 
ATOM     10  C   UNL     1      13.008 -27.415   7.268  1.00  0.00     0.146 A 
ATOM     11  O   UNL     1      11.892 -26.702   7.188  1.00  0.00    -0.452 OA
ENDROOT
BRANCH   1  12
ATOM     12  C   UNL     1      10.305 -25.008   7.839  1.00  0.00     0.025 A 
ATOM     13  C   UNL     1       9.161 -25.385   8.564  1.00  0.00     0.016 A 
ATOM     14  C   UNL     1       7.946 -24.726   8.361  1.00  0.00     0.051 A 
ATOM     15  C   UNL     1       7.852 -23.690   7.421  1.00  0.00     0.157 A 
ATOM     16  C   UNL     1      10.200 -23.983   6.884  1.00  0.00     0.062 A 
ATOM     17  C   UNL     1       8.985 -23.320   6.678  1.00  0.00     0.158 A 
BRANCH  15  18
ATOM     18  O   UNL     1       6.639 -23.033   7.222  1.00  0.00    -0.504 OA
ATOM     19  H   UNL     1       6.597 -22.035   7.055  1.00  0.00     0.293 HD
ENDBRANCH  15  18
BRANCH  17  20
ATOM     20  O   UNL     1       8.923 -22.299   5.731  1.00  0.00    -0.504 OA
ATOM     21  H   UNL     1       9.755 -21.901   5.312  1.00  0.00     0.293 HD
ENDBRANCH  17  20
ENDBRANCH   1  12
BRANCH   2  22
ATOM     22  O   UNL     1      12.259 -24.235   9.833  1.00  0.00    -0.502 OA
ATOM     23  H   UNL     1      12.369 -24.269  10.841  1.00  0.00     0.293 HD
ENDBRANCH   2  22
BRANCH   6  24
ATOM     24  O   UNL     1      16.081 -27.915   9.368  1.00  0.00    -0.507 OA
ATOM     25  H   UNL     1      17.067 -28.084   9.243  1.00  0.00     0.293 HD
ENDBRANCH   6  24
BRANCH   8  26
ATOM     26  O   UNL     1      14.595 -30.172   5.399  1.00  0.00    -0.508 OA
ATOM     27  H   UNL     1      14.113 -30.150   4.507  1.00  0.00     0.293 HD
ENDBRANCH   8  26
TORSDOF 6
ENDMDL
MODEL 3
REMARK VINA RESULT:    -7.781      2.504      3.087
REMARK INTER + INTRA:          -9.601
REMARK INTER:                  -9.273
REMARK INTRA:                  -0.328
REMARK UNBOUND:                -0.227
REMARK SMILES O=c1c(O)c(-c2ccc(O)c(O)c2)oc2cc(O)cc(O)c12
REMARK SMILES IDX 5 1 3 2 2 3 1 4 22 5 20 6 19 7 17 8 16 9 15 10 14 11 6 12
REMARK SMILES IDX 7 13 8 14 9 15 13 16 11 17 10 18 12 20 4 22 21 24 18 26
REMARK H PARENT 10 19 12 21 4 23 21 25 18 27
REMARK Flexibility Score: inf
ROOT
ATOM      1  C   UNL     1      11.001 -26.755   8.760  1.00  0.00     0.180 A 
ATOM      2  C   UNL     1      11.009 -28.052   9.301  1.00  0.00     0.208 A 
ATOM      3  C   UNL     1      12.219 -28.762   9.354  1.00  0.00     0.238 A 
ATOM      4  O   UNL     1      12.229 -29.901   9.889  1.00  0.00    -0.285 OA
ATOM      5  C   UNL     1      13.403 -28.172   8.852  1.00  0.00     0.111 A 
ATOM      6  C   UNL     1      14.678 -28.814   8.819  1.00  0.00     0.134 A 
ATOM      7  C   UNL     1      15.807 -28.088   8.420  1.00  0.00     0.093 A 
ATOM      8  C   UNL     1      15.697 -26.763   7.991  1.00  0.00     0.123 A 
ATOM      9  C   UNL     1      14.448 -26.146   7.964  1.00  0.00     0.094 A 
ATOM     10  C   UNL     1      13.309 -26.833   8.390  1.00  0.00     0.146 A 
ATOM     11  O   UNL     1      12.141 -26.203   8.357  1.00  0.00    -0.452 OA
ENDROOT
BRANCH   1  12
ATOM     12  C   UNL     1       9.761 -25.954   8.647  1.00  0.00     0.025 A 
ATOM     13  C   UNL     1       8.893 -26.100   7.550  1.00  0.00     0.016 A 
ATOM     14  C   UNL     1       7.741 -25.318   7.451  1.00  0.00     0.051 A 
ATOM     15  C   UNL     1       7.443 -24.369   8.439  1.00  0.00     0.157 A 
ATOM     16  C   UNL     1       9.469 -24.988   9.624  1.00  0.00     0.062 A 
ATOM     17  C   UNL     1       8.314 -24.202   9.529  1.00  0.00     0.158 A 
BRANCH  15  18
ATOM     18  O   UNL     1       6.291 -23.591   8.340  1.00  0.00    -0.504 OA
ATOM     19  H   UNL     1       5.368 -23.991   8.456  1.00  0.00     0.293 HD
ENDBRANCH  15  18
BRANCH  17  20
ATOM     20  O   UNL     1       8.051 -23.262  10.524  1.00  0.00    -0.504 OA
ATOM     21  H   UNL     1       7.511 -22.424  10.345  1.00  0.00     0.293 HD
ENDBRANCH  17  20
ENDBRANCH   1  12
BRANCH   2  22
ATOM     22  O   UNL     1       9.831 -28.607   9.811  1.00  0.00    -0.502 OA
ATOM     23  H   UNL     1       9.660 -28.700  10.806  1.00  0.00     0.293 HD
ENDBRANCH   2  22
BRANCH   6  24
ATOM     24  O   UNL     1      14.881 -30.159   9.138  1.00  0.00    -0.507 OA
ATOM     25  H   UNL     1      15.302 -30.838   8.523  1.00  0.00     0.293 HD
ENDBRANCH   6  24
BRANCH   8  26
ATOM     26  O   UNL     1      16.823 -26.053   7.581  1.00  0.00    -0.508 OA
ATOM     27  H   UNL     1      16.743 -25.166   7.098  1.00  0.00     0.293 HD
ENDBRANCH   8  26
TORSDOF 6
ENDMDL
MODEL 4
REMARK VINA RESULT:    -7.699      1.843      2.283
REMARK INTER + INTRA:          -9.502
REMARK INTER:                  -9.469
REMARK INTRA:                  -0.033
REMARK UNBOUND:                -0.227
REMARK SMILES O=c1c(O)c(-c2ccc(O)c(O)c2)oc2cc(O)cc(O)c12
REMARK SMILES IDX 5 1 3 2 2 3 1 4 22 5 20 6 19 7 17 8 16 9 15 10 14 11 6 12
REMARK SMILES IDX 7 13 8 14 9 15 13 16 11 17 10 18 12 20 4 22 21 24 18 26
REMARK H PARENT 10 19 12 21 4 23 21 25 18 27
REMARK Flexibility Score: inf
ROOT
ATOM      1  C   UNL     1      11.123 -26.593   8.071  1.00  0.00     0.180 A 
ATOM      2  C   UNL     1      11.991 -26.442   6.976  1.00  0.00     0.208 A 
ATOM      3  C   UNL     1      13.177 -27.192   6.938  1.00  0.00     0.238 A 
ATOM      4  O   UNL     1      13.923 -27.093   5.929  1.00  0.00    -0.285 OA
ATOM      5  C   UNL     1      13.488 -28.073   8.001  1.00  0.00     0.111 A 
ATOM      6  C   UNL     1      14.680 -28.853   8.086  1.00  0.00     0.134 A 
ATOM      7  C   UNL     1      14.823 -29.788   9.118  1.00  0.00     0.093 A 
ATOM      8  C   UNL     1      13.845 -29.924  10.106  1.00  0.00     0.123 A 
ATOM      9  C   UNL     1      12.704 -29.125  10.066  1.00  0.00     0.094 A 
ATOM     10  C   UNL     1      12.517 -28.209   9.027  1.00  0.00     0.146 A 
ATOM     11  O   UNL     1      11.410 -27.476   9.022  1.00  0.00    -0.452 OA
ENDROOT
BRANCH   1  12
ATOM     12  C   UNL     1       9.868 -25.818   8.196  1.00  0.00     0.025 A 
ATOM     13  C   UNL     1       8.906 -25.813   7.170  1.00  0.00     0.016 A 
ATOM     14  C   UNL     1       7.740 -25.056   7.298  1.00  0.00     0.051 A 
ATOM     15  C   UNL     1       7.521 -24.283   8.447  1.00  0.00     0.157 A 
ATOM     16  C   UNL     1       9.653 -25.026   9.335  1.00  0.00     0.062 A 
ATOM     17  C   UNL     1       8.485 -24.266   9.469  1.00  0.00     0.158 A 
BRANCH  15  18
ATOM     18  O   UNL     1       6.355 -23.529   8.573  1.00  0.00    -0.504 OA
ATOM     19  H   UNL     1       5.952 -23.039   7.783  1.00  0.00     0.293 HD
ENDBRANCH  15  18
BRANCH  17  20
ATOM     20  O   UNL     1       8.301 -23.502  10.620  1.00  0.00    -0.504 OA
ATOM     21  H   UNL     1       7.794 -22.625  10.609  1.00  0.00     0.293 HD
ENDBRANCH  17  20
ENDBRANCH   1  12
BRANCH   2  22
ATOM     22  O   UNL     1      11.654 -25.583   5.927  1.00  0.00    -0.502 OA
ATOM     23  H   UNL     1      12.346 -25.033   5.430  1.00  0.00     0.293 HD
ENDBRANCH   2  22
BRANCH   6  24
ATOM     24  O   UNL     1      15.758 -28.728   7.204  1.00  0.00    -0.507 OA
ATOM     25  H   UNL     1      16.577 -29.316   7.211  1.00  0.00     0.293 HD
ENDBRANCH   6  24
BRANCH   8  26
ATOM     26  O   UNL     1      14.001 -30.846  11.139  1.00  0.00    -0.508 OA
ATOM     27  H   UNL     1      13.584 -30.696  12.051  1.00  0.00     0.293 HD
ENDBRANCH   8  26
TORSDOF 6
ENDMDL
MODEL 5
REMARK VINA RESULT:    -7.365      2.277      3.357
REMARK INTER + INTRA:          -9.100
REMARK INTER:                  -9.439
REMARK INTRA:                   0.340
REMARK UNBOUND:                -0.227
REMARK SMILES O=c1c(O)c(-c2ccc(O)c(O)c2)oc2cc(O)cc(O)c12
REMARK SMILES IDX 5 1 3 2 2 3 1 4 22 5 20 6 19 7 17 8 16 9 15 10 14 11 6 12
REMARK SMILES IDX 7 13 8 14 9 15 13 16 11 17 10 18 12 20 4 22 21 24 18 26
REMARK H PARENT 10 19 12 21 4 23 21 25 18 27
REMARK Flexibility Score: inf
ROOT
ATOM      1  C   UNL     1      10.647 -26.692   8.567  1.00  0.00     0.180 A 
ATOM      2  C   UNL     1       9.942 -27.715   9.225  1.00  0.00     0.208 A 
ATOM      3  C   UNL     1      10.661 -28.767   9.816  1.00  0.00     0.238 A 
ATOM      4  O   UNL     1      10.026 -29.650  10.450  1.00  0.00    -0.285 OA
ATOM      5  C   UNL     1      12.073 -28.791   9.729  1.00  0.00     0.111 A 
ATOM      6  C   UNL     1      12.900 -29.827  10.257  1.00  0.00     0.134 A 
ATOM      7  C   UNL     1      14.292 -29.683  10.227  1.00  0.00     0.093 A 
ATOM      8  C   UNL     1      14.888 -28.570   9.630  1.00  0.00     0.123 A 
ATOM      9  C   UNL     1      14.090 -27.580   9.059  1.00  0.00     0.094 A 
ATOM     10  C   UNL     1      12.697 -27.679   9.106  1.00  0.00     0.146 A 
ATOM     11  O   UNL     1      11.975 -26.709   8.559  1.00  0.00    -0.452 OA
ENDROOT
BRANCH   1  12
ATOM     12  C   UNL     1       9.959 -25.564   7.898  1.00  0.00     0.025 A 
ATOM     13  C   UNL     1      10.541 -24.897   6.806  1.00  0.00     0.016 A 
ATOM     14  C   UNL     1       9.885 -23.820   6.205  1.00  0.00     0.051 A 
ATOM     15  C   UNL     1       8.646 -23.385   6.694  1.00  0.00     0.157 A 
ATOM     16  C   UNL     1       8.727 -25.112   8.397  1.00  0.00     0.062 A 
ATOM     17  C   UNL     1       8.066 -24.033   7.798  1.00  0.00     0.158 A 
BRANCH  15  18
ATOM     18  O   UNL     1       7.993 -22.311   6.091  1.00  0.00    -0.504 OA
ATOM     19  H   UNL     1       8.410 -21.799   5.322  1.00  0.00     0.293 HD
ENDBRANCH  15  18
BRANCH  17  20
ATOM     20  O   UNL     1       6.838 -23.620   8.312  1.00  0.00    -0.504 OA
ATOM     21  H   UNL     1       6.665 -23.559   9.309  1.00  0.00     0.293 HD
ENDBRANCH  17  20
ENDBRANCH   1  12
BRANCH   2  22
ATOM     22  O   UNL     1       8.549 -27.660   9.318  1.00  0.00    -0.502 OA
ATOM     23  H   UNL     1       7.992 -28.449   9.627  1.00  0.00     0.293 HD
ENDBRANCH   2  22
BRANCH   6  24
ATOM     24  O   UNL     1      12.408 -31.022  10.791  1.00  0.00    -0.507 OA
ATOM     25  H   UNL     1      11.513 -31.427  10.565  1.00  0.00     0.293 HD
ENDBRANCH   6  24
BRANCH   8  26
ATOM     26  O   UNL     1      16.275 -28.441   9.591  1.00  0.00    -0.508 OA
ATOM     27  H   UNL     1      16.814 -28.262  10.430  1.00  0.00     0.293 HD
ENDBRANCH   8  26
TORSDOF 6
ENDMDL
MODEL 6
REMARK VINA RESULT:    -7.276      2.298      2.603
REMARK INTER + INTRA:          -8.992
REMARK INTER:                  -9.063
REMARK INTRA:                   0.070
REMARK UNBOUND:                -0.227
REMARK SMILES O=c1c(O)c(-c2ccc(O)c(O)c2)oc2cc(O)cc(O)c12
REMARK SMILES IDX 5 1 3 2 2 3 1 4 22 5 20 6 19 7 17 8 16 9 15 10 14 11 6 12
REMARK SMILES IDX 7 13 8 14 9 15 13 16 11 17 10 18 12 20 4 22 21 24 18 26
REMARK H PARENT 10 19 12 21 4 23 21 25 18 27
REMARK Flexibility Score: inf
ROOT
ATOM      1  C   UNL     1      11.380 -25.986   8.486  1.00  0.00     0.180 A 
ATOM      2  C   UNL     1      11.333 -27.367   8.746  1.00  0.00     0.208 A 
ATOM      3  C   UNL     1      12.533 -28.057   8.980  1.00  0.00     0.238 A 
ATOM      4  O   UNL     1      12.479 -29.282   9.266  1.00  0.00    -0.285 OA
ATOM      5  C   UNL     1      13.764 -27.362   8.939  1.00  0.00     0.111 A 
ATOM      6  C   UNL     1      15.043 -27.968   9.123  1.00  0.00     0.134 A 
ATOM      7  C   UNL     1      16.186 -27.163   9.191  1.00  0.00     0.093 A 
ATOM      8  C   UNL     1      16.104 -25.779   9.016  1.00  0.00     0.123 A 
ATOM      9  C   UNL     1      14.867 -25.185   8.777  1.00  0.00     0.094 A 
ATOM     10  C   UNL     1      13.704 -25.958   8.740  1.00  0.00     0.146 A 
ATOM     11  O   UNL     1      12.545 -25.350   8.519  1.00  0.00    -0.452 OA
ENDROOT
BRANCH   1  12
ATOM     12  C   UNL     1      10.161 -25.194   8.204  1.00  0.00     0.025 A 
ATOM     13  C   UNL     1       9.005 -25.324   8.994  1.00  0.00     0.016 A 
ATOM     14  C   UNL     1       7.858 -24.586   8.695  1.00  0.00     0.051 A 
ATOM     15  C   UNL     1       7.843 -23.715   7.596  1.00  0.00     0.157 A 
ATOM     16  C   UNL     1      10.135 -24.337   7.092  1.00  0.00     0.062 A 
ATOM     17  C   UNL     1       8.988 -23.593   6.789  1.00  0.00     0.158 A 
BRANCH  15  18
ATOM     18  O   UNL     1       6.698 -22.978   7.301  1.00  0.00    -0.504 OA
ATOM     19  H   UNL     1       6.648 -22.378   6.485  1.00  0.00     0.293 HD
ENDBRANCH  15  18
BRANCH  17  20
ATOM     20  O   UNL     1       9.003 -22.743   5.685  1.00  0.00    -0.504 OA
ATOM     21  H   UNL     1       8.152 -22.441   5.226  1.00  0.00     0.293 HD
ENDBRANCH  17  20
ENDBRANCH   1  12
BRANCH   2  22
ATOM     22  O   UNL     1      10.103 -28.029   8.803  1.00  0.00    -0.502 OA
ATOM     23  H   UNL     1       9.870 -28.680   9.544  1.00  0.00     0.293 HD
ENDBRANCH   2  22
BRANCH   6  24
ATOM     24  O   UNL     1      15.246 -29.349   9.216  1.00  0.00    -0.507 OA
ATOM     25  H   UNL     1      14.670 -29.979   9.751  1.00  0.00     0.293 HD
ENDBRANCH   6  24
BRANCH   8  26
ATOM     26  O   UNL     1      17.248 -24.986   9.069  1.00  0.00    -0.508 OA
ATOM     27  H   UNL     1      17.504 -24.373   8.304  1.00  0.00     0.293 HD
ENDBRANCH   8  26
TORSDOF 6
ENDMDL
MODEL 7
REMARK VINA RESULT:    -7.178      2.872      6.724
REMARK INTER + INTRA:          -8.874
REMARK INTER:                  -8.542
REMARK INTRA:                  -0.331
REMARK UNBOUND:                -0.227
REMARK SMILES O=c1c(O)c(-c2ccc(O)c(O)c2)oc2cc(O)cc(O)c12
REMARK SMILES IDX 5 1 3 2 2 3 1 4 22 5 20 6 19 7 17 8 16 9 15 10 14 11 6 12
REMARK SMILES IDX 7 13 8 14 9 15 13 16 11 17 10 18 12 20 4 22 21 24 18 26
REMARK H PARENT 10 19 12 21 4 23 21 25 18 27
REMARK Flexibility Score: inf
ROOT
ATOM      1  C   UNL     1      13.190 -26.075   8.709  1.00  0.00     0.180 A 
ATOM      2  C   UNL     1      12.908 -27.395   9.105  1.00  0.00     0.208 A 
ATOM      3  C   UNL     1      11.574 -27.831   9.120  1.00  0.00     0.238 A 
ATOM      4  O   UNL     1      11.334 -29.029   9.423  1.00  0.00    -0.285 OA
ATOM      5  C   UNL     1      10.537 -26.940   8.755  1.00  0.00     0.111 A 
ATOM      6  C   UNL     1       9.147 -27.263   8.771  1.00  0.00     0.134 A 
ATOM      7  C   UNL     1       8.218 -26.346   8.265  1.00  0.00     0.093 A 
ATOM      8  C   UNL     1       8.623 -25.091   7.803  1.00  0.00     0.123 A 
ATOM      9  C   UNL     1       9.972 -24.744   7.837  1.00  0.00     0.094 A 
ATOM     10  C   UNL     1      10.926 -25.652   8.303  1.00  0.00     0.146 A 
ATOM     11  O   UNL     1      12.201 -25.283   8.309  1.00  0.00    -0.452 OA
ENDROOT
BRANCH   1  12
ATOM     12  C   UNL     1      14.568 -25.534   8.691  1.00  0.00     0.025 A 
ATOM     13  C   UNL     1      15.149 -24.975   9.843  1.00  0.00     0.016 A 
ATOM     14  C   UNL     1      16.442 -24.448   9.798  1.00  0.00     0.051 A 
ATOM     15  C   UNL     1      17.169 -24.460   8.599  1.00  0.00     0.157 A 
ATOM     16  C   UNL     1      15.292 -25.525   7.488  1.00  0.00     0.062 A 
ATOM     17  C   UNL     1      16.589 -24.999   7.438  1.00  0.00     0.158 A 
BRANCH  15  18
ATOM     18  O   UNL     1      18.460 -23.936   8.557  1.00  0.00    -0.504 OA
ATOM     19  H   UNL     1      18.768 -23.231   9.217  1.00  0.00     0.293 HD
ENDBRANCH  15  18
BRANCH  17  20
ATOM     20  O   UNL     1      17.282 -25.019   6.229  1.00  0.00    -0.504 OA
ATOM     21  H   UNL     1      17.215 -25.797   5.583  1.00  0.00     0.293 HD
ENDBRANCH  17  20
ENDBRANCH   1  12
BRANCH   2  22
ATOM     22  O   UNL     1      13.949 -28.264   9.441  1.00  0.00    -0.502 OA
ATOM     23  H   UNL     1      14.064 -29.171   9.003  1.00  0.00     0.293 HD
ENDBRANCH   2  22
BRANCH   6  24
ATOM     24  O   UNL     1       8.629 -28.451   9.296  1.00  0.00    -0.507 OA
ATOM     25  H   UNL     1       7.709 -28.548   9.699  1.00  0.00     0.293 HD
ENDBRANCH   6  24
BRANCH   8  26
ATOM     26  O   UNL     1       7.691 -24.179   7.315  1.00  0.00    -0.508 OA
ATOM     27  H   UNL     1       7.727 -23.198   7.567  1.00  0.00     0.293 HD
ENDBRANCH   8  26
TORSDOF 6
ENDMDL
MODEL 8
REMARK VINA RESULT:    -6.926      2.606      3.452
REMARK INTER + INTRA:          -8.571
REMARK INTER:                  -9.006
REMARK INTRA:                   0.435
REMARK UNBOUND:                -0.227
REMARK SMILES O=c1c(O)c(-c2ccc(O)c(O)c2)oc2cc(O)cc(O)c12
REMARK SMILES IDX 5 1 3 2 2 3 1 4 22 5 20 6 19 7 17 8 16 9 15 10 14 11 6 12
REMARK SMILES IDX 7 13 8 14 9 15 13 16 11 17 10 18 12 20 4 22 21 24 18 26
REMARK H PARENT 10 19 12 21 4 23 21 25 18 27
REMARK Flexibility Score: inf
ROOT
ATOM      1  C   UNL     1      11.066 -26.747   8.297  1.00  0.00     0.180 A 
ATOM      2  C   UNL     1      12.385 -26.955   7.858  1.00  0.00     0.208 A 
ATOM      3  C   UNL     1      13.132 -28.004   8.419  1.00  0.00     0.238 A 
ATOM      4  O   UNL     1      14.293 -28.219   7.982  1.00  0.00    -0.285 OA
ATOM      5  C   UNL     1      12.556 -28.822   9.420  1.00  0.00     0.111 A 
ATOM      6  C   UNL     1      13.234 -29.888  10.084  1.00  0.00     0.134 A 
ATOM      7  C   UNL     1      12.526 -30.714  10.965  1.00  0.00     0.093 A 
ATOM      8  C   UNL     1      11.181 -30.473  11.256  1.00  0.00     0.123 A 
ATOM      9  C   UNL     1      10.526 -29.398  10.657  1.00  0.00     0.094 A 
ATOM     10  C   UNL     1      11.197 -28.578   9.746  1.00  0.00     0.146 A 
ATOM     11  O   UNL     1      10.532 -27.572   9.191  1.00  0.00    -0.452 OA
ENDROOT
BRANCH   1  12
ATOM     12  C   UNL     1      10.225 -25.647   7.774  1.00  0.00     0.025 A 
ATOM     13  C   UNL     1      10.589 -24.934   6.618  1.00  0.00     0.016 A 
ATOM     14  C   UNL     1       9.793 -23.884   6.155  1.00  0.00     0.051 A 
ATOM     15  C   UNL     1       8.628 -23.522   6.846  1.00  0.00     0.157 A 
ATOM     16  C   UNL     1       9.068 -25.267   8.473  1.00  0.00     0.062 A 
ATOM     17  C   UNL     1       8.266 -24.216   8.012  1.00  0.00     0.158 A 
BRANCH  15  18
ATOM     18  O   UNL     1       7.834 -22.475   6.380  1.00  0.00    -0.504 OA
ATOM     19  H   UNL     1       6.964 -22.225   6.836  1.00  0.00     0.293 HD
ENDBRANCH  15  18
BRANCH  17  20
ATOM     20  O   UNL     1       7.118 -23.876   8.726  1.00  0.00    -0.504 OA
ATOM     21  H   UNL     1       7.033 -22.996   9.222  1.00  0.00     0.293 HD
ENDBRANCH  17  20
ENDBRANCH   1  12
BRANCH   2  22
ATOM     22  O   UNL     1      12.926 -26.149   6.853  1.00  0.00    -0.502 OA
ATOM     23  H   UNL     1      12.386 -25.432   6.382  1.00  0.00     0.293 HD
ENDBRANCH   2  22
BRANCH   6  24
ATOM     24  O   UNL     1      14.598 -30.158   9.936  1.00  0.00    -0.507 OA
ATOM     25  H   UNL     1      15.288 -30.047  10.663  1.00  0.00     0.293 HD
ENDBRANCH   6  24
BRANCH   8  26
ATOM     26  O   UNL     1      10.488 -31.290  12.145  1.00  0.00    -0.508 OA
ATOM     27  H   UNL     1       9.695 -30.945  12.674  1.00  0.00     0.293 HD
ENDBRANCH   8  26
TORSDOF 6
ENDMDL
MODEL 9
REMARK VINA RESULT:    -6.562      3.501      6.239
REMARK INTER + INTRA:          -8.132
REMARK INTER:                  -7.811
REMARK INTRA:                  -0.321
REMARK UNBOUND:                -0.227
REMARK SMILES O=c1c(O)c(-c2ccc(O)c(O)c2)oc2cc(O)cc(O)c12
REMARK SMILES IDX 5 1 3 2 2 3 1 4 22 5 20 6 19 7 17 8 16 9 15 10 14 11 6 12
REMARK SMILES IDX 7 13 8 14 9 15 13 16 11 17 10 18 12 20 4 22 21 24 18 26
REMARK H PARENT 10 19 12 21 4 23 21 25 18 27
REMARK Flexibility Score: inf
ROOT
ATOM      1  C   UNL     1      13.258 -26.271   8.933  1.00  0.00     0.180 A 
ATOM      2  C   UNL     1      12.073 -25.556   8.688  1.00  0.00     0.208 A 
ATOM      3  C   UNL     1      10.841 -26.222   8.798  1.00  0.00     0.238 A 
ATOM      4  O   UNL     1       9.782 -25.562   8.630  1.00  0.00    -0.285 OA
ATOM      5  C   UNL     1      10.810 -27.595   9.136  1.00  0.00     0.111 A 
ATOM      6  C   UNL     1       9.622 -28.379   9.236  1.00  0.00     0.134 A 
ATOM      7  C   UNL     1       9.699 -29.695   9.704  1.00  0.00     0.093 A 
ATOM      8  C   UNL     1      10.931 -30.278  10.014  1.00  0.00     0.123 A 
ATOM      9  C   UNL     1      12.103 -29.540   9.863  1.00  0.00     0.094 A 
ATOM     10  C   UNL     1      12.054 -28.212   9.432  1.00  0.00     0.146 A 
ATOM     11  O   UNL     1      13.193 -27.543   9.312  1.00  0.00    -0.452 OA
ENDROOT
BRANCH   1  12
ATOM     12  C   UNL     1      14.595 -25.647   8.813  1.00  0.00     0.025 A 
ATOM     13  C   UNL     1      15.231 -25.060   9.920  1.00  0.00     0.016 A 
ATOM     14  C   UNL     1      16.482 -24.454   9.779  1.00  0.00     0.051 A 
ATOM     15  C   UNL     1      17.112 -24.416   8.527  1.00  0.00     0.157 A 
ATOM     16  C   UNL     1      15.221 -25.587   7.557  1.00  0.00     0.062 A 
ATOM     17  C   UNL     1      16.475 -24.983   7.410  1.00  0.00     0.158 A 
BRANCH  15  18
ATOM     18  O   UNL     1      18.361 -23.813   8.389  1.00  0.00    -0.504 OA
ATOM     19  H   UNL     1      19.182 -24.347   8.129  1.00  0.00     0.293 HD
ENDBRANCH  15  18
BRANCH  17  20
ATOM     20  O   UNL     1      17.071 -24.954   6.150  1.00  0.00    -0.504 OA
ATOM     21  H   UNL     1      16.561 -24.676   5.320  1.00  0.00     0.293 HD
ENDBRANCH  17  20
ENDBRANCH   1  12
BRANCH   2  22
ATOM     22  O   UNL     1      12.126 -24.195   8.377  1.00  0.00    -0.502 OA
ATOM     23  H   UNL     1      13.001 -23.694   8.276  1.00  0.00     0.293 HD
ENDBRANCH   2  22
BRANCH   6  24
ATOM     24  O   UNL     1       8.353 -27.923   8.864  1.00  0.00    -0.507 OA
ATOM     25  H   UNL     1       8.176 -27.077   8.344  1.00  0.00     0.293 HD
ENDBRANCH   6  24
BRANCH   8  26
ATOM     26  O   UNL     1      11.001 -31.594  10.465  1.00  0.00    -0.508 OA
ATOM     27  H   UNL     1      11.862 -31.984  10.832  1.00  0.00     0.293 HD
ENDBRANCH   8  26
TORSDOF 6
ENDMDL
