MODEL 1
REMARK VINA RESULT:    -3.800      0.000      0.000
REMARK INTER + INTRA:          -4.509
REMARK INTER:                  -4.578
REMARK INTRA:                   0.069
REMARK UNBOUND:                 0.069
REMARK SMILES O=c1c(O)c(-c2ccc(O)c(O)c2)oc2cc(O)cc(O)c12
REMARK SMILES IDX 5 1 3 2 2 3 1 4 22 5 20 6 19 7 17 8 16 9 15 10 14 11 6 12
REMARK SMILES IDX 7 13 8 14 9 15 13 16 11 17 10 18 12 20 4 22 21 24 18 26
REMARK H PARENT 10 19 12 21 4 23 21 25 18 27
REMARK Flexibility Score: inf
ROOT
ATOM      1  C   UNL     1       0.841  21.106  19.410  1.00  0.00     0.180 A 
ATOM      2  C   UNL     1       1.412  22.077  18.569  1.00  0.00     0.208 A 
ATOM      3  C   UNL     1       1.563  23.388  19.047  1.00  0.00     0.238 A 
ATOM      4  O   UNL     1       2.125  24.239  18.310  1.00  0.00    -0.285 OA
ATOM      5  C   UNL     1       1.126  23.717  20.353  1.00  0.00     0.111 A 
ATOM      6  C   UNL     1       1.193  25.022  20.926  1.00  0.00     0.134 A 
ATOM      7  C   UNL     1       0.853  25.204  22.272  1.00  0.00     0.093 A 
ATOM      8  C   UNL     1       0.385  24.141  23.047  1.00  0.00     0.123 A 
ATOM      9  C   UNL     1       0.260  22.874  22.480  1.00  0.00     0.094 A 
ATOM     10  C   UNL     1       0.626  22.653  21.151  1.00  0.00     0.146 A 
ATOM     11  O   UNL     1       0.501  21.429  20.652  1.00  0.00    -0.452 OA
ENDROOT
BRANCH   1  12
ATOM     12  C   UNL     1       0.626  19.709  18.969  1.00  0.00     0.025 A 
ATOM     13  C   UNL     1       0.058  19.462  17.709  1.00  0.00     0.016 A 
ATOM     14  C   UNL     1      -0.135  18.151  17.264  1.00  0.00     0.051 A 
ATOM     15  C   UNL     1       0.251  17.069  18.067  1.00  0.00     0.157 A 
ATOM     16  C   UNL     1       1.030  18.620  19.763  1.00  0.00     0.062 A 
ATOM     17  C   UNL     1       0.838  17.304  19.316  1.00  0.00     0.158 A 
BRANCH  15  18
ATOM     18  O   UNL     1       0.058  15.761  17.628  1.00  0.00    -0.504 OA
ATOM     19  H   UNL     1       0.056  15.527  16.642  1.00  0.00     0.293 HD
ENDBRANCH  15  18
BRANCH  17  20
ATOM     20  O   UNL     1       1.233  16.226  20.107  1.00  0.00    -0.504 OA
ATOM     21  H   UNL     1       1.962  15.588  19.807  1.00  0.00     0.293 HD
ENDBRANCH  17  20
ENDBRANCH   1  12
BRANCH   2  22
ATOM     22  O   UNL     1       1.856  21.726  17.291  1.00  0.00    -0.502 OA
ATOM     23  H   UNL     1       2.111  22.416  16.595  1.00  0.00     0.293 HD
ENDBRANCH   2  22
BRANCH   6  24
ATOM     24  O   UNL     1       1.558  26.169  20.214  1.00  0.00    -0.507 OA
ATOM     25  H   UNL     1       0.947  26.952  20.035  1.00  0.00     0.293 HD
ENDBRANCH   6  24
BRANCH   8  26
ATOM     26  O   UNL     1       0.034  24.334  24.381  1.00  0.00    -0.508 OA
ATOM     27  H   UNL     1      -0.813  24.827  24.640  1.00  0.00     0.293 HD
ENDBRANCH   8  26
TORSDOF 6
ENDMDL
MODEL 2
REMARK VINA RESULT:    -3.664      1.736      7.082
REMARK INTER + INTRA:          -4.344
REMARK INTER:                  -4.276
REMARK INTRA:                  -0.068
REMARK UNBOUND:                 0.069
REMARK SMILES O=c1c(O)c(-c2ccc(O)c(O)c2)oc2cc(O)cc(O)c12
REMARK SMILES IDX 5 1 3 2 2 3 1 4 22 5 20 6 19 7 17 8 16 9 15 10 14 11 6 12
REMARK SMILES IDX 7 13 8 14 9 15 13 16 11 17 10 18 12 20 4 22 21 24 18 26
REMARK H PARENT 10 19 12 21 4 23 21 25 18 27
REMARK Flexibility Score: inf
ROOT
ATOM      1  C   UNL     1       0.884  19.531  19.734  1.00  0.00     0.180 A 
ATOM      2  C   UNL     1       0.415  19.229  18.443  1.00  0.00     0.208 A 
ATOM      3  C   UNL     1       0.420  17.893  18.012  1.00  0.00     0.238 A 
ATOM      4  O   UNL     1      -0.052  17.622  16.877  1.00  0.00    -0.285 OA
ATOM      5  C   UNL     1       0.911  16.878  18.868  1.00  0.00     0.111 A 
ATOM      6  C   UNL     1       1.000  15.497  18.520  1.00  0.00     0.134 A 
ATOM      7  C   UNL     1       1.378  14.562  19.492  1.00  0.00     0.093 A 
ATOM      8  C   UNL     1       1.733  14.967  20.781  1.00  0.00     0.123 A 
ATOM      9  C   UNL     1       1.707  16.319  21.113  1.00  0.00     0.094 A 
ATOM     10  C   UNL     1       1.298  17.272  20.176  1.00  0.00     0.146 A 
ATOM     11  O   UNL     1       1.277  18.549  20.537  1.00  0.00    -0.452 OA
ENDROOT
BRANCH   1  12
ATOM     12  C   UNL     1       0.933  20.917  20.250  1.00  0.00     0.025 A 
ATOM     13  C   UNL     1       1.640  21.897  19.535  1.00  0.00     0.016 A 
ATOM     14  C   UNL     1       1.682  23.216  19.993  1.00  0.00     0.051 A 
ATOM     15  C   UNL     1       1.006  23.578  21.166  1.00  0.00     0.157 A 
ATOM     16  C   UNL     1       0.239  21.289  21.416  1.00  0.00     0.062 A 
ATOM     17  C   UNL     1       0.280  22.614  21.876  1.00  0.00     0.158 A 
BRANCH  15  18
ATOM     18  O   UNL     1       1.047  24.892  21.628  1.00  0.00    -0.504 OA
ATOM     19  H   UNL     1       1.878  25.275  22.063  1.00  0.00     0.293 HD
ENDBRANCH  15  18
BRANCH  17  20
ATOM     20  O   UNL     1      -0.403  22.980  23.035  1.00  0.00    -0.504 OA
ATOM     21  H   UNL     1      -0.024  22.789  23.955  1.00  0.00     0.293 HD
ENDBRANCH  17  20
ENDBRANCH   1  12
BRANCH   2  22
ATOM     22  O   UNL     1      -0.085  20.243  17.622  1.00  0.00    -0.502 OA
ATOM     23  H   UNL     1      -1.043  20.567  17.680  1.00  0.00     0.293 HD
ENDBRANCH   2  22
BRANCH   6  24
ATOM     24  O   UNL     1       0.758  14.998  17.236  1.00  0.00    -0.507 OA
ATOM     25  H   UNL     1       0.302  15.512  16.497  1.00  0.00     0.293 HD
ENDBRANCH   6  24
BRANCH   8  26
ATOM     26  O   UNL     1       2.124  14.033  21.737  1.00  0.00    -0.508 OA
ATOM     27  H   UNL     1       2.882  13.383  21.565  1.00  0.00     0.293 HD
ENDBRANCH   8  26
TORSDOF 6
ENDMDL
MODEL 3
REMARK VINA RESULT:    -3.594      1.338      6.759
REMARK INTER + INTRA:          -4.260
REMARK INTER:                  -4.312
REMARK INTRA:                   0.052
REMARK UNBOUND:                 0.069
REMARK SMILES O=c1c(O)c(-c2ccc(O)c(O)c2)oc2cc(O)cc(O)c12
REMARK SMILES IDX 5 1 3 2 2 3 1 4 22 5 20 6 19 7 17 8 16 9 15 10 14 11 6 12
REMARK SMILES IDX 7 13 8 14 9 15 13 16 11 17 10 18 12 20 4 22 21 24 18 26
REMARK H PARENT 10 19 12 21 4 23 21 25 18 27
REMARK Flexibility Score: inf
ROOT
ATOM      1  C   UNL     1       0.718  21.051  20.035  1.00  0.00     0.180 A 
ATOM      2  C   UNL     1       0.245  20.979  18.713  1.00  0.00     0.208 A 
ATOM      3  C   UNL     1       0.173  19.726  18.083  1.00  0.00     0.238 A 
ATOM      4  O   UNL     1      -0.303  19.661  16.920  1.00  0.00    -0.285 OA
ATOM      5  C   UNL     1       0.591  18.564  18.775  1.00  0.00     0.111 A 
ATOM      6  C   UNL     1       0.600  17.249  18.220  1.00  0.00     0.134 A 
ATOM      7  C   UNL     1       0.910  16.156  19.039  1.00  0.00     0.093 A 
ATOM      8  C   UNL     1       1.276  16.338  20.375  1.00  0.00     0.123 A 
ATOM      9  C   UNL     1       1.328  17.623  20.910  1.00  0.00     0.094 A 
ATOM     10  C   UNL     1       0.988  18.730  20.128  1.00  0.00     0.146 A 
ATOM     11  O   UNL     1       1.041  19.936  20.680  1.00  0.00    -0.452 OA
ENDROOT
BRANCH   1  12
ATOM     12  C   UNL     1       0.846  22.337  20.757  1.00  0.00     0.025 A 
ATOM     13  C   UNL     1       1.462  23.427  20.123  1.00  0.00     0.016 A 
ATOM     14  C   UNL     1       1.575  24.656  20.778  1.00  0.00     0.051 A 
ATOM     15  C   UNL     1       1.060  24.817  22.071  1.00  0.00     0.157 A 
ATOM     16  C   UNL     1       0.312  22.509  22.047  1.00  0.00     0.062 A 
ATOM     17  C   UNL     1       0.424  23.743  22.705  1.00  0.00     0.158 A 
BRANCH  15  18
ATOM     18  O   UNL     1       1.172  26.040  22.729  1.00  0.00    -0.504 OA
ATOM     19  H   UNL     1       0.573  26.279  23.510  1.00  0.00     0.293 HD
ENDBRANCH  15  18
BRANCH  17  20
ATOM     20  O   UNL     1      -0.100  23.909  23.986  1.00  0.00    -0.504 OA
ATOM     21  H   UNL     1      -1.085  23.767  24.179  1.00  0.00     0.293 HD
ENDBRANCH  17  20
ENDBRANCH   1  12
BRANCH   2  22
ATOM     22  O   UNL     1      -0.184  22.135  18.056  1.00  0.00    -0.502 OA
ATOM     23  H   UNL     1       0.375  22.598  17.349  1.00  0.00     0.293 HD
ENDBRANCH   2  22
BRANCH   6  24
ATOM     24  O   UNL     1       0.341  16.968  16.875  1.00  0.00    -0.507 OA
ATOM     25  H   UNL     1      -0.092  16.121  16.539  1.00  0.00     0.293 HD
ENDBRANCH   6  24
BRANCH   8  26
ATOM     26  O   UNL     1       1.598  15.246  21.178  1.00  0.00    -0.508 OA
ATOM     27  H   UNL     1       1.719  14.319  20.789  1.00  0.00     0.293 HD
ENDBRANCH   8  26
TORSDOF 6
ENDMDL
MODEL 4
REMARK VINA RESULT:    -3.239      1.709      3.444
REMARK INTER + INTRA:          -3.833
REMARK INTER:                  -3.971
REMARK INTRA:                   0.138
REMARK UNBOUND:                 0.069
REMARK SMILES O=c1c(O)c(-c2ccc(O)c(O)c2)oc2cc(O)cc(O)c12
REMARK SMILES IDX 5 1 3 2 2 3 1 4 22 5 20 6 19 7 17 8 16 9 15 10 14 11 6 12
REMARK SMILES IDX 7 13 8 14 9 15 13 16 11 17 10 18 12 20 4 22 21 24 18 26
REMARK H PARENT 10 19 12 21 4 23 21 25 18 27
REMARK Flexibility Score: inf
ROOT
ATOM      1  C   UNL     1       0.425  22.389  21.099  1.00  0.00     0.180 A 
ATOM      2  C   UNL     1      -0.115  22.293  22.393  1.00  0.00     0.208 A 
ATOM      3  C   UNL     1      -0.062  23.414  23.238  1.00  0.00     0.238 A 
ATOM      4  O   UNL     1      -0.596  23.339  24.374  1.00  0.00    -0.285 OA
ATOM      5  C   UNL     1       0.546  24.609  22.785  1.00  0.00     0.111 A 
ATOM      6  C   UNL     1       0.692  25.792  23.571  1.00  0.00     0.134 A 
ATOM      7  C   UNL     1       1.193  26.958  22.977  1.00  0.00     0.093 A 
ATOM      8  C   UNL     1       1.613  26.964  21.645  1.00  0.00     0.123 A 
ATOM      9  C   UNL     1       1.531  25.799  20.887  1.00  0.00     0.094 A 
ATOM     10  C   UNL     1       1.002  24.630  21.440  1.00  0.00     0.146 A 
ATOM     11  O   UNL     1       0.930  23.544  20.681  1.00  0.00    -0.452 OA
ENDROOT
BRANCH   1  12
ATOM     12  C   UNL     1       0.429  21.245  20.160  1.00  0.00     0.025 A 
ATOM     13  C   UNL     1       0.249  21.477  18.787  1.00  0.00     0.016 A 
ATOM     14  C   UNL     1       0.269  20.413  17.881  1.00  0.00     0.051 A 
ATOM     15  C   UNL     1       0.485  19.105  18.332  1.00  0.00     0.157 A 
ATOM     16  C   UNL     1       0.666  19.932  20.606  1.00  0.00     0.062 A 
ATOM     17  C   UNL     1       0.689  18.865  19.696  1.00  0.00     0.158 A 
BRANCH  15  18
ATOM     18  O   UNL     1       0.505  18.042  17.432  1.00  0.00    -0.504 OA
ATOM     19  H   UNL     1       0.880  17.136  17.688  1.00  0.00     0.293 HD
ENDBRANCH  15  18
BRANCH  17  20
ATOM     20  O   UNL     1       0.918  17.563  20.141  1.00  0.00    -0.504 OA
ATOM     21  H   UNL     1       1.008  16.790  19.492  1.00  0.00     0.293 HD
ENDBRANCH  17  20
ENDBRANCH   1  12
BRANCH   2  22
ATOM     22  O   UNL     1      -0.731  21.111  22.812  1.00  0.00    -0.502 OA
ATOM     23  H   UNL     1      -0.341  20.521  23.537  1.00  0.00     0.293 HD
ENDBRANCH   2  22
BRANCH   6  24
ATOM     24  O   UNL     1       0.390  25.866  24.934  1.00  0.00    -0.507 OA
ATOM     25  H   UNL     1       0.619  25.156  25.612  1.00  0.00     0.293 HD
ENDBRANCH   6  24
BRANCH   8  26
ATOM     26  O   UNL     1       2.125  28.124  21.067  1.00  0.00    -0.508 OA
ATOM     27  H   UNL     1       3.028  28.496  21.335  1.00  0.00     0.293 HD
ENDBRANCH   8  26
TORSDOF 6
ENDMDL
MODEL 5
REMARK VINA RESULT:    -3.206      2.480      7.740
REMARK INTER + INTRA:          -3.793
REMARK INTER:                  -3.483
REMARK INTRA:                  -0.309
REMARK UNBOUND:                 0.069
REMARK SMILES O=c1c(O)c(-c2ccc(O)c(O)c2)oc2cc(O)cc(O)c12
REMARK SMILES IDX 5 1 3 2 2 3 1 4 22 5 20 6 19 7 17 8 16 9 15 10 14 11 6 12
REMARK SMILES IDX 7 13 8 14 9 15 13 16 11 17 10 18 12 20 4 22 21 24 18 26
REMARK H PARENT 10 19 12 21 4 23 21 25 18 27
REMARK Flexibility Score: inf
ROOT
ATOM      1  C   UNL     1       0.845  25.475  22.010  1.00  0.00     0.180 A 
ATOM      2  C   UNL     1       1.001  26.195  20.812  1.00  0.00     0.208 A 
ATOM      3  C   UNL     1       1.109  25.490  19.602  1.00  0.00     0.238 A 
ATOM      4  O   UNL     1       1.193  26.141  18.529  1.00  0.00    -0.285 OA
ATOM      5  C   UNL     1       1.077  24.075  19.607  1.00  0.00     0.111 A 
ATOM      6  C   UNL     1       1.218  23.257  18.446  1.00  0.00     0.134 A 
ATOM      7  C   UNL     1       1.040  21.872  18.550  1.00  0.00     0.093 A 
ATOM      8  C   UNL     1       0.791  21.269  19.785  1.00  0.00     0.123 A 
ATOM      9  C   UNL     1       0.710  22.052  20.934  1.00  0.00     0.094 A 
ATOM     10  C   UNL     1       0.847  23.440  20.857  1.00  0.00     0.146 A 
ATOM     11  O   UNL     1       0.753  24.151  21.974  1.00  0.00    -0.452 OA
ENDROOT
BRANCH   1  12
ATOM     12  C   UNL     1       0.749  26.146  23.326  1.00  0.00     0.025 A 
ATOM     13  C   UNL     1       1.922  26.550  23.982  1.00  0.00     0.016 A 
ATOM     14  C   UNL     1       1.855  27.203  25.216  1.00  0.00     0.051 A 
ATOM     15  C   UNL     1       0.612  27.475  25.803  1.00  0.00     0.157 A 
ATOM     16  C   UNL     1      -0.497  26.440  23.909  1.00  0.00     0.062 A 
ATOM     17  C   UNL     1      -0.565  27.097  25.147  1.00  0.00     0.158 A 
BRANCH  15  18
ATOM     18  O   UNL     1       0.540  28.125  27.033  1.00  0.00    -0.504 OA
ATOM     19  H   UNL     1       0.051  29.006  27.140  1.00  0.00     0.293 HD
ENDBRANCH  15  18
BRANCH  17  20
ATOM     20  O   UNL     1      -1.801  27.382  25.727  1.00  0.00    -0.504 OA
ATOM     21  H   UNL     1      -2.447  26.645  25.987  1.00  0.00     0.293 HD
ENDBRANCH  17  20
ENDBRANCH   1  12
BRANCH   2  22
ATOM     22  O   UNL     1       1.007  27.593  20.828  1.00  0.00    -0.502 OA
ATOM     23  H   UNL     1       0.792  28.147  20.008  1.00  0.00     0.293 HD
ENDBRANCH   2  22
BRANCH   6  24
ATOM     24  O   UNL     1       1.558  23.749  17.182  1.00  0.00    -0.507 OA
ATOM     25  H   UNL     1       0.924  23.810  16.400  1.00  0.00     0.293 HD
ENDBRANCH   6  24
BRANCH   8  26
ATOM     26  O   UNL     1       0.631  19.889  19.883  1.00  0.00    -0.508 OA
ATOM     27  H   UNL     1       1.414  19.255  19.778  1.00  0.00     0.293 HD
ENDBRANCH   8  26
TORSDOF 6
ENDMDL
MODEL 6
REMARK VINA RESULT:    -2.918      4.237      8.305
REMARK INTER + INTRA:          -3.447
REMARK INTER:                  -3.123
REMARK INTRA:                  -0.323
REMARK UNBOUND:                 0.069
REMARK SMILES O=c1c(O)c(-c2ccc(O)c(O)c2)oc2cc(O)cc(O)c12
REMARK SMILES IDX 5 1 3 2 2 3 1 4 22 5 20 6 19 7 17 8 16 9 15 10 14 11 6 12
REMARK SMILES IDX 7 13 8 14 9 15 13 16 11 17 10 18 12 20 4 22 21 24 18 26
REMARK H PARENT 10 19 12 21 4 23 21 25 18 27
REMARK Flexibility Score: inf
ROOT
ATOM      1  C   UNL     1       0.566  26.008  22.599  1.00  0.00     0.180 A 
ATOM      2  C   UNL     1       0.721  24.625  22.404  1.00  0.00     0.208 A 
ATOM      3  C   UNL     1       1.093  24.154  21.135  1.00  0.00     0.238 A 
ATOM      4  O   UNL     1       1.285  22.920  20.981  1.00  0.00    -0.285 OA
ATOM      5  C   UNL     1       1.288  25.069  20.073  1.00  0.00     0.111 A 
ATOM      6  C   UNL     1       1.627  24.700  18.736  1.00  0.00     0.134 A 
ATOM      7  C   UNL     1       1.924  25.697  17.798  1.00  0.00     0.093 A 
ATOM      8  C   UNL     1       1.829  27.050  18.131  1.00  0.00     0.123 A 
ATOM      9  C   UNL     1       1.442  27.421  19.417  1.00  0.00     0.094 A 
ATOM     10  C   UNL     1       1.175  26.450  20.385  1.00  0.00     0.146 A 
ATOM     11  O   UNL     1       0.819  26.846  21.601  1.00  0.00    -0.452 OA
ENDROOT
BRANCH   1  12
ATOM     12  C   UNL     1       0.151  26.579  23.901  1.00  0.00     0.025 A 
ATOM     13  C   UNL     1      -1.215  26.730  24.186  1.00  0.00     0.016 A 
ATOM     14  C   UNL     1      -1.629  27.247  25.416  1.00  0.00     0.051 A 
ATOM     15  C   UNL     1      -0.683  27.607  26.385  1.00  0.00     0.157 A 
ATOM     16  C   UNL     1       1.097  26.923  24.884  1.00  0.00     0.062 A 
ATOM     17  C   UNL     1       0.682  27.440  26.120  1.00  0.00     0.158 A 
BRANCH  15  18
ATOM     18  O   UNL     1      -1.091  28.125  27.612  1.00  0.00    -0.504 OA
ATOM     19  H   UNL     1      -2.068  28.305  27.814  1.00  0.00     0.293 HD
ENDBRANCH  15  18
BRANCH  17  20
ATOM     20  O   UNL     1       1.621  27.786  27.091  1.00  0.00    -0.504 OA
ATOM     21  H   UNL     1       1.953  27.112  27.771  1.00  0.00     0.293 HD
ENDBRANCH  17  20
ENDBRANCH   1  12
BRANCH   2  22
ATOM     22  O   UNL     1       0.546  23.740  23.472  1.00  0.00    -0.502 OA
ATOM     23  H   UNL     1       0.772  23.989  24.427  1.00  0.00     0.293 HD
ENDBRANCH   2  22
BRANCH   6  24
ATOM     24  O   UNL     1       1.658  23.380  18.275  1.00  0.00    -0.507 OA
ATOM     25  H   UNL     1       2.440  22.753  18.383  1.00  0.00     0.293 HD
ENDBRANCH   6  24
BRANCH   8  26
ATOM     26  O   UNL     1       2.111  28.035  17.188  1.00  0.00    -0.508 OA
ATOM     27  H   UNL     1       1.379  28.610  16.787  1.00  0.00     0.293 HD
ENDBRANCH   8  26
TORSDOF 6
ENDMDL
MODEL 7
REMARK VINA RESULT:    -2.786      1.521      3.306
REMARK INTER + INTRA:          -3.288
REMARK INTER:                  -2.966
REMARK INTRA:                  -0.322
REMARK UNBOUND:                 0.069
REMARK SMILES O=c1c(O)c(-c2ccc(O)c(O)c2)oc2cc(O)cc(O)c12
REMARK SMILES IDX 5 1 3 2 2 3 1 4 22 5 20 6 19 7 17 8 16 9 15 10 14 11 6 12
REMARK SMILES IDX 7 13 8 14 9 15 13 16 11 17 10 18 12 20 4 22 21 24 18 26
REMARK H PARENT 10 19 12 21 4 23 21 25 18 27
REMARK Flexibility Score: inf
ROOT
ATOM      1  C   UNL     1       0.944  21.334  19.065  1.00  0.00     0.180 A 
ATOM      2  C   UNL     1       0.632  21.616  20.407  1.00  0.00     0.208 A 
ATOM      3  C   UNL     1       0.670  22.948  20.849  1.00  0.00     0.238 A 
ATOM      4  O   UNL     1       0.336  23.201  22.036  1.00  0.00    -0.285 OA
ATOM      5  C   UNL     1       1.037  23.979  19.951  1.00  0.00     0.111 A 
ATOM      6  C   UNL     1       1.149  25.358  20.301  1.00  0.00     0.134 A 
ATOM      7  C   UNL     1       1.391  26.307  19.300  1.00  0.00     0.093 A 
ATOM      8  C   UNL     1       1.592  25.920  17.973  1.00  0.00     0.123 A 
ATOM      9  C   UNL     1       1.545  24.570  17.631  1.00  0.00     0.094 A 
ATOM     10  C   UNL     1       1.268  23.603  18.601  1.00  0.00     0.146 A 
ATOM     11  O   UNL     1       1.221  22.329  18.231  1.00  0.00    -0.452 OA
ENDROOT
BRANCH   1  12
ATOM     12  C   UNL     1       0.950  19.953  18.531  1.00  0.00     0.025 A 
ATOM     13  C   UNL     1       2.105  19.166  18.664  1.00  0.00     0.016 A 
ATOM     14  C   UNL     1       2.125  17.853  18.185  1.00  0.00     0.051 A 
ATOM     15  C   UNL     1       0.986  17.304  17.581  1.00  0.00     0.157 A 
ATOM     16  C   UNL     1      -0.198  19.391  17.943  1.00  0.00     0.062 A 
ATOM     17  C   UNL     1      -0.178  18.073  17.464  1.00  0.00     0.158 A 
BRANCH  15  18
ATOM     18  O   UNL     1       1.003  15.996  17.101  1.00  0.00    -0.504 OA
ATOM     19  H   UNL     1       0.299  15.659  16.455  1.00  0.00     0.293 HD
ENDBRANCH  15  18
BRANCH  17  20
ATOM     20  O   UNL     1      -1.314  17.519  16.875  1.00  0.00    -0.504 OA
ATOM     21  H   UNL     1      -1.247  16.884  16.088  1.00  0.00     0.293 HD
ENDBRANCH  17  20
ENDBRANCH   1  12
BRANCH   2  22
ATOM     22  O   UNL     1       0.251  20.586  21.271  1.00  0.00    -0.502 OA
ATOM     23  H   UNL     1      -0.394  20.731  22.039  1.00  0.00     0.293 HD
ENDBRANCH   2  22
BRANCH   6  24
ATOM     24  O   UNL     1       1.058  25.841  21.610  1.00  0.00    -0.507 OA
ATOM     25  H   UNL     1       1.803  25.804  22.288  1.00  0.00     0.293 HD
ENDBRANCH   6  24
BRANCH   8  26
ATOM     26  O   UNL     1       1.849  26.869  16.987  1.00  0.00    -0.508 OA
ATOM     27  H   UNL     1       2.674  26.815  16.401  1.00  0.00     0.293 HD
ENDBRANCH   8  26
TORSDOF 6
ENDMDL
MODEL 8
REMARK VINA RESULT:    -2.652      1.483      6.821
REMARK INTER + INTRA:          -3.126
REMARK INTER:                  -3.184
REMARK INTRA:                   0.058
REMARK UNBOUND:                 0.069
REMARK SMILES O=c1c(O)c(-c2ccc(O)c(O)c2)oc2cc(O)cc(O)c12
REMARK SMILES IDX 5 1 3 2 2 3 1 4 22 5 20 6 19 7 17 8 16 9 15 10 14 11 6 12
REMARK SMILES IDX 7 13 8 14 9 15 13 16 11 17 10 18 12 20 4 22 21 24 18 26
REMARK H PARENT 10 19 12 21 4 23 21 25 18 27
REMARK Flexibility Score: inf
ROOT
ATOM      1  C   UNL     1       0.455  22.144  21.002  1.00  0.00     0.180 A 
ATOM      2  C   UNL     1       0.400  22.459  19.633  1.00  0.00     0.208 A 
ATOM      3  C   UNL     1       0.522  21.425  18.691  1.00  0.00     0.238 A 
ATOM      4  O   UNL     1       0.417  21.705  17.469  1.00  0.00    -0.285 OA
ATOM      5  C   UNL     1       0.717  20.092  19.128  1.00  0.00     0.111 A 
ATOM      6  C   UNL     1       0.894  18.972  18.261  1.00  0.00     0.134 A 
ATOM      7  C   UNL     1       0.947  17.682  18.802  1.00  0.00     0.093 A 
ATOM      8  C   UNL     1       0.896  17.477  20.183  1.00  0.00     0.123 A 
ATOM      9  C   UNL     1       0.783  18.568  21.041  1.00  0.00     0.094 A 
ATOM     10  C   UNL     1       0.690  19.865  20.530  1.00  0.00     0.146 A 
ATOM     11  O   UNL     1       0.573  20.877  21.381  1.00  0.00    -0.452 OA
ENDROOT
BRANCH   1  12
ATOM     12  C   UNL     1       0.359  23.181  22.054  1.00  0.00     0.025 A 
ATOM     13  C   UNL     1      -0.409  22.931  23.202  1.00  0.00     0.016 A 
ATOM     14  C   UNL     1      -0.498  23.888  24.216  1.00  0.00     0.051 A 
ATOM     15  C   UNL     1       0.193  25.102  24.104  1.00  0.00     0.157 A 
ATOM     16  C   UNL     1       1.067  24.393  21.954  1.00  0.00     0.062 A 
ATOM     17  C   UNL     1       0.980  25.353  22.973  1.00  0.00     0.158 A 
BRANCH  15  18
ATOM     18  O   UNL     1       0.106  26.060  25.112  1.00  0.00    -0.504 OA
ATOM     19  H   UNL     1      -0.610  26.013  25.828  1.00  0.00     0.293 HD
ENDBRANCH  15  18
BRANCH  17  20
ATOM     20  O   UNL     1       1.677  26.556  22.871  1.00  0.00    -0.504 OA
ATOM     21  H   UNL     1       1.327  27.325  22.312  1.00  0.00     0.293 HD
ENDBRANCH  17  20
ENDBRANCH   1  12
BRANCH   2  22
ATOM     22  O   UNL     1       0.185  23.777  19.223  1.00  0.00    -0.502 OA
ATOM     23  H   UNL     1      -0.000  24.024  18.258  1.00  0.00     0.293 HD
ENDBRANCH   2  22
BRANCH   6  24
ATOM     24  O   UNL     1       1.050  19.075  16.875  1.00  0.00    -0.507 OA
ATOM     25  H   UNL     1       1.807  18.663  16.351  1.00  0.00     0.293 HD
ENDBRANCH   6  24
BRANCH   8  26
ATOM     26  O   UNL     1       0.966  16.191  20.714  1.00  0.00    -0.508 OA
ATOM     27  H   UNL     1       1.609  15.500  20.347  1.00  0.00     0.293 HD
ENDBRANCH   8  26
TORSDOF 6
ENDMDL
MODEL 9
REMARK VINA RESULT:    -2.573      1.705      2.264
REMARK INTER + INTRA:          -3.031
REMARK INTER:                  -3.260
REMARK INTRA:                   0.230
REMARK UNBOUND:                 0.069
REMARK SMILES O=c1c(O)c(-c2ccc(O)c(O)c2)oc2cc(O)cc(O)c12
REMARK SMILES IDX 5 1 3 2 2 3 1 4 22 5 20 6 19 7 17 8 16 9 15 10 14 11 6 12
REMARK SMILES IDX 7 13 8 14 9 15 13 16 11 17 10 18 12 20 4 22 21 24 18 26
REMARK H PARENT 10 19 12 21 4 23 21 25 18 27
REMARK Flexibility Score: inf
ROOT
ATOM      1  C   UNL     1       1.105  23.078  19.805  1.00  0.00     0.180 A 
ATOM      2  C   UNL     1       0.909  24.129  18.892  1.00  0.00     0.208 A 
ATOM      3  C   UNL     1       0.761  25.437  19.381  1.00  0.00     0.238 A 
ATOM      4  O   UNL     1       0.642  26.380  18.556  1.00  0.00    -0.285 OA
ATOM      5  C   UNL     1       0.791  25.676  20.776  1.00  0.00     0.111 A 
ATOM      6  C   UNL     1       0.611  26.954  21.384  1.00  0.00     0.134 A 
ATOM      7  C   UNL     1       0.791  27.094  22.766  1.00  0.00     0.093 A 
ATOM      8  C   UNL     1       1.081  25.989  23.569  1.00  0.00     0.123 A 
ATOM      9  C   UNL     1       1.200  24.726  22.993  1.00  0.00     0.094 A 
ATOM     10  C   UNL     1       1.062  24.561  21.613  1.00  0.00     0.146 A 
ATOM     11  O   UNL     1       1.194  23.343  21.103  1.00  0.00    -0.452 OA
ENDROOT
BRANCH   1  12
ATOM     12  C   UNL     1       1.245  21.670  19.368  1.00  0.00     0.025 A 
ATOM     13  C   UNL     1       1.962  21.378  18.197  1.00  0.00     0.016 A 
ATOM     14  C   UNL     1       2.124  20.055  17.778  1.00  0.00     0.051 A 
ATOM     15  C   UNL     1       1.584  19.005  18.531  1.00  0.00     0.157 A 
ATOM     16  C   UNL     1       0.721  20.611  20.132  1.00  0.00     0.062 A 
ATOM     17  C   UNL     1       0.885  19.283  19.712  1.00  0.00     0.158 A 
BRANCH  15  18
ATOM     18  O   UNL     1       1.741  17.684  18.115  1.00  0.00    -0.504 OA
ATOM     19  H   UNL     1       0.943  17.089  17.925  1.00  0.00     0.293 HD
ENDBRANCH  15  18
BRANCH  17  20
ATOM     20  O   UNL     1       0.361  18.235  20.467  1.00  0.00    -0.504 OA
ATOM     21  H   UNL     1      -0.555  18.298  20.897  1.00  0.00     0.293 HD
ENDBRANCH  17  20
ENDBRANCH   1  12
BRANCH   2  22
ATOM     22  O   UNL     1       0.905  23.875  17.518  1.00  0.00    -0.502 OA
ATOM     23  H   UNL     1       0.071  23.583  17.021  1.00  0.00     0.293 HD
ENDBRANCH   2  22
BRANCH   6  24
ATOM     24  O   UNL     1       0.229  28.104  20.685  1.00  0.00    -0.507 OA
ATOM     25  H   UNL     1       0.664  29.008  20.787  1.00  0.00     0.293 HD
ENDBRANCH   6  24
BRANCH   8  26
ATOM     26  O   UNL     1       1.243  26.134  24.945  1.00  0.00    -0.508 OA
ATOM     27  H   UNL     1       0.715  26.819  25.472  1.00  0.00     0.293 HD
ENDBRANCH   8  26
TORSDOF 6
ENDMDL
