MODEL 1
REMARK VINA RESULT:    -8.466      0.000      0.000
REMARK INTER + INTRA:         -10.123
REMARK INTER:                 -10.198
REMARK INTRA:                   0.075
REMARK UNBOUND:                 0.075
REMARK SMILES O=c1c(O)c(-c2ccc(O)c(O)c2)oc2cc(O)cc(O)c12
REMARK SMILES IDX 5 1 3 2 2 3 1 4 22 5 20 6 19 7 17 8 16 9 15 10 14 11 6 12
REMARK SMILES IDX 7 13 8 14 9 15 13 16 11 17 10 18 12 20 4 22 21 24 18 26
REMARK H PARENT 10 19 12 21 4 23 21 25 18 27
REMARK Flexibility Score: inf
ROOT
ATOM      1  C   UNL     1      -1.246 -25.937  30.216  1.00  0.00     0.180 A 
ATOM      2  C   UNL     1      -0.856 -26.968  31.091  1.00  0.00     0.208 A 
ATOM      3  C   UNL     1       0.273 -27.739  30.770  1.00  0.00     0.238 A 
ATOM      4  O   UNL     1       0.638 -28.660  31.551  1.00  0.00    -0.285 OA
ATOM      5  C   UNL     1       0.977 -27.480  29.576  1.00  0.00     0.111 A 
ATOM      6  C   UNL     1       2.122 -28.212  29.177  1.00  0.00     0.134 A 
ATOM      7  C   UNL     1       2.761 -27.900  27.968  1.00  0.00     0.093 A 
ATOM      8  C   UNL     1       2.282 -26.872  27.154  1.00  0.00     0.123 A 
ATOM      9  C   UNL     1       1.152 -26.145  27.543  1.00  0.00     0.094 A 
ATOM     10  C   UNL     1       0.500 -26.440  28.743  1.00  0.00     0.146 A 
ATOM     11  O   UNL     1      -0.567 -25.730  29.091  1.00  0.00    -0.452 OA
ENDROOT
BRANCH   1  12
ATOM     12  C   UNL     1      -2.414 -25.068  30.494  1.00  0.00     0.025 A 
ATOM     13  C   UNL     1      -2.580 -24.527  31.778  1.00  0.00     0.016 A 
ATOM     14  C   UNL     1      -3.685 -23.722  32.069  1.00  0.00     0.051 A 
ATOM     15  C   UNL     1      -4.646 -23.459  31.087  1.00  0.00     0.157 A 
ATOM     16  C   UNL     1      -3.393 -24.821  29.514  1.00  0.00     0.062 A 
ATOM     17  C   UNL     1      -4.503 -24.014  29.805  1.00  0.00     0.158 A 
BRANCH  15  18
ATOM     18  O   UNL     1      -5.736 -22.651  31.406  1.00  0.00    -0.504 OA
ATOM     19  H   UNL     1      -5.879 -21.745  30.975  1.00  0.00     0.293 HD
ENDBRANCH  15  18
BRANCH  17  20
ATOM     20  O   UNL     1      -5.465 -23.769  28.826  1.00  0.00    -0.504 OA
ATOM     21  H   UNL     1      -5.697 -24.462  28.124  1.00  0.00     0.293 HD
ENDBRANCH  17  20
ENDBRANCH   1  12
BRANCH   2  22
ATOM     22  O   UNL     1      -1.600 -27.237  32.242  1.00  0.00    -0.502 OA
ATOM     23  H   UNL     1      -1.537 -26.665  33.075  1.00  0.00     0.293 HD
ENDBRANCH   2  22
BRANCH   6  24
ATOM     24  O   UNL     1       2.625 -29.245  29.970  1.00  0.00    -0.507 OA
ATOM     25  H   UNL     1       2.361 -30.212  29.814  1.00  0.00     0.293 HD
ENDBRANCH   6  24
BRANCH   8  26
ATOM     26  O   UNL     1       2.935 -26.582  25.958  1.00  0.00    -0.508 OA
ATOM     27  H   UNL     1       3.002 -27.265  25.212  1.00  0.00     0.293 HD
ENDBRANCH   8  26
TORSDOF 6
ENDMDL
MODEL 2
REMARK VINA RESULT:    -8.116      1.607      7.287
REMARK INTER + INTRA:          -9.701
REMARK INTER:                  -9.422
REMARK INTRA:                  -0.279
REMARK UNBOUND:                 0.075
REMARK SMILES O=c1c(O)c(-c2ccc(O)c(O)c2)oc2cc(O)cc(O)c12
REMARK SMILES IDX 5 1 3 2 2 3 1 4 22 5 20 6 19 7 17 8 16 9 15 10 14 11 6 12
REMARK SMILES IDX 7 13 8 14 9 15 13 16 11 17 10 18 12 20 4 22 21 24 18 26
REMARK H PARENT 10 19 12 21 4 23 21 25 18 27
REMARK Flexibility Score: inf
ROOT
ATOM      1  C   UNL     1      -1.354 -25.741  30.226  1.00  0.00     0.180 A 
ATOM      2  C   UNL     1      -2.162 -25.398  29.126  1.00  0.00     0.208 A 
ATOM      3  C   UNL     1      -3.300 -24.603  29.342  1.00  0.00     0.238 A 
ATOM      4  O   UNL     1      -4.027 -24.280  28.363  1.00  0.00    -0.285 OA
ATOM      5  C   UNL     1      -3.619 -24.184  30.650  1.00  0.00     0.111 A 
ATOM      6  C   UNL     1      -4.749 -23.386  30.953  1.00  0.00     0.134 A 
ATOM      7  C   UNL     1      -5.004 -23.019  32.283  1.00  0.00     0.093 A 
ATOM      8  C   UNL     1      -4.154 -23.431  33.311  1.00  0.00     0.123 A 
ATOM      9  C   UNL     1      -3.037 -24.220  33.017  1.00  0.00     0.094 A 
ATOM     10  C   UNL     1      -2.764 -24.596  31.700  1.00  0.00     0.146 A 
ATOM     11  O   UNL     1      -1.694 -25.340  31.448  1.00  0.00    -0.452 OA
ENDROOT
BRANCH   1  12
ATOM     12  C   UNL     1      -0.128 -26.559  30.076  1.00  0.00     0.025 A 
ATOM     13  C   UNL     1       1.038 -25.968  29.567  1.00  0.00     0.016 A 
ATOM     14  C   UNL     1       2.200 -26.726  29.398  1.00  0.00     0.051 A 
ATOM     15  C   UNL     1       2.210 -28.087  29.721  1.00  0.00     0.157 A 
ATOM     16  C   UNL     1      -0.123 -27.933  30.380  1.00  0.00     0.062 A 
ATOM     17  C   UNL     1       1.042 -28.695  30.210  1.00  0.00     0.158 A 
BRANCH  15  18
ATOM     18  O   UNL     1       3.384 -28.816  29.544  1.00  0.00    -0.504 OA
ATOM     19  H   UNL     1       4.299 -28.381  29.583  1.00  0.00     0.293 HD
ENDBRANCH  15  18
BRANCH  17  20
ATOM     20  O   UNL     1       1.040 -30.055  30.519  1.00  0.00    -0.504 OA
ATOM     21  H   UNL     1       0.590 -30.735  29.918  1.00  0.00     0.293 HD
ENDBRANCH  17  20
ENDBRANCH   1  12
BRANCH   2  22
ATOM     22  O   UNL     1      -1.852 -25.866  27.847  1.00  0.00    -0.502 OA
ATOM     23  H   UNL     1      -0.906 -25.872  27.486  1.00  0.00     0.293 HD
ENDBRANCH   2  22
BRANCH   6  24
ATOM     24  O   UNL     1      -5.616 -22.958  29.947  1.00  0.00    -0.507 OA
ATOM     25  H   UNL     1      -6.004 -22.021  29.941  1.00  0.00     0.293 HD
ENDBRANCH   6  24
BRANCH   8  26
ATOM     26  O   UNL     1      -4.431 -23.053  34.624  1.00  0.00    -0.508 OA
ATOM     27  H   UNL     1      -4.227 -23.665  35.405  1.00  0.00     0.293 HD
ENDBRANCH   8  26
TORSDOF 6
ENDMDL
MODEL 3
REMARK VINA RESULT:    -8.108      1.044      1.703
REMARK INTER + INTRA:          -9.692
REMARK INTER:                  -9.442
REMARK INTRA:                  -0.250
REMARK UNBOUND:                 0.075
REMARK SMILES O=c1c(O)c(-c2ccc(O)c(O)c2)oc2cc(O)cc(O)c12
REMARK SMILES IDX 5 1 3 2 2 3 1 4 22 5 20 6 19 7 17 8 16 9 15 10 14 11 6 12
REMARK SMILES IDX 7 13 8 14 9 15 13 16 11 17 10 18 12 20 4 22 21 24 18 26
REMARK H PARENT 10 19 12 21 4 23 21 25 18 27
REMARK Flexibility Score: inf
ROOT
ATOM      1  C   UNL     1      -1.310 -25.748  30.609  1.00  0.00     0.180 A 
ATOM      2  C   UNL     1      -0.838 -26.904  31.259  1.00  0.00     0.208 A 
ATOM      3  C   UNL     1       0.293 -27.557  30.745  1.00  0.00     0.238 A 
ATOM      4  O   UNL     1       0.731 -28.588  31.324  1.00  0.00    -0.285 OA
ATOM      5  C   UNL     1       0.918 -27.058  29.583  1.00  0.00     0.111 A 
ATOM      6  C   UNL     1       2.059 -27.659  28.999  1.00  0.00     0.134 A 
ATOM      7  C   UNL     1       2.618 -27.107  27.836  1.00  0.00     0.093 A 
ATOM      8  C   UNL     1       2.060 -25.970  27.249  1.00  0.00     0.123 A 
ATOM      9  C   UNL     1       0.933 -25.371  27.822  1.00  0.00     0.094 A 
ATOM     10  C   UNL     1       0.362 -25.905  28.981  1.00  0.00     0.146 A 
ATOM     11  O   UNL     1      -0.704 -25.314  29.507  1.00  0.00    -0.452 OA
ENDROOT
BRANCH   1  12
ATOM     12  C   UNL     1      -2.485 -24.992  31.102  1.00  0.00     0.025 A 
ATOM     13  C   UNL     1      -3.666 -24.984  30.345  1.00  0.00     0.016 A 
ATOM     14  C   UNL     1      -4.781 -24.261  30.780  1.00  0.00     0.051 A 
ATOM     15  C   UNL     1      -4.726 -23.524  31.968  1.00  0.00     0.157 A 
ATOM     16  C   UNL     1      -2.424 -24.233  32.285  1.00  0.00     0.062 A 
ATOM     17  C   UNL     1      -3.542 -23.506  32.722  1.00  0.00     0.158 A 
BRANCH  15  18
ATOM     18  O   UNL     1      -5.854 -22.815  32.377  1.00  0.00    -0.504 OA
ATOM     19  H   UNL     1      -6.654 -22.679  31.770  1.00  0.00     0.293 HD
ENDBRANCH  15  18
BRANCH  17  20
ATOM     20  O   UNL     1      -3.475 -22.761  33.899  1.00  0.00    -0.504 OA
ATOM     21  H   UNL     1      -3.046 -23.133  34.739  1.00  0.00     0.293 HD
ENDBRANCH  17  20
ENDBRANCH   1  12
BRANCH   2  22
ATOM     22  O   UNL     1      -1.505 -27.407  32.379  1.00  0.00    -0.502 OA
ATOM     23  H   UNL     1      -1.802 -28.372  32.446  1.00  0.00     0.293 HD
ENDBRANCH   2  22
BRANCH   6  24
ATOM     24  O   UNL     1       2.639 -28.797  29.562  1.00  0.00    -0.507 OA
ATOM     25  H   UNL     1       3.489 -28.745  30.112  1.00  0.00     0.293 HD
ENDBRANCH   6  24
BRANCH   8  26
ATOM     26  O   UNL     1       2.634 -25.442  26.094  1.00  0.00    -0.508 OA
ATOM     27  H   UNL     1       2.076 -25.232  25.274  1.00  0.00     0.293 HD
ENDBRANCH   8  26
TORSDOF 6
ENDMDL
MODEL 4
REMARK VINA RESULT:    -8.030      1.569      7.412
REMARK INTER + INTRA:          -9.598
REMARK INTER:                  -9.336
REMARK INTRA:                  -0.262
REMARK UNBOUND:                 0.075
REMARK SMILES O=c1c(O)c(-c2ccc(O)c(O)c2)oc2cc(O)cc(O)c12
REMARK SMILES IDX 5 1 3 2 2 3 1 4 22 5 20 6 19 7 17 8 16 9 15 10 14 11 6 12
REMARK SMILES IDX 7 13 8 14 9 15 13 16 11 17 10 18 12 20 4 22 21 24 18 26
REMARK H PARENT 10 19 12 21 4 23 21 25 18 27
REMARK Flexibility Score: inf
ROOT
ATOM      1  C   UNL     1      -1.960 -25.399  30.659  1.00  0.00     0.180 A 
ATOM      2  C   UNL     1      -2.832 -25.121  29.590  1.00  0.00     0.208 A 
ATOM      3  C   UNL     1      -3.928 -24.271  29.812  1.00  0.00     0.238 A 
ATOM      4  O   UNL     1      -4.710 -24.005  28.859  1.00  0.00    -0.285 OA
ATOM      5  C   UNL     1      -4.143 -23.733  31.098  1.00  0.00     0.111 A 
ATOM      6  C   UNL     1      -5.224 -22.872  31.406  1.00  0.00     0.134 A 
ATOM      7  C   UNL     1      -5.376 -22.386  32.713  1.00  0.00     0.093 A 
ATOM      8  C   UNL     1      -4.471 -22.742  33.715  1.00  0.00     0.123 A 
ATOM      9  C   UNL     1      -3.400 -23.592  33.416  1.00  0.00     0.094 A 
ATOM     10  C   UNL     1      -3.230 -24.086  32.120  1.00  0.00     0.146 A 
ATOM     11  O   UNL     1      -2.203 -24.886  31.863  1.00  0.00    -0.452 OA
ENDROOT
BRANCH   1  12
ATOM     12  C   UNL     1      -0.773 -26.271  30.500  1.00  0.00     0.025 A 
ATOM     13  C   UNL     1      -0.755 -27.532  31.114  1.00  0.00     0.016 A 
ATOM     14  C   UNL     1       0.363 -28.362  30.994  1.00  0.00     0.051 A 
ATOM     15  C   UNL     1       1.484 -27.938  30.273  1.00  0.00     0.157 A 
ATOM     16  C   UNL     1       0.364 -25.837  29.794  1.00  0.00     0.062 A 
ATOM     17  C   UNL     1       1.488 -26.668  29.674  1.00  0.00     0.158 A 
BRANCH  15  18
ATOM     18  O   UNL     1       2.584 -28.789  30.170  1.00  0.00    -0.504 OA
ATOM     19  H   UNL     1       3.012 -29.008  29.278  1.00  0.00     0.293 HD
ENDBRANCH  15  18
BRANCH  17  20
ATOM     20  O   UNL     1       2.608 -26.233  28.966  1.00  0.00    -0.504 OA
ATOM     21  H   UNL     1       3.164 -25.447  29.284  1.00  0.00     0.293 HD
ENDBRANCH  17  20
ENDBRANCH   1  12
BRANCH   2  22
ATOM     22  O   UNL     1      -2.625 -25.705  28.338  1.00  0.00    -0.502 OA
ATOM     23  H   UNL     1      -2.077 -26.548  28.217  1.00  0.00     0.293 HD
ENDBRANCH   2  22
BRANCH   6  24
ATOM     24  O   UNL     1      -6.146 -22.499  30.427  1.00  0.00    -0.507 OA
ATOM     25  H   UNL     1      -6.631 -23.187  29.862  1.00  0.00     0.293 HD
ENDBRANCH   6  24
BRANCH   8  26
ATOM     26  O   UNL     1      -4.644 -22.246  35.005  1.00  0.00    -0.508 OA
ATOM     27  H   UNL     1      -3.866 -22.160  35.648  1.00  0.00     0.293 HD
ENDBRANCH   8  26
TORSDOF 6
ENDMDL
MODEL 5
REMARK VINA RESULT:    -7.772      2.683      7.962
REMARK INTER + INTRA:          -9.287
REMARK INTER:                  -9.495
REMARK INTRA:                   0.208
REMARK UNBOUND:                 0.075
REMARK SMILES O=c1c(O)c(-c2ccc(O)c(O)c2)oc2cc(O)cc(O)c12
REMARK SMILES IDX 5 1 3 2 2 3 1 4 22 5 20 6 19 7 17 8 16 9 15 10 14 11 6 12
REMARK SMILES IDX 7 13 8 14 9 15 13 16 11 17 10 18 12 20 4 22 21 24 18 26
REMARK H PARENT 10 19 12 21 4 23 21 25 18 27
REMARK Flexibility Score: inf
ROOT
ATOM      1  C   UNL     1      -3.431 -24.743  31.244  1.00  0.00     0.180 A 
ATOM      2  C   UNL     1      -3.939 -24.241  30.031  1.00  0.00     0.208 A 
ATOM      3  C   UNL     1      -4.930 -23.246  30.071  1.00  0.00     0.238 A 
ATOM      4  O   UNL     1      -5.385 -22.781  28.991  1.00  0.00    -0.285 OA
ATOM      5  C   UNL     1      -5.408 -22.788  31.316  1.00  0.00     0.111 A 
ATOM      6  C   UNL     1      -6.407 -21.792  31.443  1.00  0.00     0.134 A 
ATOM      7  C   UNL     1      -6.837 -21.397  32.719  1.00  0.00     0.093 A 
ATOM      8  C   UNL     1      -6.289 -21.975  33.866  1.00  0.00     0.123 A 
ATOM      9  C   UNL     1      -5.301 -22.959  33.746  1.00  0.00     0.094 A 
ATOM     10  C   UNL     1      -4.858 -23.366  32.485  1.00  0.00     0.146 A 
ATOM     11  O   UNL     1      -3.916 -24.298  32.400  1.00  0.00    -0.452 OA
ENDROOT
BRANCH   1  12
ATOM     12  C   UNL     1      -2.372 -25.778  31.286  1.00  0.00     0.025 A 
ATOM     13  C   UNL     1      -1.374 -25.704  32.268  1.00  0.00     0.016 A 
ATOM     14  C   UNL     1      -0.353 -26.658  32.313  1.00  0.00     0.051 A 
ATOM     15  C   UNL     1      -0.306 -27.689  31.369  1.00  0.00     0.157 A 
ATOM     16  C   UNL     1      -2.312 -26.803  30.323  1.00  0.00     0.062 A 
ATOM     17  C   UNL     1      -1.287 -27.760  30.366  1.00  0.00     0.158 A 
BRANCH  15  18
ATOM     18  O   UNL     1       0.722 -28.627  31.441  1.00  0.00    -0.504 OA
ATOM     19  H   UNL     1       0.927 -29.137  32.292  1.00  0.00     0.293 HD
ENDBRANCH  15  18
BRANCH  17  20
ATOM     20  O   UNL     1      -1.239 -28.776  29.413  1.00  0.00    -0.504 OA
ATOM     21  H   UNL     1      -0.986 -28.589  28.449  1.00  0.00     0.293 HD
ENDBRANCH  17  20
ENDBRANCH   1  12
BRANCH   2  22
ATOM     22  O   UNL     1      -3.484 -24.747  28.811  1.00  0.00    -0.502 OA
ATOM     23  H   UNL     1      -2.632 -25.287  28.732  1.00  0.00     0.293 HD
ENDBRANCH   2  22
BRANCH   6  24
ATOM     24  O   UNL     1      -6.974 -21.197  30.315  1.00  0.00    -0.507 OA
ATOM     25  H   UNL     1      -6.912 -20.198  30.153  1.00  0.00     0.293 HD
ENDBRANCH   6  24
BRANCH   8  26
ATOM     26  O   UNL     1      -6.734 -21.565  35.121  1.00  0.00    -0.508 OA
ATOM     27  H   UNL     1      -6.449 -20.679  35.520  1.00  0.00     0.293 HD
ENDBRANCH   8  26
TORSDOF 6
ENDMDL
MODEL 6
REMARK VINA RESULT:    -7.707      1.642      3.394
REMARK INTER + INTRA:          -9.209
REMARK INTER:                  -9.249
REMARK INTRA:                   0.040
REMARK UNBOUND:                 0.075
REMARK SMILES O=c1c(O)c(-c2ccc(O)c(O)c2)oc2cc(O)cc(O)c12
REMARK SMILES IDX 5 1 3 2 2 3 1 4 22 5 20 6 19 7 17 8 16 9 15 10 14 11 6 12
REMARK SMILES IDX 7 13 8 14 9 15 13 16 11 17 10 18 12 20 4 22 21 24 18 26
REMARK H PARENT 10 19 12 21 4 23 21 25 18 27
REMARK Flexibility Score: inf
ROOT
ATOM      1  C   UNL     1      -2.157 -25.221  30.252  1.00  0.00     0.180 A 
ATOM      2  C   UNL     1      -2.091 -24.881  28.888  1.00  0.00     0.208 A 
ATOM      3  C   UNL     1      -1.120 -25.498  28.081  1.00  0.00     0.238 A 
ATOM      4  O   UNL     1      -1.058 -25.209  26.855  1.00  0.00    -0.285 OA
ATOM      5  C   UNL     1      -0.225 -26.424  28.654  1.00  0.00     0.111 A 
ATOM      6  C   UNL     1       0.783 -27.087  27.912  1.00  0.00     0.134 A 
ATOM      7  C   UNL     1       1.643 -27.988  28.557  1.00  0.00     0.093 A 
ATOM      8  C   UNL     1       1.514 -28.241  29.925  1.00  0.00     0.123 A 
ATOM      9  C   UNL     1       0.520 -27.590  30.662  1.00  0.00     0.094 A 
ATOM     10  C   UNL     1      -0.347 -26.689  30.039  1.00  0.00     0.146 A 
ATOM     11  O   UNL     1      -1.286 -26.089  30.761  1.00  0.00    -0.452 OA
ENDROOT
BRANCH   1  12
ATOM     12  C   UNL     1      -3.163 -24.629  31.163  1.00  0.00     0.025 A 
ATOM     13  C   UNL     1      -4.510 -24.593  30.773  1.00  0.00     0.016 A 
ATOM     14  C   UNL     1      -5.475 -24.020  31.607  1.00  0.00     0.051 A 
ATOM     15  C   UNL     1      -5.105 -23.462  32.835  1.00  0.00     0.157 A 
ATOM     16  C   UNL     1      -2.790 -24.047  32.389  1.00  0.00     0.062 A 
ATOM     17  C   UNL     1      -3.756 -23.471  33.227  1.00  0.00     0.158 A 
BRANCH  15  18
ATOM     18  O   UNL     1      -6.089 -22.899  33.647  1.00  0.00    -0.504 OA
ATOM     19  H   UNL     1      -6.960 -22.547  33.270  1.00  0.00     0.293 HD
ENDBRANCH  15  18
BRANCH  17  20
ATOM     20  O   UNL     1      -3.378 -22.902  34.443  1.00  0.00    -0.504 OA
ATOM     21  H   UNL     1      -3.873 -23.110  35.302  1.00  0.00     0.293 HD
ENDBRANCH  17  20
ENDBRANCH   1  12
BRANCH   2  22
ATOM     22  O   UNL     1      -2.957 -23.923  28.356  1.00  0.00    -0.502 OA
ATOM     23  H   UNL     1      -2.789 -23.476  27.463  1.00  0.00     0.293 HD
ENDBRANCH   2  22
BRANCH   6  24
ATOM     24  O   UNL     1       0.938 -26.855  26.544  1.00  0.00    -0.507 OA
ATOM     25  H   UNL     1       1.846 -26.900  26.096  1.00  0.00     0.293 HD
ENDBRANCH   6  24
BRANCH   8  26
ATOM     26  O   UNL     1       2.381 -29.141  30.542  1.00  0.00    -0.508 OA
ATOM     27  H   UNL     1       2.170 -30.130  30.590  1.00  0.00     0.293 HD
ENDBRANCH   8  26
TORSDOF 6
ENDMDL
MODEL 7
REMARK VINA RESULT:    -7.632      1.944      4.151
REMARK INTER + INTRA:          -9.118
REMARK INTER:                  -8.991
REMARK INTRA:                  -0.128
REMARK UNBOUND:                 0.075
REMARK SMILES O=c1c(O)c(-c2ccc(O)c(O)c2)oc2cc(O)cc(O)c12
REMARK SMILES IDX 5 1 3 2 2 3 1 4 22 5 20 6 19 7 17 8 16 9 15 10 14 11 6 12
REMARK SMILES IDX 7 13 8 14 9 15 13 16 11 17 10 18 12 20 4 22 21 24 18 26
REMARK H PARENT 10 19 12 21 4 23 21 25 18 27
REMARK Flexibility Score: inf
ROOT
ATOM      1  C   UNL     1      -3.779 -24.560  31.016  1.00  0.00     0.180 A 
ATOM      2  C   UNL     1      -3.686 -24.302  29.636  1.00  0.00     0.208 A 
ATOM      3  C   UNL     1      -2.715 -24.982  28.882  1.00  0.00     0.238 A 
ATOM      4  O   UNL     1      -2.629 -24.767  27.643  1.00  0.00    -0.285 OA
ATOM      5  C   UNL     1      -1.845 -25.887  29.524  1.00  0.00     0.111 A 
ATOM      6  C   UNL     1      -0.837 -26.609  28.838  1.00  0.00     0.134 A 
ATOM      7  C   UNL     1      -0.003 -27.485  29.550  1.00  0.00     0.093 A 
ATOM      8  C   UNL     1      -0.157 -27.654  30.927  1.00  0.00     0.123 A 
ATOM      9  C   UNL     1      -1.151 -26.944  31.609  1.00  0.00     0.094 A 
ATOM     10  C   UNL     1      -1.993 -26.067  30.919  1.00  0.00     0.146 A 
ATOM     11  O   UNL     1      -2.931 -25.409  31.590  1.00  0.00    -0.452 OA
ENDROOT
BRANCH   1  12
ATOM     12  C   UNL     1      -4.789 -23.897  31.874  1.00  0.00     0.025 A 
ATOM     13  C   UNL     1      -4.369 -23.171  32.999  1.00  0.00     0.016 A 
ATOM     14  C   UNL     1      -5.306 -22.555  33.834  1.00  0.00     0.051 A 
ATOM     15  C   UNL     1      -6.674 -22.669  33.567  1.00  0.00     0.157 A 
ATOM     16  C   UNL     1      -6.166 -24.029  31.619  1.00  0.00     0.062 A 
ATOM     17  C   UNL     1      -7.107 -23.412  32.457  1.00  0.00     0.158 A 
BRANCH  15  18
ATOM     18  O   UNL     1      -7.584 -22.042  34.417  1.00  0.00    -0.504 OA
ATOM     19  H   UNL     1      -7.357 -21.821  35.379  1.00  0.00     0.293 HD
ENDBRANCH  15  18
BRANCH  17  20
ATOM     20  O   UNL     1      -8.471 -23.542  32.193  1.00  0.00    -0.504 OA
ATOM     21  H   UNL     1      -8.824 -23.609  31.245  1.00  0.00     0.293 HD
ENDBRANCH  17  20
ENDBRANCH   1  12
BRANCH   2  22
ATOM     22  O   UNL     1      -4.528 -23.363  29.034  1.00  0.00    -0.502 OA
ATOM     23  H   UNL     1      -5.296 -22.927  29.528  1.00  0.00     0.293 HD
ENDBRANCH   2  22
BRANCH   6  24
ATOM     24  O   UNL     1      -0.658 -26.462  27.462  1.00  0.00    -0.507 OA
ATOM     25  H   UNL     1       0.145 -25.977  27.079  1.00  0.00     0.293 HD
ENDBRANCH   6  24
BRANCH   8  26
ATOM     26  O   UNL     1       0.684 -28.530  31.610  1.00  0.00    -0.508 OA
ATOM     27  H   UNL     1       0.364 -29.440  31.918  1.00  0.00     0.293 HD
ENDBRANCH   8  26
TORSDOF 6
ENDMDL
MODEL 8
REMARK VINA RESULT:    -7.558      1.961      4.361
REMARK INTER + INTRA:          -9.029
REMARK INTER:                  -8.904
REMARK INTRA:                  -0.125
REMARK UNBOUND:                 0.075
REMARK SMILES O=c1c(O)c(-c2ccc(O)c(O)c2)oc2cc(O)cc(O)c12
REMARK SMILES IDX 5 1 3 2 2 3 1 4 22 5 20 6 19 7 17 8 16 9 15 10 14 11 6 12
REMARK SMILES IDX 7 13 8 14 9 15 13 16 11 17 10 18 12 20 4 22 21 24 18 26
REMARK H PARENT 10 19 12 21 4 23 21 25 18 27
REMARK Flexibility Score: inf
ROOT
ATOM      1  C   UNL     1      -3.734 -24.538  31.081  1.00  0.00     0.180 A 
ATOM      2  C   UNL     1      -3.698 -24.274  29.699  1.00  0.00     0.208 A 
ATOM      3  C   UNL     1      -2.757 -24.948  28.903  1.00  0.00     0.238 A 
ATOM      4  O   UNL     1      -2.722 -24.727  27.662  1.00  0.00    -0.285 OA
ATOM      5  C   UNL     1      -1.860 -25.855  29.504  1.00  0.00     0.111 A 
ATOM      6  C   UNL     1      -0.880 -26.572  28.775  1.00  0.00     0.134 A 
ATOM      7  C   UNL     1      -0.016 -27.449  29.448  1.00  0.00     0.093 A 
ATOM      8  C   UNL     1      -0.114 -27.625  30.829  1.00  0.00     0.123 A 
ATOM      9  C   UNL     1      -1.081 -26.920  31.554  1.00  0.00     0.094 A 
ATOM     10  C   UNL     1      -1.951 -26.042  30.904  1.00  0.00     0.146 A 
ATOM     11  O   UNL     1      -2.863 -25.389  31.615  1.00  0.00    -0.452 OA
ENDROOT
BRANCH   1  12
ATOM     12  C   UNL     1      -4.710 -23.882  31.982  1.00  0.00     0.025 A 
ATOM     13  C   UNL     1      -6.083 -24.069  31.766  1.00  0.00     0.016 A 
ATOM     14  C   UNL     1      -7.022 -23.443  32.591  1.00  0.00     0.051 A 
ATOM     15  C   UNL     1      -6.602 -22.610  33.634  1.00  0.00     0.157 A 
ATOM     16  C   UNL     1      -4.290 -23.027  33.017  1.00  0.00     0.062 A 
ATOM     17  C   UNL     1      -5.230 -22.397  33.846  1.00  0.00     0.158 A 
BRANCH  15  18
ATOM     18  O   UNL     1      -7.561 -22.001  34.441  1.00  0.00    -0.504 OA
ATOM     19  H   UNL     1      -7.646 -20.994  34.510  1.00  0.00     0.293 HD
ENDBRANCH  15  18
BRANCH  17  20
ATOM     20  O   UNL     1      -4.805 -21.556  34.874  1.00  0.00    -0.504 OA
ATOM     21  H   UNL     1      -4.531 -21.920  35.779  1.00  0.00     0.293 HD
ENDBRANCH  17  20
ENDBRANCH   1  12
BRANCH   2  22
ATOM     22  O   UNL     1      -4.565 -23.334  29.136  1.00  0.00    -0.502 OA
ATOM     23  H   UNL     1      -4.611 -23.167  28.139  1.00  0.00     0.293 HD
ENDBRANCH   2  22
BRANCH   6  24
ATOM     24  O   UNL     1      -0.757 -26.417  27.393  1.00  0.00    -0.507 OA
ATOM     25  H   UNL     1      -1.538 -26.118  26.820  1.00  0.00     0.293 HD
ENDBRANCH   6  24
BRANCH   8  26
ATOM     26  O   UNL     1       0.756 -28.503  31.473  1.00  0.00    -0.508 OA
ATOM     27  H   UNL     1       0.867 -29.461  31.163  1.00  0.00     0.293 HD
ENDBRANCH   8  26
TORSDOF 6
ENDMDL
MODEL 9
REMARK VINA RESULT:    -7.111      3.320      8.930
REMARK INTER + INTRA:          -8.490
REMARK INTER:                  -8.519
REMARK INTRA:                   0.029
REMARK UNBOUND:                 0.075
REMARK SMILES O=c1c(O)c(-c2ccc(O)c(O)c2)oc2cc(O)cc(O)c12
REMARK SMILES IDX 5 1 3 2 2 3 1 4 22 5 20 6 19 7 17 8 16 9 15 10 14 11 6 12
REMARK SMILES IDX 7 13 8 14 9 15 13 16 11 17 10 18 12 20 4 22 21 24 18 26
REMARK H PARENT 10 19 12 21 4 23 21 25 18 27
REMARK Flexibility Score: inf
ROOT
ATOM      1  C   UNL     1      -5.080 -23.546  32.151  1.00  0.00     0.180 A 
ATOM      2  C   UNL     1      -4.655 -22.736  33.221  1.00  0.00     0.208 A 
ATOM      3  C   UNL     1      -5.622 -22.164  34.064  1.00  0.00     0.238 A 
ATOM      4  O   UNL     1      -5.253 -21.445  35.032  1.00  0.00    -0.285 OA
ATOM      5  C   UNL     1      -6.990 -22.395  33.812  1.00  0.00     0.111 A 
ATOM      6  C   UNL     1      -8.026 -21.853  34.612  1.00  0.00     0.134 A 
ATOM      7  C   UNL     1      -9.365 -22.121  34.290  1.00  0.00     0.093 A 
ATOM      8  C   UNL     1      -9.687 -22.918  33.190  1.00  0.00     0.123 A 
ATOM      9  C   UNL     1      -8.668 -23.456  32.397  1.00  0.00     0.094 A 
ATOM     10  C   UNL     1      -7.328 -23.202  32.701  1.00  0.00     0.146 A 
ATOM     11  O   UNL     1      -6.380 -23.730  31.935  1.00  0.00    -0.452 OA
ENDROOT
BRANCH   1  12
ATOM     12  C   UNL     1      -4.122 -24.200  31.230  1.00  0.00     0.025 A 
ATOM     13  C   UNL     1      -3.040 -24.920  31.757  1.00  0.00     0.016 A 
ATOM     14  C   UNL     1      -2.111 -25.527  30.907  1.00  0.00     0.051 A 
ATOM     15  C   UNL     1      -2.242 -25.410  29.519  1.00  0.00     0.157 A 
ATOM     16  C   UNL     1      -4.240 -24.065  29.834  1.00  0.00     0.062 A 
ATOM     17  C   UNL     1      -3.308 -24.673  28.979  1.00  0.00     0.158 A 
BRANCH  15  18
ATOM     18  O   UNL     1      -1.302 -26.029  28.696  1.00  0.00    -0.504 OA
ATOM     19  H   UNL     1      -1.102 -25.693  27.761  1.00  0.00     0.293 HD
ENDBRANCH  15  18
BRANCH  17  20
ATOM     20  O   UNL     1      -3.437 -24.540  27.597  1.00  0.00    -0.504 OA
ATOM     21  H   UNL     1      -2.918 -25.131  26.957  1.00  0.00     0.293 HD
ENDBRANCH  17  20
ENDBRANCH   1  12
BRANCH   2  22
ATOM     22  O   UNL     1      -3.296 -22.483  33.419  1.00  0.00    -0.502 OA
ATOM     23  H   UNL     1      -2.961 -21.838  34.124  1.00  0.00     0.293 HD
ENDBRANCH   2  22
BRANCH   6  24
ATOM     24  O   UNL     1      -7.736 -21.053  35.718  1.00  0.00    -0.507 OA
ATOM     25  H   UNL     1      -7.045 -20.312  35.672  1.00  0.00     0.293 HD
ENDBRANCH   6  24
BRANCH   8  26
ATOM     26  O   UNL     1     -11.025 -23.168  32.891  1.00  0.00    -0.508 OA
ATOM     27  H   UNL     1     -11.314 -24.022  32.430  1.00  0.00     0.293 HD
ENDBRANCH   8  26
TORSDOF 6
ENDMDL
