MODEL 1
REMARK VINA RESULT:    -8.158      0.000      0.000
REMARK INTER + INTRA:          -9.608
REMARK INTER:                  -9.827
REMARK INTRA:                   0.219
REMARK UNBOUND:                 0.219
REMARK SMILES O=c1c(O)c(-c2ccc(O)c(O)c2)oc2cc(O)cc(O)c12
REMARK SMILES IDX 5 1 3 2 2 3 1 4 22 5 20 6 19 7 17 8 16 9 15 10 14 11 6 12
REMARK SMILES IDX 7 13 8 14 9 15 13 16 11 17 10 18 12 20 4 22 21 24 18 26
REMARK H PARENT 10 19 12 21 4 23 21 25 18 27
REMARK Flexibility Score: inf
ROOT
ATOM      1  C   UNL     1      39.013 -12.780   8.719  1.00  0.00     0.180 A 
ATOM      2  C   UNL     1      39.288 -11.428   8.999  1.00  0.00     0.208 A 
ATOM      3  C   UNL     1      40.377 -11.113   9.826  1.00  0.00     0.238 A 
ATOM      4  O   UNL     1      40.626  -9.906  10.092  1.00  0.00    -0.285 OA
ATOM      5  C   UNL     1      41.182 -12.150  10.342  1.00  0.00     0.111 A 
ATOM      6  C   UNL     1      42.299 -11.918  11.180  1.00  0.00     0.134 A 
ATOM      7  C   UNL     1      43.056 -13.004  11.646  1.00  0.00     0.093 A 
ATOM      8  C   UNL     1      42.718 -14.313  11.290  1.00  0.00     0.123 A 
ATOM      9  C   UNL     1      41.617 -14.547  10.465  1.00  0.00     0.094 A 
ATOM     10  C   UNL     1      40.849 -13.479   9.991  1.00  0.00     0.146 A 
ATOM     11  O   UNL     1      39.803 -13.731   9.212  1.00  0.00    -0.452 OA
ENDROOT
BRANCH   1  12
ATOM     12  C   UNL     1      37.872 -13.193   7.871  1.00  0.00     0.025 A 
ATOM     13  C   UNL     1      36.671 -12.468   7.928  1.00  0.00     0.016 A 
ATOM     14  C   UNL     1      35.589 -12.826   7.121  1.00  0.00     0.051 A 
ATOM     15  C   UNL     1      35.696 -13.906   6.233  1.00  0.00     0.157 A 
ATOM     16  C   UNL     1      37.982 -14.263   6.963  1.00  0.00     0.062 A 
ATOM     17  C   UNL     1      36.900 -14.623   6.152  1.00  0.00     0.158 A 
BRANCH  15  18
ATOM     18  O   UNL     1      34.613 -14.263   5.431  1.00  0.00    -0.504 OA
ATOM     19  H   UNL     1      34.054 -13.565   4.953  1.00  0.00     0.293 HD
ENDBRANCH  15  18
BRANCH  17  20
ATOM     20  O   UNL     1      37.044 -15.693   5.269  1.00  0.00    -0.504 OA
ATOM     21  H   UNL     1      37.338 -16.611   5.579  1.00  0.00     0.293 HD
ENDBRANCH  17  20
ENDBRANCH   1  12
BRANCH   2  22
ATOM     22  O   UNL     1      38.504 -10.417   8.434  1.00  0.00    -0.502 OA
ATOM     23  H   UNL     1      37.778  -9.940   8.954  1.00  0.00     0.293 HD
ENDBRANCH   2  22
BRANCH   6  24
ATOM     24  O   UNL     1      42.662 -10.623  11.552  1.00  0.00    -0.507 OA
ATOM     25  H   UNL     1      43.582 -10.412  11.921  1.00  0.00     0.293 HD
ENDBRANCH   6  24
BRANCH   8  26
ATOM     26  O   UNL     1      43.469 -15.391  11.751  1.00  0.00    -0.508 OA
ATOM     27  H   UNL     1      43.466 -15.659  12.729  1.00  0.00     0.293 HD
ENDBRANCH   8  26
TORSDOF 6
ENDMDL
MODEL 2
REMARK VINA RESULT:    -7.602      1.258      1.321
REMARK INTER + INTRA:          -8.939
REMARK INTER:                  -8.696
REMARK INTRA:                  -0.243
REMARK UNBOUND:                 0.219
REMARK SMILES O=c1c(O)c(-c2ccc(O)c(O)c2)oc2cc(O)cc(O)c12
REMARK SMILES IDX 5 1 3 2 2 3 1 4 22 5 20 6 19 7 17 8 16 9 15 10 14 11 6 12
REMARK SMILES IDX 7 13 8 14 9 15 13 16 11 17 10 18 12 20 4 22 21 24 18 26
REMARK H PARENT 10 19 12 21 4 23 21 25 18 27
REMARK Flexibility Score: inf
ROOT
ATOM      1  C   UNL     1      38.635 -12.908   7.646  1.00  0.00     0.180 A 
ATOM      2  C   UNL     1      39.237 -11.652   7.435  1.00  0.00     0.208 A 
ATOM      3  C   UNL     1      40.432 -11.349   8.106  1.00  0.00     0.238 A 
ATOM      4  O   UNL     1      40.972 -10.223   7.933  1.00  0.00    -0.285 OA
ATOM      5  C   UNL     1      41.013 -12.309   8.959  1.00  0.00     0.111 A 
ATOM      6  C   UNL     1      42.217 -12.085   9.670  1.00  0.00     0.134 A 
ATOM      7  C   UNL     1      42.737 -13.095  10.493  1.00  0.00     0.093 A 
ATOM      8  C   UNL     1      42.079 -14.323  10.617  1.00  0.00     0.123 A 
ATOM      9  C   UNL     1      40.892 -14.549   9.919  1.00  0.00     0.094 A 
ATOM     10  C   UNL     1      40.356 -13.554   9.095  1.00  0.00     0.146 A 
ATOM     11  O   UNL     1      39.221 -13.794   8.447  1.00  0.00    -0.452 OA
ENDROOT
BRANCH   1  12
ATOM     12  C   UNL     1      37.366 -13.294   6.989  1.00  0.00     0.025 A 
ATOM     13  C   UNL     1      36.164 -12.704   7.409  1.00  0.00     0.016 A 
ATOM     14  C   UNL     1      34.957 -13.037   6.789  1.00  0.00     0.051 A 
ATOM     15  C   UNL     1      34.937 -13.954   5.729  1.00  0.00     0.157 A 
ATOM     16  C   UNL     1      37.344 -14.198   5.911  1.00  0.00     0.062 A 
ATOM     17  C   UNL     1      36.138 -14.533   5.286  1.00  0.00     0.158 A 
BRANCH  15  18
ATOM     18  O   UNL     1      33.731 -14.288   5.113  1.00  0.00    -0.504 OA
ATOM     19  H   UNL     1      33.395 -13.785   4.300  1.00  0.00     0.293 HD
ENDBRANCH  15  18
BRANCH  17  20
ATOM     20  O   UNL     1      36.154 -15.438   4.225  1.00  0.00    -0.504 OA
ATOM     21  H   UNL     1      36.512 -15.188   3.310  1.00  0.00     0.293 HD
ENDBRANCH  17  20
ENDBRANCH   1  12
BRANCH   2  22
ATOM     22  O   UNL     1      38.665 -10.737   6.546  1.00  0.00    -0.502 OA
ATOM     23  H   UNL     1      39.063  -9.820   6.381  1.00  0.00     0.293 HD
ENDBRANCH   2  22
BRANCH   6  24
ATOM     24  O   UNL     1      42.897 -10.872   9.565  1.00  0.00    -0.507 OA
ATOM     25  H   UNL     1      43.528 -10.549  10.290  1.00  0.00     0.293 HD
ENDBRANCH   6  24
BRANCH   8  26
ATOM     26  O   UNL     1      42.595 -15.326  11.433  1.00  0.00    -0.508 OA
ATOM     27  H   UNL     1      42.940 -16.198  11.047  1.00  0.00     0.293 HD
ENDBRANCH   8  26
TORSDOF 6
ENDMDL
MODEL 3
REMARK VINA RESULT:    -7.538      1.953      6.817
REMARK INTER + INTRA:          -8.862
REMARK INTER:                  -8.852
REMARK INTRA:                  -0.010
REMARK UNBOUND:                 0.219
REMARK SMILES O=c1c(O)c(-c2ccc(O)c(O)c2)oc2cc(O)cc(O)c12
REMARK SMILES IDX 5 1 3 2 2 3 1 4 22 5 20 6 19 7 17 8 16 9 15 10 14 11 6 12
REMARK SMILES IDX 7 13 8 14 9 15 13 16 11 17 10 18 12 20 4 22 21 24 18 26
REMARK H PARENT 10 19 12 21 4 23 21 25 18 27
REMARK Flexibility Score: inf
ROOT
ATOM      1  C   UNL     1      40.745 -12.609   8.854  1.00  0.00     0.180 A 
ATOM      2  C   UNL     1      41.316 -11.693   7.949  1.00  0.00     0.208 A 
ATOM      3  C   UNL     1      40.519 -11.170   6.919  1.00  0.00     0.238 A 
ATOM      4  O   UNL     1      41.023 -10.358   6.096  1.00  0.00    -0.285 OA
ATOM      5  C   UNL     1      39.166 -11.553   6.822  1.00  0.00     0.111 A 
ATOM      6  C   UNL     1      38.295 -11.069   5.817  1.00  0.00     0.134 A 
ATOM      7  C   UNL     1      36.957 -11.492   5.794  1.00  0.00     0.093 A 
ATOM      8  C   UNL     1      36.475 -12.386   6.755  1.00  0.00     0.123 A 
ATOM      9  C   UNL     1      37.330 -12.867   7.748  1.00  0.00     0.094 A 
ATOM     10  C   UNL     1      38.667 -12.459   7.787  1.00  0.00     0.146 A 
ATOM     11  O   UNL     1      39.461 -12.936   8.740  1.00  0.00    -0.452 OA
ENDROOT
BRANCH   1  12
ATOM     12  C   UNL     1      41.525 -13.218   9.954  1.00  0.00     0.025 A 
ATOM     13  C   UNL     1      41.575 -14.616  10.074  1.00  0.00     0.016 A 
ATOM     14  C   UNL     1      42.322 -15.213  11.093  1.00  0.00     0.051 A 
ATOM     15  C   UNL     1      43.043 -14.422  11.997  1.00  0.00     0.157 A 
ATOM     16  C   UNL     1      42.267 -12.428  10.852  1.00  0.00     0.062 A 
ATOM     17  C   UNL     1      43.018 -13.023  11.873  1.00  0.00     0.158 A 
BRANCH  15  18
ATOM     18  O   UNL     1      43.786 -15.020  13.014  1.00  0.00    -0.504 OA
ATOM     19  H   UNL     1      44.504 -15.706  12.813  1.00  0.00     0.293 HD
ENDBRANCH  15  18
BRANCH  17  20
ATOM     20  O   UNL     1      43.736 -12.208  12.747  1.00  0.00    -0.504 OA
ATOM     21  H   UNL     1      43.768 -11.201  12.640  1.00  0.00     0.293 HD
ENDBRANCH  17  20
ENDBRANCH   1  12
BRANCH   2  22
ATOM     22  O   UNL     1      42.647 -11.292   8.097  1.00  0.00    -0.502 OA
ATOM     23  H   UNL     1      43.425 -11.901   7.873  1.00  0.00     0.293 HD
ENDBRANCH   2  22
BRANCH   6  24
ATOM     24  O   UNL     1      38.745 -10.176   4.845  1.00  0.00    -0.507 OA
ATOM     25  H   UNL     1      38.799  -9.179   5.020  1.00  0.00     0.293 HD
ENDBRANCH   6  24
BRANCH   8  26
ATOM     26  O   UNL     1      35.147 -12.806   6.733  1.00  0.00    -0.508 OA
ATOM     27  H   UNL     1      34.733 -13.210   5.901  1.00  0.00     0.293 HD
ENDBRANCH   8  26
TORSDOF 6
ENDMDL
MODEL 4
REMARK VINA RESULT:    -7.313      2.622      7.126
REMARK INTER + INTRA:          -8.591
REMARK INTER:                  -8.337
REMARK INTRA:                  -0.254
REMARK UNBOUND:                 0.219
REMARK SMILES O=c1c(O)c(-c2ccc(O)c(O)c2)oc2cc(O)cc(O)c12
REMARK SMILES IDX 5 1 3 2 2 3 1 4 22 5 20 6 19 7 17 8 16 9 15 10 14 11 6 12
REMARK SMILES IDX 7 13 8 14 9 15 13 16 11 17 10 18 12 20 4 22 21 24 18 26
REMARK H PARENT 10 19 12 21 4 23 21 25 18 27
REMARK Flexibility Score: inf
ROOT
ATOM      1  C   UNL     1      39.577 -12.132   8.286  1.00  0.00     0.180 A 
ATOM      2  C   UNL     1      38.224 -12.465   8.489  1.00  0.00     0.208 A 
ATOM      3  C   UNL     1      37.296 -12.186   7.473  1.00  0.00     0.238 A 
ATOM      4  O   UNL     1      36.080 -12.470   7.649  1.00  0.00    -0.285 OA
ATOM      5  C   UNL     1      37.736 -11.598   6.270  1.00  0.00     0.111 A 
ATOM      6  C   UNL     1      36.867 -11.287   5.197  1.00  0.00     0.134 A 
ATOM      7  C   UNL     1      37.385 -10.711   4.027  1.00  0.00     0.093 A 
ATOM      8  C   UNL     1      38.753 -10.441   3.910  1.00  0.00     0.123 A 
ATOM      9  C   UNL     1      39.614 -10.745   4.965  1.00  0.00     0.094 A 
ATOM     10  C   UNL     1      39.117 -11.319   6.141  1.00  0.00     0.146 A 
ATOM     11  O   UNL     1      39.959 -11.592   7.131  1.00  0.00    -0.452 OA
ENDROOT
BRANCH   1  12
ATOM     12  C   UNL     1      40.611 -12.379   9.316  1.00  0.00     0.025 A 
ATOM     13  C   UNL     1      41.078 -13.686   9.527  1.00  0.00     0.016 A 
ATOM     14  C   UNL     1      42.068 -13.939  10.479  1.00  0.00     0.051 A 
ATOM     15  C   UNL     1      42.619 -12.887  11.223  1.00  0.00     0.157 A 
ATOM     16  C   UNL     1      41.181 -11.322  10.050  1.00  0.00     0.062 A 
ATOM     17  C   UNL     1      42.176 -11.572  11.003  1.00  0.00     0.158 A 
BRANCH  15  18
ATOM     18  O   UNL     1      43.606 -13.142  12.174  1.00  0.00    -0.504 OA
ATOM     19  H   UNL     1      43.375 -13.303  13.148  1.00  0.00     0.293 HD
ENDBRANCH  15  18
BRANCH  17  20
ATOM     20  O   UNL     1      42.713 -10.501  11.716  1.00  0.00    -0.504 OA
ATOM     21  H   UNL     1      43.629 -10.548  12.148  1.00  0.00     0.293 HD
ENDBRANCH  17  20
ENDBRANCH   1  12
BRANCH   2  22
ATOM     22  O   UNL     1      37.821 -13.093   9.671  1.00  0.00    -0.502 OA
ATOM     23  H   UNL     1      37.251 -13.930   9.674  1.00  0.00     0.293 HD
ENDBRANCH   2  22
BRANCH   6  24
ATOM     24  O   UNL     1      35.499 -11.545   5.282  1.00  0.00    -0.507 OA
ATOM     25  H   UNL     1      34.960 -11.838   4.476  1.00  0.00     0.293 HD
ENDBRANCH   6  24
BRANCH   8  26
ATOM     26  O   UNL     1      39.268  -9.870   2.749  1.00  0.00    -0.508 OA
ATOM     27  H   UNL     1      40.142 -10.186   2.346  1.00  0.00     0.293 HD
ENDBRANCH   8  26
TORSDOF 6
ENDMDL
MODEL 5
REMARK VINA RESULT:    -7.302      7.234     10.217
REMARK INTER + INTRA:          -8.577
REMARK INTER:                  -8.299
REMARK INTRA:                  -0.278
REMARK UNBOUND:                 0.219
REMARK SMILES O=c1c(O)c(-c2ccc(O)c(O)c2)oc2cc(O)cc(O)c12
REMARK SMILES IDX 5 1 3 2 2 3 1 4 22 5 20 6 19 7 17 8 16 9 15 10 14 11 6 12
REMARK SMILES IDX 7 13 8 14 9 15 13 16 11 17 10 18 12 20 4 22 21 24 18 26
REMARK H PARENT 10 19 12 21 4 23 21 25 18 27
REMARK Flexibility Score: inf
ROOT
ATOM      1  C   UNL     1      32.849 -14.196   1.574  1.00  0.00     0.180 A 
ATOM      2  C   UNL     1      33.550 -14.994   2.498  1.00  0.00     0.208 A 
ATOM      3  C   UNL     1      34.784 -14.540   2.989  1.00  0.00     0.238 A 
ATOM      4  O   UNL     1      35.426 -15.253   3.808  1.00  0.00    -0.285 OA
ATOM      5  C   UNL     1      35.286 -13.293   2.565  1.00  0.00     0.111 A 
ATOM      6  C   UNL     1      36.519 -12.762   3.014  1.00  0.00     0.134 A 
ATOM      7  C   UNL     1      36.945 -11.507   2.552  1.00  0.00     0.093 A 
ATOM      8  C   UNL     1      36.163 -10.776   1.653  1.00  0.00     0.123 A 
ATOM      9  C   UNL     1      34.947 -11.295   1.206  1.00  0.00     0.094 A 
ATOM     10  C   UNL     1      34.505 -12.544   1.654  1.00  0.00     0.146 A 
ATOM     11  O   UNL     1      33.346 -13.017   1.208  1.00  0.00    -0.452 OA
ENDROOT
BRANCH   1  12
ATOM     12  C   UNL     1      31.551 -14.614   0.997  1.00  0.00     0.025 A 
ATOM     13  C   UNL     1      31.514 -15.166  -0.293  1.00  0.00     0.016 A 
ATOM     14  C   UNL     1      30.303 -15.587  -0.848  1.00  0.00     0.051 A 
ATOM     15  C   UNL     1      29.113 -15.476  -0.116  1.00  0.00     0.157 A 
ATOM     16  C   UNL     1      30.357 -14.523   1.737  1.00  0.00     0.062 A 
ATOM     17  C   UNL     1      29.143 -14.946   1.184  1.00  0.00     0.158 A 
BRANCH  15  18
ATOM     18  O   UNL     1      27.906 -15.894  -0.674  1.00  0.00    -0.504 OA
ATOM     19  H   UNL     1      27.813 -16.801  -1.117  1.00  0.00     0.293 HD
ENDBRANCH  15  18
BRANCH  17  20
ATOM     20  O   UNL     1      27.979 -14.836   1.944  1.00  0.00    -0.504 OA
ATOM     21  H   UNL     1      27.114 -15.289   1.673  1.00  0.00     0.293 HD
ENDBRANCH  17  20
ENDBRANCH   1  12
BRANCH   2  22
ATOM     22  O   UNL     1      33.007 -16.204   2.939  1.00  0.00    -0.502 OA
ATOM     23  H   UNL     1      33.344 -16.680   3.767  1.00  0.00     0.293 HD
ENDBRANCH   2  22
BRANCH   6  24
ATOM     24  O   UNL     1      37.321 -13.467   3.912  1.00  0.00    -0.507 OA
ATOM     25  H   UNL     1      37.983 -12.997   4.518  1.00  0.00     0.293 HD
ENDBRANCH   6  24
BRANCH   8  26
ATOM     26  O   UNL     1      36.585  -9.530   1.194  1.00  0.00    -0.508 OA
ATOM     27  H   UNL     1      36.171  -9.099   0.375  1.00  0.00     0.293 HD
ENDBRANCH   8  26
TORSDOF 6
ENDMDL
MODEL 6
REMARK VINA RESULT:    -7.285      2.495      7.035
REMARK INTER + INTRA:          -8.557
REMARK INTER:                  -8.310
REMARK INTRA:                  -0.247
REMARK UNBOUND:                 0.219
REMARK SMILES O=c1c(O)c(-c2ccc(O)c(O)c2)oc2cc(O)cc(O)c12
REMARK SMILES IDX 5 1 3 2 2 3 1 4 22 5 20 6 19 7 17 8 16 9 15 10 14 11 6 12
REMARK SMILES IDX 7 13 8 14 9 15 13 16 11 17 10 18 12 20 4 22 21 24 18 26
REMARK H PARENT 10 19 12 21 4 23 21 25 18 27
REMARK Flexibility Score: inf
ROOT
ATOM      1  C   UNL     1      40.049 -11.917   8.629  1.00  0.00     0.180 A 
ATOM      2  C   UNL     1      38.758 -12.425   8.871  1.00  0.00     0.208 A 
ATOM      3  C   UNL     1      37.783 -12.308   7.869  1.00  0.00     0.238 A 
ATOM      4  O   UNL     1      36.621 -12.750   8.080  1.00  0.00    -0.285 OA
ATOM      5  C   UNL     1      38.117 -11.706   6.638  1.00  0.00     0.111 A 
ATOM      6  C   UNL     1      37.195 -11.553   5.576  1.00  0.00     0.134 A 
ATOM      7  C   UNL     1      37.608 -10.951   4.378  1.00  0.00     0.093 A 
ATOM      8  C   UNL     1      38.923 -10.501   4.222  1.00  0.00     0.123 A 
ATOM      9  C   UNL     1      39.836 -10.649   5.267  1.00  0.00     0.094 A 
ATOM     10  C   UNL     1      39.444 -11.245   6.470  1.00  0.00     0.146 A 
ATOM     11  O   UNL     1      40.332 -11.368   7.450  1.00  0.00    -0.452 OA
ENDROOT
BRANCH   1  12
ATOM     12  C   UNL     1      41.125 -11.985   9.642  1.00  0.00     0.025 A 
ATOM     13  C   UNL     1      41.483 -10.827  10.350  1.00  0.00     0.016 A 
ATOM     14  C   UNL     1      42.481 -10.873  11.326  1.00  0.00     0.051 A 
ATOM     15  C   UNL     1      43.127 -12.082  11.620  1.00  0.00     0.157 A 
ATOM     16  C   UNL     1      41.762 -13.201   9.954  1.00  0.00     0.062 A 
ATOM     17  C   UNL     1      42.762 -13.251  10.933  1.00  0.00     0.158 A 
BRANCH  15  18
ATOM     18  O   UNL     1      44.125 -12.125  12.592  1.00  0.00    -0.504 OA
ATOM     19  H   UNL     1      44.332 -12.976  13.103  1.00  0.00     0.293 HD
ENDBRANCH  15  18
BRANCH  17  20
ATOM     20  O   UNL     1      43.375 -14.472  11.212  1.00  0.00    -0.504 OA
ATOM     21  H   UNL     1      43.313 -14.910  12.124  1.00  0.00     0.293 HD
ENDBRANCH  17  20
ENDBRANCH   1  12
BRANCH   2  22
ATOM     22  O   UNL     1      38.467 -13.061  10.081  1.00  0.00    -0.502 OA
ATOM     23  H   UNL     1      37.552 -13.445  10.285  1.00  0.00     0.293 HD
ENDBRANCH   2  22
BRANCH   6  24
ATOM     24  O   UNL     1      35.877 -11.993   5.700  1.00  0.00    -0.507 OA
ATOM     25  H   UNL     1      35.104 -11.489   5.279  1.00  0.00     0.293 HD
ENDBRANCH   6  24
BRANCH   8  26
ATOM     26  O   UNL     1      39.334  -9.904   3.033  1.00  0.00    -0.508 OA
ATOM     27  H   UNL     1      40.183  -9.352   2.983  1.00  0.00     0.293 HD
ENDBRANCH   8  26
TORSDOF 6
ENDMDL
MODEL 7
REMARK VINA RESULT:    -7.206      2.306      7.254
REMARK INTER + INTRA:          -8.462
REMARK INTER:                  -8.205
REMARK INTRA:                  -0.256
REMARK UNBOUND:                 0.219
REMARK SMILES O=c1c(O)c(-c2ccc(O)c(O)c2)oc2cc(O)cc(O)c12
REMARK SMILES IDX 5 1 3 2 2 3 1 4 22 5 20 6 19 7 17 8 16 9 15 10 14 11 6 12
REMARK SMILES IDX 7 13 8 14 9 15 13 16 11 17 10 18 12 20 4 22 21 24 18 26
REMARK H PARENT 10 19 12 21 4 23 21 25 18 27
REMARK Flexibility Score: inf
ROOT
ATOM      1  C   UNL     1      39.608 -11.196   7.604  1.00  0.00     0.180 A 
ATOM      2  C   UNL     1      39.895 -10.641   6.342  1.00  0.00     0.208 A 
ATOM      3  C   UNL     1      38.997 -10.858   5.285  1.00  0.00     0.238 A 
ATOM      4  O   UNL     1      39.250 -10.375   4.147  1.00  0.00    -0.285 OA
ATOM      5  C   UNL     1      37.823 -11.606   5.509  1.00  0.00     0.111 A 
ATOM      6  C   UNL     1      36.867 -11.867   4.499  1.00  0.00     0.134 A 
ATOM      7  C   UNL     1      35.718 -12.613   4.806  1.00  0.00     0.093 A 
ATOM      8  C   UNL     1      35.509 -13.100   6.100  1.00  0.00     0.123 A 
ATOM      9  C   UNL     1      36.449 -12.845   7.099  1.00  0.00     0.094 A 
ATOM     10  C   UNL     1      37.601 -12.105   6.814  1.00  0.00     0.146 A 
ATOM     11  O   UNL     1      38.483 -11.883   7.783  1.00  0.00    -0.452 OA
ENDROOT
BRANCH   1  12
ATOM     12  C   UNL     1      40.513 -11.027   8.762  1.00  0.00     0.025 A 
ATOM     13  C   UNL     1      41.723 -11.737   8.803  1.00  0.00     0.016 A 
ATOM     14  C   UNL     1      42.602 -11.577   9.877  1.00  0.00     0.051 A 
ATOM     15  C   UNL     1      42.293 -10.692  10.919  1.00  0.00     0.157 A 
ATOM     16  C   UNL     1      40.215 -10.124   9.800  1.00  0.00     0.062 A 
ATOM     17  C   UNL     1      41.095  -9.959  10.876  1.00  0.00     0.158 A 
BRANCH  15  18
ATOM     18  O   UNL     1      43.171 -10.536  11.990  1.00  0.00    -0.504 OA
ATOM     19  H   UNL     1      44.082 -10.109  11.871  1.00  0.00     0.293 HD
ENDBRANCH  15  18
BRANCH  17  20
ATOM     20  O   UNL     1      40.764  -9.060  11.890  1.00  0.00    -0.504 OA
ATOM     21  H   UNL     1      41.381  -8.303  12.160  1.00  0.00     0.293 HD
ENDBRANCH  17  20
ENDBRANCH   1  12
BRANCH   2  22
ATOM     22  O   UNL     1      41.041  -9.861   6.158  1.00  0.00    -0.502 OA
ATOM     23  H   UNL     1      41.385  -9.612   5.239  1.00  0.00     0.293 HD
ENDBRANCH   2  22
BRANCH   6  24
ATOM     24  O   UNL     1      37.047 -11.393   3.200  1.00  0.00    -0.507 OA
ATOM     25  H   UNL     1      36.265 -11.098   2.626  1.00  0.00     0.293 HD
ENDBRANCH   6  24
BRANCH   8  26
ATOM     26  O   UNL     1      34.369 -13.839   6.405  1.00  0.00    -0.508 OA
ATOM     27  H   UNL     1      34.426 -14.816   6.671  1.00  0.00     0.293 HD
ENDBRANCH   8  26
TORSDOF 6
ENDMDL
MODEL 8
REMARK VINA RESULT:    -7.143      6.411      9.700
REMARK INTER + INTRA:          -8.386
REMARK INTER:                  -8.097
REMARK INTRA:                  -0.289
REMARK UNBOUND:                 0.219
REMARK SMILES O=c1c(O)c(-c2ccc(O)c(O)c2)oc2cc(O)cc(O)c12
REMARK SMILES IDX 5 1 3 2 2 3 1 4 22 5 20 6 19 7 17 8 16 9 15 10 14 11 6 12
REMARK SMILES IDX 7 13 8 14 9 15 13 16 11 17 10 18 12 20 4 22 21 24 18 26
REMARK H PARENT 10 19 12 21 4 23 21 25 18 27
REMARK Flexibility Score: inf
ROOT
ATOM      1  C   UNL     1      32.862 -13.906   1.417  1.00  0.00     0.180 A 
ATOM      2  C   UNL     1      33.414 -12.712   0.914  1.00  0.00     0.208 A 
ATOM      3  C   UNL     1      34.630 -12.250   1.441  1.00  0.00     0.238 A 
ATOM      4  O   UNL     1      35.126 -11.176   1.005  1.00  0.00    -0.285 OA
ATOM      5  C   UNL     1      35.281 -12.994   2.445  1.00  0.00     0.111 A 
ATOM      6  C   UNL     1      36.510 -12.600   3.027  1.00  0.00     0.134 A 
ATOM      7  C   UNL     1      37.101 -13.402   4.015  1.00  0.00     0.093 A 
ATOM      8  C   UNL     1      36.487 -14.588   4.431  1.00  0.00     0.123 A 
ATOM      9  C   UNL     1      35.276 -14.981   3.862  1.00  0.00     0.094 A 
ATOM     10  C   UNL     1      34.670 -14.195   2.876  1.00  0.00     0.146 A 
ATOM     11  O   UNL     1      33.514 -14.590   2.354  1.00  0.00    -0.452 OA
ENDROOT
BRANCH   1  12
ATOM     12  C   UNL     1      31.576 -14.448   0.926  1.00  0.00     0.025 A 
ATOM     13  C   UNL     1      31.544 -15.162  -0.283  1.00  0.00     0.016 A 
ATOM     14  C   UNL     1      30.345 -15.701  -0.755  1.00  0.00     0.051 A 
ATOM     15  C   UNL     1      29.162 -15.547  -0.019  1.00  0.00     0.157 A 
ATOM     16  C   UNL     1      30.390 -14.314   1.672  1.00  0.00     0.062 A 
ATOM     17  C   UNL     1      29.188 -14.854   1.203  1.00  0.00     0.158 A 
BRANCH  15  18
ATOM     18  O   UNL     1      27.966 -16.083  -0.494  1.00  0.00    -0.504 OA
ATOM     19  H   UNL     1      27.079 -15.875  -0.050  1.00  0.00     0.293 HD
ENDBRANCH  15  18
BRANCH  17  20
ATOM     20  O   UNL     1      28.032 -14.696   1.966  1.00  0.00    -0.504 OA
ATOM     21  H   UNL     1      27.117 -14.964   1.620  1.00  0.00     0.293 HD
ENDBRANCH  17  20
ENDBRANCH   1  12
BRANCH   2  22
ATOM     22  O   UNL     1      32.772 -12.019  -0.117  1.00  0.00    -0.502 OA
ATOM     23  H   UNL     1      32.642 -12.417  -1.039  1.00  0.00     0.293 HD
ENDBRANCH   2  22
BRANCH   6  24
ATOM     24  O   UNL     1      37.147 -11.423   2.632  1.00  0.00    -0.507 OA
ATOM     25  H   UNL     1      38.155 -11.323   2.671  1.00  0.00     0.293 HD
ENDBRANCH   6  24
BRANCH   8  26
ATOM     26  O   UNL     1      37.073 -15.385   5.412  1.00  0.00    -0.508 OA
ATOM     27  H   UNL     1      38.059 -15.620   5.384  1.00  0.00     0.293 HD
ENDBRANCH   8  26
TORSDOF 6
ENDMDL
MODEL 9
REMARK VINA RESULT:    -7.111      2.399      3.981
REMARK INTER + INTRA:          -8.347
REMARK INTER:                  -8.022
REMARK INTRA:                  -0.325
REMARK UNBOUND:                 0.219
REMARK SMILES O=c1c(O)c(-c2ccc(O)c(O)c2)oc2cc(O)cc(O)c12
REMARK SMILES IDX 5 1 3 2 2 3 1 4 22 5 20 6 19 7 17 8 16 9 15 10 14 11 6 12
REMARK SMILES IDX 7 13 8 14 9 15 13 16 11 17 10 18 12 20 4 22 21 24 18 26
REMARK H PARENT 10 19 12 21 4 23 21 25 18 27
REMARK Flexibility Score: inf
ROOT
ATOM      1  C   UNL     1      36.617 -13.200   5.759  1.00  0.00     0.180 A 
ATOM      2  C   UNL     1      36.618 -11.796   5.874  1.00  0.00     0.208 A 
ATOM      3  C   UNL     1      37.402 -11.197   6.873  1.00  0.00     0.238 A 
ATOM      4  O   UNL     1      37.402  -9.942   6.992  1.00  0.00    -0.285 OA
ATOM      5  C   UNL     1      38.182 -12.006   7.725  1.00  0.00     0.111 A 
ATOM      6  C   UNL     1      39.001 -11.482   8.754  1.00  0.00     0.134 A 
ATOM      7  C   UNL     1      39.756 -12.353   9.553  1.00  0.00     0.093 A 
ATOM      8  C   UNL     1      39.708 -13.735   9.343  1.00  0.00     0.123 A 
ATOM      9  C   UNL     1      38.901 -14.257   8.331  1.00  0.00     0.094 A 
ATOM     10  C   UNL     1      38.140 -13.405   7.524  1.00  0.00     0.146 A 
ATOM     11  O   UNL     1      37.377 -13.930   6.571  1.00  0.00    -0.452 OA
ENDROOT
BRANCH   1  12
ATOM     12  C   UNL     1      35.803 -13.905   4.744  1.00  0.00     0.025 A 
ATOM     13  C   UNL     1      34.481 -14.265   5.046  1.00  0.00     0.016 A 
ATOM     14  C   UNL     1      33.688 -14.913   4.096  1.00  0.00     0.051 A 
ATOM     15  C   UNL     1      34.201 -15.197   2.823  1.00  0.00     0.157 A 
ATOM     16  C   UNL     1      36.308 -14.174   3.458  1.00  0.00     0.062 A 
ATOM     17  C   UNL     1      35.515 -14.821   2.502  1.00  0.00     0.158 A 
BRANCH  15  18
ATOM     18  O   UNL     1      33.408 -15.846   1.877  1.00  0.00    -0.504 OA
ATOM     19  H   UNL     1      32.400 -15.745   1.871  1.00  0.00     0.293 HD
ENDBRANCH  15  18
BRANCH  17  20
ATOM     20  O   UNL     1      36.051 -15.076   1.240  1.00  0.00    -0.504 OA
ATOM     21  H   UNL     1      36.517 -14.358   0.698  1.00  0.00     0.293 HD
ENDBRANCH  17  20
ENDBRANCH   1  12
BRANCH   2  22
ATOM     22  O   UNL     1      35.874 -11.015   4.986  1.00  0.00    -0.502 OA
ATOM     23  H   UNL     1      35.406 -11.409   4.179  1.00  0.00     0.293 HD
ENDBRANCH   2  22
BRANCH   6  24
ATOM     24  O   UNL     1      39.071 -10.109   8.987  1.00  0.00    -0.507 OA
ATOM     25  H   UNL     1      39.291  -9.733   9.902  1.00  0.00     0.293 HD
ENDBRANCH   6  24
BRANCH   8  26
ATOM     26  O   UNL     1      40.457 -14.601  10.136  1.00  0.00    -0.508 OA
ATOM     27  H   UNL     1      40.229 -14.757  11.112  1.00  0.00     0.293 HD
ENDBRANCH   8  26
TORSDOF 6
ENDMDL
