MODEL 1
REMARK VINA RESULT:     8.275      0.000      0.000
REMARK INTER + INTRA:          19.472
REMARK INTER:                  21.821
REMARK INTRA:                  -2.350
REMARK UNBOUND:                -2.350
REMARK SMILES CCCCCCCCCCCCCCCCCCCCCCCCCCCCCC(=O)[O-]
REMARK SMILES IDX 16 1 17 2 18 3 19 4 20 5 21 6 22 7 23 8 24 9 25 10 26 11
REMARK SMILES IDX 27 12 28 13 29 14 30 15 31 16 32 17 15 18 14 19 13 20 12 21
REMARK SMILES IDX 11 22 10 23 9 24 8 25 7 26 6 27 5 28 4 29 3 30 2 31 1 32
REMARK H PARENT
REMARK Flexibility Score: inf
ROOT
ATOM      1  C   UNL     1     -30.797 -21.269 -29.807  1.00  0.00     0.000 C 
ENDROOT
BRANCH   1   2
ATOM      2  C   UNL     1     -29.736 -22.333 -29.467  1.00  0.00     0.000 C 
BRANCH   2   3
ATOM      3  C   UNL     1     -29.476 -22.503 -27.954  1.00  0.00     0.000 C 
BRANCH   3   4
ATOM      4  C   UNL     1     -27.991 -22.744 -27.627  1.00  0.00     0.000 C 
BRANCH   4   5
ATOM      5  C   UNL     1     -27.202 -21.429 -27.491  1.00  0.00     0.000 C 
BRANCH   5   6
ATOM      6  C   UNL     1     -27.254 -20.823 -26.075  1.00  0.00     0.000 C 
BRANCH   6   7
ATOM      7  C   UNL     1     -25.863 -20.747 -25.424  1.00  0.00     0.000 C 
BRANCH   7   8
ATOM      8  C   UNL     1     -25.914 -20.952 -23.901  1.00  0.00     0.000 C 
BRANCH   8   9
ATOM      9  C   UNL     1     -27.352 -21.078 -23.369  1.00  0.00     0.000 C 
BRANCH   9  10
ATOM     10  C   UNL     1     -27.590 -22.391 -22.609  1.00  0.00     0.000 C 
BRANCH  10  11
ATOM     11  C   UNL     1     -26.374 -22.821 -21.771  1.00  0.00     0.000 C 
BRANCH  11  12
ATOM     12  C   UNL     1     -26.236 -24.357 -21.685  1.00  0.00     0.000 C 
BRANCH  12  13
ATOM     13  C   UNL     1     -25.287 -24.943 -22.747  1.00  0.00     0.006 C 
BRANCH  13  14
ATOM     14  C   UNL     1     -23.798 -24.749 -22.426  1.00  0.00     0.053 C 
BRANCH  14  15
ATOM     15  C   UNL     1     -22.980 -25.938 -22.833  1.00  0.00     0.041 C 
ATOM     16  O   UNL     1     -23.419 -26.749 -23.688  1.00  0.00    -0.550 OA
ATOM     17  O   UNL     1     -21.731 -26.151 -22.263  1.00  0.00    -0.550 OA
ENDBRANCH  14  15
ENDBRANCH  13  14
ENDBRANCH  12  13
ENDBRANCH  11  12
ENDBRANCH  10  11
ENDBRANCH   9  10
ENDBRANCH   8   9
ENDBRANCH   7   8
ENDBRANCH   6   7
ENDBRANCH   5   6
ENDBRANCH   4   5
ENDBRANCH   3   4
ENDBRANCH   2   3
ENDBRANCH   1   2
BRANCH   1  18
ATOM     18  C   UNL     1     -30.245 -19.898 -30.240  1.00  0.00     0.000 C 
BRANCH  18  19
ATOM     19  C   UNL     1     -28.756 -19.886 -30.636  1.00  0.00     0.000 C 
BRANCH  19  20
ATOM     20  C   UNL     1     -28.529 -20.208 -32.119  1.00  0.00     0.000 C 
BRANCH  20  21
ATOM     21  C   UNL     1     -29.864 -20.336 -32.863  1.00  0.00     0.000 C 
BRANCH  21  22
ATOM     22  C   UNL     1     -29.936 -21.659 -33.636  1.00  0.00     0.000 C 
BRANCH  22  23
ATOM     23  C   UNL     1     -31.384 -22.155 -33.745  1.00  0.00     0.000 C 
BRANCH  23  24
ATOM     24  C   UNL     1     -32.250 -21.154 -34.526  1.00  0.00    -0.000 C 
BRANCH  24  25
ATOM     25  C   UNL     1     -33.357 -21.837 -35.347  1.00  0.00    -0.000 C 
BRANCH  25  26
ATOM     26  C   UNL     1     -33.529 -21.292 -36.775  1.00  0.00    -0.000 C 
BRANCH  26  27
ATOM     27  C   UNL     1     -33.340 -22.374 -37.854  1.00  0.00    -0.000 C 
BRANCH  27  28
ATOM     28  C   UNL     1     -31.925 -22.983 -37.828  1.00  0.00    -0.000 C 
BRANCH  28  29
ATOM     29  C   UNL     1     -31.887 -24.457 -38.271  1.00  0.00    -0.000 C 
BRANCH  29  30
ATOM     30  C   UNL     1     -32.730 -25.363 -37.358  1.00  0.00    -0.000 C 
BRANCH  30  31
ATOM     31  C   UNL     1     -32.935 -26.764 -37.958  1.00  0.00    -0.003 C 
ATOM     32  C   UNL     1     -31.671 -27.295 -38.636  1.00  0.00     0.004 C 
ENDBRANCH  30  31
ENDBRANCH  29  30
ENDBRANCH  28  29
ENDBRANCH  27  28
ENDBRANCH  26  27
ENDBRANCH  25  26
ENDBRANCH  24  25
ENDBRANCH  23  24
ENDBRANCH  22  23
ENDBRANCH  21  22
ENDBRANCH  20  21
ENDBRANCH  19  20
ENDBRANCH  18  19
ENDBRANCH   1  18
TORSDOF 28
ENDMDL
MODEL 2
REMARK VINA RESULT:     8.741      0.991      1.472
REMARK INTER + INTRA:          20.699
REMARK INTER:                  22.630
REMARK INTRA:                  -1.931
REMARK UNBOUND:                -2.350
REMARK SMILES CCCCCCCCCCCCCCCCCCCCCCCCCCCCCC(=O)[O-]
REMARK SMILES IDX 16 1 17 2 18 3 19 4 20 5 21 6 22 7 23 8 24 9 25 10 26 11
REMARK SMILES IDX 27 12 28 13 29 14 30 15 31 16 32 17 15 18 14 19 13 20 12 21
REMARK SMILES IDX 11 22 10 23 9 24 8 25 7 26 6 27 5 28 4 29 3 30 2 31 1 32
REMARK H PARENT
REMARK Flexibility Score: inf
ROOT
ATOM      1  C   UNL     1     -29.661 -22.801 -28.747  1.00  0.00     0.000 C 
ENDROOT
BRANCH   1   2
ATOM      2  C   UNL     1     -28.676 -22.600 -27.579  1.00  0.00     0.000 C 
BRANCH   2   3
ATOM      3  C   UNL     1     -27.253 -22.195 -28.019  1.00  0.00     0.000 C 
BRANCH   3   4
ATOM      4  C   UNL     1     -26.892 -20.753 -27.617  1.00  0.00     0.000 C 
BRANCH   4   5
ATOM      5  C   UNL     1     -25.646 -20.693 -26.714  1.00  0.00     0.000 C 
BRANCH   5   6
ATOM      6  C   UNL     1     -25.951 -20.238 -25.273  1.00  0.00     0.000 C 
BRANCH   6   7
ATOM      7  C   UNL     1     -24.991 -20.868 -24.249  1.00  0.00     0.000 C 
BRANCH   7   8
ATOM      8  C   UNL     1     -25.646 -21.061 -22.871  1.00  0.00     0.000 C 
BRANCH   8   9
ATOM      9  C   UNL     1     -27.149 -21.374 -22.969  1.00  0.00     0.000 C 
BRANCH   9  10
ATOM     10  C   UNL     1     -27.531 -22.675 -22.249  1.00  0.00     0.000 C 
BRANCH  10  11
ATOM     11  C   UNL     1     -26.358 -23.289 -21.467  1.00  0.00     0.000 C 
BRANCH  11  12
ATOM     12  C   UNL     1     -25.799 -24.557 -22.150  1.00  0.00     0.000 C 
BRANCH  12  13
ATOM     13  C   UNL     1     -24.261 -24.626 -22.143  1.00  0.00     0.006 C 
BRANCH  13  14
ATOM     14  C   UNL     1     -23.682 -25.698 -23.076  1.00  0.00     0.053 C 
BRANCH  14  15
ATOM     15  C   UNL     1     -22.307 -26.122 -22.655  1.00  0.00     0.041 C 
ATOM     16  O   UNL     1     -21.510 -26.620 -23.491  1.00  0.00    -0.550 OA
ATOM     17  O   UNL     1     -21.906 -25.968 -21.333  1.00  0.00    -0.550 OA
ENDBRANCH  14  15
ENDBRANCH  13  14
ENDBRANCH  12  13
ENDBRANCH  11  12
ENDBRANCH  10  11
ENDBRANCH   9  10
ENDBRANCH   8   9
ENDBRANCH   7   8
ENDBRANCH   6   7
ENDBRANCH   5   6
ENDBRANCH   4   5
ENDBRANCH   3   4
ENDBRANCH   2   3
ENDBRANCH   1   2
BRANCH   1  18
ATOM     18  C   UNL     1     -30.230 -21.510 -29.364  1.00  0.00     0.000 C 
BRANCH  18  19
ATOM     19  C   UNL     1     -30.561 -21.593 -30.867  1.00  0.00     0.000 C 
BRANCH  19  20
ATOM     20  C   UNL     1     -29.915 -20.467 -31.686  1.00  0.00     0.000 C 
BRANCH  20  21
ATOM     21  C   UNL     1     -29.682 -20.909 -33.136  1.00  0.00     0.000 C 
BRANCH  21  22
ATOM     22  C   UNL     1     -30.966 -21.480 -33.748  1.00  0.00     0.000 C 
BRANCH  22  23
ATOM     23  C   UNL     1     -32.089 -20.434 -33.750  1.00  0.00     0.000 C 
BRANCH  23  24
ATOM     24  C   UNL     1     -32.771 -20.364 -35.126  1.00  0.00    -0.000 C 
BRANCH  24  25
ATOM     25  C   UNL     1     -33.614 -21.612 -35.437  1.00  0.00    -0.000 C 
BRANCH  25  26
ATOM     26  C   UNL     1     -33.885 -21.850 -36.932  1.00  0.00    -0.000 C 
BRANCH  26  27
ATOM     27  C   UNL     1     -33.168 -23.099 -37.477  1.00  0.00    -0.000 C 
BRANCH  27  28
ATOM     28  C   UNL     1     -31.877 -23.416 -36.700  1.00  0.00    -0.000 C 
BRANCH  28  29
ATOM     29  C   UNL     1     -30.866 -24.249 -37.509  1.00  0.00    -0.000 C 
BRANCH  29  30
ATOM     30  C   UNL     1     -31.529 -24.994 -38.681  1.00  0.00    -0.000 C 
BRANCH  30  31
ATOM     31  C   UNL     1     -31.827 -26.464 -38.340  1.00  0.00    -0.003 C 
ATOM     32  C   UNL     1     -33.256 -26.661 -37.830  1.00  0.00     0.004 C 
ENDBRANCH  30  31
ENDBRANCH  29  30
ENDBRANCH  28  29
ENDBRANCH  27  28
ENDBRANCH  26  27
ENDBRANCH  25  26
ENDBRANCH  24  25
ENDBRANCH  23  24
ENDBRANCH  22  23
ENDBRANCH  21  22
ENDBRANCH  20  21
ENDBRANCH  19  20
ENDBRANCH  18  19
ENDBRANCH   1  18
TORSDOF 28
ENDMDL
MODEL 3
REMARK VINA RESULT:     9.849      4.851     13.786
REMARK INTER + INTRA:          23.622
REMARK INTER:                  25.112
REMARK INTRA:                  -1.490
REMARK UNBOUND:                -2.350
REMARK SMILES CCCCCCCCCCCCCCCCCCCCCCCCCCCCCC(=O)[O-]
REMARK SMILES IDX 16 1 17 2 18 3 19 4 20 5 21 6 22 7 23 8 24 9 25 10 26 11
REMARK SMILES IDX 27 12 28 13 29 14 30 15 31 16 32 17 15 18 14 19 13 20 12 21
REMARK SMILES IDX 11 22 10 23 9 24 8 25 7 26 6 27 5 28 4 29 3 30 2 31 1 32
REMARK H PARENT
REMARK Flexibility Score: inf
ROOT
ATOM      1  C   UNL     1     -30.459 -21.063 -29.953  1.00  0.00     0.000 C 
ENDROOT
BRANCH   1   2
ATOM      2  C   UNL     1     -30.842 -20.063 -31.061  1.00  0.00     0.000 C 
BRANCH   2   3
ATOM      3  C   UNL     1     -29.814 -19.970 -32.209  1.00  0.00     0.000 C 
BRANCH   3   4
ATOM      4  C   UNL     1     -30.442 -20.216 -33.593  1.00  0.00     0.000 C 
BRANCH   4   5
ATOM      5  C   UNL     1     -31.972 -20.370 -33.521  1.00  0.00     0.000 C 
BRANCH   5   6
ATOM      6  C   UNL     1     -32.701 -19.884 -34.788  1.00  0.00     0.000 C 
BRANCH   6   7
ATOM      7  C   UNL     1     -33.775 -20.879 -35.260  1.00  0.00     0.000 C 
BRANCH   7   8
ATOM      8  C   UNL     1     -33.172 -22.208 -35.747  1.00  0.00     0.000 C 
BRANCH   8   9
ATOM      9  C   UNL     1     -33.716 -22.635 -37.121  1.00  0.00     0.000 C 
BRANCH   9  10
ATOM     10  C   UNL     1     -32.906 -22.050 -38.287  1.00  0.00     0.000 C 
BRANCH  10  11
ATOM     11  C   UNL     1     -31.622 -22.846 -38.576  1.00  0.00     0.000 C 
BRANCH  11  12
ATOM     12  C   UNL     1     -31.917 -24.310 -38.970  1.00  0.00     0.000 C 
BRANCH  12  13
ATOM     13  C   UNL     1     -31.577 -25.320 -37.858  1.00  0.00     0.006 C 
BRANCH  13  14
ATOM     14  C   UNL     1     -31.257 -26.730 -38.376  1.00  0.00     0.053 C 
BRANCH  14  15
ATOM     15  C   UNL     1     -32.488 -27.581 -38.474  1.00  0.00     0.041 C 
ATOM     16  O   UNL     1     -32.406 -28.775 -38.861  1.00  0.00    -0.550 OA
ATOM     17  O   UNL     1     -33.728 -27.051 -38.138  1.00  0.00    -0.550 OA
ENDBRANCH  14  15
ENDBRANCH  13  14
ENDBRANCH  12  13
ENDBRANCH  11  12
ENDBRANCH  10  11
ENDBRANCH   9  10
ENDBRANCH   8   9
ENDBRANCH   7   8
ENDBRANCH   6   7
ENDBRANCH   5   6
ENDBRANCH   4   5
ENDBRANCH   3   4
ENDBRANCH   2   3
ENDBRANCH   1   2
BRANCH   1  18
ATOM     18  C   UNL     1     -28.957 -21.382 -29.839  1.00  0.00     0.000 C 
BRANCH  18  19
ATOM     19  C   UNL     1     -28.134 -20.374 -29.012  1.00  0.00     0.000 C 
BRANCH  19  20
ATOM     20  C   UNL     1     -26.625 -20.645 -29.067  1.00  0.00     0.000 C 
BRANCH  20  21
ATOM     21  C   UNL     1     -25.987 -20.475 -27.683  1.00  0.00     0.000 C 
BRANCH  21  22
ATOM     22  C   UNL     1     -26.853 -21.124 -26.597  1.00  0.00     0.000 C 
BRANCH  22  23
ATOM     23  C   UNL     1     -26.665 -20.420 -25.247  1.00  0.00     0.000 C 
BRANCH  23  24
ATOM     24  C   UNL     1     -27.515 -21.090 -24.156  1.00  0.00    -0.000 C 
BRANCH  24  25
ATOM     25  C   UNL     1     -26.683 -21.524 -22.936  1.00  0.00    -0.000 C 
BRANCH  25  26
ATOM     26  C   UNL     1     -27.327 -22.625 -22.077  1.00  0.00    -0.000 C 
BRANCH  26  27
ATOM     27  C   UNL     1     -26.288 -23.559 -21.428  1.00  0.00    -0.000 C 
BRANCH  27  28
ATOM     28  C   UNL     1     -25.289 -24.123 -22.455  1.00  0.00    -0.000 C 
BRANCH  28  29
ATOM     29  C   UNL     1     -24.211 -25.024 -21.826  1.00  0.00    -0.000 C 
BRANCH  29  30
ATOM     30  C   UNL     1     -23.722 -26.114 -22.796  1.00  0.00    -0.000 C 
BRANCH  30  31
ATOM     31  C   UNL     1     -22.470 -25.678 -23.576  1.00  0.00    -0.003 C 
ATOM     32  C   UNL     1     -21.200 -26.358 -23.060  1.00  0.00     0.004 C 
ENDBRANCH  30  31
ENDBRANCH  29  30
ENDBRANCH  28  29
ENDBRANCH  27  28
ENDBRANCH  26  27
ENDBRANCH  25  26
ENDBRANCH  24  25
ENDBRANCH  23  24
ENDBRANCH  22  23
ENDBRANCH  21  22
ENDBRANCH  20  21
ENDBRANCH  19  20
ENDBRANCH  18  19
ENDBRANCH   1  18
TORSDOF 28
ENDMDL
MODEL 4
REMARK VINA RESULT:     9.962      2.067      4.391
REMARK INTER + INTRA:          23.919
REMARK INTER:                  24.986
REMARK INTRA:                  -1.068
REMARK UNBOUND:                -2.350
REMARK SMILES CCCCCCCCCCCCCCCCCCCCCCCCCCCCCC(=O)[O-]
REMARK SMILES IDX 16 1 17 2 18 3 19 4 20 5 21 6 22 7 23 8 24 9 25 10 26 11
REMARK SMILES IDX 27 12 28 13 29 14 30 15 31 16 32 17 15 18 14 19 13 20 12 21
REMARK SMILES IDX 11 22 10 23 9 24 8 25 7 26 6 27 5 28 4 29 3 30 2 31 1 32
REMARK H PARENT
REMARK Flexibility Score: inf
ROOT
ATOM      1  C   UNL     1     -30.514 -19.887 -32.840  1.00  0.00     0.000 C 
ENDROOT
BRANCH   1   2
ATOM      2  C   UNL     1     -29.303 -20.080 -31.908  1.00  0.00     0.000 C 
BRANCH   2   3
ATOM      3  C   UNL     1     -29.614 -20.894 -30.633  1.00  0.00     0.000 C 
BRANCH   3   4
ATOM      4  C   UNL     1     -30.314 -22.232 -30.935  1.00  0.00     0.000 C 
BRANCH   4   5
ATOM      5  C   UNL     1     -30.213 -23.222 -29.760  1.00  0.00     0.000 C 
BRANCH   5   6
ATOM      6  C   UNL     1     -29.971 -22.540 -28.400  1.00  0.00     0.000 C 
BRANCH   6   7
ATOM      7  C   UNL     1     -28.513 -22.681 -27.929  1.00  0.00     0.000 C 
BRANCH   7   8
ATOM      8  C   UNL     1     -27.897 -21.336 -27.511  1.00  0.00     0.000 C 
BRANCH   8   9
ATOM      9  C   UNL     1     -26.462 -21.154 -28.034  1.00  0.00     0.000 C 
BRANCH   9  10
ATOM     10  C   UNL     1     -25.544 -20.462 -27.017  1.00  0.00     0.000 C 
BRANCH  10  11
ATOM     11  C   UNL     1     -26.132 -20.450 -25.596  1.00  0.00     0.000 C 
BRANCH  11  12
ATOM     12  C   UNL     1     -25.039 -20.330 -24.512  1.00  0.00     0.000 C 
BRANCH  12  13
ATOM     13  C   UNL     1     -25.133 -21.422 -23.429  1.00  0.00     0.006 C 
BRANCH  13  14
ATOM     14  C   UNL     1     -26.443 -21.393 -22.629  1.00  0.00     0.053 C 
BRANCH  14  15
ATOM     15  C   UNL     1     -26.538 -22.545 -21.675  1.00  0.00     0.041 C 
ATOM     16  O   UNL     1     -25.739 -22.638 -20.708  1.00  0.00    -0.550 OA
ATOM     17  O   UNL     1     -27.513 -23.520 -21.856  1.00  0.00    -0.550 OA
ENDBRANCH  14  15
ENDBRANCH  13  14
ENDBRANCH  12  13
ENDBRANCH  11  12
ENDBRANCH  10  11
ENDBRANCH   9  10
ENDBRANCH   8   9
ENDBRANCH   7   8
ENDBRANCH   6   7
ENDBRANCH   5   6
ENDBRANCH   4   5
ENDBRANCH   3   4
ENDBRANCH   2   3
ENDBRANCH   1   2
BRANCH   1  18
ATOM     18  C   UNL     1     -30.424 -20.604 -34.200  1.00  0.00     0.000 C 
BRANCH  18  19
ATOM     19  C   UNL     1     -31.148 -21.962 -34.274  1.00  0.00     0.000 C 
BRANCH  19  20
ATOM     20  C   UNL     1     -32.615 -21.837 -34.707  1.00  0.00     0.000 C 
BRANCH  20  21
ATOM     21  C   UNL     1     -33.141 -23.170 -35.251  1.00  0.00     0.000 C 
BRANCH  21  22
ATOM     22  C   UNL     1     -33.778 -22.986 -36.634  1.00  0.00     0.000 C 
BRANCH  22  23
ATOM     23  C   UNL     1     -32.980 -21.986 -37.480  1.00  0.00     0.000 C 
BRANCH  23  24
ATOM     24  C   UNL     1     -32.859 -22.471 -38.933  1.00  0.00    -0.000 C 
BRANCH  24  25
ATOM     25  C   UNL     1     -31.806 -23.579 -39.107  1.00  0.00    -0.000 C 
BRANCH  25  26
ATOM     26  C   UNL     1     -32.372 -25.008 -39.125  1.00  0.00    -0.000 C 
BRANCH  26  27
ATOM     27  C   UNL     1     -32.764 -25.513 -37.724  1.00  0.00    -0.000 C 
BRANCH  27  28
ATOM     28  C   UNL     1     -32.986 -27.037 -37.693  1.00  0.00    -0.000 C 
BRANCH  28  29
ATOM     29  C   UNL     1     -32.283 -27.779 -38.845  1.00  0.00    -0.000 C 
BRANCH  29  30
ATOM     30  C   UNL     1     -31.590 -29.068 -38.372  1.00  0.00    -0.000 C 
BRANCH  30  31
ATOM     31  C   UNL     1     -30.162 -29.197 -38.926  1.00  0.00    -0.003 C 
ATOM     32  C   UNL     1     -29.189 -29.769 -37.894  1.00  0.00     0.004 C 
ENDBRANCH  30  31
ENDBRANCH  29  30
ENDBRANCH  28  29
ENDBRANCH  27  28
ENDBRANCH  26  27
ENDBRANCH  25  26
ENDBRANCH  24  25
ENDBRANCH  23  24
ENDBRANCH  22  23
ENDBRANCH  21  22
ENDBRANCH  20  21
ENDBRANCH  19  20
ENDBRANCH  18  19
ENDBRANCH   1  18
TORSDOF 28
ENDMDL
MODEL 5
REMARK VINA RESULT:     9.996      4.582     13.612
REMARK INTER + INTRA:          24.010
REMARK INTER:                  23.015
REMARK INTRA:                   0.995
REMARK UNBOUND:                -2.350
REMARK SMILES CCCCCCCCCCCCCCCCCCCCCCCCCCCCCC(=O)[O-]
REMARK SMILES IDX 16 1 17 2 18 3 19 4 20 5 21 6 22 7 23 8 24 9 25 10 26 11
REMARK SMILES IDX 27 12 28 13 29 14 30 15 31 16 32 17 15 18 14 19 13 20 12 21
REMARK SMILES IDX 11 22 10 23 9 24 8 25 7 26 6 27 5 28 4 29 3 30 2 31 1 32
REMARK H PARENT
REMARK Flexibility Score: inf
ROOT
ATOM      1  C   UNL     1     -30.068 -22.229 -29.469  1.00  0.00     0.000 C 
ENDROOT
BRANCH   1   2
ATOM      2  C   UNL     1     -31.216 -21.212 -29.330  1.00  0.00     0.000 C 
BRANCH   2   3
ATOM      3  C   UNL     1     -31.115 -20.013 -30.298  1.00  0.00     0.000 C 
BRANCH   3   4
ATOM      4  C   UNL     1     -30.069 -20.229 -31.408  1.00  0.00     0.000 C 
BRANCH   4   5
ATOM      5  C   UNL     1     -30.293 -21.547 -32.172  1.00  0.00     0.000 C 
BRANCH   5   6
ATOM      6  C   UNL     1     -31.116 -21.378 -33.463  1.00  0.00     0.000 C 
BRANCH   6   7
ATOM      7  C   UNL     1     -30.965 -22.581 -34.411  1.00  0.00     0.000 C 
BRANCH   7   8
ATOM      8  C   UNL     1     -32.321 -23.169 -34.835  1.00  0.00     0.000 C 
BRANCH   8   9
ATOM      9  C   UNL     1     -32.268 -23.841 -36.218  1.00  0.00     0.000 C 
BRANCH   9  10
ATOM     10  C   UNL     1     -32.415 -22.836 -37.370  1.00  0.00     0.000 C 
BRANCH  10  11
ATOM     11  C   UNL     1     -31.631 -23.253 -38.625  1.00  0.00     0.000 C 
BRANCH  11  12
ATOM     12  C   UNL     1     -31.680 -24.778 -38.866  1.00  0.00     0.000 C 
BRANCH  12  13
ATOM     13  C   UNL     1     -32.277 -25.562 -37.683  1.00  0.00     0.006 C 
BRANCH  13  14
ATOM     14  C   UNL     1     -33.241 -26.682 -38.103  1.00  0.00     0.053 C 
BRANCH  14  15
ATOM     15  C   UNL     1     -32.508 -27.928 -38.500  1.00  0.00     0.041 C 
ATOM     16  O   UNL     1     -33.145 -28.962 -38.829  1.00  0.00    -0.550 OA
ATOM     17  O   UNL     1     -31.119 -27.948 -38.504  1.00  0.00    -0.550 OA
ENDBRANCH  14  15
ENDBRANCH  13  14
ENDBRANCH  12  13
ENDBRANCH  11  12
ENDBRANCH  10  11
ENDBRANCH   9  10
ENDBRANCH   8   9
ENDBRANCH   7   8
ENDBRANCH   6   7
ENDBRANCH   5   6
ENDBRANCH   4   5
ENDBRANCH   3   4
ENDBRANCH   2   3
ENDBRANCH   1   2
BRANCH   1  18
ATOM     18  C   UNL     1     -29.056 -22.250 -28.307  1.00  0.00     0.000 C 
BRANCH  18  19
ATOM     19  C   UNL     1     -27.880 -21.264 -28.446  1.00  0.00     0.000 C 
BRANCH  19  20
ATOM     20  C   UNL     1     -26.992 -21.211 -27.195  1.00  0.00     0.000 C 
BRANCH  20  21
ATOM     21  C   UNL     1     -25.600 -20.666 -27.535  1.00  0.00     0.000 C 
BRANCH  21  22
ATOM     22  C   UNL     1     -24.681 -20.706 -26.309  1.00  0.00     0.000 C 
BRANCH  22  23
ATOM     23  C   UNL     1     -25.440 -20.307 -25.036  1.00  0.00     0.000 C 
BRANCH  23  24
ATOM     24  C   UNL     1     -25.288 -21.380 -23.947  1.00  0.00    -0.000 C 
BRANCH  24  25
ATOM     25  C   UNL     1     -25.336 -20.796 -22.525  1.00  0.00    -0.000 C 
BRANCH  25  26
ATOM     26  C   UNL     1     -26.236 -21.565 -21.543  1.00  0.00    -0.000 C 
BRANCH  26  27
ATOM     27  C   UNL     1     -26.710 -22.918 -22.102  1.00  0.00    -0.000 C 
BRANCH  27  28
ATOM     28  C   UNL     1     -25.869 -24.095 -21.574  1.00  0.00    -0.000 C 
BRANCH  28  29
ATOM     29  C   UNL     1     -25.481 -25.107 -22.668  1.00  0.00    -0.000 C 
BRANCH  29  30
ATOM     30  C   UNL     1     -24.001 -24.992 -23.072  1.00  0.00    -0.000 C 
BRANCH  30  31
ATOM     31  C   UNL     1     -23.174 -26.198 -22.598  1.00  0.00    -0.003 C 
ATOM     32  C   UNL     1     -21.730 -26.144 -23.101  1.00  0.00     0.004 C 
ENDBRANCH  30  31
ENDBRANCH  29  30
ENDBRANCH  28  29
ENDBRANCH  27  28
ENDBRANCH  26  27
ENDBRANCH  25  26
ENDBRANCH  24  25
ENDBRANCH  23  24
ENDBRANCH  22  23
ENDBRANCH  21  22
ENDBRANCH  20  21
ENDBRANCH  19  20
ENDBRANCH  18  19
ENDBRANCH   1  18
TORSDOF 28
ENDMDL
MODEL 6
REMARK VINA RESULT:    10.073      3.192      5.613
REMARK INTER + INTRA:          24.211
REMARK INTER:                  25.205
REMARK INTRA:                  -0.994
REMARK UNBOUND:                -2.350
REMARK SMILES CCCCCCCCCCCCCCCCCCCCCCCCCCCCCC(=O)[O-]
REMARK SMILES IDX 16 1 17 2 18 3 19 4 20 5 21 6 22 7 23 8 24 9 25 10 26 11
REMARK SMILES IDX 27 12 28 13 29 14 30 15 31 16 32 17 15 18 14 19 13 20 12 21
REMARK SMILES IDX 11 22 10 23 9 24 8 25 7 26 6 27 5 28 4 29 3 30 2 31 1 32
REMARK H PARENT
REMARK Flexibility Score: inf
ROOT
ATOM      1  C   UNL     1     -31.555 -23.475 -33.461  1.00  0.00     0.000 C 
ENDROOT
BRANCH   1   2
ATOM      2  C   UNL     1     -30.756 -22.163 -33.578  1.00  0.00     0.000 C 
BRANCH   2   3
ATOM      3  C   UNL     1     -29.225 -22.361 -33.624  1.00  0.00     0.000 C 
BRANCH   3   4
ATOM      4  C   UNL     1     -28.453 -21.029 -33.675  1.00  0.00     0.000 C 
BRANCH   4   5
ATOM      5  C   UNL     1     -29.159 -19.915 -32.880  1.00  0.00     0.000 C 
BRANCH   5   6
ATOM      6  C   UNL     1     -29.388 -20.266 -31.398  1.00  0.00     0.000 C 
BRANCH   6   7
ATOM      7  C   UNL     1     -30.858 -20.088 -30.978  1.00  0.00     0.000 C 
BRANCH   7   8
ATOM      8  C   UNL     1     -31.536 -21.423 -30.629  1.00  0.00     0.000 C 
BRANCH   8   9
ATOM      9  C   UNL     1     -30.997 -22.036 -29.325  1.00  0.00     0.000 C 
BRANCH   9  10
ATOM     10  C   UNL     1     -29.757 -22.913 -29.551  1.00  0.00     0.000 C 
BRANCH  10  11
ATOM     11  C   UNL     1     -29.197 -23.500 -28.244  1.00  0.00     0.000 C 
BRANCH  11  12
ATOM     12  C   UNL     1     -29.018 -22.424 -27.150  1.00  0.00     0.000 C 
BRANCH  12  13
ATOM     13  C   UNL     1     -27.662 -22.514 -26.425  1.00  0.00     0.006 C 
BRANCH  13  14
ATOM     14  C   UNL     1     -27.003 -21.151 -26.168  1.00  0.00     0.053 C 
BRANCH  14  15
ATOM     15  C   UNL     1     -25.907 -20.868 -27.152  1.00  0.00     0.041 C 
ATOM     16  O   UNL     1     -26.037 -21.193 -28.360  1.00  0.00    -0.550 OA
ATOM     17  O   UNL     1     -24.738 -20.246 -26.730  1.00  0.00    -0.550 OA
ENDBRANCH  14  15
ENDBRANCH  13  14
ENDBRANCH  12  13
ENDBRANCH  11  12
ENDBRANCH  10  11
ENDBRANCH   9  10
ENDBRANCH   8   9
ENDBRANCH   7   8
ENDBRANCH   6   7
ENDBRANCH   5   6
ENDBRANCH   4   5
ENDBRANCH   3   4
ENDBRANCH   2   3
ENDBRANCH   1   2
BRANCH   1  18
ATOM     18  C   UNL     1     -32.757 -23.606 -34.414  1.00  0.00     0.000 C 
BRANCH  18  19
ATOM     19  C   UNL     1     -33.722 -22.404 -34.422  1.00  0.00     0.000 C 
BRANCH  19  20
ATOM     20  C   UNL     1     -33.025 -21.078 -34.753  1.00  0.00     0.000 C 
BRANCH  20  21
ATOM     21  C   UNL     1     -34.035 -20.039 -35.255  1.00  0.00     0.000 C 
BRANCH  21  22
ATOM     22  C   UNL     1     -34.045 -19.979 -36.787  1.00  0.00     0.000 C 
BRANCH  22  23
ATOM     23  C   UNL     1     -32.920 -20.837 -37.380  1.00  0.00     0.000 C 
BRANCH  23  24
ATOM     24  C   UNL     1     -33.285 -21.318 -38.794  1.00  0.00    -0.000 C 
BRANCH  24  25
ATOM     25  C   UNL     1     -32.814 -22.756 -39.073  1.00  0.00    -0.000 C 
BRANCH  25  26
ATOM     26  C   UNL     1     -31.328 -23.016 -38.778  1.00  0.00    -0.000 C 
BRANCH  26  27
ATOM     27  C   UNL     1     -31.029 -24.497 -38.480  1.00  0.00    -0.000 C 
BRANCH  27  28
ATOM     28  C   UNL     1     -32.312 -25.344 -38.387  1.00  0.00    -0.000 C 
BRANCH  28  29
ATOM     29  C   UNL     1     -32.043 -26.825 -38.063  1.00  0.00    -0.000 C 
BRANCH  29  30
ATOM     30  C   UNL     1     -33.327 -27.580 -37.674  1.00  0.00    -0.000 C 
BRANCH  30  31
ATOM     31  C   UNL     1     -33.239 -29.080 -37.997  1.00  0.00    -0.003 C 
ATOM     32  C   UNL     1     -32.248 -29.373 -39.125  1.00  0.00     0.004 C 
ENDBRANCH  30  31
ENDBRANCH  29  30
ENDBRANCH  28  29
ENDBRANCH  27  28
ENDBRANCH  26  27
ENDBRANCH  25  26
ENDBRANCH  24  25
ENDBRANCH  23  24
ENDBRANCH  22  23
ENDBRANCH  21  22
ENDBRANCH  20  21
ENDBRANCH  19  20
ENDBRANCH  18  19
ENDBRANCH   1  18
TORSDOF 28
ENDMDL
MODEL 7
REMARK VINA RESULT:    10.294      2.132      3.905
REMARK INTER + INTRA:          24.794
REMARK INTER:                  24.355
REMARK INTRA:                   0.440
REMARK UNBOUND:                -2.350
REMARK SMILES CCCCCCCCCCCCCCCCCCCCCCCCCCCCCC(=O)[O-]
REMARK SMILES IDX 16 1 17 2 18 3 19 4 20 5 21 6 22 7 23 8 24 9 25 10 26 11
REMARK SMILES IDX 27 12 28 13 29 14 30 15 31 16 32 17 15 18 14 19 13 20 12 21
REMARK SMILES IDX 11 22 10 23 9 24 8 25 7 26 6 27 5 28 4 29 3 30 2 31 1 32
REMARK H PARENT
REMARK Flexibility Score: inf
ROOT
ATOM      1  C   UNL     1     -30.370 -22.056 -31.917  1.00  0.00     0.000 C 
ENDROOT
BRANCH   1   2
ATOM      2  C   UNL     1     -29.110 -21.947 -32.796  1.00  0.00     0.000 C 
BRANCH   2   3
ATOM      3  C   UNL     1     -28.649 -20.497 -33.059  1.00  0.00     0.000 C 
BRANCH   3   4
ATOM      4  C   UNL     1     -27.886 -19.888 -31.869  1.00  0.00     0.000 C 
BRANCH   4   5
ATOM      5  C   UNL     1     -28.714 -19.913 -30.571  1.00  0.00     0.000 C 
BRANCH   5   6
ATOM      6  C   UNL     1     -27.856 -19.986 -29.293  1.00  0.00     0.000 C 
BRANCH   6   7
ATOM      7  C   UNL     1     -28.032 -21.322 -28.550  1.00  0.00     0.000 C 
BRANCH   7   8
ATOM      8  C   UNL     1     -26.994 -21.514 -27.432  1.00  0.00     0.000 C 
BRANCH   8   9
ATOM      9  C   UNL     1     -26.857 -20.273 -26.533  1.00  0.00     0.000 C 
BRANCH   9  10
ATOM     10  C   UNL     1     -25.604 -20.319 -25.646  1.00  0.00     0.000 C 
BRANCH  10  11
ATOM     11  C   UNL     1     -25.940 -20.381 -24.147  1.00  0.00     0.000 C 
BRANCH  11  12
ATOM     12  C   UNL     1     -24.886 -21.174 -23.344  1.00  0.00     0.000 C 
BRANCH  12  13
ATOM     13  C   UNL     1     -25.213 -21.273 -21.842  1.00  0.00     0.006 C 
BRANCH  13  14
ATOM     14  C   UNL     1     -26.129 -22.451 -21.481  1.00  0.00     0.053 C 
BRANCH  14  15
ATOM     15  C   UNL     1     -27.215 -22.644 -22.497  1.00  0.00     0.041 C 
ATOM     16  O   UNL     1     -27.254 -23.690 -23.195  1.00  0.00    -0.550 OA
ATOM     17  O   UNL     1     -28.185 -21.664 -22.674  1.00  0.00    -0.550 OA
ENDBRANCH  14  15
ENDBRANCH  13  14
ENDBRANCH  12  13
ENDBRANCH  11  12
ENDBRANCH  10  11
ENDBRANCH   9  10
ENDBRANCH   8   9
ENDBRANCH   7   8
ENDBRANCH   6   7
ENDBRANCH   5   6
ENDBRANCH   4   5
ENDBRANCH   3   4
ENDBRANCH   2   3
ENDBRANCH   1   2
BRANCH   1  18
ATOM     18  C   UNL     1     -31.675 -21.559 -32.566  1.00  0.00     0.000 C 
BRANCH  18  19
ATOM     19  C   UNL     1     -31.531 -21.031 -34.007  1.00  0.00     0.000 C 
BRANCH  19  20
ATOM     20  C   UNL     1     -32.542 -19.927 -34.345  1.00  0.00     0.000 C 
BRANCH  20  21
ATOM     21  C   UNL     1     -33.754 -20.503 -35.088  1.00  0.00     0.000 C 
BRANCH  21  22
ATOM     22  C   UNL     1     -33.537 -21.982 -35.427  1.00  0.00     0.000 C 
BRANCH  22  23
ATOM     23  C   UNL     1     -33.824 -22.257 -36.909  1.00  0.00     0.000 C 
BRANCH  23  24
ATOM     24  C   UNL     1     -33.155 -21.201 -37.803  1.00  0.00    -0.000 C 
BRANCH  24  25
ATOM     25  C   UNL     1     -32.384 -21.820 -38.981  1.00  0.00    -0.000 C 
BRANCH  25  26
ATOM     26  C   UNL     1     -32.539 -23.343 -39.123  1.00  0.00    -0.000 C 
BRANCH  26  27
ATOM     27  C   UNL     1     -31.551 -24.129 -38.241  1.00  0.00    -0.000 C 
BRANCH  27  28
ATOM     28  C   UNL     1     -32.233 -24.739 -37.003  1.00  0.00    -0.000 C 
BRANCH  28  29
ATOM     29  C   UNL     1     -33.294 -25.800 -37.351  1.00  0.00    -0.000 C 
BRANCH  29  30
ATOM     30  C   UNL     1     -32.814 -26.768 -38.446  1.00  0.00    -0.000 C 
BRANCH  30  31
ATOM     31  C   UNL     1     -32.326 -28.105 -37.865  1.00  0.00    -0.003 C 
ATOM     32  C   UNL     1     -31.887 -29.085 -38.956  1.00  0.00     0.004 C 
ENDBRANCH  30  31
ENDBRANCH  29  30
ENDBRANCH  28  29
ENDBRANCH  27  28
ENDBRANCH  26  27
ENDBRANCH  25  26
ENDBRANCH  24  25
ENDBRANCH  23  24
ENDBRANCH  22  23
ENDBRANCH  21  22
ENDBRANCH  20  21
ENDBRANCH  19  20
ENDBRANCH  18  19
ENDBRANCH   1  18
TORSDOF 28
ENDMDL
MODEL 8
REMARK VINA RESULT:    10.516      5.594     13.008
REMARK INTER + INTRA:          25.381
REMARK INTER:                  24.511
REMARK INTRA:                   0.869
REMARK UNBOUND:                -2.350
REMARK SMILES CCCCCCCCCCCCCCCCCCCCCCCCCCCCCC(=O)[O-]
REMARK SMILES IDX 16 1 17 2 18 3 19 4 20 5 21 6 22 7 23 8 24 9 25 10 26 11
REMARK SMILES IDX 27 12 28 13 29 14 30 15 31 16 32 17 15 18 14 19 13 20 12 21
REMARK SMILES IDX 11 22 10 23 9 24 8 25 7 26 6 27 5 28 4 29 3 30 2 31 1 32
REMARK H PARENT
REMARK Flexibility Score: inf
ROOT
ATOM      1  C   UNL     1     -31.079 -21.110 -31.899  1.00  0.00     0.000 C 
ENDROOT
BRANCH   1   2
ATOM      2  C   UNL     1     -30.635 -20.395 -33.189  1.00  0.00     0.000 C 
BRANCH   2   3
ATOM      3  C   UNL     1     -29.659 -21.215 -34.060  1.00  0.00     0.000 C 
BRANCH   3   4
ATOM      4  C   UNL     1     -30.321 -22.454 -34.692  1.00  0.00     0.000 C 
BRANCH   4   5
ATOM      5  C   UNL     1     -31.847 -22.296 -34.825  1.00  0.00     0.000 C 
BRANCH   5   6
ATOM      6  C   UNL     1     -32.587 -23.629 -35.046  1.00  0.00     0.000 C 
BRANCH   6   7
ATOM      7  C   UNL     1     -33.431 -23.619 -36.332  1.00  0.00     0.000 C 
BRANCH   7   8
ATOM      8  C   UNL     1     -33.664 -22.198 -36.872  1.00  0.00     0.000 C 
BRANCH   8   9
ATOM      9  C   UNL     1     -32.638 -21.799 -37.946  1.00  0.00     0.000 C 
BRANCH   9  10
ATOM     10  C   UNL     1     -32.264 -22.965 -38.872  1.00  0.00     0.000 C 
BRANCH  10  11
ATOM     11  C   UNL     1     -32.516 -24.339 -38.228  1.00  0.00     0.000 C 
BRANCH  11  12
ATOM     12  C   UNL     1     -31.267 -25.246 -38.278  1.00  0.00     0.000 C 
BRANCH  12  13
ATOM     13  C   UNL     1     -31.502 -26.566 -39.036  1.00  0.00     0.006 C 
BRANCH  13  14
ATOM     14  C   UNL     1     -32.900 -27.164 -38.824  1.00  0.00     0.053 C 
BRANCH  14  15
ATOM     15  C   UNL     1     -32.880 -28.662 -38.878  1.00  0.00     0.041 C 
ATOM     16  O   UNL     1     -33.937 -29.319 -38.699  1.00  0.00    -0.550 OA
ATOM     17  O   UNL     1     -31.688 -29.333 -39.125  1.00  0.00    -0.550 OA
ENDBRANCH  14  15
ENDBRANCH  13  14
ENDBRANCH  12  13
ENDBRANCH  11  12
ENDBRANCH  10  11
ENDBRANCH   9  10
ENDBRANCH   8   9
ENDBRANCH   7   8
ENDBRANCH   6   7
ENDBRANCH   5   6
ENDBRANCH   4   5
ENDBRANCH   3   4
ENDBRANCH   2   3
ENDBRANCH   1   2
BRANCH   1  18
ATOM     18  C   UNL     1     -31.334 -20.194 -30.687  1.00  0.00     0.000 C 
BRANCH  18  19
ATOM     19  C   UNL     1     -30.638 -20.626 -29.381  1.00  0.00     0.000 C 
BRANCH  19  20
ATOM     20  C   UNL     1     -30.362 -22.134 -29.320  1.00  0.00     0.000 C 
BRANCH  20  21
ATOM     21  C   UNL     1     -29.788 -22.530 -27.954  1.00  0.00     0.000 C 
BRANCH  21  22
ATOM     22  C   UNL     1     -28.276 -22.768 -28.042  1.00  0.00     0.000 C 
BRANCH  22  23
ATOM     23  C   UNL     1     -27.495 -21.501 -27.673  1.00  0.00     0.000 C 
BRANCH  23  24
ATOM     24  C   UNL     1     -26.036 -21.598 -28.146  1.00  0.00    -0.000 C 
BRANCH  24  25
ATOM     25  C   UNL     1     -25.066 -20.804 -27.254  1.00  0.00    -0.000 C 
BRANCH  25  26
ATOM     26  C   UNL     1     -23.751 -20.395 -27.937  1.00  0.00    -0.000 C 
BRANCH  26  27
ATOM     27  C   UNL     1     -22.593 -21.362 -27.629  1.00  0.00    -0.000 C 
BRANCH  27  28
ATOM     28  C   UNL     1     -21.225 -20.782 -28.034  1.00  0.00    -0.000 C 
BRANCH  28  29
ATOM     29  C   UNL     1     -20.513 -21.601 -29.127  1.00  0.00    -0.000 C 
BRANCH  29  30
ATOM     30  C   UNL     1     -21.455 -21.967 -30.288  1.00  0.00    -0.000 C 
BRANCH  30  31
ATOM     31  C   UNL     1     -20.773 -21.815 -31.658  1.00  0.00    -0.003 C 
ATOM     32  C   UNL     1     -21.024 -20.441 -32.280  1.00  0.00     0.004 C 
ENDBRANCH  30  31
ENDBRANCH  29  30
ENDBRANCH  28  29
ENDBRANCH  27  28
ENDBRANCH  26  27
ENDBRANCH  25  26
ENDBRANCH  24  25
ENDBRANCH  23  24
ENDBRANCH  22  23
ENDBRANCH  21  22
ENDBRANCH  20  21
ENDBRANCH  19  20
ENDBRANCH  18  19
ENDBRANCH   1  18
TORSDOF 28
ENDMDL
MODEL 9
REMARK VINA RESULT:    10.843      4.450     13.464
REMARK INTER + INTRA:          26.243
REMARK INTER:                  26.757
REMARK INTRA:                  -0.514
REMARK UNBOUND:                -2.350
REMARK SMILES CCCCCCCCCCCCCCCCCCCCCCCCCCCCCC(=O)[O-]
REMARK SMILES IDX 16 1 17 2 18 3 19 4 20 5 21 6 22 7 23 8 24 9 25 10 26 11
REMARK SMILES IDX 27 12 28 13 29 14 30 15 31 16 32 17 15 18 14 19 13 20 12 21
REMARK SMILES IDX 11 22 10 23 9 24 8 25 7 26 6 27 5 28 4 29 3 30 2 31 1 32
REMARK H PARENT
REMARK Flexibility Score: inf
ROOT
ATOM      1  C   UNL     1     -29.815 -23.258 -29.252  1.00  0.00     0.000 C 
ENDROOT
BRANCH   1   2
ATOM      2  C   UNL     1     -30.113 -22.552 -30.588  1.00  0.00     0.000 C 
BRANCH   2   3
ATOM      3  C   UNL     1     -30.297 -21.024 -30.465  1.00  0.00     0.000 C 
BRANCH   3   4
ATOM      4  C   UNL     1     -30.126 -20.292 -31.809  1.00  0.00     0.000 C 
BRANCH   4   5
ATOM      5  C   UNL     1     -29.843 -21.264 -32.970  1.00  0.00     0.000 C 
BRANCH   5   6
ATOM      6  C   UNL     1     -31.109 -21.692 -33.737  1.00  0.00     0.000 C 
BRANCH   6   7
ATOM      7  C   UNL     1     -32.329 -20.828 -33.374  1.00  0.00     0.000 C 
BRANCH   7   8
ATOM      8  C   UNL     1     -32.819 -19.975 -34.556  1.00  0.00     0.000 C 
BRANCH   8   9
ATOM      9  C   UNL     1     -33.314 -20.829 -35.736  1.00  0.00     0.000 C 
BRANCH   9  10
ATOM     10  C   UNL     1     -33.988 -19.991 -36.832  1.00  0.00     0.000 C 
BRANCH  10  11
ATOM     11  C   UNL     1     -34.125 -20.751 -38.162  1.00  0.00     0.000 C 
BRANCH  11  12
ATOM     12  C   UNL     1     -33.577 -22.192 -38.070  1.00  0.00     0.000 C 
BRANCH  12  13
ATOM     13  C   UNL     1     -32.367 -22.443 -38.990  1.00  0.00     0.006 C 
BRANCH  13  14
ATOM     14  C   UNL     1     -31.328 -23.408 -38.400  1.00  0.00     0.053 C 
BRANCH  14  15
ATOM     15  C   UNL     1     -31.942 -24.719 -38.012  1.00  0.00     0.041 C 
ATOM     16  O   UNL     1     -31.859 -25.712 -38.780  1.00  0.00    -0.550 OA
ATOM     17  O   UNL     1     -32.609 -24.844 -36.799  1.00  0.00    -0.550 OA
ENDBRANCH  14  15
ENDBRANCH  13  14
ENDBRANCH  12  13
ENDBRANCH  11  12
ENDBRANCH  10  11
ENDBRANCH   9  10
ENDBRANCH   8   9
ENDBRANCH   7   8
ENDBRANCH   6   7
ENDBRANCH   5   6
ENDBRANCH   4   5
ENDBRANCH   3   4
ENDBRANCH   2   3
ENDBRANCH   1   2
BRANCH   1  18
ATOM     18  C   UNL     1     -29.374 -22.336 -28.099  1.00  0.00     0.000 C 
BRANCH  18  19
ATOM     19  C   UNL     1     -28.731 -21.005 -28.534  1.00  0.00     0.000 C 
BRANCH  19  20
ATOM     20  C   UNL     1     -27.223 -20.949 -28.258  1.00  0.00     0.000 C 
BRANCH  20  21
ATOM     21  C   UNL     1     -26.874 -21.698 -26.966  1.00  0.00     0.000 C 
BRANCH  21  22
ATOM     22  C   UNL     1     -26.355 -20.732 -25.895  1.00  0.00     0.000 C 
BRANCH  22  23
ATOM     23  C   UNL     1     -27.320 -20.657 -24.704  1.00  0.00     0.000 C 
BRANCH  23  24
ATOM     24  C   UNL     1     -27.736 -22.064 -24.246  1.00  0.00    -0.000 C 
BRANCH  24  25
ATOM     25  C   UNL     1     -28.102 -22.120 -22.753  1.00  0.00    -0.000 C 
BRANCH  25  26
ATOM     26  C   UNL     1     -26.913 -21.958 -21.792  1.00  0.00    -0.000 C 
BRANCH  26  27
ATOM     27  C   UNL     1     -26.254 -23.301 -21.426  1.00  0.00    -0.000 C 
BRANCH  27  28
ATOM     28  C   UNL     1     -25.073 -23.643 -22.354  1.00  0.00    -0.000 C 
BRANCH  28  29
ATOM     29  C   UNL     1     -25.067 -25.111 -22.817  1.00  0.00    -0.000 C 
BRANCH  29  30
ATOM     30  C   UNL     1     -23.717 -25.524 -23.430  1.00  0.00    -0.000 C 
BRANCH  30  31
ATOM     31  C   UNL     1     -22.802 -26.216 -22.406  1.00  0.00    -0.003 C 
ATOM     32  C   UNL     1     -21.372 -26.377 -22.924  1.00  0.00     0.004 C 
ENDBRANCH  30  31
ENDBRANCH  29  30
ENDBRANCH  28  29
ENDBRANCH  27  28
ENDBRANCH  26  27
ENDBRANCH  25  26
ENDBRANCH  24  25
ENDBRANCH  23  24
ENDBRANCH  22  23
ENDBRANCH  21  22
ENDBRANCH  20  21
ENDBRANCH  19  20
ENDBRANCH  18  19
ENDBRANCH   1  18
TORSDOF 28
ENDMDL
