MODEL 1
REMARK VINA RESULT:    -0.433      0.000      0.000
REMARK INTER + INTRA:          -2.151
REMARK INTER:                  -0.989
REMARK INTRA:                  -1.162
REMARK UNBOUND:                -1.162
REMARK SMILES CCCCCCCCCCCCCCCCCCCCCCCC(=O)[O-]
REMARK SMILES IDX 13 1 14 2 15 3 16 4 17 5 18 6 19 7 20 8 21 9 22 10 23 11
REMARK SMILES IDX 24 12 25 13 26 14 12 15 11 16 10 17 9 18 8 19 7 20 6 21 5 22
REMARK SMILES IDX 4 23 3 24 2 25 1 26
REMARK H PARENT
REMARK Flexibility Score: inf
ROOT
ATOM      1  C   UNL     1       5.795  -5.406  -9.813  1.00  0.00     0.000 C 
ENDROOT
BRANCH   1   2
ATOM      2  C   UNL     1       4.456  -4.658  -9.944  1.00  0.00     0.000 C 
BRANCH   2   3
ATOM      3  C   UNL     1       4.041  -3.844  -8.703  1.00  0.00     0.000 C 
BRANCH   3   4
ATOM      4  C   UNL     1       4.751  -2.478  -8.582  1.00  0.00     0.000 C 
BRANCH   4   5
ATOM      5  C   UNL     1       4.454  -1.522  -9.752  1.00  0.00     0.000 C 
BRANCH   5   6
ATOM      6  C   UNL     1       5.610  -0.539 -10.014  1.00  0.00     0.000 C 
BRANCH   6   7
ATOM      7  C   UNL     1       6.971  -1.247 -10.113  1.00  0.00     0.000 C 
BRANCH   7   8
ATOM      8  C   UNL     1       8.154  -0.263 -10.049  1.00  0.00     0.000 C 
BRANCH   8   9
ATOM      9  C   UNL     1       8.922  -0.361  -8.722  1.00  0.00     0.000 C 
BRANCH   9  10
ATOM     10  C   UNL     1       9.125  -1.817  -8.267  1.00  0.00     0.006 C 
BRANCH  10  11
ATOM     11  C   UNL     1       9.118  -2.799  -9.446  1.00  0.00     0.053 C 
BRANCH  11  12
ATOM     12  C   UNL     1       9.019  -4.221  -8.983  1.00  0.00     0.041 C 
ATOM     13  O   UNL     1       9.125  -5.164  -9.812  1.00  0.00    -0.550 OA
ATOM     14  O   UNL     1       8.842  -4.505  -7.635  1.00  0.00    -0.550 OA
ENDBRANCH  11  12
ENDBRANCH  10  11
ENDBRANCH   9  10
ENDBRANCH   8   9
ENDBRANCH   7   8
ENDBRANCH   6   7
ENDBRANCH   5   6
ENDBRANCH   4   5
ENDBRANCH   3   4
ENDBRANCH   2   3
ENDBRANCH   1   2
BRANCH   1  15
ATOM     15  C   UNL     1       5.645  -6.927  -9.984  1.00  0.00     0.000 C 
BRANCH  15  16
ATOM     16  C   UNL     1       6.995  -7.664  -9.971  1.00  0.00     0.000 C 
BRANCH  16  17
ATOM     17  C   UNL     1       7.067  -8.873  -9.020  1.00  0.00     0.000 C 
BRANCH  17  18
ATOM     18  C   UNL     1       8.368  -8.909  -8.196  1.00  0.00    -0.000 C 
BRANCH  18  19
ATOM     19  C   UNL     1       8.768  -7.528  -7.657  1.00  0.00    -0.000 C 
BRANCH  19  20
ATOM     20  C   UNL     1       8.495  -7.379  -6.150  1.00  0.00    -0.000 C 
BRANCH  20  21
ATOM     21  C   UNL     1       8.138  -8.718  -5.485  1.00  0.00    -0.000 C 
BRANCH  21  22
ATOM     22  C   UNL     1       7.408  -8.534  -4.143  1.00  0.00    -0.000 C 
BRANCH  22  23
ATOM     23  C   UNL     1       6.109  -7.720  -4.280  1.00  0.00    -0.000 C 
BRANCH  23  24
ATOM     24  C   UNL     1       5.530  -7.650  -5.708  1.00  0.00    -0.000 C 
BRANCH  24  25
ATOM     25  C   UNL     1       5.010  -6.265  -6.133  1.00  0.00    -0.003 C 
ATOM     26  C   UNL     1       6.058  -5.163  -5.980  1.00  0.00     0.004 C 
ENDBRANCH  24  25
ENDBRANCH  23  24
ENDBRANCH  22  23
ENDBRANCH  21  22
ENDBRANCH  20  21
ENDBRANCH  19  20
ENDBRANCH  18  19
ENDBRANCH  17  18
ENDBRANCH  16  17
ENDBRANCH  15  16
ENDBRANCH   1  15
TORSDOF 22
ENDMDL
MODEL 2
REMARK VINA RESULT:    -0.422      1.852      4.584
REMARK INTER + INTRA:          -2.126
REMARK INTER:                  -1.705
REMARK INTRA:                  -0.422
REMARK UNBOUND:                -1.162
REMARK SMILES CCCCCCCCCCCCCCCCCCCCCCCC(=O)[O-]
REMARK SMILES IDX 13 1 14 2 15 3 16 4 17 5 18 6 19 7 20 8 21 9 22 10 23 11
REMARK SMILES IDX 24 12 25 13 26 14 12 15 11 16 10 17 9 18 8 19 7 20 6 21 5 22
REMARK SMILES IDX 4 23 3 24 2 25 1 26
REMARK H PARENT
REMARK Flexibility Score: inf
ROOT
ATOM      1  C   UNL     1       5.280  -4.434  -6.423  1.00  0.00     0.000 C 
ENDROOT
BRANCH   1   2
ATOM      2  C   UNL     1       6.789  -4.526  -6.710  1.00  0.00     0.000 C 
BRANCH   2   3
ATOM      3  C   UNL     1       7.661  -4.896  -5.494  1.00  0.00     0.000 C 
BRANCH   3   4
ATOM      4  C   UNL     1       8.880  -5.778  -5.843  1.00  0.00     0.000 C 
BRANCH   4   5
ATOM      5  C   UNL     1       9.124  -5.924  -7.355  1.00  0.00     0.000 C 
BRANCH   5   6
ATOM      6  C   UNL     1       8.781  -7.334  -7.871  1.00  0.00     0.000 C 
BRANCH   6   7
ATOM      7  C   UNL     1       8.196  -7.311  -9.293  1.00  0.00     0.000 C 
BRANCH   7   8
ATOM      8  C   UNL     1       8.713  -6.123 -10.125  1.00  0.00     0.000 C 
BRANCH   8   9
ATOM      9  C   UNL     1       9.125  -4.931  -9.247  1.00  0.00     0.000 C 
BRANCH   9  10
ATOM     10  C   UNL     1       9.008  -3.587  -9.989  1.00  0.00     0.006 C 
BRANCH  10  11
ATOM     11  C   UNL     1       7.551  -3.125 -10.125  1.00  0.00     0.053 C 
BRANCH  11  12
ATOM     12  C   UNL     1       7.348  -1.757  -9.550  1.00  0.00     0.041 C 
ATOM     13  O   UNL     1       6.382  -1.046  -9.937  1.00  0.00    -0.550 OA
ATOM     14  O   UNL     1       8.204  -1.280  -8.565  1.00  0.00    -0.550 OA
ENDBRANCH  11  12
ENDBRANCH  10  11
ENDBRANCH   9  10
ENDBRANCH   8   9
ENDBRANCH   7   8
ENDBRANCH   6   7
ENDBRANCH   5   6
ENDBRANCH   4   5
ENDBRANCH   3   4
ENDBRANCH   2   3
ENDBRANCH   1   2
BRANCH   1  15
ATOM     15  C   UNL     1       4.426  -4.515  -7.700  1.00  0.00     0.000 C 
BRANCH  15  16
ATOM     16  C   UNL     1       5.100  -5.333  -8.816  1.00  0.00     0.000 C 
BRANCH  16  17
ATOM     17  C   UNL     1       4.295  -5.433 -10.125  1.00  0.00     0.000 C 
BRANCH  17  18
ATOM     18  C   UNL     1       3.187  -6.501 -10.066  1.00  0.00    -0.000 C 
BRANCH  18  19
ATOM     19  C   UNL     1       3.736  -7.913  -9.815  1.00  0.00    -0.000 C 
BRANCH  19  20
ATOM     20  C   UNL     1       4.365  -8.064  -8.419  1.00  0.00    -0.000 C 
BRANCH  20  21
ATOM     21  C   UNL     1       5.492  -9.110  -8.394  1.00  0.00    -0.000 C 
BRANCH  21  22
ATOM     22  C   UNL     1       6.300  -9.076  -7.085  1.00  0.00    -0.000 C 
BRANCH  22  23
ATOM     23  C   UNL     1       5.903  -7.902  -6.172  1.00  0.00    -0.000 C 
BRANCH  23  24
ATOM     24  C   UNL     1       6.049  -8.171  -4.661  1.00  0.00    -0.000 C 
BRANCH  24  25
ATOM     25  C   UNL     1       7.498  -8.228  -4.146  1.00  0.00    -0.003 C 
ATOM     26  C   UNL     1       7.589  -8.249  -2.622  1.00  0.00     0.004 C 
ENDBRANCH  24  25
ENDBRANCH  23  24
ENDBRANCH  22  23
ENDBRANCH  21  22
ENDBRANCH  20  21
ENDBRANCH  19  20
ENDBRANCH  18  19
ENDBRANCH  17  18
ENDBRANCH  16  17
ENDBRANCH  15  16
ENDBRANCH   1  15
TORSDOF 22
ENDMDL
MODEL 3
REMARK VINA RESULT:    -0.235     16.746     18.976
REMARK INTER + INTRA:          -1.699
REMARK INTER:                  -0.122
REMARK INTRA:                  -1.577
REMARK UNBOUND:                -1.162
REMARK SMILES CCCCCCCCCCCCCCCCCCCCCCCC(=O)[O-]
REMARK SMILES IDX 13 1 14 2 15 3 16 4 17 5 18 6 19 7 20 8 21 9 22 10 23 11
REMARK SMILES IDX 24 12 25 13 26 14 12 15 11 16 10 17 9 18 8 19 7 20 6 21 5 22
REMARK SMILES IDX 4 23 3 24 2 25 1 26
REMARK H PARENT
REMARK Flexibility Score: inf
ROOT
ATOM      1  C   UNL     1       4.644   4.278   7.725  1.00  0.00     0.000 C 
ENDROOT
BRANCH   1   2
ATOM      2  C   UNL     1       5.506   4.737   8.913  1.00  0.00     0.000 C 
BRANCH   2   3
ATOM      3  C   UNL     1       6.188   6.108   8.731  1.00  0.00     0.000 C 
BRANCH   3   4
ATOM      4  C   UNL     1       6.487   6.840  10.058  1.00  0.00     0.000 C 
BRANCH   4   5
ATOM      5  C   UNL     1       7.812   7.623  10.046  1.00  0.00     0.000 C 
BRANCH   5   6
ATOM      6  C   UNL     1       7.593   9.147  10.090  1.00  0.00     0.000 C 
BRANCH   6   7
ATOM      7  C   UNL     1       6.120   9.534   9.875  1.00  0.00     0.000 C 
BRANCH   7   8
ATOM      8  C   UNL     1       5.930  10.502   8.693  1.00  0.00     0.000 C 
BRANCH   8   9
ATOM      9  C   UNL     1       7.268  11.019   8.142  1.00  0.00     0.000 C 
BRANCH   9  10
ATOM     10  C   UNL     1       7.557  10.501   6.721  1.00  0.00     0.006 C 
BRANCH  10  11
ATOM     11  C   UNL     1       6.845   9.172   6.434  1.00  0.00     0.053 C 
BRANCH  11  12
ATOM     12  C   UNL     1       6.791   8.878   4.966  1.00  0.00     0.041 C 
ATOM     13  O   UNL     1       6.357   7.767   4.559  1.00  0.00    -0.550 OA
ATOM     14  O   UNL     1       7.189   9.842   4.046  1.00  0.00    -0.550 OA
ENDBRANCH  11  12
ENDBRANCH  10  11
ENDBRANCH   9  10
ENDBRANCH   8   9
ENDBRANCH   7   8
ENDBRANCH   6   7
ENDBRANCH   5   6
ENDBRANCH   4   5
ENDBRANCH   3   4
ENDBRANCH   2   3
ENDBRANCH   1   2
BRANCH   1  15
ATOM     15  C   UNL     1       5.456   4.115   6.429  1.00  0.00     0.000 C 
BRANCH  15  16
ATOM     16  C   UNL     1       4.594   3.664   5.237  1.00  0.00     0.000 C 
BRANCH  16  17
ATOM     17  C   UNL     1       3.932   4.806   4.444  1.00  0.00     0.000 C 
BRANCH  17  18
ATOM     18  C   UNL     1       3.545   4.393   3.012  1.00  0.00    -0.000 C 
BRANCH  18  19
ATOM     19  C   UNL     1       4.108   5.345   1.946  1.00  0.00    -0.000 C 
BRANCH  19  20
ATOM     20  C   UNL     1       3.104   5.626   0.814  1.00  0.00    -0.000 C 
BRANCH  20  21
ATOM     21  C   UNL     1       1.666   5.237   1.196  1.00  0.00    -0.000 C 
BRANCH  21  22
ATOM     22  C   UNL     1       0.717   5.222  -0.015  1.00  0.00    -0.000 C 
BRANCH  22  23
ATOM     23  C   UNL     1      -0.055   3.897  -0.148  1.00  0.00    -0.000 C 
BRANCH  23  24
ATOM     24  C   UNL     1      -1.589   4.040  -0.219  1.00  0.00    -0.000 C 
BRANCH  24  25
ATOM     25  C   UNL     1      -2.189   5.100   0.722  1.00  0.00    -0.003 C 
ATOM     26  C   UNL     1      -3.639   4.806   1.103  1.00  0.00     0.004 C 
ENDBRANCH  24  25
ENDBRANCH  23  24
ENDBRANCH  22  23
ENDBRANCH  21  22
ENDBRANCH  20  21
ENDBRANCH  19  20
ENDBRANCH  18  19
ENDBRANCH  17  18
ENDBRANCH  16  17
ENDBRANCH  15  16
ENDBRANCH   1  15
TORSDOF 22
ENDMDL
MODEL 4
REMARK VINA RESULT:     0.218     16.872     19.258
REMARK INTER + INTRA:          -0.664
REMARK INTER:                   0.917
REMARK INTRA:                  -1.581
REMARK UNBOUND:                -1.162
REMARK SMILES CCCCCCCCCCCCCCCCCCCCCCCC(=O)[O-]
REMARK SMILES IDX 13 1 14 2 15 3 16 4 17 5 18 6 19 7 20 8 21 9 22 10 23 11
REMARK SMILES IDX 24 12 25 13 26 14 12 15 11 16 10 17 9 18 8 19 7 20 6 21 5 22
REMARK SMILES IDX 4 23 3 24 2 25 1 26
REMARK H PARENT
REMARK Flexibility Score: inf
ROOT
ATOM      1  C   UNL     1       7.180   8.649   4.506  1.00  0.00     0.000 C 
ENDROOT
BRANCH   1   2
ATOM      2  C   UNL     1       7.291  10.128   4.917  1.00  0.00     0.000 C 
BRANCH   2   3
ATOM      3  C   UNL     1       5.960  10.792   5.326  1.00  0.00     0.000 C 
BRANCH   3   4
ATOM      4  C   UNL     1       5.862  11.124   6.831  1.00  0.00     0.000 C 
BRANCH   4   5
ATOM      5  C   UNL     1       7.091  10.676   7.643  1.00  0.00     0.000 C 
BRANCH   5   6
ATOM      6  C   UNL     1       6.880  10.834   9.161  1.00  0.00     0.000 C 
BRANCH   6   7
ATOM      7  C   UNL     1       6.882   9.484   9.896  1.00  0.00     0.000 C 
BRANCH   7   8
ATOM      8  C   UNL     1       8.098   8.613   9.529  1.00  0.00     0.000 C 
BRANCH   8   9
ATOM      9  C   UNL     1       7.995   7.194  10.109  1.00  0.00     0.000 C 
BRANCH   9  10
ATOM     10  C   UNL     1       6.548   6.669  10.121  1.00  0.00     0.006 C 
BRANCH  10  11
ATOM     11  C   UNL     1       6.086   6.210   8.731  1.00  0.00     0.053 C 
BRANCH  11  12
ATOM     12  C   UNL     1       5.414   4.872   8.784  1.00  0.00     0.041 C 
ATOM     13  O   UNL     1       5.041   4.309   7.720  1.00  0.00    -0.550 OA
ATOM     14  O   UNL     1       5.229   4.232  10.004  1.00  0.00    -0.550 OA
ENDBRANCH  11  12
ENDBRANCH  10  11
ENDBRANCH   9  10
ENDBRANCH   8   9
ENDBRANCH   7   8
ENDBRANCH   6   7
ENDBRANCH   5   6
ENDBRANCH   4   5
ENDBRANCH   3   4
ENDBRANCH   2   3
ENDBRANCH   1   2
BRANCH   1  15
ATOM     15  C   UNL     1       6.181   7.865   5.374  1.00  0.00     0.000 C 
BRANCH  15  16
ATOM     16  C   UNL     1       5.028   7.258   4.555  1.00  0.00     0.000 C 
BRANCH  16  17
ATOM     17  C   UNL     1       5.465   6.381   3.367  1.00  0.00     0.000 C 
BRANCH  17  18
ATOM     18  C   UNL     1       4.316   5.530   2.797  1.00  0.00    -0.000 C 
BRANCH  18  19
ATOM     19  C   UNL     1       4.276   5.537   1.262  1.00  0.00    -0.000 C 
BRANCH  19  20
ATOM     20  C   UNL     1       2.922   6.011   0.707  1.00  0.00    -0.000 C 
BRANCH  20  21
ATOM     21  C   UNL     1       1.769   5.070   1.093  1.00  0.00    -0.000 C 
BRANCH  21  22
ATOM     22  C   UNL     1       0.515   5.287   0.227  1.00  0.00    -0.000 C 
BRANCH  22  23
ATOM     23  C   UNL     1       0.000   3.983  -0.409  1.00  0.00    -0.000 C 
BRANCH  23  24
ATOM     24  C   UNL     1      -1.522   3.759  -0.298  1.00  0.00    -0.000 C 
BRANCH  24  25
ATOM     25  C   UNL     1      -2.331   4.994   0.139  1.00  0.00    -0.003 C 
ATOM     26  C   UNL     1      -3.501   4.644   1.056  1.00  0.00     0.004 C 
ENDBRANCH  24  25
ENDBRANCH  23  24
ENDBRANCH  22  23
ENDBRANCH  21  22
ENDBRANCH  20  21
ENDBRANCH  19  20
ENDBRANCH  18  19
ENDBRANCH  17  18
ENDBRANCH  16  17
ENDBRANCH  15  16
ENDBRANCH   1  15
TORSDOF 22
ENDMDL
MODEL 5
REMARK VINA RESULT:     0.306     22.002     25.053
REMARK INTER + INTRA:          -0.463
REMARK INTER:                   0.885
REMARK INTRA:                  -1.347
REMARK UNBOUND:                -1.162
REMARK SMILES CCCCCCCCCCCCCCCCCCCCCCCC(=O)[O-]
REMARK SMILES IDX 13 1 14 2 15 3 16 4 17 5 18 6 19 7 20 8 21 9 22 10 23 11
REMARK SMILES IDX 24 12 25 13 26 14 12 15 11 16 10 17 9 18 8 19 7 20 6 21 5 22
REMARK SMILES IDX 4 23 3 24 2 25 1 26
REMARK H PARENT
REMARK Flexibility Score: inf
ROOT
ATOM      1  C   UNL     1      -7.524  -0.815   8.159  1.00  0.00     0.000 C 
ENDROOT
BRANCH   1   2
ATOM      2  C   UNL     1      -7.570  -2.083   7.288  1.00  0.00     0.000 C 
BRANCH   2   3
ATOM      3  C   UNL     1      -8.976  -2.680   7.081  1.00  0.00     0.000 C 
BRANCH   3   4
ATOM      4  C   UNL     1      -9.310  -3.001   5.607  1.00  0.00     0.000 C 
BRANCH   4   5
ATOM      5  C   UNL     1      -9.996  -4.365   5.412  1.00  0.00     0.000 C 
BRANCH   5   6
ATOM      6  C   UNL     1     -10.353  -5.039   6.750  1.00  0.00     0.000 C 
BRANCH   6   7
ATOM      7  C   UNL     1     -10.072  -6.550   6.737  1.00  0.00     0.000 C 
BRANCH   7   8
ATOM      8  C   UNL     1      -9.539  -7.062   8.088  1.00  0.00     0.000 C 
BRANCH   8   9
ATOM      9  C   UNL     1      -8.880  -5.948   8.916  1.00  0.00     0.000 C 
BRANCH   9  10
ATOM     10  C   UNL     1      -7.349  -5.927   8.759  1.00  0.00     0.006 C 
BRANCH  10  11
ATOM     11  C   UNL     1      -6.652  -5.280   9.964  1.00  0.00     0.053 C 
BRANCH  11  12
ATOM     12  C   UNL     1      -5.243  -4.886   9.643  1.00  0.00     0.041 C 
ATOM     13  O   UNL     1      -4.301  -5.704   9.822  1.00  0.00    -0.550 OA
ATOM     14  O   UNL     1      -4.972  -3.628   9.118  1.00  0.00    -0.550 OA
ENDBRANCH  11  12
ENDBRANCH  10  11
ENDBRANCH   9  10
ENDBRANCH   8   9
ENDBRANCH   7   8
ENDBRANCH   6   7
ENDBRANCH   5   6
ENDBRANCH   4   5
ENDBRANCH   3   4
ENDBRANCH   2   3
ENDBRANCH   1   2
BRANCH   1  15
ATOM     15  C   UNL     1      -8.333  -0.959   9.460  1.00  0.00     0.000 C 
BRANCH  15  16
ATOM     16  C   UNL     1      -9.818  -0.600   9.282  1.00  0.00     0.000 C 
BRANCH  16  17
ATOM     17  C   UNL     1     -10.304   0.593  10.125  1.00  0.00     0.000 C 
BRANCH  17  18
ATOM     18  C   UNL     1     -10.586   1.849   9.278  1.00  0.00    -0.000 C 
BRANCH  18  19
ATOM     19  C   UNL     1     -11.125   3.020  10.114  1.00  0.00    -0.000 C 
BRANCH  19  20
ATOM     20  C   UNL     1     -10.986   4.373   9.394  1.00  0.00    -0.000 C 
BRANCH  20  21
ATOM     21  C   UNL     1      -9.980   5.305  10.089  1.00  0.00    -0.000 C 
BRANCH  21  22
ATOM     22  C   UNL     1     -10.279   6.793   9.832  1.00  0.00    -0.000 C 
BRANCH  22  23
ATOM     23  C   UNL     1     -10.404   7.124   8.334  1.00  0.00    -0.000 C 
BRANCH  23  24
ATOM     24  C   UNL     1     -10.909   8.547   8.020  1.00  0.00    -0.000 C 
BRANCH  24  25
ATOM     25  C   UNL     1     -10.262   9.666   8.853  1.00  0.00    -0.003 C 
ATOM     26  C   UNL     1     -10.691  11.064   8.409  1.00  0.00     0.004 C 
ENDBRANCH  24  25
ENDBRANCH  23  24
ENDBRANCH  22  23
ENDBRANCH  21  22
ENDBRANCH  20  21
ENDBRANCH  19  20
ENDBRANCH  18  19
ENDBRANCH  17  18
ENDBRANCH  16  17
ENDBRANCH  15  16
ENDBRANCH   1  15
TORSDOF 22
ENDMDL
MODEL 6
REMARK VINA RESULT:     0.327     16.413     18.999
REMARK INTER + INTRA:          -0.413
REMARK INTER:                   1.703
REMARK INTRA:                  -2.116
REMARK UNBOUND:                -1.162
REMARK SMILES CCCCCCCCCCCCCCCCCCCCCCCC(=O)[O-]
REMARK SMILES IDX 13 1 14 2 15 3 16 4 17 5 18 6 19 7 20 8 21 9 22 10 23 11
REMARK SMILES IDX 24 12 25 13 26 14 12 15 11 16 10 17 9 18 8 19 7 20 6 21 5 22
REMARK SMILES IDX 4 23 3 24 2 25 1 26
REMARK H PARENT
REMARK Flexibility Score: inf
ROOT
ATOM      1  C   UNL     1       4.719   4.837   8.384  1.00  0.00     0.000 C 
ENDROOT
BRANCH   1   2
ATOM      2  C   UNL     1       4.623   3.480   7.665  1.00  0.00     0.000 C 
BRANCH   2   3
ATOM      3  C   UNL     1       5.446   3.372   6.365  1.00  0.00     0.000 C 
BRANCH   3   4
ATOM      4  C   UNL     1       4.588   3.168   5.096  1.00  0.00     0.000 C 
BRANCH   4   5
ATOM      5  C   UNL     1       4.073   4.482   4.481  1.00  0.00     0.000 C 
BRANCH   5   6
ATOM      6  C   UNL     1       3.664   4.318   3.006  1.00  0.00     0.000 C 
BRANCH   6   7
ATOM      7  C   UNL     1       3.566   5.666   2.272  1.00  0.00     0.000 C 
BRANCH   7   8
ATOM      8  C   UNL     1       3.797   5.531   0.756  1.00  0.00     0.000 C 
BRANCH   8   9
ATOM      9  C   UNL     1       2.481   5.513  -0.036  1.00  0.00     0.000 C 
BRANCH   9  10
ATOM     10  C   UNL     1       1.277   5.110   0.836  1.00  0.00     0.006 C 
BRANCH  10  11
ATOM     11  C   UNL     1      -0.061   5.477   0.180  1.00  0.00     0.053 C 
BRANCH  11  12
ATOM     12  C   UNL     1      -0.910   4.267  -0.061  1.00  0.00     0.041 C 
ATOM     13  O   UNL     1      -2.149   4.307   0.168  1.00  0.00    -0.550 OA
ATOM     14  O   UNL     1      -0.341   3.105  -0.569  1.00  0.00    -0.550 OA
ENDBRANCH  11  12
ENDBRANCH  10  11
ENDBRANCH   9  10
ENDBRANCH   8   9
ENDBRANCH   7   8
ENDBRANCH   6   7
ENDBRANCH   5   6
ENDBRANCH   4   5
ENDBRANCH   3   4
ENDBRANCH   2   3
ENDBRANCH   1   2
BRANCH   1  15
ATOM     15  C   UNL     1       6.087   5.515   8.192  1.00  0.00     0.000 C 
BRANCH  15  16
ATOM     16  C   UNL     1       6.547   6.292   9.438  1.00  0.00     0.000 C 
BRANCH  16  17
ATOM     17  C   UNL     1       7.215   7.648   9.149  1.00  0.00     0.000 C 
BRANCH  17  18
ATOM     18  C   UNL     1       6.756   8.759  10.111  1.00  0.00    -0.000 C 
BRANCH  18  19
ATOM     19  C   UNL     1       6.114   9.949   9.382  1.00  0.00    -0.000 C 
BRANCH  19  20
ATOM     20  C   UNL     1       5.459   9.542   8.050  1.00  0.00    -0.000 C 
BRANCH  20  21
ATOM     21  C   UNL     1       5.637  10.611   6.959  1.00  0.00    -0.000 C 
BRANCH  21  22
ATOM     22  C   UNL     1       7.089  11.109   6.853  1.00  0.00    -0.000 C 
BRANCH  22  23
ATOM     23  C   UNL     1       7.893  10.371   5.767  1.00  0.00    -0.000 C 
BRANCH  23  24
ATOM     24  C   UNL     1       7.042   9.673   4.686  1.00  0.00    -0.000 C 
BRANCH  24  25
ATOM     25  C   UNL     1       7.124   8.137   4.684  1.00  0.00    -0.003 C 
ATOM     26  C   UNL     1       5.820   7.470   5.120  1.00  0.00     0.004 C 
ENDBRANCH  24  25
ENDBRANCH  23  24
ENDBRANCH  22  23
ENDBRANCH  21  22
ENDBRANCH  20  21
ENDBRANCH  19  20
ENDBRANCH  18  19
ENDBRANCH  17  18
ENDBRANCH  16  17
ENDBRANCH  15  16
ENDBRANCH   1  15
TORSDOF 22
ENDMDL
MODEL 7
REMARK VINA RESULT:     0.377     16.211     18.719
REMARK INTER + INTRA:          -0.299
REMARK INTER:                   1.603
REMARK INTRA:                  -1.902
REMARK UNBOUND:                -1.162
REMARK SMILES CCCCCCCCCCCCCCCCCCCCCCCC(=O)[O-]
REMARK SMILES IDX 13 1 14 2 15 3 16 4 17 5 18 6 19 7 20 8 21 9 22 10 23 11
REMARK SMILES IDX 24 12 25 13 26 14 12 15 11 16 10 17 9 18 8 19 7 20 6 21 5 22
REMARK SMILES IDX 4 23 3 24 2 25 1 26
REMARK H PARENT
REMARK Flexibility Score: inf
ROOT
ATOM      1  C   UNL     1       4.767   4.030   6.486  1.00  0.00     0.000 C 
ENDROOT
BRANCH   1   2
ATOM      2  C   UNL     1       4.469   3.645   5.026  1.00  0.00     0.000 C 
BRANCH   2   3
ATOM      3  C   UNL     1       3.948   4.797   4.143  1.00  0.00     0.000 C 
BRANCH   3   4
ATOM      4  C   UNL     1       3.418   4.341   2.766  1.00  0.00     0.000 C 
BRANCH   4   5
ATOM      5  C   UNL     1       3.913   5.208   1.595  1.00  0.00     0.000 C 
BRANCH   5   6
ATOM      6  C   UNL     1       2.755   5.832   0.796  1.00  0.00     0.000 C 
BRANCH   6   7
ATOM      7  C   UNL     1       1.389   5.242   1.186  1.00  0.00     0.000 C 
BRANCH   7   8
ATOM      8  C   UNL     1       0.465   5.039  -0.029  1.00  0.00     0.000 C 
BRANCH   8   9
ATOM      9  C   UNL     1       0.121   3.559  -0.259  1.00  0.00     0.000 C 
BRANCH   9  10
ATOM     10  C   UNL     1      -1.398   3.305  -0.265  1.00  0.00     0.006 C 
BRANCH  10  11
ATOM     11  C   UNL     1      -2.201   4.597  -0.466  1.00  0.00     0.053 C 
BRANCH  11  12
ATOM     12  C   UNL     1      -2.764   5.106   0.826  1.00  0.00     0.041 C 
ATOM     13  O   UNL     1      -3.849   4.643   1.269  1.00  0.00    -0.550 OA
ATOM     14  O   UNL     1      -2.076   6.069   1.555  1.00  0.00    -0.550 OA
ENDBRANCH  11  12
ENDBRANCH  10  11
ENDBRANCH   9  10
ENDBRANCH   8   9
ENDBRANCH   7   8
ENDBRANCH   6   7
ENDBRANCH   5   6
ENDBRANCH   4   5
ENDBRANCH   3   4
ENDBRANCH   2   3
ENDBRANCH   1   2
BRANCH   1  15
ATOM     15  C   UNL     1       5.870   5.094   6.607  1.00  0.00     0.000 C 
BRANCH  15  16
ATOM     16  C   UNL     1       5.652   6.047   7.796  1.00  0.00     0.000 C 
BRANCH  16  17
ATOM     17  C   UNL     1       6.938   6.652   8.388  1.00  0.00     0.000 C 
BRANCH  17  18
ATOM     18  C   UNL     1       6.765   7.112   9.848  1.00  0.00    -0.000 C 
BRANCH  18  19
ATOM     19  C   UNL     1       6.381   8.595   9.962  1.00  0.00    -0.000 C 
BRANCH  19  20
ATOM     20  C   UNL     1       6.808   9.413   8.730  1.00  0.00    -0.000 C 
BRANCH  20  21
ATOM     21  C   UNL     1       5.618  10.109   8.048  1.00  0.00    -0.000 C 
BRANCH  21  22
ATOM     22  C   UNL     1       6.025  10.846   6.760  1.00  0.00    -0.000 C 
BRANCH  22  23
ATOM     23  C   UNL     1       7.469  10.534   6.327  1.00  0.00    -0.000 C 
BRANCH  23  24
ATOM     24  C   UNL     1       7.596   9.676   5.052  1.00  0.00    -0.000 C 
BRANCH  24  25
ATOM     25  C   UNL     1       7.059   8.239   5.177  1.00  0.00    -0.003 C 
ATOM     26  C   UNL     1       5.916   7.944   4.207  1.00  0.00     0.004 C 
ENDBRANCH  24  25
ENDBRANCH  23  24
ENDBRANCH  22  23
ENDBRANCH  21  22
ENDBRANCH  20  21
ENDBRANCH  19  20
ENDBRANCH  18  19
ENDBRANCH  17  18
ENDBRANCH  16  17
ENDBRANCH  15  16
ENDBRANCH   1  15
TORSDOF 22
ENDMDL
MODEL 8
REMARK VINA RESULT:     0.440     22.058     25.132
REMARK INTER + INTRA:          -0.155
REMARK INTER:                   0.881
REMARK INTRA:                  -1.036
REMARK UNBOUND:                -1.162
REMARK SMILES CCCCCCCCCCCCCCCCCCCCCCCC(=O)[O-]
REMARK SMILES IDX 13 1 14 2 15 3 16 4 17 5 18 6 19 7 20 8 21 9 22 10 23 11
REMARK SMILES IDX 24 12 25 13 26 14 12 15 11 16 10 17 9 18 8 19 7 20 6 21 5 22
REMARK SMILES IDX 4 23 3 24 2 25 1 26
REMARK H PARENT
REMARK Flexibility Score: inf
ROOT
ATOM      1  C   UNL     1      -7.751  -0.743   8.449  1.00  0.00     0.000 C 
ENDROOT
BRANCH   1   2
ATOM      2  C   UNL     1      -7.649  -1.925   7.469  1.00  0.00     0.000 C 
BRANCH   2   3
ATOM      3  C   UNL     1      -8.969  -2.684   7.226  1.00  0.00     0.000 C 
BRANCH   3   4
ATOM      4  C   UNL     1      -9.109  -3.255   5.797  1.00  0.00     0.000 C 
BRANCH   4   5
ATOM      5  C   UNL     1      -9.601  -4.713   5.761  1.00  0.00     0.000 C 
BRANCH   5   6
ATOM      6  C   UNL     1     -10.566  -5.036   6.916  1.00  0.00     0.000 C 
BRANCH   6   7
ATOM      7  C   UNL     1     -10.151  -6.297   7.691  1.00  0.00     0.000 C 
BRANCH   7   8
ATOM      8  C   UNL     1     -10.863  -6.416   9.051  1.00  0.00     0.000 C 
BRANCH   8   9
ATOM      9  C   UNL     1     -10.593  -5.206   9.958  1.00  0.00     0.000 C 
BRANCH   9  10
ATOM     10  C   UNL     1      -9.092  -4.877  10.066  1.00  0.00     0.006 C 
BRANCH  10  11
ATOM     11  C   UNL     1      -8.218  -6.138  10.016  1.00  0.00     0.053 C 
BRANCH  11  12
ATOM     12  C   UNL     1      -6.957  -5.908   9.240  1.00  0.00     0.041 C 
ATOM     13  O   UNL     1      -5.841  -5.943   9.823  1.00  0.00    -0.550 OA
ATOM     14  O   UNL     1      -7.012  -5.686   7.869  1.00  0.00    -0.550 OA
ENDBRANCH  11  12
ENDBRANCH  10  11
ENDBRANCH   9  10
ENDBRANCH   8   9
ENDBRANCH   7   8
ENDBRANCH   6   7
ENDBRANCH   5   6
ENDBRANCH   4   5
ENDBRANCH   3   4
ENDBRANCH   2   3
ENDBRANCH   1   2
BRANCH   1  15
ATOM     15  C   UNL     1      -8.955  -0.861   9.399  1.00  0.00     0.000 C 
BRANCH  15  16
ATOM     16  C   UNL     1     -10.157  -0.015   8.946  1.00  0.00     0.000 C 
BRANCH  16  17
ATOM     17  C   UNL     1     -10.589   1.084   9.935  1.00  0.00     0.000 C 
BRANCH  17  18
ATOM     18  C   UNL     1     -10.217   2.499   9.456  1.00  0.00    -0.000 C 
BRANCH  18  19
ATOM     19  C   UNL     1     -11.125   3.585  10.052  1.00  0.00    -0.000 C 
BRANCH  19  20
ATOM     20  C   UNL     1     -10.443   4.964  10.101  1.00  0.00    -0.000 C 
BRANCH  20  21
ATOM     21  C   UNL     1     -11.123   5.987   9.176  1.00  0.00    -0.000 C 
BRANCH  21  22
ATOM     22  C   UNL     1     -10.169   7.113   8.739  1.00  0.00    -0.000 C 
BRANCH  22  23
ATOM     23  C   UNL     1      -8.743   6.930   9.290  1.00  0.00    -0.000 C 
BRANCH  23  24
ATOM     24  C   UNL     1      -7.902   8.221   9.363  1.00  0.00    -0.000 C 
BRANCH  24  25
ATOM     25  C   UNL     1      -6.383   8.017   9.217  1.00  0.00    -0.003 C 
ATOM     26  C   UNL     1      -5.964   7.668   7.790  1.00  0.00     0.004 C 
ENDBRANCH  24  25
ENDBRANCH  23  24
ENDBRANCH  22  23
ENDBRANCH  21  22
ENDBRANCH  20  21
ENDBRANCH  19  20
ENDBRANCH  18  19
ENDBRANCH  17  18
ENDBRANCH  16  17
ENDBRANCH  15  16
ENDBRANCH   1  15
TORSDOF 22
ENDMDL
