MODEL 1
REMARK VINA RESULT:    -2.975      0.000      0.000
REMARK INTER + INTRA:         -14.164
REMARK INTER:                  -7.846
REMARK INTRA:                  -6.318
REMARK UNBOUND:                -6.318
REMARK SMILES CCCCCCCCCCCCCCCCCCCCCCCCCCCCCC(=O)[O-]
REMARK SMILES IDX 16 1 17 2 18 3 19 4 20 5 21 6 22 7 23 8 24 9 25 10 26 11
REMARK SMILES IDX 27 12 28 13 29 14 30 15 31 16 32 17 15 18 14 19 13 20 12 21
REMARK SMILES IDX 11 22 10 23 9 24 8 25 7 26 6 27 5 28 4 29 3 30 2 31 1 32
REMARK H PARENT
REMARK Flexibility Score: inf
ROOT
ATOM      1  C   UNL     1      11.850   6.478  33.146  1.00  0.00     0.000 C 
ENDROOT
BRANCH   1   2
ATOM      2  C   UNL     1      11.575   5.560  34.352  1.00  0.00     0.000 C 
BRANCH   2   3
ATOM      3  C   UNL     1      10.095   5.194  34.569  1.00  0.00     0.000 C 
BRANCH   3   4
ATOM      4  C   UNL     1       9.875   4.259  35.774  1.00  0.00     0.000 C 
BRANCH   4   5
ATOM      5  C   UNL     1      11.195   3.828  36.428  1.00  0.00     0.000 C 
BRANCH   5   6
ATOM      6  C   UNL     1      11.365   2.300  36.459  1.00  0.00     0.000 C 
BRANCH   6   7
ATOM      7  C   UNL     1      12.825   1.859  36.241  1.00  0.00     0.000 C 
BRANCH   7   8
ATOM      8  C   UNL     1      13.764   2.956  35.697  1.00  0.00     0.000 C 
BRANCH   8   9
ATOM      9  C   UNL     1      14.065   2.868  34.187  1.00  0.00     0.000 C 
BRANCH   9  10
ATOM     10  C   UNL     1      13.647   1.539  33.526  1.00  0.00     0.000 C 
BRANCH  10  11
ATOM     11  C   UNL     1      12.689   1.683  32.328  1.00  0.00     0.000 C 
BRANCH  11  12
ATOM     12  C   UNL     1      11.351   2.384  32.639  1.00  0.00     0.000 C 
BRANCH  12  13
ATOM     13  C   UNL     1      10.230   1.451  33.133  1.00  0.00     0.006 C 
BRANCH  13  14
ATOM     14  C   UNL     1       8.962   1.541  32.272  1.00  0.00     0.053 C 
BRANCH  14  15
ATOM     15  C   UNL     1       9.200   0.963  30.912  1.00  0.00     0.041 C 
ATOM     16  O   UNL     1       9.926  -0.057  30.773  1.00  0.00    -0.550 OA
ATOM     17  O   UNL     1       8.645   1.570  29.791  1.00  0.00    -0.550 OA
ENDBRANCH  14  15
ENDBRANCH  13  14
ENDBRANCH  12  13
ENDBRANCH  11  12
ENDBRANCH  10  11
ENDBRANCH   9  10
ENDBRANCH   8   9
ENDBRANCH   7   8
ENDBRANCH   6   7
ENDBRANCH   5   6
ENDBRANCH   4   5
ENDBRANCH   3   4
ENDBRANCH   2   3
ENDBRANCH   1   2
BRANCH   1  18
ATOM     18  C   UNL     1      11.128   7.833  33.245  1.00  0.00     0.000 C 
BRANCH  18  19
ATOM     19  C   UNL     1      10.512   8.281  31.906  1.00  0.00     0.000 C 
BRANCH  19  20
ATOM     20  C   UNL     1       8.977   8.138  31.846  1.00  0.00     0.000 C 
BRANCH  20  21
ATOM     21  C   UNL     1       8.519   7.175  30.743  1.00  0.00     0.000 C 
BRANCH  21  22
ATOM     22  C   UNL     1       8.432   5.736  31.271  1.00  0.00     0.000 C 
BRANCH  22  23
ATOM     23  C   UNL     1       9.577   4.873  30.726  1.00  0.00     0.000 C 
BRANCH  23  24
ATOM     24  C   UNL     1      10.140   5.463  29.423  1.00  0.00    -0.000 C 
BRANCH  24  25
ATOM     25  C   UNL     1      11.656   5.723  29.487  1.00  0.00    -0.000 C 
BRANCH  25  26
ATOM     26  C   UNL     1      12.517   4.478  29.769  1.00  0.00    -0.000 C 
BRANCH  26  27
ATOM     27  C   UNL     1      13.709   4.770  30.696  1.00  0.00    -0.000 C 
BRANCH  27  28
ATOM     28  C   UNL     1      15.060   4.544  29.981  1.00  0.00    -0.000 C 
BRANCH  28  29
ATOM     29  C   UNL     1      14.989   4.722  28.453  1.00  0.00    -0.000 C 
BRANCH  29  30
ATOM     30  C   UNL     1      15.296   6.159  28.003  1.00  0.00    -0.000 C 
BRANCH  30  31
ATOM     31  C   UNL     1      14.305   6.661  26.941  1.00  0.00    -0.003 C 
ATOM     32  C   UNL     1      13.602   5.520  26.201  1.00  0.00     0.004 C 
ENDBRANCH  30  31
ENDBRANCH  29  30
ENDBRANCH  28  29
ENDBRANCH  27  28
ENDBRANCH  26  27
ENDBRANCH  25  26
ENDBRANCH  24  25
ENDBRANCH  23  24
ENDBRANCH  22  23
ENDBRANCH  21  22
ENDBRANCH  20  21
ENDBRANCH  19  20
ENDBRANCH  18  19
ENDBRANCH   1  18
TORSDOF 28
ENDMDL
MODEL 2
REMARK VINA RESULT:    -2.970      1.937      4.373
REMARK INTER + INTRA:         -14.149
REMARK INTER:                  -7.739
REMARK INTRA:                  -6.411
REMARK UNBOUND:                -6.318
REMARK SMILES CCCCCCCCCCCCCCCCCCCCCCCCCCCCCC(=O)[O-]
REMARK SMILES IDX 16 1 17 2 18 3 19 4 20 5 21 6 22 7 23 8 24 9 25 10 26 11
REMARK SMILES IDX 27 12 28 13 29 14 30 15 31 16 32 17 15 18 14 19 13 20 12 21
REMARK SMILES IDX 11 22 10 23 9 24 8 25 7 26 6 27 5 28 4 29 3 30 2 31 1 32
REMARK H PARENT
REMARK Flexibility Score: inf
ROOT
ATOM      1  C   UNL     1       8.378   6.084  29.531  1.00  0.00     0.000 C 
ENDROOT
BRANCH   1   2
ATOM      2  C   UNL     1       7.982   6.649  30.909  1.00  0.00     0.000 C 
BRANCH   2   3
ATOM      3  C   UNL     1       8.268   8.149  31.105  1.00  0.00     0.000 C 
BRANCH   3   4
ATOM      4  C   UNL     1       9.297   8.427  32.218  1.00  0.00     0.000 C 
BRANCH   4   5
ATOM      5  C   UNL     1      10.582   7.605  32.043  1.00  0.00     0.000 C 
BRANCH   5   6
ATOM      6  C   UNL     1      11.237   7.245  33.387  1.00  0.00     0.000 C 
BRANCH   6   7
ATOM      7  C   UNL     1      11.242   5.729  33.659  1.00  0.00     0.000 C 
BRANCH   7   8
ATOM      8  C   UNL     1       9.847   5.090  33.819  1.00  0.00     0.000 C 
BRANCH   8   9
ATOM      9  C   UNL     1       9.576   3.878  32.906  1.00  0.00     0.000 C 
BRANCH   9  10
ATOM     10  C   UNL     1      10.507   2.673  33.144  1.00  0.00     0.000 C 
BRANCH  10  11
ATOM     11  C   UNL     1      10.505   1.619  32.021  1.00  0.00     0.000 C 
BRANCH  11  12
ATOM     12  C   UNL     1       9.139   1.383  31.346  1.00  0.00     0.000 C 
BRANCH  12  13
ATOM     13  C   UNL     1       9.185   1.276  29.810  1.00  0.00     0.006 C 
BRANCH  13  14
ATOM     14  C   UNL     1      10.548   0.801  29.289  1.00  0.00     0.053 C 
BRANCH  14  15
ATOM     15  C   UNL     1      10.399   0.083  27.985  1.00  0.00     0.041 C 
ATOM     16  O   UNL     1       9.432  -0.703  27.799  1.00  0.00    -0.550 OA
ATOM     17  O   UNL     1      11.346   0.258  26.982  1.00  0.00    -0.550 OA
ENDBRANCH  14  15
ENDBRANCH  13  14
ENDBRANCH  12  13
ENDBRANCH  11  12
ENDBRANCH  10  11
ENDBRANCH   9  10
ENDBRANCH   8   9
ENDBRANCH   7   8
ENDBRANCH   6   7
ENDBRANCH   5   6
ENDBRANCH   4   5
ENDBRANCH   3   4
ENDBRANCH   2   3
ENDBRANCH   1   2
BRANCH   1  18
ATOM     18  C   UNL     1       9.331   4.881  29.624  1.00  0.00     0.000 C 
BRANCH  18  19
ATOM     19  C   UNL     1      10.779   5.234  29.236  1.00  0.00     0.000 C 
BRANCH  19  20
ATOM     20  C   UNL     1      11.831   4.242  29.775  1.00  0.00     0.000 C 
BRANCH  20  21
ATOM     21  C   UNL     1      12.989   4.946  30.495  1.00  0.00     0.000 C 
BRANCH  21  22
ATOM     22  C   UNL     1      13.625   4.023  31.544  1.00  0.00     0.000 C 
BRANCH  22  23
ATOM     23  C   UNL     1      15.157   4.065  31.465  1.00  0.00     0.000 C 
BRANCH  23  24
ATOM     24  C   UNL     1      15.677   3.139  30.355  1.00  0.00    -0.000 C 
BRANCH  24  25
ATOM     25  C   UNL     1      15.010   1.751  30.369  1.00  0.00    -0.000 C 
BRANCH  25  26
ATOM     26  C   UNL     1      14.185   1.415  29.113  1.00  0.00    -0.000 C 
BRANCH  26  27
ATOM     27  C   UNL     1      14.820   1.947  27.818  1.00  0.00    -0.000 C 
BRANCH  27  28
ATOM     28  C   UNL     1      13.820   2.787  26.992  1.00  0.00    -0.000 C 
BRANCH  28  29
ATOM     29  C   UNL     1      14.426   4.081  26.418  1.00  0.00    -0.000 C 
BRANCH  29  30
ATOM     30  C   UNL     1      13.474   5.283  26.518  1.00  0.00    -0.000 C 
BRANCH  30  31
ATOM     31  C   UNL     1      14.091   6.450  27.306  1.00  0.00    -0.003 C 
ATOM     32  C   UNL     1      15.405   6.070  27.994  1.00  0.00     0.004 C 
ENDBRANCH  30  31
ENDBRANCH  29  30
ENDBRANCH  28  29
ENDBRANCH  27  28
ENDBRANCH  26  27
ENDBRANCH  25  26
ENDBRANCH  24  25
ENDBRANCH  23  24
ENDBRANCH  22  23
ENDBRANCH  21  22
ENDBRANCH  20  21
ENDBRANCH  19  20
ENDBRANCH  18  19
ENDBRANCH   1  18
TORSDOF 28
ENDMDL
MODEL 3
REMARK VINA RESULT:    -2.940      2.740      6.927
REMARK INTER + INTRA:         -14.072
REMARK INTER:                  -8.465
REMARK INTRA:                  -5.607
REMARK UNBOUND:                -6.318
REMARK SMILES CCCCCCCCCCCCCCCCCCCCCCCCCCCCCC(=O)[O-]
REMARK SMILES IDX 16 1 17 2 18 3 19 4 20 5 21 6 22 7 23 8 24 9 25 10 26 11
REMARK SMILES IDX 27 12 28 13 29 14 30 15 31 16 32 17 15 18 14 19 13 20 12 21
REMARK SMILES IDX 11 22 10 23 9 24 8 25 7 26 6 27 5 28 4 29 3 30 2 31 1 32
REMARK H PARENT
REMARK Flexibility Score: inf
ROOT
ATOM      1  C   UNL     1       8.966   5.249  29.673  1.00  0.00     0.000 C 
ENDROOT
BRANCH   1   2
ATOM      2  C   UNL     1      10.494   5.421  29.778  1.00  0.00     0.000 C 
BRANCH   2   3
ATOM      3  C   UNL     1      11.322   4.245  29.227  1.00  0.00     0.000 C 
BRANCH   3   4
ATOM      4  C   UNL     1      12.128   3.512  30.318  1.00  0.00     0.000 C 
BRANCH   4   5
ATOM      5  C   UNL     1      13.143   2.523  29.728  1.00  0.00     0.000 C 
BRANCH   5   6
ATOM      6  C   UNL     1      12.676   1.928  28.389  1.00  0.00     0.000 C 
BRANCH   6   7
ATOM      7  C   UNL     1      13.793   1.900  27.329  1.00  0.00     0.000 C 
BRANCH   7   8
ATOM      8  C   UNL     1      13.319   2.109  25.876  1.00  0.00     0.000 C 
BRANCH   8   9
ATOM      9  C   UNL     1      14.119   3.153  25.072  1.00  0.00     0.000 C 
BRANCH   9  10
ATOM     10  C   UNL     1      13.422   4.519  24.921  1.00  0.00     0.000 C 
BRANCH  10  11
ATOM     11  C   UNL     1      13.263   5.315  26.231  1.00  0.00     0.000 C 
BRANCH  11  12
ATOM     12  C   UNL     1      14.201   6.530  26.377  1.00  0.00     0.000 C 
BRANCH  12  13
ATOM     13  C   UNL     1      14.970   6.599  27.710  1.00  0.00     0.006 C 
BRANCH  13  14
ATOM     14  C   UNL     1      15.019   5.247  28.435  1.00  0.00     0.053 C 
BRANCH  14  15
ATOM     15  C   UNL     1      16.122   5.226  29.447  1.00  0.00     0.041 C 
ATOM     16  O   UNL     1      17.244   5.732  29.176  1.00  0.00    -0.550 OA
ATOM     17  O   UNL     1      15.922   4.620  30.682  1.00  0.00    -0.550 OA
ENDBRANCH  14  15
ENDBRANCH  13  14
ENDBRANCH  12  13
ENDBRANCH  11  12
ENDBRANCH  10  11
ENDBRANCH   9  10
ENDBRANCH   8   9
ENDBRANCH   7   8
ENDBRANCH   6   7
ENDBRANCH   5   6
ENDBRANCH   4   5
ENDBRANCH   3   4
ENDBRANCH   2   3
ENDBRANCH   1   2
BRANCH   1  18
ATOM     18  C   UNL     1       8.186   6.289  30.495  1.00  0.00     0.000 C 
BRANCH  18  19
ATOM     19  C   UNL     1       8.874   7.665  30.526  1.00  0.00     0.000 C 
BRANCH  19  20
ATOM     20  C   UNL     1       9.237   8.151  31.945  1.00  0.00     0.000 C 
BRANCH  20  21
ATOM     21  C   UNL     1      10.753   8.223  32.173  1.00  0.00     0.000 C 
BRANCH  21  22
ATOM     22  C   UNL     1      11.155   7.450  33.437  1.00  0.00     0.000 C 
BRANCH  22  23
ATOM     23  C   UNL     1      12.051   6.252  33.094  1.00  0.00     0.000 C 
BRANCH  23  24
ATOM     24  C   UNL     1      11.423   4.937  33.580  1.00  0.00    -0.000 C 
BRANCH  24  25
ATOM     25  C   UNL     1      10.020   5.129  34.185  1.00  0.00    -0.000 C 
BRANCH  25  26
ATOM     26  C   UNL     1       8.881   4.435  33.415  1.00  0.00    -0.000 C 
BRANCH  26  27
ATOM     27  C   UNL     1       9.329   3.139  32.721  1.00  0.00    -0.000 C 
BRANCH  27  28
ATOM     28  C   UNL     1       8.317   1.991  32.942  1.00  0.00    -0.000 C 
BRANCH  28  29
ATOM     29  C   UNL     1       8.244   0.997  31.769  1.00  0.00    -0.000 C 
BRANCH  29  30
ATOM     30  C   UNL     1       8.663   1.621  30.429  1.00  0.00    -0.000 C 
BRANCH  30  31
ATOM     31  C   UNL     1       9.597   0.701  29.625  1.00  0.00    -0.003 C 
ATOM     32  C   UNL     1      10.496  -0.156  30.519  1.00  0.00     0.004 C 
ENDBRANCH  30  31
ENDBRANCH  29  30
ENDBRANCH  28  29
ENDBRANCH  27  28
ENDBRANCH  26  27
ENDBRANCH  25  26
ENDBRANCH  24  25
ENDBRANCH  23  24
ENDBRANCH  22  23
ENDBRANCH  21  22
ENDBRANCH  20  21
ENDBRANCH  19  20
ENDBRANCH  18  19
ENDBRANCH   1  18
TORSDOF 28
ENDMDL
MODEL 4
REMARK VINA RESULT:    -2.898      2.238      6.587
REMARK INTER + INTRA:         -13.959
REMARK INTER:                  -7.323
REMARK INTRA:                  -6.636
REMARK UNBOUND:                -6.318
REMARK SMILES CCCCCCCCCCCCCCCCCCCCCCCCCCCCCC(=O)[O-]
REMARK SMILES IDX 16 1 17 2 18 3 19 4 20 5 21 6 22 7 23 8 24 9 25 10 26 11
REMARK SMILES IDX 27 12 28 13 29 14 30 15 31 16 32 17 15 18 14 19 13 20 12 21
REMARK SMILES IDX 11 22 10 23 9 24 8 25 7 26 6 27 5 28 4 29 3 30 2 31 1 32
REMARK H PARENT
REMARK Flexibility Score: inf
ROOT
ATOM      1  C   UNL     1       8.408   2.755  34.244  1.00  0.00     0.000 C 
ENDROOT
BRANCH   1   2
ATOM      2  C   UNL     1       8.654   4.225  33.853  1.00  0.00     0.000 C 
BRANCH   2   3
ATOM      3  C   UNL     1      10.072   4.534  33.338  1.00  0.00     0.000 C 
BRANCH   3   4
ATOM      4  C   UNL     1      10.688   5.790  33.984  1.00  0.00     0.000 C 
BRANCH   4   5
ATOM      5  C   UNL     1      11.601   6.556  33.017  1.00  0.00     0.000 C 
BRANCH   5   6
ATOM      6  C   UNL     1      11.224   8.043  32.904  1.00  0.00     0.000 C 
BRANCH   6   7
ATOM      7  C   UNL     1       9.729   8.257  32.603  1.00  0.00     0.000 C 
BRANCH   7   8
ATOM      8  C   UNL     1       9.288   7.865  31.178  1.00  0.00     0.000 C 
BRANCH   8   9
ATOM      9  C   UNL     1       8.062   6.934  31.107  1.00  0.00     0.000 C 
BRANCH   9  10
ATOM     10  C   UNL     1       8.283   5.643  30.293  1.00  0.00     0.000 C 
BRANCH  10  11
ATOM     11  C   UNL     1       9.506   5.667  29.356  1.00  0.00     0.000 C 
BRANCH  11  12
ATOM     12  C   UNL     1      10.638   4.690  29.731  1.00  0.00     0.000 C 
BRANCH  12  13
ATOM     13  C   UNL     1      11.784   4.602  28.706  1.00  0.00     0.006 C 
BRANCH  13  14
ATOM     14  C   UNL     1      13.069   5.285  29.194  1.00  0.00     0.053 C 
BRANCH  14  15
ATOM     15  C   UNL     1      14.196   5.042  28.240  1.00  0.00     0.041 C 
ATOM     16  O   UNL     1      14.198   5.588  27.105  1.00  0.00    -0.550 OA
ATOM     17  O   UNL     1      15.233   4.186  28.592  1.00  0.00    -0.550 OA
ENDBRANCH  14  15
ENDBRANCH  13  14
ENDBRANCH  12  13
ENDBRANCH  11  12
ENDBRANCH  10  11
ENDBRANCH   9  10
ENDBRANCH   8   9
ENDBRANCH   7   8
ENDBRANCH   6   7
ENDBRANCH   5   6
ENDBRANCH   4   5
ENDBRANCH   3   4
ENDBRANCH   2   3
ENDBRANCH   1   2
BRANCH   1  18
ATOM     18  C   UNL     1       9.180   1.760  33.360  1.00  0.00     0.000 C 
BRANCH  18  19
ATOM     19  C   UNL     1       8.488   1.500  32.009  1.00  0.00     0.000 C 
BRANCH  19  20
ATOM     20  C   UNL     1       9.323   0.645  31.033  1.00  0.00     0.000 C 
BRANCH  20  21
ATOM     21  C   UNL     1       9.408   1.265  29.632  1.00  0.00     0.000 C 
BRANCH  21  22
ATOM     22  C   UNL     1      10.730   0.892  28.945  1.00  0.00     0.000 C 
BRANCH  22  23
ATOM     23  C   UNL     1      11.794   0.486  29.973  1.00  0.00     0.000 C 
BRANCH  23  24
ATOM     24  C   UNL     1      13.128   1.196  29.693  1.00  0.00    -0.000 C 
BRANCH  24  25
ATOM     25  C   UNL     1      13.639   2.012  30.895  1.00  0.00    -0.000 C 
BRANCH  25  26
ATOM     26  C   UNL     1      12.546   2.474  31.877  1.00  0.00    -0.000 C 
BRANCH  26  27
ATOM     27  C   UNL     1      12.834   2.065  33.331  1.00  0.00    -0.000 C 
BRANCH  27  28
ATOM     28  C   UNL     1      13.499   3.211  34.127  1.00  0.00    -0.000 C 
BRANCH  28  29
ATOM     29  C   UNL     1      13.309   3.096  35.651  1.00  0.00    -0.000 C 
BRANCH  29  30
ATOM     30  C   UNL     1      11.882   2.684  36.046  1.00  0.00    -0.000 C 
BRANCH  30  31
ATOM     31  C   UNL     1      11.189   3.745  36.917  1.00  0.00    -0.003 C 
ATOM     32  C   UNL     1       9.871   3.249  37.517  1.00  0.00     0.004 C 
ENDBRANCH  30  31
ENDBRANCH  29  30
ENDBRANCH  28  29
ENDBRANCH  27  28
ENDBRANCH  26  27
ENDBRANCH  25  26
ENDBRANCH  24  25
ENDBRANCH  23  24
ENDBRANCH  22  23
ENDBRANCH  21  22
ENDBRANCH  20  21
ENDBRANCH  19  20
ENDBRANCH  18  19
ENDBRANCH   1  18
TORSDOF 28
ENDMDL
MODEL 5
REMARK VINA RESULT:    -2.875      2.064      5.816
REMARK INTER + INTRA:         -13.900
REMARK INTER:                  -7.952
REMARK INTRA:                  -5.948
REMARK UNBOUND:                -6.318
REMARK SMILES CCCCCCCCCCCCCCCCCCCCCCCCCCCCCC(=O)[O-]
REMARK SMILES IDX 16 1 17 2 18 3 19 4 20 5 21 6 22 7 23 8 24 9 25 10 26 11
REMARK SMILES IDX 27 12 28 13 29 14 30 15 31 16 32 17 15 18 14 19 13 20 12 21
REMARK SMILES IDX 11 22 10 23 9 24 8 25 7 26 6 27 5 28 4 29 3 30 2 31 1 32
REMARK H PARENT
REMARK Flexibility Score: inf
ROOT
ATOM      1  C   UNL     1       9.855   0.520  30.168  1.00  0.00     0.000 C 
ENDROOT
BRANCH   1   2
ATOM      2  C   UNL     1       8.743   1.555  30.423  1.00  0.00     0.000 C 
BRANCH   2   3
ATOM      3  C   UNL     1       8.879   2.347  31.738  1.00  0.00     0.000 C 
BRANCH   3   4
ATOM      4  C   UNL     1       9.020   3.865  31.516  1.00  0.00     0.000 C 
BRANCH   4   5
ATOM      5  C   UNL     1       9.239   4.222  30.039  1.00  0.00     0.000 C 
BRANCH   5   6
ATOM      6  C   UNL     1       8.683   5.610  29.680  1.00  0.00     0.000 C 
BRANCH   6   7
ATOM      7  C   UNL     1       8.072   6.338  30.892  1.00  0.00     0.000 C 
BRANCH   7   8
ATOM      8  C   UNL     1       8.636   7.749  31.159  1.00  0.00     0.000 C 
BRANCH   8   9
ATOM      9  C   UNL     1      10.174   7.849  31.152  1.00  0.00     0.000 C 
BRANCH   9  10
ATOM     10  C   UNL     1      10.787   8.404  32.454  1.00  0.00     0.000 C 
BRANCH  10  11
ATOM     11  C   UNL     1      10.589   7.513  33.695  1.00  0.00     0.000 C 
BRANCH  11  12
ATOM     12  C   UNL     1      11.513   6.281  33.773  1.00  0.00     0.000 C 
BRANCH  12  13
ATOM     13  C   UNL     1      10.817   4.974  34.193  1.00  0.00     0.006 C 
BRANCH  13  14
ATOM     14  C   UNL     1      11.367   4.406  35.509  1.00  0.00     0.053 C 
BRANCH  14  15
ATOM     15  C   UNL     1      12.181   3.176  35.259  1.00  0.00     0.041 C 
ATOM     16  O   UNL     1      11.615   2.068  35.059  1.00  0.00    -0.550 OA
ATOM     17  O   UNL     1      13.569   3.245  35.277  1.00  0.00    -0.550 OA
ENDBRANCH  14  15
ENDBRANCH  13  14
ENDBRANCH  12  13
ENDBRANCH  11  12
ENDBRANCH  10  11
ENDBRANCH   9  10
ENDBRANCH   8   9
ENDBRANCH   7   8
ENDBRANCH   6   7
ENDBRANCH   5   6
ENDBRANCH   4   5
ENDBRANCH   3   4
ENDBRANCH   2   3
ENDBRANCH   1   2
BRANCH   1  18
ATOM     18  C   UNL     1      10.775   0.900  28.995  1.00  0.00     0.000 C 
BRANCH  18  19
ATOM     19  C   UNL     1      12.136   1.451  29.458  1.00  0.00     0.000 C 
BRANCH  19  20
ATOM     20  C   UNL     1      12.738   0.698  30.664  1.00  0.00     0.000 C 
BRANCH  20  21
ATOM     21  C   UNL     1      13.043   1.629  31.845  1.00  0.00     0.000 C 
BRANCH  21  22
ATOM     22  C   UNL     1      12.551   3.055  31.563  1.00  0.00     0.000 C 
BRANCH  22  23
ATOM     23  C   UNL     1      13.656   4.087  31.822  1.00  0.00     0.000 C 
BRANCH  23  24
ATOM     24  C   UNL     1      13.997   4.863  30.540  1.00  0.00    -0.000 C 
BRANCH  24  25
ATOM     25  C   UNL     1      12.776   5.079  29.626  1.00  0.00    -0.000 C 
BRANCH  25  26
ATOM     26  C   UNL     1      13.045   5.936  28.376  1.00  0.00    -0.000 C 
BRANCH  26  27
ATOM     27  C   UNL     1      14.541   6.051  28.038  1.00  0.00    -0.000 C 
BRANCH  27  28
ATOM     28  C   UNL     1      14.835   5.615  26.585  1.00  0.00    -0.000 C 
BRANCH  28  29
ATOM     29  C   UNL     1      15.910   4.519  26.473  1.00  0.00    -0.000 C 
BRANCH  29  30
ATOM     30  C   UNL     1      16.282   3.906  27.833  1.00  0.00    -0.000 C 
BRANCH  30  31
ATOM     31  C   UNL     1      15.557   2.574  28.088  1.00  0.00    -0.003 C 
ATOM     32  C   UNL     1      16.009   1.893  29.383  1.00  0.00     0.004 C 
ENDBRANCH  30  31
ENDBRANCH  29  30
ENDBRANCH  28  29
ENDBRANCH  27  28
ENDBRANCH  26  27
ENDBRANCH  25  26
ENDBRANCH  24  25
ENDBRANCH  23  24
ENDBRANCH  22  23
ENDBRANCH  21  22
ENDBRANCH  20  21
ENDBRANCH  19  20
ENDBRANCH  18  19
ENDBRANCH   1  18
TORSDOF 28
ENDMDL
MODEL 6
REMARK VINA RESULT:    -2.819      1.937      5.201
REMARK INTER + INTRA:         -13.751
REMARK INTER:                  -8.403
REMARK INTRA:                  -5.348
REMARK UNBOUND:                -6.318
REMARK SMILES CCCCCCCCCCCCCCCCCCCCCCCCCCCCCC(=O)[O-]
REMARK SMILES IDX 16 1 17 2 18 3 19 4 20 5 21 6 22 7 23 8 24 9 25 10 26 11
REMARK SMILES IDX 27 12 28 13 29 14 30 15 31 16 32 17 15 18 14 19 13 20 12 21
REMARK SMILES IDX 11 22 10 23 9 24 8 25 7 26 6 27 5 28 4 29 3 30 2 31 1 32
REMARK H PARENT
REMARK Flexibility Score: inf
ROOT
ATOM      1  C   UNL     1      10.508   4.834  29.250  1.00  0.00     0.000 C 
ENDROOT
BRANCH   1   2
ATOM      2  C   UNL     1       9.063   5.301  29.514  1.00  0.00     0.000 C 
BRANCH   2   3
ATOM      3  C   UNL     1       8.906   6.808  29.791  1.00  0.00     0.000 C 
BRANCH   3   4
ATOM      4  C   UNL     1       8.274   7.106  31.165  1.00  0.00     0.000 C 
BRANCH   4   5
ATOM      5  C   UNL     1       8.940   8.297  31.869  1.00  0.00     0.000 C 
BRANCH   5   6
ATOM      6  C   UNL     1      10.473   8.266  31.754  1.00  0.00     0.000 C 
BRANCH   6   7
ATOM      7  C   UNL     1      11.164   7.948  33.094  1.00  0.00     0.000 C 
BRANCH   7   8
ATOM      8  C   UNL     1      11.630   6.486  33.256  1.00  0.00     0.000 C 
BRANCH   8   9
ATOM      9  C   UNL     1      10.571   5.523  33.828  1.00  0.00     0.000 C 
BRANCH   9  10
ATOM     10  C   UNL     1      10.261   4.306  32.934  1.00  0.00     0.000 C 
BRANCH  10  11
ATOM     11  C   UNL     1       8.781   3.879  32.910  1.00  0.00     0.000 C 
BRANCH  11  12
ATOM     12  C   UNL     1       8.526   2.419  32.484  1.00  0.00     0.000 C 
BRANCH  12  13
ATOM     13  C   UNL     1       9.549   1.847  31.486  1.00  0.00     0.006 C 
BRANCH  13  14
ATOM     14  C   UNL     1       8.927   1.520  30.121  1.00  0.00     0.053 C 
BRANCH  14  15
ATOM     15  C   UNL     1       9.938   0.897  29.210  1.00  0.00     0.041 C 
ATOM     16  O   UNL     1      11.105   1.367  29.138  1.00  0.00    -0.550 OA
ATOM     17  O   UNL     1       9.584  -0.187  28.416  1.00  0.00    -0.550 OA
ENDBRANCH  14  15
ENDBRANCH  13  14
ENDBRANCH  12  13
ENDBRANCH  11  12
ENDBRANCH  10  11
ENDBRANCH   9  10
ENDBRANCH   8   9
ENDBRANCH   7   8
ENDBRANCH   6   7
ENDBRANCH   5   6
ENDBRANCH   4   5
ENDBRANCH   3   4
ENDBRANCH   2   3
ENDBRANCH   1   2
BRANCH   1  18
ATOM     18  C   UNL     1      11.554   5.928  29.524  1.00  0.00     0.000 C 
BRANCH  18  19
ATOM     19  C   UNL     1      12.997   5.446  29.291  1.00  0.00     0.000 C 
BRANCH  19  20
ATOM     20  C   UNL     1      13.337   5.184  27.808  1.00  0.00     0.000 C 
BRANCH  20  21
ATOM     21  C   UNL     1      14.001   6.393  27.134  1.00  0.00     0.000 C 
BRANCH  21  22
ATOM     22  C   UNL     1      14.295   6.104  25.656  1.00  0.00     0.000 C 
BRANCH  22  23
ATOM     23  C   UNL     1      14.403   4.596  25.395  1.00  0.00     0.000 C 
BRANCH  23  24
ATOM     24  C   UNL     1      15.870   4.172  25.216  1.00  0.00    -0.000 C 
BRANCH  24  25
ATOM     25  C   UNL     1      16.495   3.612  26.507  1.00  0.00    -0.000 C 
BRANCH  25  26
ATOM     26  C   UNL     1      17.329   4.623  27.315  1.00  0.00    -0.000 C 
BRANCH  26  27
ATOM     27  C   UNL     1      17.608   4.158  28.754  1.00  0.00    -0.000 C 
BRANCH  27  28
ATOM     28  C   UNL     1      16.301   3.852  29.520  1.00  0.00    -0.000 C 
BRANCH  28  29
ATOM     29  C   UNL     1      16.189   4.585  30.869  1.00  0.00    -0.000 C 
BRANCH  29  30
ATOM     30  C   UNL     1      15.743   3.662  32.015  1.00  0.00    -0.000 C 
BRANCH  30  31
ATOM     31  C   UNL     1      14.257   3.843  32.363  1.00  0.00    -0.003 C 
ATOM     32  C   UNL     1      13.369   2.756  31.751  1.00  0.00     0.004 C 
ENDBRANCH  30  31
ENDBRANCH  29  30
ENDBRANCH  28  29
ENDBRANCH  27  28
ENDBRANCH  26  27
ENDBRANCH  25  26
ENDBRANCH  24  25
ENDBRANCH  23  24
ENDBRANCH  22  23
ENDBRANCH  21  22
ENDBRANCH  20  21
ENDBRANCH  19  20
ENDBRANCH  18  19
ENDBRANCH   1  18
TORSDOF 28
ENDMDL
MODEL 7
REMARK VINA RESULT:    -2.816      1.403      5.168
REMARK INTER + INTRA:         -13.743
REMARK INTER:                  -7.605
REMARK INTRA:                  -6.139
REMARK UNBOUND:                -6.318
REMARK SMILES CCCCCCCCCCCCCCCCCCCCCCCCCCCCCC(=O)[O-]
REMARK SMILES IDX 16 1 17 2 18 3 19 4 20 5 21 6 22 7 23 8 24 9 25 10 26 11
REMARK SMILES IDX 27 12 28 13 29 14 30 15 31 16 32 17 15 18 14 19 13 20 12 21
REMARK SMILES IDX 11 22 10 23 9 24 8 25 7 26 6 27 5 28 4 29 3 30 2 31 1 32
REMARK H PARENT
REMARK Flexibility Score: inf
ROOT
ATOM      1  C   UNL     1      11.737   5.562  29.522  1.00  0.00     0.000 C 
ENDROOT
BRANCH   1   2
ATOM      2  C   UNL     1      10.321   4.964  29.418  1.00  0.00     0.000 C 
BRANCH   2   3
ATOM      3  C   UNL     1       9.189   5.996  29.259  1.00  0.00     0.000 C 
BRANCH   3   4
ATOM      4  C   UNL     1       8.157   5.940  30.403  1.00  0.00     0.000 C 
BRANCH   4   5
ATOM      5  C   UNL     1       8.103   7.246  31.207  1.00  0.00     0.000 C 
BRANCH   5   6
ATOM      6  C   UNL     1       9.416   8.042  31.125  1.00  0.00     0.000 C 
BRANCH   6   7
ATOM      7  C   UNL     1      10.149   8.121  32.477  1.00  0.00     0.000 C 
BRANCH   7   8
ATOM      8  C   UNL     1      10.477   6.759  33.123  1.00  0.00     0.000 C 
BRANCH   8   9
ATOM      9  C   UNL     1      11.976   6.400  33.163  1.00  0.00     0.000 C 
BRANCH   9  10
ATOM     10  C   UNL     1      12.339   5.270  34.147  1.00  0.00     0.000 C 
BRANCH  10  11
ATOM     11  C   UNL     1      11.138   4.478  34.698  1.00  0.00     0.000 C 
BRANCH  11  12
ATOM     12  C   UNL     1      11.072   3.000  34.264  1.00  0.00     0.000 C 
BRANCH  12  13
ATOM     13  C   UNL     1      11.048   2.772  32.741  1.00  0.00     0.006 C 
BRANCH  13  14
ATOM     14  C   UNL     1       9.626   2.774  32.164  1.00  0.00     0.053 C 
BRANCH  14  15
ATOM     15  C   UNL     1       9.455   1.673  31.165  1.00  0.00     0.041 C 
ATOM     16  O   UNL     1      10.071   0.583  31.308  1.00  0.00    -0.550 OA
ATOM     17  O   UNL     1       8.638   1.859  30.056  1.00  0.00    -0.550 OA
ENDBRANCH  14  15
ENDBRANCH  13  14
ENDBRANCH  12  13
ENDBRANCH  11  12
ENDBRANCH  10  11
ENDBRANCH   9  10
ENDBRANCH   8   9
ENDBRANCH   7   8
ENDBRANCH   6   7
ENDBRANCH   5   6
ENDBRANCH   4   5
ENDBRANCH   3   4
ENDBRANCH   2   3
ENDBRANCH   1   2
BRANCH   1  18
ATOM     18  C   UNL     1      12.784   4.547  30.014  1.00  0.00     0.000 C 
BRANCH  18  19
ATOM     19  C   UNL     1      12.623   3.161  29.363  1.00  0.00     0.000 C 
BRANCH  19  20
ATOM     20  C   UNL     1      13.641   2.875  28.239  1.00  0.00     0.000 C 
BRANCH  20  21
ATOM     21  C   UNL     1      13.008   2.942  26.842  1.00  0.00     0.000 C 
BRANCH  21  22
ATOM     22  C   UNL     1      12.979   4.386  26.322  1.00  0.00     0.000 C 
BRANCH  22  23
ATOM     23  C   UNL     1      14.395   4.968  26.214  1.00  0.00     0.000 C 
BRANCH  23  24
ATOM     24  C   UNL     1      14.512   6.282  27.002  1.00  0.00    -0.000 C 
BRANCH  24  25
ATOM     25  C   UNL     1      15.472   6.180  28.202  1.00  0.00    -0.000 C 
BRANCH  25  26
ATOM     26  C   UNL     1      16.637   5.191  28.019  1.00  0.00    -0.000 C 
BRANCH  26  27
ATOM     27  C   UNL     1      16.752   4.179  29.171  1.00  0.00    -0.000 C 
BRANCH  27  28
ATOM     28  C   UNL     1      16.462   4.835  30.540  1.00  0.00    -0.000 C 
BRANCH  28  29
ATOM     29  C   UNL     1      16.951   4.004  31.740  1.00  0.00    -0.000 C 
BRANCH  29  30
ATOM     30  C   UNL     1      15.932   3.957  32.890  1.00  0.00    -0.000 C 
BRANCH  30  31
ATOM     31  C   UNL     1      14.743   3.034  32.577  1.00  0.00    -0.003 C 
ATOM     32  C   UNL     1      15.179   1.668  32.042  1.00  0.00     0.004 C 
ENDBRANCH  30  31
ENDBRANCH  29  30
ENDBRANCH  28  29
ENDBRANCH  27  28
ENDBRANCH  26  27
ENDBRANCH  25  26
ENDBRANCH  24  25
ENDBRANCH  23  24
ENDBRANCH  22  23
ENDBRANCH  21  22
ENDBRANCH  20  21
ENDBRANCH  19  20
ENDBRANCH  18  19
ENDBRANCH   1  18
TORSDOF 28
ENDMDL
MODEL 8
REMARK VINA RESULT:    -2.787      2.719      5.806
REMARK INTER + INTRA:         -13.667
REMARK INTER:                  -7.440
REMARK INTRA:                  -6.226
REMARK UNBOUND:                -6.318
REMARK SMILES CCCCCCCCCCCCCCCCCCCCCCCCCCCCCC(=O)[O-]
REMARK SMILES IDX 16 1 17 2 18 3 19 4 20 5 21 6 22 7 23 8 24 9 25 10 26 11
REMARK SMILES IDX 27 12 28 13 29 14 30 15 31 16 32 17 15 18 14 19 13 20 12 21
REMARK SMILES IDX 11 22 10 23 9 24 8 25 7 26 6 27 5 28 4 29 3 30 2 31 1 32
REMARK H PARENT
REMARK Flexibility Score: inf
ROOT
ATOM      1  C   UNL     1       9.058   5.170  29.790  1.00  0.00     0.000 C 
ENDROOT
BRANCH   1   2
ATOM      2  C   UNL     1       8.256   6.457  30.064  1.00  0.00     0.000 C 
BRANCH   2   3
ATOM      3  C   UNL     1       9.086   7.754  30.067  1.00  0.00     0.000 C 
BRANCH   3   4
ATOM      4  C   UNL     1      10.374   7.645  30.907  1.00  0.00     0.000 C 
BRANCH   4   5
ATOM      5  C   UNL     1      10.223   8.285  32.294  1.00  0.00     0.000 C 
BRANCH   5   6
ATOM      6  C   UNL     1      10.755   7.383  33.420  1.00  0.00     0.000 C 
BRANCH   6   7
ATOM      7  C   UNL     1      11.844   6.406  32.935  1.00  0.00     0.000 C 
BRANCH   7   8
ATOM      8  C   UNL     1      12.508   5.566  34.046  1.00  0.00     0.000 C 
BRANCH   8   9
ATOM      9  C   UNL     1      12.135   4.070  34.044  1.00  0.00     0.000 C 
BRANCH   9  10
ATOM     10  C   UNL     1      12.089   3.422  32.646  1.00  0.00     0.000 C 
BRANCH  10  11
ATOM     11  C   UNL     1      13.463   3.057  32.054  1.00  0.00     0.000 C 
BRANCH  11  12
ATOM     12  C   UNL     1      13.723   3.581  30.627  1.00  0.00     0.000 C 
BRANCH  12  13
ATOM     13  C   UNL     1      12.497   4.197  29.930  1.00  0.00     0.006 C 
BRANCH  13  14
ATOM     14  C   UNL     1      12.812   5.536  29.250  1.00  0.00     0.053 C 
BRANCH  14  15
ATOM     15  C   UNL     1      13.090   5.341  27.792  1.00  0.00     0.041 C 
ATOM     16  O   UNL     1      12.668   4.313  27.196  1.00  0.00    -0.550 OA
ATOM     17  O   UNL     1      13.842   6.279  27.095  1.00  0.00    -0.550 OA
ENDBRANCH  14  15
ENDBRANCH  13  14
ENDBRANCH  12  13
ENDBRANCH  11  12
ENDBRANCH  10  11
ENDBRANCH   9  10
ENDBRANCH   8   9
ENDBRANCH   7   8
ENDBRANCH   6   7
ENDBRANCH   5   6
ENDBRANCH   4   5
ENDBRANCH   3   4
ENDBRANCH   2   3
ENDBRANCH   1   2
BRANCH   1  18
ATOM     18  C   UNL     1       9.005   4.168  30.956  1.00  0.00     0.000 C 
BRANCH  18  19
ATOM     19  C   UNL     1       8.468   4.793  32.257  1.00  0.00     0.000 C 
BRANCH  19  20
ATOM     20  C   UNL     1       8.438   3.818  33.453  1.00  0.00     0.000 C 
BRANCH  20  21
ATOM     21  C   UNL     1       8.252   2.358  33.017  1.00  0.00     0.000 C 
BRANCH  21  22
ATOM     22  C   UNL     1       9.021   1.406  33.944  1.00  0.00     0.000 C 
BRANCH  22  23
ATOM     23  C   UNL     1       9.908   0.445  33.142  1.00  0.00     0.000 C 
BRANCH  23  24
ATOM     24  C   UNL     1       9.516   0.445  31.656  1.00  0.00    -0.000 C 
BRANCH  24  25
ATOM     25  C   UNL     1      10.683   0.830  30.727  1.00  0.00    -0.000 C 
BRANCH  25  26
ATOM     26  C   UNL     1      10.308   0.974  29.240  1.00  0.00    -0.000 C 
BRANCH  26  27
ATOM     27  C   UNL     1      11.536   1.061  28.318  1.00  0.00    -0.000 C 
BRANCH  27  28
ATOM     28  C   UNL     1      11.681  -0.201  27.438  1.00  0.00    -0.000 C 
BRANCH  28  29
ATOM     29  C   UNL     1      10.779  -1.369  27.876  1.00  0.00    -0.000 C 
BRANCH  29  30
ATOM     30  C   UNL     1      11.563  -2.520  28.526  1.00  0.00    -0.000 C 
BRANCH  30  31
ATOM     31  C   UNL     1      11.228  -2.685  30.017  1.00  0.00    -0.003 C 
ATOM     32  C   UNL     1      12.445  -2.480  30.923  1.00  0.00     0.004 C 
ENDBRANCH  30  31
ENDBRANCH  29  30
ENDBRANCH  28  29
ENDBRANCH  27  28
ENDBRANCH  26  27
ENDBRANCH  25  26
ENDBRANCH  24  25
ENDBRANCH  23  24
ENDBRANCH  22  23
ENDBRANCH  21  22
ENDBRANCH  20  21
ENDBRANCH  19  20
ENDBRANCH  18  19
ENDBRANCH   1  18
TORSDOF 28
ENDMDL
MODEL 9
REMARK VINA RESULT:    -2.777      1.827      6.185
REMARK INTER + INTRA:         -13.641
REMARK INTER:                  -7.822
REMARK INTRA:                  -5.818
REMARK UNBOUND:                -6.318
REMARK SMILES CCCCCCCCCCCCCCCCCCCCCCCCCCCCCC(=O)[O-]
REMARK SMILES IDX 16 1 17 2 18 3 19 4 20 5 21 6 22 7 23 8 24 9 25 10 26 11
REMARK SMILES IDX 27 12 28 13 29 14 30 15 31 16 32 17 15 18 14 19 13 20 12 21
REMARK SMILES IDX 11 22 10 23 9 24 8 25 7 26 6 27 5 28 4 29 3 30 2 31 1 32
REMARK H PARENT
REMARK Flexibility Score: inf
ROOT
ATOM      1  C   UNL     1      15.636   4.117  33.506  1.00  0.00     0.000 C 
ENDROOT
BRANCH   1   2
ATOM      2  C   UNL     1      15.644   4.323  31.979  1.00  0.00     0.000 C 
BRANCH   2   3
ATOM      3  C   UNL     1      15.689   3.027  31.147  1.00  0.00     0.000 C 
BRANCH   3   4
ATOM      4  C   UNL     1      15.939   3.282  29.648  1.00  0.00     0.000 C 
BRANCH   4   5
ATOM      5  C   UNL     1      16.227   4.759  29.346  1.00  0.00     0.000 C 
BRANCH   5   6
ATOM      6  C   UNL     1      16.056   5.099  27.856  1.00  0.00     0.000 C 
BRANCH   6   7
ATOM      7  C   UNL     1      14.597   4.964  27.378  1.00  0.00     0.000 C 
BRANCH   7   8
ATOM      8  C   UNL     1      13.604   5.952  28.024  1.00  0.00     0.000 C 
BRANCH   8   9
ATOM      9  C   UNL     1      12.376   5.301  28.690  1.00  0.00     0.000 C 
BRANCH   9  10
ATOM     10  C   UNL     1      12.535   5.024  30.199  1.00  0.00     0.000 C 
BRANCH  10  11
ATOM     11  C   UNL     1      12.209   3.582  30.632  1.00  0.00     0.000 C 
BRANCH  11  12
ATOM     12  C   UNL     1      11.716   2.654  29.503  1.00  0.00     0.000 C 
BRANCH  12  13
ATOM     13  C   UNL     1      11.247   1.262  29.966  1.00  0.00     0.006 C 
BRANCH  13  14
ATOM     14  C   UNL     1      10.026   0.759  29.185  1.00  0.00     0.053 C 
BRANCH  14  15
ATOM     15  C   UNL     1      10.423  -0.290  28.194  1.00  0.00     0.041 C 
ATOM     16  O   UNL     1      10.448  -0.024  26.962  1.00  0.00    -0.550 OA
ATOM     17  O   UNL     1      10.738  -1.573  28.626  1.00  0.00    -0.550 OA
ENDBRANCH  14  15
ENDBRANCH  13  14
ENDBRANCH  12  13
ENDBRANCH  11  12
ENDBRANCH  10  11
ENDBRANCH   9  10
ENDBRANCH   8   9
ENDBRANCH   7   8
ENDBRANCH   6   7
ENDBRANCH   5   6
ENDBRANCH   4   5
ENDBRANCH   3   4
ENDBRANCH   2   3
ENDBRANCH   1   2
BRANCH   1  18
ATOM     18  C   UNL     1      14.492   4.868  34.209  1.00  0.00     0.000 C 
BRANCH  18  19
ATOM     19  C   UNL     1      13.263   3.978  34.466  1.00  0.00     0.000 C 
BRANCH  19  20
ATOM     20  C   UNL     1      11.919   4.732  34.398  1.00  0.00     0.000 C 
BRANCH  20  21
ATOM     21  C   UNL     1      12.007   6.016  33.562  1.00  0.00     0.000 C 
BRANCH  21  22
ATOM     22  C   UNL     1      10.785   6.913  33.803  1.00  0.00     0.000 C 
BRANCH  22  23
ATOM     23  C   UNL     1      10.862   8.196  32.965  1.00  0.00     0.000 C 
BRANCH  23  24
ATOM     24  C   UNL     1       9.681   8.286  31.986  1.00  0.00    -0.000 C 
BRANCH  24  25
ATOM     25  C   UNL     1       9.895   7.455  30.707  1.00  0.00    -0.000 C 
BRANCH  25  26
ATOM     26  C   UNL     1       8.760   6.469  30.377  1.00  0.00    -0.000 C 
BRANCH  26  27
ATOM     27  C   UNL     1       8.941   5.098  31.050  1.00  0.00    -0.000 C 
BRANCH  27  28
ATOM     28  C   UNL     1       8.005   4.929  32.268  1.00  0.00    -0.000 C 
BRANCH  28  29
ATOM     29  C   UNL     1       8.532   3.938  33.321  1.00  0.00    -0.000 C 
BRANCH  29  30
ATOM     30  C   UNL     1       9.214   2.710  32.697  1.00  0.00    -0.000 C 
BRANCH  30  31
ATOM     31  C   UNL     1       8.222   1.567  32.428  1.00  0.00    -0.003 C 
ATOM     32  C   UNL     1       8.837   0.183  32.656  1.00  0.00     0.004 C 
ENDBRANCH  30  31
ENDBRANCH  29  30
ENDBRANCH  28  29
ENDBRANCH  27  28
ENDBRANCH  26  27
ENDBRANCH  25  26
ENDBRANCH  24  25
ENDBRANCH  23  24
ENDBRANCH  22  23
ENDBRANCH  21  22
ENDBRANCH  20  21
ENDBRANCH  19  20
ENDBRANCH  18  19
ENDBRANCH   1  18
TORSDOF 28
ENDMDL
