MODEL 1
REMARK VINA RESULT:    -9.946      0.000      0.000
REMARK INTER + INTRA:         -11.979
REMARK INTER:                 -11.691
REMARK INTRA:                  -0.288
REMARK UNBOUND:                -0.288
REMARK SMILES O=c1cc(-c2ccc(O)c(O)c2)oc2cc(O)cc(O)c12
REMARK SMILES IDX 4 1 3 2 2 3 1 4 21 5 19 6 18 7 16 8 15 9 14 10 13 11 5 12
REMARK SMILES IDX 6 13 7 14 8 15 12 16 10 17 9 18 11 20 20 22 17 24
REMARK H PARENT 9 19 11 21 20 23 17 25
REMARK Flexibility Score: inf
ROOT
ATOM      1  C   UNL     1     119.955 119.975 114.896  1.00  0.00     0.138 A 
ATOM      2  C   UNL     1     121.069 119.636 115.681  1.00  0.00     0.100 A 
ATOM      3  C   UNL     1     120.886 119.292 117.021  1.00  0.00     0.197 A 
ATOM      4  O   UNL     1     121.892 118.987 117.717  1.00  0.00    -0.289 OA
ATOM      5  C   UNL     1     119.586 119.287 117.566  1.00  0.00     0.107 A 
ATOM      6  C   UNL     1     119.313 118.953 118.915  1.00  0.00     0.134 A 
ATOM      7  C   UNL     1     117.990 118.967 119.379  1.00  0.00     0.093 A 
ATOM      8  C   UNL     1     116.937 119.307 118.522  1.00  0.00     0.123 A 
ATOM      9  C   UNL     1     117.202 119.638 117.191  1.00  0.00     0.094 A 
ATOM     10  C   UNL     1     118.514 119.631 116.709  1.00  0.00     0.146 A 
ATOM     11  O   UNL     1     118.740 119.951 115.439  1.00  0.00    -0.456 OA
ENDROOT
BRANCH   1  12
ATOM     12  C   UNL     1     120.089 120.348 113.465  1.00  0.00     0.021 A 
ATOM     13  C   UNL     1     119.164 121.236 112.892  1.00  0.00     0.016 A 
ATOM     14  C   UNL     1     119.272 121.607 111.549  1.00  0.00     0.051 A 
ATOM     15  C   UNL     1     120.310 121.109 110.759  1.00  0.00     0.157 A 
ATOM     16  C   UNL     1     121.143 119.858 112.668  1.00  0.00     0.062 A 
ATOM     17  C   UNL     1     121.253 120.233 111.321  1.00  0.00     0.158 A 
BRANCH  15  18
ATOM     18  O   UNL     1     120.392 121.497 109.422  1.00  0.00    -0.504 OA
ATOM     19  H   UNL     1     119.591 121.858 108.917  1.00  0.00     0.293 HD
ENDBRANCH  15  18
BRANCH  17  20
ATOM     20  O   UNL     1     122.299 119.741 110.540  1.00  0.00    -0.504 OA
ATOM     21  H   UNL     1     123.031 120.348 110.189  1.00  0.00     0.293 HD
ENDBRANCH  17  20
ENDBRANCH   1  12
BRANCH   6  22
ATOM     22  O   UNL     1     120.343 118.609 119.791  1.00  0.00    -0.507 OA
ATOM     23  H   UNL     1     120.316 118.863 120.772  1.00  0.00     0.293 HD
ENDBRANCH   6  22
BRANCH   8  24
ATOM     24  O   UNL     1     115.622 119.320 118.983  1.00  0.00    -0.508 OA
ATOM     25  H   UNL     1     115.072 118.472 119.039  1.00  0.00     0.293 HD
ENDBRANCH   8  24
TORSDOF 5
ENDMDL
MODEL 2
REMARK VINA RESULT:    -9.932      2.239      2.690
REMARK INTER + INTRA:         -11.962
REMARK INTER:                 -11.674
REMARK INTRA:                  -0.288
REMARK UNBOUND:                -0.288
REMARK SMILES O=c1cc(-c2ccc(O)c(O)c2)oc2cc(O)cc(O)c12
REMARK SMILES IDX 4 1 3 2 2 3 1 4 21 5 19 6 18 7 16 8 15 9 14 10 13 11 5 12
REMARK SMILES IDX 6 13 7 14 8 15 12 16 10 17 9 18 11 20 20 22 17 24
REMARK H PARENT 9 19 11 21 20 23 17 25
REMARK Flexibility Score: inf
ROOT
ATOM      1  C   UNL     1     119.009 119.962 114.859  1.00  0.00     0.138 A 
ATOM      2  C   UNL     1     119.343 121.082 115.640  1.00  0.00     0.100 A 
ATOM      3  C   UNL     1     119.690 120.905 116.979  1.00  0.00     0.197 A 
ATOM      4  O   UNL     1     119.990 121.915 117.671  1.00  0.00    -0.289 OA
ATOM      5  C   UNL     1     119.705 119.608 117.529  1.00  0.00     0.107 A 
ATOM      6  C   UNL     1     120.044 119.342 118.878  1.00  0.00     0.134 A 
ATOM      7  C   UNL     1     120.039 118.019 119.347  1.00  0.00     0.093 A 
ATOM      8  C   UNL     1     119.703 116.962 118.494  1.00  0.00     0.123 A 
ATOM      9  C   UNL     1     119.368 117.220 117.163  1.00  0.00     0.094 A 
ATOM     10  C   UNL     1     119.366 118.530 116.677  1.00  0.00     0.146 A 
ATOM     11  O   UNL     1     119.042 118.749 115.406  1.00  0.00    -0.456 OA
ENDROOT
BRANCH   1  12
ATOM     12  C   UNL     1     118.632 120.089 113.428  1.00  0.00     0.021 A 
ATOM     13  C   UNL     1     117.759 119.149 112.858  1.00  0.00     0.016 A 
ATOM     14  C   UNL     1     117.384 119.250 111.515  1.00  0.00     0.051 A 
ATOM     15  C   UNL     1     117.864 120.296 110.723  1.00  0.00     0.157 A 
ATOM     16  C   UNL     1     119.105 121.150 112.630  1.00  0.00     0.062 A 
ATOM     17  C   UNL     1     118.726 121.253 111.283  1.00  0.00     0.158 A 
BRANCH  15  18
ATOM     18  O   UNL     1     117.474 120.369 109.387  1.00  0.00    -0.504 OA
ATOM     19  H   UNL     1     116.499 120.361 109.110  1.00  0.00     0.293 HD
ENDBRANCH  15  18
BRANCH  17  20
ATOM     20  O   UNL     1     119.200 122.305 110.501  1.00  0.00    -0.504 OA
ATOM     21  H   UNL     1     120.130 122.290 110.097  1.00  0.00     0.293 HD
ENDBRANCH  17  20
ENDBRANCH   1  12
BRANCH   6  22
ATOM     22  O   UNL     1     120.383 120.376 119.750  1.00  0.00    -0.507 OA
ATOM     23  H   UNL     1     121.068 121.081 119.500  1.00  0.00     0.293 HD
ENDBRANCH   6  22
BRANCH   8  24
ATOM     24  O   UNL     1     119.700 115.648 118.960  1.00  0.00    -0.508 OA
ATOM     25  H   UNL     1     120.103 115.403 119.857  1.00  0.00     0.293 HD
ENDBRANCH   8  24
TORSDOF 5
ENDMDL
MODEL 3
REMARK VINA RESULT:    -9.927      2.226      2.668
REMARK INTER + INTRA:         -11.956
REMARK INTER:                 -11.666
REMARK INTRA:                  -0.290
REMARK UNBOUND:                -0.288
REMARK SMILES O=c1cc(-c2ccc(O)c(O)c2)oc2cc(O)cc(O)c12
REMARK SMILES IDX 4 1 3 2 2 3 1 4 21 5 19 6 18 7 16 8 15 9 14 10 13 11 5 12
REMARK SMILES IDX 6 13 7 14 8 15 12 16 10 17 9 18 11 20 20 22 17 24
REMARK H PARENT 9 19 11 21 20 23 17 25
REMARK Flexibility Score: inf
ROOT
ATOM      1  C   UNL     1     119.958 119.089 114.875  1.00  0.00     0.138 A 
ATOM      2  C   UNL     1     119.591 117.977 115.651  1.00  0.00     0.100 A 
ATOM      3  C   UNL     1     119.228 118.161 116.985  1.00  0.00     0.197 A 
ATOM      4  O   UNL     1     118.899 117.156 117.673  1.00  0.00    -0.289 OA
ATOM      5  C   UNL     1     119.231 119.458 117.535  1.00  0.00     0.107 A 
ATOM      6  C   UNL     1     118.878 119.731 118.878  1.00  0.00     0.134 A 
ATOM      7  C   UNL     1     118.902 121.053 119.348  1.00  0.00     0.093 A 
ATOM      8  C   UNL     1     119.271 122.104 118.499  1.00  0.00     0.123 A 
ATOM      9  C   UNL     1     119.620 121.839 117.174  1.00  0.00     0.094 A 
ATOM     10  C   UNL     1     119.604 120.529 116.687  1.00  0.00     0.146 A 
ATOM     11  O   UNL     1     119.941 120.302 115.422  1.00  0.00    -0.456 OA
ENDROOT
BRANCH   1  12
ATOM     12  C   UNL     1     120.352 118.954 113.449  1.00  0.00     0.021 A 
ATOM     13  C   UNL     1     121.212 119.906 112.878  1.00  0.00     0.016 A 
ATOM     14  C   UNL     1     121.604 119.798 111.540  1.00  0.00     0.051 A 
ATOM     15  C   UNL     1     121.153 118.734 110.756  1.00  0.00     0.157 A 
ATOM     16  C   UNL     1     119.911 117.875 112.659  1.00  0.00     0.062 A 
ATOM     17  C   UNL     1     120.306 117.765 111.317  1.00  0.00     0.158 A 
BRANCH  15  18
ATOM     18  O   UNL     1     121.560 118.653 109.424  1.00  0.00    -0.504 OA
ATOM     19  H   UNL     1     120.974 118.974 108.662  1.00  0.00     0.293 HD
ENDBRANCH  15  18
BRANCH  17  20
ATOM     20  O   UNL     1     119.862 116.694 110.542  1.00  0.00    -0.504 OA
ATOM     21  H   UNL     1     119.426 116.838 109.638  1.00  0.00     0.293 HD
ENDBRANCH  17  20
ENDBRANCH   1  12
BRANCH   6  22
ATOM     22  O   UNL     1     118.506 118.704 119.746  1.00  0.00    -0.507 OA
ATOM     23  H   UNL     1     119.189 118.204 120.304  1.00  0.00     0.293 HD
ENDBRANCH   6  22
BRANCH   8  24
ATOM     24  O   UNL     1     119.293 123.417 118.966  1.00  0.00    -0.508 OA
ATOM     25  H   UNL     1     119.137 124.202 118.345  1.00  0.00     0.293 HD
ENDBRANCH   8  24
TORSDOF 5
ENDMDL
MODEL 4
REMARK VINA RESULT:    -9.923      2.390      3.791
REMARK INTER + INTRA:         -11.952
REMARK INTER:                 -11.663
REMARK INTRA:                  -0.288
REMARK UNBOUND:                -0.288
REMARK SMILES O=c1cc(-c2ccc(O)c(O)c2)oc2cc(O)cc(O)c12
REMARK SMILES IDX 4 1 3 2 2 3 1 4 21 5 19 6 18 7 16 8 15 9 14 10 13 11 5 12
REMARK SMILES IDX 6 13 7 14 8 15 12 16 10 17 9 18 11 20 20 22 17 24
REMARK H PARENT 9 19 11 21 20 23 17 25
REMARK Flexibility Score: inf
ROOT
ATOM      1  C   UNL     1     119.116 119.034 114.882  1.00  0.00     0.138 A 
ATOM      2  C   UNL     1     118.002 119.363 115.672  1.00  0.00     0.100 A 
ATOM      3  C   UNL     1     118.189 119.716 117.008  1.00  0.00     0.197 A 
ATOM      4  O   UNL     1     117.183 120.012 117.709  1.00  0.00    -0.289 OA
ATOM      5  C   UNL     1     119.491 119.741 117.546  1.00  0.00     0.107 A 
ATOM      6  C   UNL     1     119.768 120.086 118.891  1.00  0.00     0.134 A 
ATOM      7  C   UNL     1     121.094 120.091 119.348  1.00  0.00     0.093 A 
ATOM      8  C   UNL     1     122.146 119.759 118.486  1.00  0.00     0.123 A 
ATOM      9  C   UNL     1     121.877 119.418 117.159  1.00  0.00     0.094 A 
ATOM     10  C   UNL     1     120.563 119.406 116.684  1.00  0.00     0.146 A 
ATOM     11  O   UNL     1     120.334 119.076 115.417  1.00  0.00    -0.456 OA
ENDROOT
BRANCH   1  12
ATOM     12  C   UNL     1     118.978 118.652 113.453  1.00  0.00     0.021 A 
ATOM     13  C   UNL     1     119.919 117.783 112.877  1.00  0.00     0.016 A 
ATOM     14  C   UNL     1     119.808 117.403 111.536  1.00  0.00     0.051 A 
ATOM     15  C   UNL     1     118.751 117.874 110.753  1.00  0.00     0.157 A 
ATOM     16  C   UNL     1     117.907 119.114 112.664  1.00  0.00     0.062 A 
ATOM     17  C   UNL     1     117.793 118.731 111.319  1.00  0.00     0.158 A 
BRANCH  15  18
ATOM     18  O   UNL     1     118.667 117.478 109.418  1.00  0.00    -0.504 OA
ATOM     19  H   UNL     1     117.888 117.741 108.827  1.00  0.00     0.293 HD
ENDBRANCH  15  18
BRANCH  17  20
ATOM     20  O   UNL     1     116.730 119.195 110.545  1.00  0.00    -0.504 OA
ATOM     21  H   UNL     1     116.005 118.571 110.210  1.00  0.00     0.293 HD
ENDBRANCH  17  20
ENDBRANCH   1  12
BRANCH   6  22
ATOM     22  O   UNL     1     118.739 120.421 119.771  1.00  0.00    -0.507 OA
ATOM     23  H   UNL     1     117.967 121.015 119.488  1.00  0.00     0.293 HD
ENDBRANCH   6  22
BRANCH   8  24
ATOM     24  O   UNL     1     123.464 119.765 118.940  1.00  0.00    -0.508 OA
ATOM     25  H   UNL     1     124.245 119.792 118.297  1.00  0.00     0.293 HD
ENDBRANCH   8  24
TORSDOF 5
ENDMDL
MODEL 5
REMARK VINA RESULT:    -9.838      2.566      2.739
REMARK INTER + INTRA:         -11.852
REMARK INTER:                 -11.570
REMARK INTRA:                  -0.282
REMARK UNBOUND:                -0.288
REMARK SMILES O=c1cc(-c2ccc(O)c(O)c2)oc2cc(O)cc(O)c12
REMARK SMILES IDX 4 1 3 2 2 3 1 4 21 5 19 6 18 7 16 8 15 9 14 10 13 11 5 12
REMARK SMILES IDX 6 13 7 14 8 15 12 16 10 17 9 18 11 20 20 22 17 24
REMARK H PARENT 9 19 11 21 20 23 17 25
REMARK Flexibility Score: inf
ROOT
ATOM      1  C   UNL     1     119.197 118.958 115.005  1.00  0.00     0.138 A 
ATOM      2  C   UNL     1     119.621 117.928 115.861  1.00  0.00     0.100 A 
ATOM      3  C   UNL     1     119.896 118.217 117.198  1.00  0.00     0.197 A 
ATOM      4  O   UNL     1     120.274 117.286 117.959  1.00  0.00    -0.289 OA
ATOM      5  C   UNL     1     119.742 119.535 117.671  1.00  0.00     0.107 A 
ATOM      6  C   UNL     1     120.001 119.913 119.011  1.00  0.00     0.134 A 
ATOM      7  C   UNL     1     119.818 121.248 119.404  1.00  0.00     0.093 A 
ATOM      8  C   UNL     1     119.381 122.208 118.483  1.00  0.00     0.123 A 
ATOM      9  C   UNL     1     119.125 121.839 117.161  1.00  0.00     0.094 A 
ATOM     10  C   UNL     1     119.302 120.516 116.749  1.00  0.00     0.146 A 
ATOM     11  O   UNL     1     119.052 120.191 115.485  1.00  0.00    -0.456 OA
ENDROOT
BRANCH   1  12
ATOM     12  C   UNL     1     118.889 118.709 113.573  1.00  0.00     0.021 A 
ATOM     13  C   UNL     1     117.791 119.356 112.981  1.00  0.00     0.016 A 
ATOM     14  C   UNL     1     117.483 119.144 111.634  1.00  0.00     0.051 A 
ATOM     15  C   UNL     1     118.271 118.294 110.854  1.00  0.00     0.157 A 
ATOM     16  C   UNL     1     119.688 117.863 112.780  1.00  0.00     0.062 A 
ATOM     17  C   UNL     1     119.381 117.653 111.427  1.00  0.00     0.158 A 
BRANCH  15  18
ATOM     18  O   UNL     1     117.938 118.101 109.514  1.00  0.00    -0.504 OA
ATOM     19  H   UNL     1     117.907 117.180 109.094  1.00  0.00     0.293 HD
ENDBRANCH  15  18
BRANCH  17  20
ATOM     20  O   UNL     1     120.177 116.812 110.651  1.00  0.00    -0.504 OA
ATOM     21  H   UNL     1     120.516 115.924 111.005  1.00  0.00     0.293 HD
ENDBRANCH  17  20
ENDBRANCH   1  12
BRANCH   6  22
ATOM     22  O   UNL     1     120.436 118.977 119.948  1.00  0.00    -0.507 OA
ATOM     23  H   UNL     1     120.951 119.252 120.778  1.00  0.00     0.293 HD
ENDBRANCH   6  22
BRANCH   8  24
ATOM     24  O   UNL     1     119.199 123.533 118.874  1.00  0.00    -0.508 OA
ATOM     25  H   UNL     1     119.958 124.080 119.262  1.00  0.00     0.293 HD
ENDBRANCH   8  24
TORSDOF 5
ENDMDL
MODEL 6
REMARK VINA RESULT:    -9.652      1.280      2.753
REMARK INTER + INTRA:         -11.633
REMARK INTER:                 -11.340
REMARK INTRA:                  -0.294
REMARK UNBOUND:                -0.288
REMARK SMILES O=c1cc(-c2ccc(O)c(O)c2)oc2cc(O)cc(O)c12
REMARK SMILES IDX 4 1 3 2 2 3 1 4 21 5 19 6 18 7 16 8 15 9 14 10 13 11 5 12
REMARK SMILES IDX 6 13 7 14 8 15 12 16 10 17 9 18 11 20 20 22 17 24
REMARK H PARENT 9 19 11 21 20 23 17 25
REMARK Flexibility Score: inf
ROOT
ATOM      1  C   UNL     1     119.808 120.001 114.699  1.00  0.00     0.138 A 
ATOM      2  C   UNL     1     118.548 119.622 115.194  1.00  0.00     0.100 A 
ATOM      3  C   UNL     1     118.416 119.272 116.537  1.00  0.00     0.197 A 
ATOM      4  O   UNL     1     117.282 118.934 116.972  1.00  0.00    -0.289 OA
ATOM      5  C   UNL     1     119.545 119.306 117.380  1.00  0.00     0.107 A 
ATOM      6  C   UNL     1     119.498 118.965 118.753  1.00  0.00     0.134 A 
ATOM      7  C   UNL     1     120.668 119.030 119.526  1.00  0.00     0.093 A 
ATOM      8  C   UNL     1     121.880 119.431 118.951  1.00  0.00     0.123 A 
ATOM      9  C   UNL     1     121.930 119.768 117.597  1.00  0.00     0.094 A 
ATOM     10  C   UNL     1     120.777 119.708 116.810  1.00  0.00     0.146 A 
ATOM     11  O   UNL     1     120.852 120.033 115.524  1.00  0.00    -0.456 OA
ENDROOT
BRANCH   1  12
ATOM     12  C   UNL     1     120.008 120.386 113.279  1.00  0.00     0.021 A 
ATOM     13  C   UNL     1     119.089 121.252 112.662  1.00  0.00     0.016 A 
ATOM     14  C   UNL     1     119.258 121.634 111.328  1.00  0.00     0.051 A 
ATOM     15  C   UNL     1     120.351 121.170 110.592  1.00  0.00     0.157 A 
ATOM     16  C   UNL     1     121.116 119.931 112.538  1.00  0.00     0.062 A 
ATOM     17  C   UNL     1     121.287 120.317 111.200  1.00  0.00     0.158 A 
BRANCH  15  18
ATOM     18  O   UNL     1     120.493 121.568 109.263  1.00  0.00    -0.504 OA
ATOM     19  H   UNL     1     121.378 121.888 108.889  1.00  0.00     0.293 HD
ENDBRANCH  15  18
BRANCH  17  20
ATOM     20  O   UNL     1     122.386 119.859 110.474  1.00  0.00    -0.504 OA
ATOM     21  H   UNL     1     123.035 120.500 110.032  1.00  0.00     0.293 HD
ENDBRANCH  17  20
ENDBRANCH   1  12
BRANCH   6  22
ATOM     22  O   UNL     1     118.304 118.563 119.352  1.00  0.00    -0.507 OA
ATOM     23  H   UNL     1     118.067 118.829 120.301  1.00  0.00     0.293 HD
ENDBRANCH   6  22
BRANCH   8  24
ATOM     24  O   UNL     1     123.041 119.497 119.719  1.00  0.00    -0.508 OA
ATOM     25  H   UNL     1     123.319 118.735 120.325  1.00  0.00     0.293 HD
ENDBRANCH   8  24
TORSDOF 5
ENDMDL
MODEL 7
REMARK VINA RESULT:    -9.651      1.982      2.728
REMARK INTER + INTRA:         -11.631
REMARK INTER:                 -11.337
REMARK INTRA:                  -0.294
REMARK UNBOUND:                -0.288
REMARK SMILES O=c1cc(-c2ccc(O)c(O)c2)oc2cc(O)cc(O)c12
REMARK SMILES IDX 4 1 3 2 2 3 1 4 21 5 19 6 18 7 16 8 15 9 14 10 13 11 5 12
REMARK SMILES IDX 6 13 7 14 8 15 12 16 10 17 9 18 11 20 20 22 17 24
REMARK H PARENT 9 19 11 21 20 23 17 25
REMARK Flexibility Score: inf
ROOT
ATOM      1  C   UNL     1     119.985 119.186 114.689  1.00  0.00     0.138 A 
ATOM      2  C   UNL     1     119.596 120.437 115.197  1.00  0.00     0.100 A 
ATOM      3  C   UNL     1     119.243 120.553 116.541  1.00  0.00     0.197 A 
ATOM      4  O   UNL     1     118.898 121.680 116.988  1.00  0.00    -0.289 OA
ATOM      5  C   UNL     1     119.285 119.415 117.372  1.00  0.00     0.107 A 
ATOM      6  C   UNL     1     118.942 119.445 118.745  1.00  0.00     0.134 A 
ATOM      7  C   UNL     1     119.014 118.268 119.505  1.00  0.00     0.093 A 
ATOM      8  C   UNL     1     119.424 117.065 118.918  1.00  0.00     0.123 A 
ATOM      9  C   UNL     1     119.763 117.031 117.564  1.00  0.00     0.094 A 
ATOM     10  C   UNL     1     119.696 118.192 116.789  1.00  0.00     0.146 A 
ATOM     11  O   UNL     1     120.023 118.133 115.502  1.00  0.00    -0.456 OA
ENDROOT
BRANCH   1  12
ATOM     12  C   UNL     1     120.372 119.004 113.267  1.00  0.00     0.021 A 
ATOM     13  C   UNL     1     121.225 119.940 112.659  1.00  0.00     0.016 A 
ATOM     14  C   UNL     1     121.610 119.788 111.324  1.00  0.00     0.051 A 
ATOM     15  C   UNL     1     121.161 118.695 110.578  1.00  0.00     0.157 A 
ATOM     16  C   UNL     1     119.932 117.897 112.516  1.00  0.00     0.062 A 
ATOM     17  C   UNL     1     120.321 117.742 111.177  1.00  0.00     0.158 A 
BRANCH  15  18
ATOM     18  O   UNL     1     121.561 118.571 109.248  1.00  0.00    -0.504 OA
ATOM     19  H   UNL     1     121.402 117.724 108.715  1.00  0.00     0.293 HD
ENDBRANCH  15  18
BRANCH  17  20
ATOM     20  O   UNL     1     119.878 116.644 110.441  1.00  0.00    -0.504 OA
ATOM     21  H   UNL     1     119.457 115.838 110.890  1.00  0.00     0.293 HD
ENDBRANCH  17  20
ENDBRANCH   1  12
BRANCH   6  22
ATOM     22  O   UNL     1     118.531 120.630 119.356  1.00  0.00    -0.507 OA
ATOM     23  H   UNL     1     118.158 121.405 118.820  1.00  0.00     0.293 HD
ENDBRANCH   6  22
BRANCH   8  24
ATOM     24  O   UNL     1     119.497 115.896 119.674  1.00  0.00    -0.508 OA
ATOM     25  H   UNL     1     118.672 115.345 119.879  1.00  0.00     0.293 HD
ENDBRANCH   8  24
TORSDOF 5
ENDMDL
MODEL 8
REMARK VINA RESULT:    -9.622      2.249      2.601
REMARK INTER + INTRA:         -11.598
REMARK INTER:                 -11.304
REMARK INTRA:                  -0.294
REMARK UNBOUND:                -0.288
REMARK SMILES O=c1cc(-c2ccc(O)c(O)c2)oc2cc(O)cc(O)c12
REMARK SMILES IDX 4 1 3 2 2 3 1 4 21 5 19 6 18 7 16 8 15 9 14 10 13 11 5 12
REMARK SMILES IDX 6 13 7 14 8 15 12 16 10 17 9 18 11 20 20 22 17 24
REMARK H PARENT 9 19 11 21 20 23 17 25
REMARK Flexibility Score: inf
ROOT
ATOM      1  C   UNL     1     119.151 118.962 114.506  1.00  0.00     0.138 A 
ATOM      2  C   UNL     1     120.398 119.336 115.035  1.00  0.00     0.100 A 
ATOM      3  C   UNL     1     120.496 119.685 116.382  1.00  0.00     0.197 A 
ATOM      4  O   UNL     1     121.620 120.017 116.847  1.00  0.00    -0.289 OA
ATOM      5  C   UNL     1     119.345 119.654 117.194  1.00  0.00     0.107 A 
ATOM      6  C   UNL     1     119.357 119.995 118.568  1.00  0.00     0.134 A 
ATOM      7  C   UNL     1     118.167 119.934 119.309  1.00  0.00     0.093 A 
ATOM      8  C   UNL     1     116.969 119.539 118.702  1.00  0.00     0.123 A 
ATOM      9  C   UNL     1     116.953 119.203 117.347  1.00  0.00     0.094 A 
ATOM     10  C   UNL     1     118.127 119.258 116.591  1.00  0.00     0.146 A 
ATOM     11  O   UNL     1     118.085 118.935 115.303  1.00  0.00    -0.456 OA
ENDROOT
BRANCH   1  12
ATOM     12  C   UNL     1     118.987 118.579 113.081  1.00  0.00     0.021 A 
ATOM     13  C   UNL     1     119.921 117.714 112.487  1.00  0.00     0.016 A 
ATOM     14  C   UNL     1     119.786 117.333 111.149  1.00  0.00     0.051 A 
ATOM     15  C   UNL     1     118.713 117.799 110.386  1.00  0.00     0.157 A 
ATOM     16  C   UNL     1     117.899 119.037 112.312  1.00  0.00     0.062 A 
ATOM     17  C   UNL     1     117.762 118.652 110.970  1.00  0.00     0.158 A 
BRANCH  15  18
ATOM     18  O   UNL     1     118.605 117.403 109.053  1.00  0.00    -0.504 OA
ATOM     19  H   UNL     1     117.920 116.722 108.748  1.00  0.00     0.293 HD
ENDBRANCH  15  18
BRANCH  17  20
ATOM     20  O   UNL     1     116.682 119.111 110.216  1.00  0.00    -0.504 OA
ATOM     21  H   UNL     1     115.768 118.676 110.278  1.00  0.00     0.293 HD
ENDBRANCH  17  20
ENDBRANCH   1  12
BRANCH   6  22
ATOM     22  O   UNL     1     120.536 120.391 119.199  1.00  0.00    -0.507 OA
ATOM     23  H   UNL     1     120.742 120.131 120.157  1.00  0.00     0.293 HD
ENDBRANCH   6  22
BRANCH   8  24
ATOM     24  O   UNL     1     115.787 119.478 119.439  1.00  0.00    -0.508 OA
ATOM     25  H   UNL     1     115.757 119.747 120.414  1.00  0.00     0.293 HD
ENDBRANCH   8  24
TORSDOF 5
ENDMDL
MODEL 9
REMARK VINA RESULT:    -9.537      2.640      2.891
REMARK INTER + INTRA:         -11.497
REMARK INTER:                 -11.220
REMARK INTRA:                  -0.278
REMARK UNBOUND:                -0.288
REMARK SMILES O=c1cc(-c2ccc(O)c(O)c2)oc2cc(O)cc(O)c12
REMARK SMILES IDX 4 1 3 2 2 3 1 4 21 5 19 6 18 7 16 8 15 9 14 10 13 11 5 12
REMARK SMILES IDX 6 13 7 14 8 15 12 16 10 17 9 18 11 20 20 22 17 24
REMARK H PARENT 9 19 11 21 20 23 17 25
REMARK Flexibility Score: inf
ROOT
ATOM      1  C   UNL     1     119.128 118.920 114.562  1.00  0.00     0.138 A 
ATOM      2  C   UNL     1     119.394 120.222 115.019  1.00  0.00     0.100 A 
ATOM      3  C   UNL     1     119.664 120.433 116.371  1.00  0.00     0.197 A 
ATOM      4  O   UNL     1     119.903 121.605 116.772  1.00  0.00    -0.289 OA
ATOM      5  C   UNL     1     119.672 119.338 117.259  1.00  0.00     0.107 A 
ATOM      6  C   UNL     1     119.935 119.465 118.644  1.00  0.00     0.134 A 
ATOM      7  C   UNL     1     119.928 118.324 119.460  1.00  0.00     0.093 A 
ATOM      8  C   UNL     1     119.664 117.061 118.916  1.00  0.00     0.123 A 
ATOM      9  C   UNL     1     119.404 116.932 117.550  1.00  0.00     0.094 A 
ATOM     10  C   UNL     1     119.405 118.056 116.721  1.00  0.00     0.146 A 
ATOM     11  O   UNL     1     119.152 117.907 115.424  1.00  0.00    -0.456 OA
ENDROOT
BRANCH   1  12
ATOM     12  C   UNL     1     118.835 118.636 113.134  1.00  0.00     0.021 A 
ATOM     13  C   UNL     1     117.733 119.252 112.520  1.00  0.00     0.016 A 
ATOM     14  C   UNL     1     117.439 119.006 111.176  1.00  0.00     0.051 A 
ATOM     15  C   UNL     1     118.246 118.152 110.420  1.00  0.00     0.157 A 
ATOM     16  C   UNL     1     119.654 117.786 112.366  1.00  0.00     0.062 A 
ATOM     17  C   UNL     1     119.362 117.541 111.016  1.00  0.00     0.158 A 
BRANCH  15  18
ATOM     18  O   UNL     1     117.928 117.926 109.082  1.00  0.00    -0.504 OA
ATOM     19  H   UNL     1     117.044 118.218 108.682  1.00  0.00     0.293 HD
ENDBRANCH  15  18
BRANCH  17  20
ATOM     20  O   UNL     1     120.177 116.697 110.264  1.00  0.00    -0.504 OA
ATOM     21  H   UNL     1     120.282 115.715 110.495  1.00  0.00     0.293 HD
ENDBRANCH  17  20
ENDBRANCH   1  12
BRANCH   6  22
ATOM     22  O   UNL     1     120.202 120.711 119.212  1.00  0.00    -0.507 OA
ATOM     23  H   UNL     1     119.803 120.987 120.103  1.00  0.00     0.293 HD
ENDBRANCH   6  22
BRANCH   8  24
ATOM     24  O   UNL     1     119.659 115.927 119.726  1.00  0.00    -0.508 OA
ATOM     25  H   UNL     1     120.403 115.241 119.683  1.00  0.00     0.293 HD
ENDBRANCH   8  24
TORSDOF 5
ENDMDL
