MODEL 1
REMARK VINA RESULT:    -4.935      0.000      0.000
REMARK INTER + INTRA:         -15.947
REMARK INTER:                 -12.435
REMARK INTRA:                  -3.512
REMARK UNBOUND:                -3.512
REMARK SMILES CCCCCCCCCCCCCCCCCCCCCCCCCCCC(=O)[O-]
REMARK SMILES IDX 15 1 16 2 17 3 18 4 19 5 20 6 21 7 22 8 23 9 24 10 25 11
REMARK SMILES IDX 26 12 27 13 28 14 29 15 30 16 14 17 13 18 12 19 11 20 10 21
REMARK SMILES IDX 9 22 8 23 7 24 6 25 5 26 4 27 3 28 2 29 1 30
REMARK H PARENT
REMARK Flexibility Score: inf
ROOT
ATOM      1  C   UNL     1     -15.576 -12.057  18.776  1.00  0.00     0.000 C 
ENDROOT
BRANCH   1   2
ATOM      2  C   UNL     1     -15.348 -12.469  17.316  1.00  0.00     0.000 C 
BRANCH   2   3
ATOM      3  C   UNL     1     -16.118 -13.758  16.990  1.00  0.00     0.000 C 
BRANCH   3   4
ATOM      4  C   UNL     1     -16.461 -13.874  15.491  1.00  0.00     0.000 C 
BRANCH   4   5
ATOM      5  C   UNL     1     -16.206 -12.579  14.701  1.00  0.00     0.000 C 
BRANCH   5   6
ATOM      6  C   UNL     1     -15.837 -12.838  13.231  1.00  0.00     0.000 C 
BRANCH   6   7
ATOM      7  C   UNL     1     -14.329 -13.104  13.038  1.00  0.00     0.000 C 
BRANCH   7   8
ATOM      8  C   UNL     1     -13.420 -12.003  13.619  1.00  0.00     0.000 C 
BRANCH   8   9
ATOM      9  C   UNL     1     -12.665 -12.382  14.908  1.00  0.00     0.000 C 
BRANCH   9  10
ATOM     10  C   UNL     1     -12.592 -13.893  15.199  1.00  0.00     0.000 C 
BRANCH  10  11
ATOM     11  C   UNL     1     -11.238 -14.510  14.811  1.00  0.00     0.000 C 
BRANCH  11  12
ATOM     12  C   UNL     1     -10.063 -13.539  15.013  1.00  0.00     0.006 C 
BRANCH  12  13
ATOM     13  C   UNL     1      -9.395 -13.121  13.696  1.00  0.00     0.053 C 
BRANCH  13  14
ATOM     14  C   UNL     1      -8.467 -11.966  13.915  1.00  0.00     0.041 C 
ATOM     15  O   UNL     1      -7.233 -12.163  14.062  1.00  0.00    -0.550 OA
ATOM     16  O   UNL     1      -8.968 -10.670  13.968  1.00  0.00    -0.550 OA
ENDBRANCH  13  14
ENDBRANCH  12  13
ENDBRANCH  11  12
ENDBRANCH  10  11
ENDBRANCH   9  10
ENDBRANCH   8   9
ENDBRANCH   7   8
ENDBRANCH   6   7
ENDBRANCH   5   6
ENDBRANCH   4   5
ENDBRANCH   3   4
ENDBRANCH   2   3
ENDBRANCH   1   2
BRANCH   1  17
ATOM     17  C   UNL     1     -16.864 -12.653  19.365  1.00  0.00     0.000 C 
BRANCH  17  18
ATOM     18  C   UNL     1     -17.244 -12.031  20.719  1.00  0.00     0.000 C 
BRANCH  18  19
ATOM     19  C   UNL     1     -17.752 -10.594  20.531  1.00  0.00     0.000 C 
BRANCH  19  20
ATOM     20  C   UNL     1     -19.104 -10.333  21.219  1.00  0.00     0.000 C 
BRANCH  20  21
ATOM     21  C   UNL     1     -19.271 -10.980  22.606  1.00  0.00     0.000 C 
BRANCH  21  22
ATOM     22  C   UNL     1     -18.720 -10.156  23.785  1.00  0.00    -0.000 C 
BRANCH  22  23
ATOM     23  C   UNL     1     -17.261 -10.495  24.160  1.00  0.00    -0.000 C 
BRANCH  23  24
ATOM     24  C   UNL     1     -16.371  -9.243  24.263  1.00  0.00    -0.000 C 
BRANCH  24  25
ATOM     25  C   UNL     1     -15.707  -8.879  22.925  1.00  0.00    -0.000 C 
BRANCH  25  26
ATOM     26  C   UNL     1     -14.201  -8.614  23.067  1.00  0.00    -0.000 C 
BRANCH  26  27
ATOM     27  C   UNL     1     -13.401  -9.917  22.908  1.00  0.00    -0.000 C 
BRANCH  27  28
ATOM     28  C   UNL     1     -13.964 -10.824  21.804  1.00  0.00    -0.000 C 
BRANCH  28  29
ATOM     29  C   UNL     1     -13.757 -12.317  22.104  1.00  0.00    -0.003 C 
ATOM     30  C   UNL     1     -12.813 -12.954  21.088  1.00  0.00     0.004 C 
ENDBRANCH  28  29
ENDBRANCH  27  28
ENDBRANCH  26  27
ENDBRANCH  25  26
ENDBRANCH  24  25
ENDBRANCH  23  24
ENDBRANCH  22  23
ENDBRANCH  21  22
ENDBRANCH  20  21
ENDBRANCH  19  20
ENDBRANCH  18  19
ENDBRANCH  17  18
ENDBRANCH   1  17
TORSDOF 26
ENDMDL
MODEL 2
REMARK VINA RESULT:    -4.908      1.221      1.857
REMARK INTER + INTRA:         -15.881
REMARK INTER:                 -12.560
REMARK INTRA:                  -3.321
REMARK UNBOUND:                -3.512
REMARK SMILES CCCCCCCCCCCCCCCCCCCCCCCCCCCC(=O)[O-]
REMARK SMILES IDX 15 1 16 2 17 3 18 4 19 5 20 6 21 7 22 8 23 9 24 10 25 11
REMARK SMILES IDX 26 12 27 13 28 14 29 15 30 16 14 17 13 18 12 19 11 20 10 21
REMARK SMILES IDX 9 22 8 23 7 24 6 25 5 26 4 27 3 28 2 29 1 30
REMARK H PARENT
REMARK Flexibility Score: inf
ROOT
ATOM      1  C   UNL     1     -16.565 -12.369  20.135  1.00  0.00     0.000 C 
ENDROOT
BRANCH   1   2
ATOM      2  C   UNL     1     -15.602 -11.668  19.166  1.00  0.00     0.000 C 
BRANCH   2   3
ATOM      3  C   UNL     1     -15.008 -12.675  18.170  1.00  0.00     0.000 C 
BRANCH   3   4
ATOM      4  C   UNL     1     -16.097 -13.447  17.395  1.00  0.00     0.000 C 
BRANCH   4   5
ATOM      5  C   UNL     1     -15.794 -13.592  15.893  1.00  0.00     0.000 C 
BRANCH   5   6
ATOM      6  C   UNL     1     -15.216 -12.309  15.274  1.00  0.00     0.000 C 
BRANCH   6   7
ATOM      7  C   UNL     1     -14.285 -12.597  14.077  1.00  0.00     0.000 C 
BRANCH   7   8
ATOM      8  C   UNL     1     -13.635 -13.995  14.113  1.00  0.00     0.000 C 
BRANCH   8   9
ATOM      9  C   UNL     1     -12.295 -14.080  14.868  1.00  0.00     0.000 C 
BRANCH   9  10
ATOM     10  C   UNL     1     -11.389 -12.841  14.728  1.00  0.00     0.000 C 
BRANCH  10  11
ATOM     11  C   UNL     1     -10.429 -12.667  15.918  1.00  0.00     0.000 C 
BRANCH  11  12
ATOM     12  C   UNL     1      -8.967 -12.967  15.548  1.00  0.00     0.006 C 
BRANCH  12  13
ATOM     13  C   UNL     1      -8.238 -11.758  14.946  1.00  0.00     0.053 C 
BRANCH  13  14
ATOM     14  C   UNL     1      -7.414 -12.170  13.766  1.00  0.00     0.041 C 
ATOM     15  O   UNL     1      -7.921 -12.868  12.850  1.00  0.00    -0.550 OA
ATOM     16  O   UNL     1      -6.078 -11.791  13.682  1.00  0.00    -0.550 OA
ENDBRANCH  13  14
ENDBRANCH  12  13
ENDBRANCH  11  12
ENDBRANCH  10  11
ENDBRANCH   9  10
ENDBRANCH   8   9
ENDBRANCH   7   8
ENDBRANCH   6   7
ENDBRANCH   5   6
ENDBRANCH   4   5
ENDBRANCH   3   4
ENDBRANCH   2   3
ENDBRANCH   1   2
BRANCH   1  17
ATOM     17  C   UNL     1     -17.995 -11.814  20.052  1.00  0.00     0.000 C 
BRANCH  17  18
ATOM     18  C   UNL     1     -18.323 -10.839  21.195  1.00  0.00     0.000 C 
BRANCH  18  19
ATOM     19  C   UNL     1     -19.841 -10.640  21.319  1.00  0.00     0.000 C 
BRANCH  19  20
ATOM     20  C   UNL     1     -20.268 -10.059  22.679  1.00  0.00     0.000 C 
BRANCH  20  21
ATOM     21  C   UNL     1     -19.442 -10.539  23.887  1.00  0.00     0.000 C 
BRANCH  21  22
ATOM     22  C   UNL     1     -18.614  -9.448  24.591  1.00  0.00    -0.000 C 
BRANCH  22  23
ATOM     23  C   UNL     1     -17.114  -9.790  24.731  1.00  0.00    -0.000 C 
BRANCH  23  24
ATOM     24  C   UNL     1     -16.834 -11.294  24.564  1.00  0.00    -0.000 C 
BRANCH  24  25
ATOM     25  C   UNL     1     -15.475 -11.571  23.900  1.00  0.00    -0.000 C 
BRANCH  25  26
ATOM     26  C   UNL     1     -15.075 -10.479  22.896  1.00  0.00    -0.000 C 
BRANCH  26  27
ATOM     27  C   UNL     1     -13.726 -10.811  22.238  1.00  0.00    -0.000 C 
BRANCH  27  28
ATOM     28  C   UNL     1     -13.409 -12.313  22.266  1.00  0.00    -0.000 C 
BRANCH  28  29
ATOM     29  C   UNL     1     -12.620 -12.774  21.031  1.00  0.00    -0.003 C 
ATOM     30  C   UNL     1     -11.694 -11.669  20.530  1.00  0.00     0.004 C 
ENDBRANCH  28  29
ENDBRANCH  27  28
ENDBRANCH  26  27
ENDBRANCH  25  26
ENDBRANCH  24  25
ENDBRANCH  23  24
ENDBRANCH  22  23
ENDBRANCH  21  22
ENDBRANCH  20  21
ENDBRANCH  19  20
ENDBRANCH  18  19
ENDBRANCH  17  18
ENDBRANCH   1  17
TORSDOF 26
ENDMDL
MODEL 3
REMARK VINA RESULT:    -4.822      1.189      1.732
REMARK INTER + INTRA:         -15.662
REMARK INTER:                 -12.564
REMARK INTRA:                  -3.098
REMARK UNBOUND:                -3.512
REMARK SMILES CCCCCCCCCCCCCCCCCCCCCCCCCCCC(=O)[O-]
REMARK SMILES IDX 15 1 16 2 17 3 18 4 19 5 20 6 21 7 22 8 23 9 24 10 25 11
REMARK SMILES IDX 26 12 27 13 28 14 29 15 30 16 14 17 13 18 12 19 11 20 10 21
REMARK SMILES IDX 9 22 8 23 7 24 6 25 5 26 4 27 3 28 2 29 1 30
REMARK H PARENT
REMARK Flexibility Score: inf
ROOT
ATOM      1  C   UNL     1     -15.457 -12.246  18.657  1.00  0.00     0.000 C 
ENDROOT
BRANCH   1   2
ATOM      2  C   UNL     1     -14.965 -13.112  17.490  1.00  0.00     0.000 C 
BRANCH   2   3
ATOM      3  C   UNL     1     -16.150 -13.764  16.763  1.00  0.00     0.000 C 
BRANCH   3   4
ATOM      4  C   UNL     1     -16.049 -13.623  15.230  1.00  0.00     0.000 C 
BRANCH   4   5
ATOM      5  C   UNL     1     -15.366 -12.320  14.778  1.00  0.00     0.000 C 
BRANCH   5   6
ATOM      6  C   UNL     1     -14.093 -12.569  13.953  1.00  0.00     0.000 C 
BRANCH   6   7
ATOM      7  C   UNL     1     -13.572 -14.015  14.090  1.00  0.00     0.000 C 
BRANCH   7   8
ATOM      8  C   UNL     1     -12.173 -14.118  14.730  1.00  0.00     0.000 C 
BRANCH   8   9
ATOM      9  C   UNL     1     -11.933 -13.198  15.943  1.00  0.00     0.000 C 
BRANCH   9  10
ATOM     10  C   UNL     1     -10.543 -12.536  15.992  1.00  0.00     0.000 C 
BRANCH  10  11
ATOM     11  C   UNL     1      -9.473 -13.337  15.231  1.00  0.00     0.000 C 
BRANCH  11  12
ATOM     12  C   UNL     1      -8.874 -12.555  14.050  1.00  0.00     0.006 C 
BRANCH  12  13
ATOM     13  C   UNL     1      -7.346 -12.433  14.123  1.00  0.00     0.053 C 
BRANCH  13  14
ATOM     14  C   UNL     1      -6.916 -11.017  13.895  1.00  0.00     0.041 C 
ATOM     15  O   UNL     1      -5.695 -10.738  13.764  1.00  0.00    -0.550 OA
ATOM     16  O   UNL     1      -7.864 -10.001  13.835  1.00  0.00    -0.550 OA
ENDBRANCH  13  14
ENDBRANCH  12  13
ENDBRANCH  11  12
ENDBRANCH  10  11
ENDBRANCH   9  10
ENDBRANCH   8   9
ENDBRANCH   7   8
ENDBRANCH   6   7
ENDBRANCH   5   6
ENDBRANCH   4   5
ENDBRANCH   3   4
ENDBRANCH   2   3
ENDBRANCH   1   2
BRANCH   1  17
ATOM     17  C   UNL     1     -16.869 -12.631  19.126  1.00  0.00     0.000 C 
BRANCH  17  18
ATOM     18  C   UNL     1     -17.115 -12.304  20.608  1.00  0.00     0.000 C 
BRANCH  18  19
ATOM     19  C   UNL     1     -17.740 -10.910  20.758  1.00  0.00     0.000 C 
BRANCH  19  20
ATOM     20  C   UNL     1     -19.196 -10.947  21.257  1.00  0.00     0.000 C 
BRANCH  20  21
ATOM     21  C   UNL     1     -19.376 -10.747  22.773  1.00  0.00     0.000 C 
BRANCH  21  22
ATOM     22  C   UNL     1     -18.167 -10.131  23.501  1.00  0.00    -0.000 C 
BRANCH  22  23
ATOM     23  C   UNL     1     -18.158 -10.380  25.025  1.00  0.00    -0.000 C 
BRANCH  23  24
ATOM     24  C   UNL     1     -16.952 -11.223  25.479  1.00  0.00    -0.000 C 
BRANCH  24  25
ATOM     25  C   UNL     1     -16.045 -11.634  24.307  1.00  0.00    -0.000 C 
BRANCH  25  26
ATOM     26  C   UNL     1     -14.556 -11.633  24.686  1.00  0.00    -0.000 C 
BRANCH  26  27
ATOM     27  C   UNL     1     -13.741 -10.797  23.686  1.00  0.00    -0.000 C 
BRANCH  27  28
ATOM     28  C   UNL     1     -14.620 -10.128  22.619  1.00  0.00    -0.000 C 
BRANCH  28  29
ATOM     29  C   UNL     1     -13.924 -10.037  21.253  1.00  0.00    -0.003 C 
ATOM     30  C   UNL     1     -12.618 -10.826  21.249  1.00  0.00     0.004 C 
ENDBRANCH  28  29
ENDBRANCH  27  28
ENDBRANCH  26  27
ENDBRANCH  25  26
ENDBRANCH  24  25
ENDBRANCH  23  24
ENDBRANCH  22  23
ENDBRANCH  21  22
ENDBRANCH  20  21
ENDBRANCH  19  20
ENDBRANCH  18  19
ENDBRANCH  17  18
ENDBRANCH   1  17
TORSDOF 26
ENDMDL
MODEL 4
REMARK VINA RESULT:    -4.764      2.127      8.802
REMARK INTER + INTRA:         -15.518
REMARK INTER:                 -12.403
REMARK INTRA:                  -3.115
REMARK UNBOUND:                -3.512
REMARK SMILES CCCCCCCCCCCCCCCCCCCCCCCCCCCC(=O)[O-]
REMARK SMILES IDX 15 1 16 2 17 3 18 4 19 5 20 6 21 7 22 8 23 9 24 10 25 11
REMARK SMILES IDX 26 12 27 13 28 14 29 15 30 16 14 17 13 18 12 19 11 20 10 21
REMARK SMILES IDX 9 22 8 23 7 24 6 25 5 26 4 27 3 28 2 29 1 30
REMARK H PARENT
REMARK Flexibility Score: inf
ROOT
ATOM      1  C   UNL     1     -16.953 -12.472  19.248  1.00  0.00     0.000 C 
ENDROOT
BRANCH   1   2
ATOM      2  C   UNL     1     -17.264 -12.077  20.697  1.00  0.00     0.000 C 
BRANCH   2   3
ATOM      3  C   UNL     1     -17.727 -10.614  20.772  1.00  0.00     0.000 C 
BRANCH   3   4
ATOM      4  C   UNL     1     -19.232 -10.489  21.086  1.00  0.00     0.000 C 
BRANCH   4   5
ATOM      5  C   UNL     1     -19.621 -11.056  22.463  1.00  0.00     0.000 C 
BRANCH   5   6
ATOM      6  C   UNL     1     -20.034  -9.964  23.463  1.00  0.00     0.000 C 
BRANCH   6   7
ATOM      7  C   UNL     1     -19.028  -9.812  24.623  1.00  0.00     0.000 C 
BRANCH   7   8
ATOM      8  C   UNL     1     -17.937 -10.902  24.652  1.00  0.00     0.000 C 
BRANCH   8   9
ATOM      9  C   UNL     1     -16.525 -10.412  25.025  1.00  0.00     0.000 C 
BRANCH   9  10
ATOM     10  C   UNL     1     -15.638 -10.013  23.830  1.00  0.00     0.000 C 
BRANCH  10  11
ATOM     11  C   UNL     1     -14.719 -11.154  23.361  1.00  0.00     0.000 C 
BRANCH  11  12
ATOM     12  C   UNL     1     -14.203 -10.949  21.927  1.00  0.00     0.006 C 
BRANCH  12  13
ATOM     13  C   UNL     1     -12.704 -10.625  21.868  1.00  0.00     0.053 C 
BRANCH  13  14
ATOM     14  C   UNL     1     -11.985 -11.603  20.991  1.00  0.00     0.041 C 
ATOM     15  O   UNL     1     -10.830 -11.342  20.563  1.00  0.00    -0.550 OA
ATOM     16  O   UNL     1     -12.595 -12.802  20.637  1.00  0.00    -0.550 OA
ENDBRANCH  13  14
ENDBRANCH  12  13
ENDBRANCH  11  12
ENDBRANCH  10  11
ENDBRANCH   9  10
ENDBRANCH   8   9
ENDBRANCH   7   8
ENDBRANCH   6   7
ENDBRANCH   5   6
ENDBRANCH   4   5
ENDBRANCH   3   4
ENDBRANCH   2   3
ENDBRANCH   1   2
BRANCH   1  17
ATOM     17  C   UNL     1     -15.555 -12.018  18.798  1.00  0.00     0.000 C 
BRANCH  17  18
ATOM     18  C   UNL     1     -15.076 -12.737  17.526  1.00  0.00     0.000 C 
BRANCH  18  19
ATOM     19  C   UNL     1     -16.119 -13.761  17.056  1.00  0.00     0.000 C 
BRANCH  19  20
ATOM     20  C   UNL     1     -16.438 -13.658  15.553  1.00  0.00     0.000 C 
BRANCH  20  21
ATOM     21  C   UNL     1     -15.704 -12.530  14.803  1.00  0.00     0.000 C 
BRANCH  21  22
ATOM     22  C   UNL     1     -14.937 -12.972  13.543  1.00  0.00    -0.000 C 
BRANCH  22  23
ATOM     23  C   UNL     1     -13.495 -13.449  13.820  1.00  0.00    -0.000 C 
BRANCH  23  24
ATOM     24  C   UNL     1     -12.674 -12.418  14.616  1.00  0.00    -0.000 C 
BRANCH  24  25
ATOM     25  C   UNL     1     -11.868 -13.059  15.757  1.00  0.00    -0.000 C 
BRANCH  25  26
ATOM     26  C   UNL     1     -10.361 -12.780  15.644  1.00  0.00    -0.000 C 
BRANCH  26  27
ATOM     27  C   UNL     1      -9.842 -13.153  14.246  1.00  0.00    -0.000 C 
BRANCH  27  28
ATOM     28  C   UNL     1      -8.640 -12.300  13.815  1.00  0.00    -0.000 C 
BRANCH  28  29
ATOM     29  C   UNL     1      -8.500 -11.015  14.645  1.00  0.00    -0.003 C 
ATOM     30  C   UNL     1      -7.109 -10.912  15.265  1.00  0.00     0.004 C 
ENDBRANCH  28  29
ENDBRANCH  27  28
ENDBRANCH  26  27
ENDBRANCH  25  26
ENDBRANCH  24  25
ENDBRANCH  23  24
ENDBRANCH  22  23
ENDBRANCH  21  22
ENDBRANCH  20  21
ENDBRANCH  19  20
ENDBRANCH  18  19
ENDBRANCH  17  18
ENDBRANCH   1  17
TORSDOF 26
ENDMDL
MODEL 5
REMARK VINA RESULT:    -4.722      3.020      9.625
REMARK INTER + INTRA:         -15.411
REMARK INTER:                 -12.128
REMARK INTRA:                  -3.283
REMARK UNBOUND:                -3.512
REMARK SMILES CCCCCCCCCCCCCCCCCCCCCCCCCCCC(=O)[O-]
REMARK SMILES IDX 15 1 16 2 17 3 18 4 19 5 20 6 21 7 22 8 23 9 24 10 25 11
REMARK SMILES IDX 26 12 27 13 28 14 29 15 30 16 14 17 13 18 12 19 11 20 10 21
REMARK SMILES IDX 9 22 8 23 7 24 6 25 5 26 4 27 3 28 2 29 1 30
REMARK H PARENT
REMARK Flexibility Score: inf
ROOT
ATOM      1  C   UNL     1     -15.840 -11.460  19.631  1.00  0.00     0.000 C 
ENDROOT
BRANCH   1   2
ATOM      2  C   UNL     1     -16.833 -11.706  20.775  1.00  0.00     0.000 C 
BRANCH   2   3
ATOM      3  C   UNL     1     -17.848 -10.557  20.868  1.00  0.00     0.000 C 
BRANCH   3   4
ATOM      4  C   UNL     1     -19.285 -11.014  20.542  1.00  0.00     0.000 C 
BRANCH   4   5
ATOM      5  C   UNL     1     -20.359 -10.320  21.397  1.00  0.00     0.000 C 
BRANCH   5   6
ATOM      6  C   UNL     1     -21.035 -11.272  22.396  1.00  0.00     0.000 C 
BRANCH   6   7
ATOM      7  C   UNL     1     -21.473 -10.557  23.692  1.00  0.00     0.000 C 
BRANCH   7   8
ATOM      8  C   UNL     1     -20.733  -9.231  23.955  1.00  0.00     0.000 C 
BRANCH   8   9
ATOM      9  C   UNL     1     -19.616  -9.297  25.015  1.00  0.00     0.000 C 
BRANCH   9  10
ATOM     10  C   UNL     1     -18.207  -9.582  24.459  1.00  0.00     0.000 C 
BRANCH  10  11
ATOM     11  C   UNL     1     -17.828 -11.071  24.528  1.00  0.00     0.000 C 
BRANCH  11  12
ATOM     12  C   UNL     1     -16.310 -11.302  24.435  1.00  0.00     0.006 C 
BRANCH  12  13
ATOM     13  C   UNL     1     -15.502  -9.997  24.455  1.00  0.00     0.053 C 
BRANCH  13  14
ATOM     14  C   UNL     1     -14.679  -9.865  23.211  1.00  0.00     0.041 C 
ATOM     15  O   UNL     1     -15.019  -9.058  22.307  1.00  0.00    -0.550 OA
ATOM     16  O   UNL     1     -13.537 -10.643  23.045  1.00  0.00    -0.550 OA
ENDBRANCH  13  14
ENDBRANCH  12  13
ENDBRANCH  11  12
ENDBRANCH  10  11
ENDBRANCH   9  10
ENDBRANCH   8   9
ENDBRANCH   7   8
ENDBRANCH   6   7
ENDBRANCH   5   6
ENDBRANCH   4   5
ENDBRANCH   3   4
ENDBRANCH   2   3
ENDBRANCH   1   2
BRANCH   1  17
ATOM     17  C   UNL     1     -15.513 -12.739  18.846  1.00  0.00     0.000 C 
BRANCH  17  18
ATOM     18  C   UNL     1     -15.404 -12.498  17.332  1.00  0.00     0.000 C 
BRANCH  18  19
ATOM     19  C   UNL     1     -16.012 -13.672  16.551  1.00  0.00     0.000 C 
BRANCH  19  20
ATOM     20  C   UNL     1     -16.667 -13.245  15.225  1.00  0.00     0.000 C 
BRANCH  20  21
ATOM     21  C   UNL     1     -16.391 -14.173  14.028  1.00  0.00     0.000 C 
BRANCH  21  22
ATOM     22  C   UNL     1     -15.118 -13.846  13.225  1.00  0.00    -0.000 C 
BRANCH  22  23
ATOM     23  C   UNL     1     -14.681 -12.367  13.315  1.00  0.00    -0.000 C 
BRANCH  23  24
ATOM     24  C   UNL     1     -13.159 -12.210  13.482  1.00  0.00    -0.000 C 
BRANCH  24  25
ATOM     25  C   UNL     1     -12.705 -12.371  14.941  1.00  0.00    -0.000 C 
BRANCH  25  26
ATOM     26  C   UNL     1     -12.155 -13.775  15.237  1.00  0.00    -0.000 C 
BRANCH  26  27
ATOM     27  C   UNL     1     -10.621 -13.792  15.136  1.00  0.00    -0.000 C 
BRANCH  27  28
ATOM     28  C   UNL     1      -9.997 -12.411  15.388  1.00  0.00    -0.000 C 
BRANCH  28  29
ATOM     29  C   UNL     1      -9.041 -11.981  14.266  1.00  0.00    -0.003 C 
ATOM     30  C   UNL     1      -8.890 -10.463  14.226  1.00  0.00     0.004 C 
ENDBRANCH  28  29
ENDBRANCH  27  28
ENDBRANCH  26  27
ENDBRANCH  25  26
ENDBRANCH  24  25
ENDBRANCH  23  24
ENDBRANCH  22  23
ENDBRANCH  21  22
ENDBRANCH  20  21
ENDBRANCH  19  20
ENDBRANCH  18  19
ENDBRANCH  17  18
ENDBRANCH   1  17
TORSDOF 26
ENDMDL
MODEL 6
REMARK VINA RESULT:    -4.704      1.486      2.562
REMARK INTER + INTRA:         -15.366
REMARK INTER:                 -12.794
REMARK INTRA:                  -2.571
REMARK UNBOUND:                -3.512
REMARK SMILES CCCCCCCCCCCCCCCCCCCCCCCCCCCC(=O)[O-]
REMARK SMILES IDX 15 1 16 2 17 3 18 4 19 5 20 6 21 7 22 8 23 9 24 10 25 11
REMARK SMILES IDX 26 12 27 13 28 14 29 15 30 16 14 17 13 18 12 19 11 20 10 21
REMARK SMILES IDX 9 22 8 23 7 24 6 25 5 26 4 27 3 28 2 29 1 30
REMARK H PARENT
REMARK Flexibility Score: inf
ROOT
ATOM      1  C   UNL     1     -15.874 -11.666  19.678  1.00  0.00     0.000 C 
ENDROOT
BRANCH   1   2
ATOM      2  C   UNL     1     -16.427 -12.727  18.716  1.00  0.00     0.000 C 
BRANCH   2   3
ATOM      3  C   UNL     1     -15.418 -13.022  17.596  1.00  0.00     0.000 C 
BRANCH   3   4
ATOM      4  C   UNL     1     -16.093 -13.587  16.330  1.00  0.00     0.000 C 
BRANCH   4   5
ATOM      5  C   UNL     1     -15.664 -12.876  15.035  1.00  0.00     0.000 C 
BRANCH   5   6
ATOM      6  C   UNL     1     -14.297 -12.183  15.160  1.00  0.00     0.000 C 
BRANCH   6   7
ATOM      7  C   UNL     1     -13.501 -12.201  13.837  1.00  0.00     0.000 C 
BRANCH   7   8
ATOM      8  C   UNL     1     -11.976 -12.319  14.027  1.00  0.00     0.000 C 
BRANCH   8   9
ATOM      9  C   UNL     1     -11.459 -13.732  14.358  1.00  0.00     0.000 C 
BRANCH   9  10
ATOM     10  C   UNL     1     -10.114 -13.774  15.108  1.00  0.00     0.000 C 
BRANCH  10  11
ATOM     11  C   UNL     1      -9.857 -12.508  15.943  1.00  0.00     0.000 C 
BRANCH  11  12
ATOM     12  C   UNL     1      -8.547 -11.800  15.558  1.00  0.00     0.006 C 
BRANCH  12  13
ATOM     13  C   UNL     1      -8.532 -11.313  14.103  1.00  0.00     0.053 C 
BRANCH  13  14
ATOM     14  C   UNL     1      -7.557 -12.107  13.289  1.00  0.00     0.041 C 
ATOM     15  O   UNL     1      -7.964 -12.849  12.358  1.00  0.00    -0.550 OA
ATOM     16  O   UNL     1      -6.196 -12.034  13.565  1.00  0.00    -0.550 OA
ENDBRANCH  13  14
ENDBRANCH  12  13
ENDBRANCH  11  12
ENDBRANCH  10  11
ENDBRANCH   9  10
ENDBRANCH   8   9
ENDBRANCH   7   8
ENDBRANCH   6   7
ENDBRANCH   5   6
ENDBRANCH   4   5
ENDBRANCH   3   4
ENDBRANCH   2   3
ENDBRANCH   1   2
BRANCH   1  17
ATOM     17  C   UNL     1     -16.708 -11.541  20.962  1.00  0.00     0.000 C 
BRANCH  17  18
ATOM     18  C   UNL     1     -17.842 -10.511  20.838  1.00  0.00     0.000 C 
BRANCH  18  19
ATOM     19  C   UNL     1     -19.201 -11.215  20.706  1.00  0.00     0.000 C 
BRANCH  19  20
ATOM     20  C   UNL     1     -20.369 -10.394  21.282  1.00  0.00     0.000 C 
BRANCH  20  21
ATOM     21  C   UNL     1     -21.346 -11.180  22.175  1.00  0.00     0.000 C 
BRANCH  21  22
ATOM     22  C   UNL     1     -21.423 -10.706  23.638  1.00  0.00    -0.000 C 
BRANCH  22  23
ATOM     23  C   UNL     1     -20.571  -9.453  23.939  1.00  0.00    -0.000 C 
BRANCH  23  24
ATOM     24  C   UNL     1     -19.425  -9.741  24.925  1.00  0.00    -0.000 C 
BRANCH  24  25
ATOM     25  C   UNL     1     -18.460 -10.821  24.410  1.00  0.00    -0.000 C 
BRANCH  25  26
ATOM     26  C   UNL     1     -16.985 -10.424  24.579  1.00  0.00    -0.000 C 
BRANCH  26  27
ATOM     27  C   UNL     1     -16.774  -8.946  24.214  1.00  0.00    -0.000 C 
BRANCH  27  28
ATOM     28  C   UNL     1     -15.698  -8.753  23.134  1.00  0.00    -0.000 C 
BRANCH  28  29
ATOM     29  C   UNL     1     -14.282  -9.043  23.653  1.00  0.00    -0.003 C 
ATOM     30  C   UNL     1     -13.288  -8.002  23.145  1.00  0.00     0.004 C 
ENDBRANCH  28  29
ENDBRANCH  27  28
ENDBRANCH  26  27
ENDBRANCH  25  26
ENDBRANCH  24  25
ENDBRANCH  23  24
ENDBRANCH  22  23
ENDBRANCH  21  22
ENDBRANCH  20  21
ENDBRANCH  19  20
ENDBRANCH  18  19
ENDBRANCH  17  18
ENDBRANCH   1  17
TORSDOF 26
ENDMDL
MODEL 7
REMARK VINA RESULT:    -4.657      2.443      9.104
REMARK INTER + INTRA:         -15.247
REMARK INTER:                 -12.133
REMARK INTRA:                  -3.114
REMARK UNBOUND:                -3.512
REMARK SMILES CCCCCCCCCCCCCCCCCCCCCCCCCCCC(=O)[O-]
REMARK SMILES IDX 15 1 16 2 17 3 18 4 19 5 20 6 21 7 22 8 23 9 24 10 25 11
REMARK SMILES IDX 26 12 27 13 28 14 29 15 30 16 14 17 13 18 12 19 11 20 10 21
REMARK SMILES IDX 9 22 8 23 7 24 6 25 5 26 4 27 3 28 2 29 1 30
REMARK H PARENT
REMARK Flexibility Score: inf
ROOT
ATOM      1  C   UNL     1     -16.928 -10.756  20.572  1.00  0.00     0.000 C 
ENDROOT
BRANCH   1   2
ATOM      2  C   UNL     1     -18.171 -10.328  21.363  1.00  0.00     0.000 C 
BRANCH   2   3
ATOM      3  C   UNL     1     -19.435 -10.980  20.781  1.00  0.00     0.000 C 
BRANCH   3   4
ATOM      4  C   UNL     1     -20.729 -10.388  21.378  1.00  0.00     0.000 C 
BRANCH   4   5
ATOM      5  C   UNL     1     -20.897 -10.671  22.881  1.00  0.00     0.000 C 
BRANCH   5   6
ATOM      6  C   UNL     1     -20.944  -9.388  23.728  1.00  0.00     0.000 C 
BRANCH   6   7
ATOM      7  C   UNL     1     -20.139  -9.515  25.039  1.00  0.00     0.000 C 
BRANCH   7   8
ATOM      8  C   UNL     1     -18.955 -10.500  24.953  1.00  0.00     0.000 C 
BRANCH   8   9
ATOM      9  C   UNL     1     -17.578  -9.909  25.315  1.00  0.00     0.000 C 
BRANCH   9  10
ATOM     10  C   UNL     1     -16.372 -10.651  24.708  1.00  0.00     0.000 C 
BRANCH  10  11
ATOM     11  C   UNL     1     -15.538  -9.765  23.767  1.00  0.00     0.000 C 
BRANCH  11  12
ATOM     12  C   UNL     1     -14.130 -10.329  23.513  1.00  0.00     0.006 C 
BRANCH  12  13
ATOM     13  C   UNL     1     -14.148 -11.748  22.928  1.00  0.00     0.053 C 
BRANCH  13  14
ATOM     14  C   UNL     1     -13.387 -11.798  21.639  1.00  0.00     0.041 C 
ATOM     15  O   UNL     1     -13.077 -10.734  21.043  1.00  0.00    -0.550 OA
ATOM     16  O   UNL     1     -13.027 -13.024  21.089  1.00  0.00    -0.550 OA
ENDBRANCH  13  14
ENDBRANCH  12  13
ENDBRANCH  11  12
ENDBRANCH  10  11
ENDBRANCH   9  10
ENDBRANCH   8   9
ENDBRANCH   7   8
ENDBRANCH   6   7
ENDBRANCH   5   6
ENDBRANCH   4   5
ENDBRANCH   3   4
ENDBRANCH   2   3
ENDBRANCH   1   2
BRANCH   1  17
ATOM     17  C   UNL     1     -16.805 -12.282  20.444  1.00  0.00     0.000 C 
BRANCH  17  18
ATOM     18  C   UNL     1     -16.709 -12.752  18.983  1.00  0.00     0.000 C 
BRANCH  18  19
ATOM     19  C   UNL     1     -15.338 -12.396  18.389  1.00  0.00     0.000 C 
BRANCH  19  20
ATOM     20  C   UNL     1     -15.189 -12.813  16.914  1.00  0.00     0.000 C 
BRANCH  20  21
ATOM     21  C   UNL     1     -16.277 -13.767  16.388  1.00  0.00     0.000 C 
BRANCH  21  22
ATOM     22  C   UNL     1     -16.405 -13.835  14.855  1.00  0.00    -0.000 C 
BRANCH  22  23
ATOM     23  C   UNL     1     -16.196 -12.478  14.147  1.00  0.00    -0.000 C 
BRANCH  23  24
ATOM     24  C   UNL     1     -15.046 -12.517  13.124  1.00  0.00    -0.000 C 
BRANCH  24  25
ATOM     25  C   UNL     1     -13.869 -13.389  13.591  1.00  0.00    -0.000 C 
BRANCH  25  26
ATOM     26  C   UNL     1     -12.723 -12.562  14.192  1.00  0.00    -0.000 C 
BRANCH  26  27
ATOM     27  C   UNL     1     -11.820 -13.440  15.072  1.00  0.00    -0.000 C 
BRANCH  27  28
ATOM     28  C   UNL     1     -10.519 -12.732  15.477  1.00  0.00    -0.000 C 
BRANCH  28  29
ATOM     29  C   UNL     1      -9.622 -12.409  14.273  1.00  0.00    -0.003 C 
ATOM     30  C   UNL     1      -8.739 -11.197  14.556  1.00  0.00     0.004 C 
ENDBRANCH  28  29
ENDBRANCH  27  28
ENDBRANCH  26  27
ENDBRANCH  25  26
ENDBRANCH  24  25
ENDBRANCH  23  24
ENDBRANCH  22  23
ENDBRANCH  21  22
ENDBRANCH  20  21
ENDBRANCH  19  20
ENDBRANCH  18  19
ENDBRANCH  17  18
ENDBRANCH   1  17
TORSDOF 26
ENDMDL
MODEL 8
REMARK VINA RESULT:    -4.637      1.505      3.596
REMARK INTER + INTRA:         -15.196
REMARK INTER:                 -12.562
REMARK INTRA:                  -2.634
REMARK UNBOUND:                -3.512
REMARK SMILES CCCCCCCCCCCCCCCCCCCCCCCCCCCC(=O)[O-]
REMARK SMILES IDX 15 1 16 2 17 3 18 4 19 5 20 6 21 7 22 8 23 9 24 10 25 11
REMARK SMILES IDX 26 12 27 13 28 14 29 15 30 16 14 17 13 18 12 19 11 20 10 21
REMARK SMILES IDX 9 22 8 23 7 24 6 25 5 26 4 27 3 28 2 29 1 30
REMARK H PARENT
REMARK Flexibility Score: inf
ROOT
ATOM      1  C   UNL     1     -15.071 -12.967  17.075  1.00  0.00     0.000 C 
ENDROOT
BRANCH   1   2
ATOM      2  C   UNL     1     -16.219 -13.919  16.715  1.00  0.00     0.000 C 
BRANCH   2   3
ATOM      3  C   UNL     1     -16.622 -13.748  15.242  1.00  0.00     0.000 C 
BRANCH   3   4
ATOM      4  C   UNL     1     -15.975 -12.505  14.596  1.00  0.00     0.000 C 
BRANCH   4   5
ATOM      5  C   UNL     1     -15.482 -12.748  13.159  1.00  0.00     0.000 C 
BRANCH   5   6
ATOM      6  C   UNL     1     -14.300 -11.844  12.772  1.00  0.00     0.000 C 
BRANCH   6   7
ATOM      7  C   UNL     1     -13.194 -11.823  13.849  1.00  0.00     0.000 C 
BRANCH   7   8
ATOM      8  C   UNL     1     -12.650 -13.219  14.214  1.00  0.00     0.000 C 
BRANCH   8   9
ATOM      9  C   UNL     1     -11.970 -13.322  15.592  1.00  0.00     0.000 C 
BRANCH   9  10
ATOM     10  C   UNL     1     -10.584 -12.656  15.685  1.00  0.00     0.000 C 
BRANCH  10  11
ATOM     11  C   UNL     1      -9.495 -13.434  14.927  1.00  0.00     0.000 C 
BRANCH  11  12
ATOM     12  C   UNL     1      -8.799 -12.585  13.850  1.00  0.00     0.006 C 
BRANCH  12  13
ATOM     13  C   UNL     1      -8.500 -11.153  14.315  1.00  0.00     0.053 C 
BRANCH  13  14
ATOM     14  C   UNL     1      -7.078 -11.031  14.769  1.00  0.00     0.041 C 
ATOM     15  O   UNL     1      -6.817 -10.759  15.970  1.00  0.00    -0.550 OA
ATOM     16  O   UNL     1      -6.038 -11.209  13.863  1.00  0.00    -0.550 OA
ENDBRANCH  13  14
ENDBRANCH  12  13
ENDBRANCH  11  12
ENDBRANCH  10  11
ENDBRANCH   9  10
ENDBRANCH   8   9
ENDBRANCH   7   8
ENDBRANCH   6   7
ENDBRANCH   5   6
ENDBRANCH   4   5
ENDBRANCH   3   4
ENDBRANCH   2   3
ENDBRANCH   1   2
BRANCH   1  17
ATOM     17  C   UNL     1     -15.379 -12.111  18.314  1.00  0.00     0.000 C 
BRANCH  17  18
ATOM     18  C   UNL     1     -14.474 -12.446  19.510  1.00  0.00     0.000 C 
BRANCH  18  19
ATOM     19  C   UNL     1     -14.907 -11.658  20.755  1.00  0.00     0.000 C 
BRANCH  19  20
ATOM     20  C   UNL     1     -15.974 -10.588  20.456  1.00  0.00     0.000 C 
BRANCH  20  21
ATOM     21  C   UNL     1     -17.217 -10.629  21.364  1.00  0.00     0.000 C 
BRANCH  21  22
ATOM     22  C   UNL     1     -16.932 -10.894  22.854  1.00  0.00    -0.000 C 
BRANCH  22  23
ATOM     23  C   UNL     1     -16.675  -9.616  23.682  1.00  0.00    -0.000 C 
BRANCH  23  24
ATOM     24  C   UNL     1     -16.952  -9.818  25.182  1.00  0.00    -0.000 C 
BRANCH  24  25
ATOM     25  C   UNL     1     -18.264 -10.575  25.444  1.00  0.00    -0.000 C 
BRANCH  25  26
ATOM     26  C   UNL     1     -19.468  -9.633  25.594  1.00  0.00    -0.000 C 
BRANCH  26  27
ATOM     27  C   UNL     1     -20.675 -10.163  24.803  1.00  0.00    -0.000 C 
BRANCH  27  28
ATOM     28  C   UNL     1     -20.698  -9.659  23.352  1.00  0.00    -0.000 C 
BRANCH  28  29
ATOM     29  C   UNL     1     -20.698 -10.805  22.329  1.00  0.00    -0.003 C 
ATOM     30  C   UNL     1     -20.728 -10.265  20.902  1.00  0.00     0.004 C 
ENDBRANCH  28  29
ENDBRANCH  27  28
ENDBRANCH  26  27
ENDBRANCH  25  26
ENDBRANCH  24  25
ENDBRANCH  23  24
ENDBRANCH  22  23
ENDBRANCH  21  22
ENDBRANCH  20  21
ENDBRANCH  19  20
ENDBRANCH  18  19
ENDBRANCH  17  18
ENDBRANCH   1  17
TORSDOF 26
ENDMDL
MODEL 9
REMARK VINA RESULT:    -4.581      2.108      3.200
REMARK INTER + INTRA:         -15.057
REMARK INTER:                 -12.417
REMARK INTRA:                  -2.640
REMARK UNBOUND:                -3.512
REMARK SMILES CCCCCCCCCCCCCCCCCCCCCCCCCCCC(=O)[O-]
REMARK SMILES IDX 15 1 16 2 17 3 18 4 19 5 20 6 21 7 22 8 23 9 24 10 25 11
REMARK SMILES IDX 26 12 27 13 28 14 29 15 30 16 14 17 13 18 12 19 11 20 10 21
REMARK SMILES IDX 9 22 8 23 7 24 6 25 5 26 4 27 3 28 2 29 1 30
REMARK H PARENT
REMARK Flexibility Score: inf
ROOT
ATOM      1  C   UNL     1     -15.764 -11.715  19.008  1.00  0.00     0.000 C 
ENDROOT
BRANCH   1   2
ATOM      2  C   UNL     1     -14.917 -12.769  18.283  1.00  0.00     0.000 C 
BRANCH   2   3
ATOM      3  C   UNL     1     -15.176 -12.725  16.769  1.00  0.00     0.000 C 
BRANCH   3   4
ATOM      4  C   UNL     1     -16.204 -13.782  16.318  1.00  0.00     0.000 C 
BRANCH   4   5
ATOM      5  C   UNL     1     -16.560 -13.693  14.823  1.00  0.00     0.000 C 
BRANCH   5   6
ATOM      6  C   UNL     1     -15.933 -12.471  14.132  1.00  0.00     0.000 C 
BRANCH   6   7
ATOM      7  C   UNL     1     -14.704 -12.841  13.275  1.00  0.00     0.000 C 
BRANCH   7   8
ATOM      8  C   UNL     1     -13.492 -11.911  13.487  1.00  0.00     0.000 C 
BRANCH   8   9
ATOM      9  C   UNL     1     -12.151 -12.625  13.748  1.00  0.00     0.000 C 
BRANCH   9  10
ATOM     10  C   UNL     1     -12.066 -13.380  15.088  1.00  0.00     0.000 C 
BRANCH  10  11
ATOM     11  C   UNL     1     -10.964 -12.833  16.012  1.00  0.00     0.000 C 
BRANCH  11  12
ATOM     12  C   UNL     1      -9.554 -13.255  15.567  1.00  0.00     0.006 C 
BRANCH  12  13
ATOM     13  C   UNL     1      -8.456 -12.308  16.072  1.00  0.00     0.053 C 
BRANCH  13  14
ATOM     14  C   UNL     1      -8.010 -11.385  14.980  1.00  0.00     0.041 C 
ATOM     15  O   UNL     1      -6.784 -11.180  14.785  1.00  0.00    -0.550 OA
ATOM     16  O   UNL     1      -8.951 -10.743  14.182  1.00  0.00    -0.550 OA
ENDBRANCH  13  14
ENDBRANCH  12  13
ENDBRANCH  11  12
ENDBRANCH  10  11
ENDBRANCH   9  10
ENDBRANCH   8   9
ENDBRANCH   7   8
ENDBRANCH   6   7
ENDBRANCH   5   6
ENDBRANCH   4   5
ENDBRANCH   3   4
ENDBRANCH   2   3
ENDBRANCH   1   2
BRANCH   1  17
ATOM     17  C   UNL     1     -16.798 -12.338  19.958  1.00  0.00     0.000 C 
BRANCH  17  18
ATOM     18  C   UNL     1     -17.951 -11.379  20.296  1.00  0.00     0.000 C 
BRANCH  18  19
ATOM     19  C   UNL     1     -17.916 -10.994  21.783  1.00  0.00     0.000 C 
BRANCH  19  20
ATOM     20  C   UNL     1     -16.758 -10.043  22.137  1.00  0.00     0.000 C 
BRANCH  20  21
ATOM     21  C   UNL     1     -15.743 -10.596  23.154  1.00  0.00     0.000 C 
BRANCH  21  22
ATOM     22  C   UNL     1     -14.290 -10.122  22.955  1.00  0.00    -0.000 C 
BRANCH  22  23
ATOM     23  C   UNL     1     -13.574 -10.782  21.756  1.00  0.00    -0.000 C 
BRANCH  23  24
ATOM     24  C   UNL     1     -13.566 -12.318  21.845  1.00  0.00    -0.000 C 
BRANCH  24  25
ATOM     25  C   UNL     1     -12.232 -12.930  21.387  1.00  0.00    -0.000 C 
BRANCH  25  26
ATOM     26  C   UNL     1     -11.162 -12.904  22.489  1.00  0.00    -0.000 C 
BRANCH  26  27
ATOM     27  C   UNL     1      -9.829 -12.369  21.941  1.00  0.00    -0.000 C 
BRANCH  27  28
ATOM     28  C   UNL     1      -8.624 -13.201  22.402  1.00  0.00    -0.000 C 
BRANCH  28  29
ATOM     29  C   UNL     1      -7.430 -13.094  21.441  1.00  0.00    -0.003 C 
ATOM     30  C   UNL     1      -6.419 -14.208  21.698  1.00  0.00     0.004 C 
ENDBRANCH  28  29
ENDBRANCH  27  28
ENDBRANCH  26  27
ENDBRANCH  25  26
ENDBRANCH  24  25
ENDBRANCH  23  24
ENDBRANCH  22  23
ENDBRANCH  21  22
ENDBRANCH  20  21
ENDBRANCH  19  20
ENDBRANCH  18  19
ENDBRANCH  17  18
ENDBRANCH   1  17
TORSDOF 26
ENDMDL
