MODEL 1
REMARK VINA RESULT:    -3.102      0.000      0.000
REMARK INTER + INTRA:          -8.958
REMARK INTER:                  -5.822
REMARK INTRA:                  -3.137
REMARK UNBOUND:                -3.137
REMARK SMILES CCCCCCCCC=CCCCCCCCC(=O)[O-]
REMARK SMILES IDX 10 1 9 2 11 3 12 4 13 5 14 6 15 7 16 8 17 9 18 10 19 11
REMARK SMILES IDX 20 12 8 13 7 14 6 15 5 16 4 17 3 18 2 19 1 20
REMARK H PARENT
REMARK Flexibility Score: inf
ROOT
ATOM      1  C   UNL     1      -3.405   5.425  40.136  1.00  0.00    -0.031 C 
ATOM      2  C   UNL     1      -3.681   6.585  40.762  1.00  0.00    -0.031 C 
ENDROOT
BRANCH   1   3
ATOM      3  C   UNL     1      -2.760   5.296  38.775  1.00  0.00     0.027 C 
BRANCH   3   4
ATOM      4  C   UNL     1      -1.234   5.138  38.877  1.00  0.00     0.004 C 
BRANCH   4   5
ATOM      5  C   UNL     1      -0.728   4.628  40.240  1.00  0.00     0.000 C 
BRANCH   5   6
ATOM      6  C   UNL     1       0.499   5.399  40.776  1.00  0.00     0.000 C 
BRANCH   6   7
ATOM      7  C   UNL     1       1.034   6.420  39.759  1.00  0.00     0.000 C 
BRANCH   7   8
ATOM      8  C   UNL     1       2.482   6.130  39.331  1.00  0.00     0.006 C 
BRANCH   8   9
ATOM      9  C   UNL     1       2.560   5.240  38.083  1.00  0.00     0.053 C 
BRANCH   9  10
ATOM     10  C   UNL     1       3.165   3.915  38.425  1.00  0.00     0.041 C 
ATOM     11  O   UNL     1       4.394   3.827  38.678  1.00  0.00    -0.550 OA
ATOM     12  O   UNL     1       2.380   2.769  38.414  1.00  0.00    -0.550 OA
ENDBRANCH   9  10
ENDBRANCH   8   9
ENDBRANCH   7   8
ENDBRANCH   6   7
ENDBRANCH   5   6
ENDBRANCH   4   5
ENDBRANCH   3   4
ENDBRANCH   1   3
BRANCH   2  13
ATOM     13  C   UNL     1      -3.411   7.959  40.203  1.00  0.00     0.027 C 
BRANCH  13  14
ATOM     14  C   UNL     1      -1.961   8.395  40.463  1.00  0.00     0.004 C 
BRANCH  14  15
ATOM     15  C   UNL     1      -1.300   9.000  39.215  1.00  0.00     0.000 C 
BRANCH  15  16
ATOM     16  C   UNL     1      -2.280   9.124  38.035  1.00  0.00     0.000 C 
BRANCH  16  17
ATOM     17  C   UNL     1      -1.808   8.325  36.801  1.00  0.00    -0.000 C 
BRANCH  17  18
ATOM     18  C   UNL     1      -0.284   8.123  36.746  1.00  0.00    -0.000 C 
BRANCH  18  19
ATOM     19  C   UNL     1       0.128   6.909  35.903  1.00  0.00    -0.003 C 
ATOM     20  C   UNL     1      -1.095   6.163  35.377  1.00  0.00     0.004 C 
ENDBRANCH  18  19
ENDBRANCH  17  18
ENDBRANCH  16  17
ENDBRANCH  15  16
ENDBRANCH  14  15
ENDBRANCH  13  14
ENDBRANCH   2  13
TORSDOF 15
ENDMDL
MODEL 2
REMARK VINA RESULT:    -3.093      2.769      4.960
REMARK INTER + INTRA:          -8.942
REMARK INTER:                  -5.941
REMARK INTRA:                  -3.000
REMARK UNBOUND:                -3.137
REMARK SMILES CCCCCCCCC=CCCCCCCCC(=O)[O-]
REMARK SMILES IDX 10 1 9 2 11 3 12 4 13 5 14 6 15 7 16 8 17 9 18 10 19 11
REMARK SMILES IDX 20 12 8 13 7 14 6 15 5 16 4 17 3 18 2 19 1 20
REMARK H PARENT
REMARK Flexibility Score: inf
ROOT
ATOM      1  C   UNL     1       0.275   4.583  38.259  1.00  0.00    -0.031 C 
ATOM      2  C   UNL     1       1.174   5.493  37.839  1.00  0.00    -0.031 C 
ENDROOT
BRANCH   1   3
ATOM      3  C   UNL     1      -0.873   4.857  39.205  1.00  0.00     0.027 C 
BRANCH   3   4
ATOM      4  C   UNL     1      -2.152   5.258  38.453  1.00  0.00     0.004 C 
BRANCH   4   5
ATOM      5  C   UNL     1      -2.315   4.610  37.065  1.00  0.00     0.000 C 
BRANCH   5   6
ATOM      6  C   UNL     1      -2.516   5.628  35.922  1.00  0.00     0.000 C 
BRANCH   6   7
ATOM      7  C   UNL     1      -1.293   5.710  34.993  1.00  0.00     0.000 C 
BRANCH   7   8
ATOM      8  C   UNL     1      -0.839   4.332  34.487  1.00  0.00     0.006 C 
BRANCH   8   9
ATOM      9  C   UNL     1       0.534   4.379  33.803  1.00  0.00     0.053 C 
BRANCH   9  10
ATOM     10  C   UNL     1       0.414   3.986  32.365  1.00  0.00     0.041 C 
ATOM     11  O   UNL     1       1.277   3.236  31.839  1.00  0.00    -0.550 OA
ATOM     12  O   UNL     1      -0.624   4.489  31.592  1.00  0.00    -0.550 OA
ENDBRANCH   9  10
ENDBRANCH   8   9
ENDBRANCH   7   8
ENDBRANCH   6   7
ENDBRANCH   5   6
ENDBRANCH   4   5
ENDBRANCH   3   4
ENDBRANCH   1   3
BRANCH   2  13
ATOM     13  C   UNL     1       1.204   6.941  38.257  1.00  0.00     0.027 C 
BRANCH  13  14
ATOM     14  C   UNL     1       0.629   7.852  37.162  1.00  0.00     0.004 C 
BRANCH  14  15
ATOM     15  C   UNL     1      -0.175   9.026  37.742  1.00  0.00     0.000 C 
BRANCH  15  16
ATOM     16  C   UNL     1      -1.694   8.820  37.605  1.00  0.00     0.000 C 
BRANCH  16  17
ATOM     17  C   UNL     1      -2.424   8.968  38.958  1.00  0.00    -0.000 C 
BRANCH  17  18
ATOM     18  C   UNL     1      -1.624   8.419  40.151  1.00  0.00    -0.000 C 
BRANCH  18  19
ATOM     19  C   UNL     1      -2.518   7.833  41.252  1.00  0.00    -0.003 C 
ATOM     20  C   UNL     1      -3.904   7.492  40.713  1.00  0.00     0.004 C 
ENDBRANCH  18  19
ENDBRANCH  17  18
ENDBRANCH  16  17
ENDBRANCH  15  16
ENDBRANCH  14  15
ENDBRANCH  13  14
ENDBRANCH   2  13
TORSDOF 15
ENDMDL
MODEL 3
REMARK VINA RESULT:    -3.042      2.051      4.443
REMARK INTER + INTRA:          -8.846
REMARK INTER:                  -5.636
REMARK INTRA:                  -3.210
REMARK UNBOUND:                -3.137
REMARK SMILES CCCCCCCCC=CCCCCCCCC(=O)[O-]
REMARK SMILES IDX 10 1 9 2 11 3 12 4 13 5 14 6 15 7 16 8 17 9 18 10 19 11
REMARK SMILES IDX 20 12 8 13 7 14 6 15 5 16 4 17 3 18 2 19 1 20
REMARK H PARENT
REMARK Flexibility Score: inf
ROOT
ATOM      1  C   UNL     1      -2.656   5.690  39.461  1.00  0.00    -0.031 C 
ATOM      2  C   UNL     1      -1.528   4.992  39.694  1.00  0.00    -0.031 C 
ENDROOT
BRANCH   1   3
ATOM      3  C   UNL     1      -3.363   6.573  40.465  1.00  0.00     0.027 C 
BRANCH   3   4
ATOM      4  C   UNL     1      -2.793   8.000  40.473  1.00  0.00     0.004 C 
BRANCH   4   5
ATOM      5  C   UNL     1      -2.928   8.757  39.138  1.00  0.00     0.000 C 
BRANCH   5   6
ATOM      6  C   UNL     1      -1.589   8.950  38.393  1.00  0.00     0.000 C 
BRANCH   6   7
ATOM      7  C   UNL     1      -1.703   8.618  36.896  1.00  0.00     0.000 C 
BRANCH   7   8
ATOM      8  C   UNL     1      -1.167   7.218  36.555  1.00  0.00     0.006 C 
BRANCH   8   9
ATOM      9  C   UNL     1      -2.206   6.348  35.835  1.00  0.00     0.053 C 
BRANCH   9  10
ATOM     10  C   UNL     1      -1.665   4.973  35.605  1.00  0.00     0.041 C 
ATOM     11  O   UNL     1      -2.029   4.019  36.341  1.00  0.00    -0.550 OA
ATOM     12  O   UNL     1      -0.720   4.755  34.611  1.00  0.00    -0.550 OA
ENDBRANCH   9  10
ENDBRANCH   8   9
ENDBRANCH   7   8
ENDBRANCH   6   7
ENDBRANCH   5   6
ENDBRANCH   4   5
ENDBRANCH   3   4
ENDBRANCH   1   3
BRANCH   2  13
ATOM     13  C   UNL     1      -0.786   4.954  41.007  1.00  0.00     0.027 C 
BRANCH  13  14
ATOM     14  C   UNL     1       0.646   5.490  40.855  1.00  0.00     0.004 C 
BRANCH  14  15
ATOM     15  C   UNL     1       0.676   6.971  40.447  1.00  0.00     0.000 C 
BRANCH  15  16
ATOM     16  C   UNL     1       1.576   7.223  39.224  1.00  0.00     0.000 C 
BRANCH  16  17
ATOM     17  C   UNL     1       2.364   5.960  38.813  1.00  0.00    -0.000 C 
BRANCH  17  18
ATOM     18  C   UNL     1       1.983   5.423  37.424  1.00  0.00    -0.000 C 
BRANCH  18  19
ATOM     19  C   UNL     1       1.373   4.015  37.473  1.00  0.00    -0.003 C 
ATOM     20  C   UNL     1       2.140   3.117  38.438  1.00  0.00     0.004 C 
ENDBRANCH  18  19
ENDBRANCH  17  18
ENDBRANCH  16  17
ENDBRANCH  15  16
ENDBRANCH  14  15
ENDBRANCH  13  14
ENDBRANCH   2  13
TORSDOF 15
ENDMDL
MODEL 4
REMARK VINA RESULT:    -2.917      9.061     12.244
REMARK INTER + INTRA:          -8.612
REMARK INTER:                  -5.770
REMARK INTRA:                  -2.842
REMARK UNBOUND:                -3.137
REMARK SMILES CCCCCCCCC=CCCCCCCCC(=O)[O-]
REMARK SMILES IDX 10 1 9 2 11 3 12 4 13 5 14 6 15 7 16 8 17 9 18 10 19 11
REMARK SMILES IDX 20 12 8 13 7 14 6 15 5 16 4 17 3 18 2 19 1 20
REMARK H PARENT
REMARK Flexibility Score: inf
ROOT
ATOM      1  C   UNL     1       4.603   5.449  26.241  1.00  0.00    -0.031 C 
ATOM      2  C   UNL     1       4.771   6.698  26.713  1.00  0.00    -0.031 C 
ENDROOT
BRANCH   1   3
ATOM      3  C   UNL     1       3.638   5.048  25.149  1.00  0.00     0.027 C 
BRANCH   3   4
ATOM      4  C   UNL     1       2.274   4.623  25.718  1.00  0.00     0.004 C 
BRANCH   4   5
ATOM      5  C   UNL     1       2.348   3.664  26.921  1.00  0.00     0.000 C 
BRANCH   5   6
ATOM      6  C   UNL     1       1.513   4.125  28.136  1.00  0.00     0.000 C 
BRANCH   6   7
ATOM      7  C   UNL     1       1.699   5.622  28.436  1.00  0.00     0.000 C 
BRANCH   7   8
ATOM      8  C   UNL     1       0.840   6.102  29.616  1.00  0.00     0.006 C 
BRANCH   8   9
ATOM      9  C   UNL     1       0.019   4.968  30.247  1.00  0.00     0.053 C 
BRANCH   9  10
ATOM     10  C   UNL     1       0.290   4.884  31.716  1.00  0.00     0.041 C 
ATOM     11  O   UNL     1       0.987   3.944  32.178  1.00  0.00    -0.550 OA
ATOM     12  O   UNL     1      -0.270   5.816  32.580  1.00  0.00    -0.550 OA
ENDBRANCH   9  10
ENDBRANCH   8   9
ENDBRANCH   7   8
ENDBRANCH   6   7
ENDBRANCH   5   6
ENDBRANCH   4   5
ENDBRANCH   3   4
ENDBRANCH   1   3
BRANCH   2  13
ATOM     13  C   UNL     1       4.008   7.913  26.247  1.00  0.00     0.027 C 
BRANCH  13  14
ATOM     14  C   UNL     1       3.175   8.522  27.386  1.00  0.00     0.004 C 
BRANCH  14  15
ATOM     15  C   UNL     1       1.811   9.036  26.901  1.00  0.00     0.000 C 
BRANCH  15  16
ATOM     16  C   UNL     1       1.730   9.125  25.367  1.00  0.00     0.000 C 
BRANCH  16  17
ATOM     17  C   UNL     1       0.756   8.083  24.776  1.00  0.00    -0.000 C 
BRANCH  17  18
ATOM     18  C   UNL     1      -0.128   7.399  25.832  1.00  0.00    -0.000 C 
BRANCH  18  19
ATOM     19  C   UNL     1      -1.100   6.377  25.227  1.00  0.00    -0.003 C 
ATOM     20  C   UNL     1      -1.369   5.232  26.199  1.00  0.00     0.004 C 
ENDBRANCH  18  19
ENDBRANCH  17  18
ENDBRANCH  16  17
ENDBRANCH  15  16
ENDBRANCH  14  15
ENDBRANCH  13  14
ENDBRANCH   2  13
TORSDOF 15
ENDMDL
MODEL 5
REMARK VINA RESULT:    -2.887      2.099      3.413
REMARK INTER + INTRA:          -8.556
REMARK INTER:                  -6.140
REMARK INTRA:                  -2.416
REMARK UNBOUND:                -3.137
REMARK SMILES CCCCCCCCC=CCCCCCCCC(=O)[O-]
REMARK SMILES IDX 10 1 9 2 11 3 12 4 13 5 14 6 15 7 16 8 17 9 18 10 19 11
REMARK SMILES IDX 20 12 8 13 7 14 6 15 5 16 4 17 3 18 2 19 1 20
REMARK H PARENT
REMARK Flexibility Score: inf
ROOT
ATOM      1  C   UNL     1      -4.009   6.902  40.498  1.00  0.00    -0.031 C 
ATOM      2  C   UNL     1      -3.688   7.690  41.541  1.00  0.00    -0.031 C 
ENDROOT
BRANCH   1   3
ATOM      3  C   UNL     1      -3.509   5.493  40.276  1.00  0.00     0.027 C 
BRANCH   3   4
ATOM      4  C   UNL     1      -2.295   5.458  39.334  1.00  0.00     0.004 C 
BRANCH   4   5
ATOM      5  C   UNL     1      -2.638   5.244  37.847  1.00  0.00     0.000 C 
BRANCH   5   6
ATOM      6  C   UNL     1      -1.409   4.939  36.962  1.00  0.00     0.000 C 
BRANCH   6   7
ATOM      7  C   UNL     1      -1.696   5.168  35.469  1.00  0.00     0.000 C 
BRANCH   7   8
ATOM      8  C   UNL     1      -0.416   5.346  34.638  1.00  0.00     0.006 C 
BRANCH   8   9
ATOM      9  C   UNL     1       0.828   5.562  35.512  1.00  0.00     0.053 C 
BRANCH   9  10
ATOM     10  C   UNL     1       2.025   4.925  34.882  1.00  0.00     0.041 C 
ATOM     11  O   UNL     1       2.274   5.113  33.662  1.00  0.00    -0.550 OA
ATOM     12  O   UNL     1       2.837   4.081  35.628  1.00  0.00    -0.550 OA
ENDBRANCH   9  10
ENDBRANCH   8   9
ENDBRANCH   7   8
ENDBRANCH   6   7
ENDBRANCH   5   6
ENDBRANCH   4   5
ENDBRANCH   3   4
ENDBRANCH   1   3
BRANCH   2  13
ATOM     13  C   UNL     1      -2.754   7.307  42.662  1.00  0.00     0.027 C 
BRANCH  13  14
ATOM     14  C   UNL     1      -1.447   8.111  42.600  1.00  0.00     0.004 C 
BRANCH  14  15
ATOM     15  C   UNL     1      -0.459   7.541  41.571  1.00  0.00     0.000 C 
BRANCH  15  16
ATOM     16  C   UNL     1       0.260   8.646  40.777  1.00  0.00     0.000 C 
BRANCH  16  17
ATOM     17  C   UNL     1      -0.176   8.674  39.295  1.00  0.00    -0.000 C 
BRANCH  17  18
ATOM     18  C   UNL     1      -1.633   9.121  39.092  1.00  0.00    -0.000 C 
BRANCH  18  19
ATOM     19  C   UNL     1      -2.078   9.062  37.625  1.00  0.00    -0.003 C 
ATOM     20  C   UNL     1      -0.938   8.596  36.723  1.00  0.00     0.004 C 
ENDBRANCH  18  19
ENDBRANCH  17  18
ENDBRANCH  16  17
ENDBRANCH  15  16
ENDBRANCH  14  15
ENDBRANCH  13  14
ENDBRANCH   2  13
TORSDOF 15
ENDMDL
MODEL 6
REMARK VINA RESULT:    -2.885      1.542      2.863
REMARK INTER + INTRA:          -8.551
REMARK INTER:                  -5.332
REMARK INTRA:                  -3.219
REMARK UNBOUND:                -3.137
REMARK SMILES CCCCCCCCC=CCCCCCCCC(=O)[O-]
REMARK SMILES IDX 10 1 9 2 11 3 12 4 13 5 14 6 15 7 16 8 17 9 18 10 19 11
REMARK SMILES IDX 20 12 8 13 7 14 6 15 5 16 4 17 3 18 2 19 1 20
REMARK H PARENT
REMARK Flexibility Score: inf
ROOT
ATOM      1  C   UNL     1      -3.089   8.151  39.722  1.00  0.00    -0.031 C 
ATOM      2  C   UNL     1      -1.813   8.562  39.845  1.00  0.00    -0.031 C 
ENDROOT
BRANCH   1   3
ATOM      3  C   UNL     1      -3.888   7.443  40.793  1.00  0.00     0.027 C 
BRANCH   3   4
ATOM      4  C   UNL     1      -4.123   5.964  40.448  1.00  0.00     0.004 C 
BRANCH   4   5
ATOM      5  C   UNL     1      -3.753   4.974  41.569  1.00  0.00     0.000 C 
BRANCH   5   6
ATOM      6  C   UNL     1      -2.236   4.883  41.844  1.00  0.00     0.000 C 
BRANCH   6   7
ATOM      7  C   UNL     1      -1.412   4.829  40.546  1.00  0.00     0.000 C 
BRANCH   7   8
ATOM      8  C   UNL     1      -0.014   4.226  40.755  1.00  0.00     0.006 C 
BRANCH   8   9
ATOM      9  C   UNL     1       0.309   3.121  39.740  1.00  0.00     0.053 C 
BRANCH   9  10
ATOM     10  C   UNL     1       1.677   3.322  39.169  1.00  0.00     0.041 C 
ATOM     11  O   UNL     1       2.596   3.804  39.882  1.00  0.00    -0.550 OA
ATOM     12  O   UNL     1       1.924   3.024  37.836  1.00  0.00    -0.550 OA
ENDBRANCH   9  10
ENDBRANCH   8   9
ENDBRANCH   7   8
ENDBRANCH   6   7
ENDBRANCH   5   6
ENDBRANCH   4   5
ENDBRANCH   3   4
ENDBRANCH   1   3
BRANCH   2  13
ATOM     13  C   UNL     1      -0.952   8.369  41.069  1.00  0.00     0.027 C 
BRANCH  13  14
ATOM     14  C   UNL     1       0.518   8.139  40.689  1.00  0.00     0.004 C 
BRANCH  14  15
ATOM     15  C   UNL     1       0.747   8.207  39.172  1.00  0.00     0.000 C 
BRANCH  15  16
ATOM     16  C   UNL     1       1.407   6.930  38.621  1.00  0.00     0.000 C 
BRANCH  16  17
ATOM     17  C   UNL     1       0.799   6.499  37.268  1.00  0.00    -0.000 C 
BRANCH  17  18
ATOM     18  C   UNL     1      -0.728   6.326  37.308  1.00  0.00    -0.000 C 
BRANCH  18  19
ATOM     19  C   UNL     1      -1.184   4.934  36.850  1.00  0.00    -0.003 C 
ATOM     20  C   UNL     1      -2.679   4.739  37.085  1.00  0.00     0.004 C 
ENDBRANCH  18  19
ENDBRANCH  17  18
ENDBRANCH  16  17
ENDBRANCH  15  16
ENDBRANCH  14  15
ENDBRANCH  13  14
ENDBRANCH   2  13
TORSDOF 15
ENDMDL
MODEL 7
REMARK VINA RESULT:    -2.872      2.038      3.345
REMARK INTER + INTRA:          -8.526
REMARK INTER:                  -5.681
REMARK INTRA:                  -2.845
REMARK UNBOUND:                -3.137
REMARK SMILES CCCCCCCCC=CCCCCCCCC(=O)[O-]
REMARK SMILES IDX 10 1 9 2 11 3 12 4 13 5 14 6 15 7 16 8 17 9 18 10 19 11
REMARK SMILES IDX 20 12 8 13 7 14 6 15 5 16 4 17 3 18 2 19 1 20
REMARK H PARENT
REMARK Flexibility Score: inf
ROOT
ATOM      1  C   UNL     1      -1.661   5.022  38.937  1.00  0.00    -0.031 C 
ATOM      2  C   UNL     1      -2.900   5.437  39.260  1.00  0.00    -0.031 C 
ENDROOT
BRANCH   1   3
ATOM      3  C   UNL     1      -0.622   4.520  39.914  1.00  0.00     0.027 C 
BRANCH   3   4
ATOM      4  C   UNL     1       0.440   5.588  40.221  1.00  0.00     0.004 C 
BRANCH   4   5
ATOM      5  C   UNL     1       1.147   6.168  38.981  1.00  0.00     0.000 C 
BRANCH   5   6
ATOM      6  C   UNL     1       2.458   5.438  38.613  1.00  0.00     0.000 C 
BRANCH   6   7
ATOM      7  C   UNL     1       2.483   4.995  37.141  1.00  0.00     0.000 C 
BRANCH   7   8
ATOM      8  C   UNL     1       1.098   4.573  36.624  1.00  0.00     0.006 C 
BRANCH   8   9
ATOM      9  C   UNL     1       0.942   4.791  35.113  1.00  0.00     0.053 C 
BRANCH   9  10
ATOM     10  C   UNL     1      -0.506   4.833  34.739  1.00  0.00     0.041 C 
ATOM     11  O   UNL     1      -0.933   5.721  33.957  1.00  0.00    -0.550 OA
ATOM     12  O   UNL     1      -1.393   3.921  35.295  1.00  0.00    -0.550 OA
ENDBRANCH   9  10
ENDBRANCH   8   9
ENDBRANCH   7   8
ENDBRANCH   6   7
ENDBRANCH   5   6
ENDBRANCH   4   5
ENDBRANCH   3   4
ENDBRANCH   1   3
BRANCH   2  13
ATOM     13  C   UNL     1      -3.461   5.490  40.659  1.00  0.00     0.027 C 
BRANCH  13  14
ATOM     14  C   UNL     1      -3.804   6.930  41.070  1.00  0.00     0.004 C 
BRANCH  14  15
ATOM     15  C   UNL     1      -3.326   7.962  40.037  1.00  0.00     0.000 C 
BRANCH  15  16
ATOM     16  C   UNL     1      -1.899   8.461  40.324  1.00  0.00     0.000 C 
BRANCH  16  17
ATOM     17  C   UNL     1      -1.170   8.905  39.037  1.00  0.00    -0.000 C 
BRANCH  17  18
ATOM     18  C   UNL     1      -2.022   8.758  37.766  1.00  0.00    -0.000 C 
BRANCH  18  19
ATOM     19  C   UNL     1      -1.306   7.983  36.652  1.00  0.00    -0.003 C 
ATOM     20  C   UNL     1       0.115   8.500  36.447  1.00  0.00     0.004 C 
ENDBRANCH  18  19
ENDBRANCH  17  18
ENDBRANCH  16  17
ENDBRANCH  15  16
ENDBRANCH  14  15
ENDBRANCH  13  14
ENDBRANCH   2  13
TORSDOF 15
ENDMDL
MODEL 8
REMARK VINA RESULT:    -2.852      2.188      4.351
REMARK INTER + INTRA:          -8.489
REMARK INTER:                  -5.830
REMARK INTRA:                  -2.659
REMARK UNBOUND:                -3.137
REMARK SMILES CCCCCCCCC=CCCCCCCCC(=O)[O-]
REMARK SMILES IDX 10 1 9 2 11 3 12 4 13 5 14 6 15 7 16 8 17 9 18 10 19 11
REMARK SMILES IDX 20 12 8 13 7 14 6 15 5 16 4 17 3 18 2 19 1 20
REMARK H PARENT
REMARK Flexibility Score: inf
ROOT
ATOM      1  C   UNL     1      -4.216   6.157  40.498  1.00  0.00    -0.031 C 
ATOM      2  C   UNL     1      -4.216   5.113  41.348  1.00  0.00    -0.031 C 
ENDROOT
BRANCH   1   3
ATOM      3  C   UNL     1      -3.871   7.584  40.861  1.00  0.00     0.027 C 
BRANCH   3   4
ATOM      4  C   UNL     1      -2.489   7.993  40.328  1.00  0.00     0.004 C 
BRANCH   4   5
ATOM      5  C   UNL     1      -2.519   8.871  39.062  1.00  0.00     0.000 C 
BRANCH   5   6
ATOM      6  C   UNL     1      -1.201   8.849  38.258  1.00  0.00     0.000 C 
BRANCH   6   7
ATOM      7  C   UNL     1      -1.446   8.886  36.740  1.00  0.00     0.000 C 
BRANCH   7   8
ATOM      8  C   UNL     1      -0.161   8.665  35.926  1.00  0.00     0.006 C 
BRANCH   8   9
ATOM      9  C   UNL     1       0.650   7.460  36.422  1.00  0.00     0.053 C 
BRANCH   9  10
ATOM     10  C   UNL     1       0.567   6.336  35.439  1.00  0.00     0.041 C 
ATOM     11  O   UNL     1       1.581   5.631  35.196  1.00  0.00    -0.550 OA
ATOM     12  O   UNL     1      -0.616   6.099  34.752  1.00  0.00    -0.550 OA
ENDBRANCH   9  10
ENDBRANCH   8   9
ENDBRANCH   7   8
ENDBRANCH   6   7
ENDBRANCH   5   6
ENDBRANCH   4   5
ENDBRANCH   3   4
ENDBRANCH   1   3
BRANCH   2  13
ATOM     13  C   UNL     1      -3.892   5.191  42.819  1.00  0.00     0.027 C 
BRANCH  13  14
ATOM     14  C   UNL     1      -2.504   4.605  43.117  1.00  0.00     0.004 C 
BRANCH  14  15
ATOM     15  C   UNL     1      -1.383   5.643  42.950  1.00  0.00     0.000 C 
BRANCH  15  16
ATOM     16  C   UNL     1      -0.119   5.041  42.313  1.00  0.00     0.000 C 
BRANCH  16  17
ATOM     17  C   UNL     1       0.009   5.410  40.818  1.00  0.00    -0.000 C 
BRANCH  17  18
ATOM     18  C   UNL     1      -0.890   4.567  39.899  1.00  0.00    -0.000 C 
BRANCH  18  19
ATOM     19  C   UNL     1      -0.919   5.084  38.454  1.00  0.00    -0.003 C 
ATOM     20  C   UNL     1      -2.320   4.976  37.858  1.00  0.00     0.004 C 
ENDBRANCH  18  19
ENDBRANCH  17  18
ENDBRANCH  16  17
ENDBRANCH  15  16
ENDBRANCH  14  15
ENDBRANCH  13  14
ENDBRANCH   2  13
TORSDOF 15
ENDMDL
MODEL 9
REMARK VINA RESULT:    -2.824      1.879      3.809
REMARK INTER + INTRA:          -8.437
REMARK INTER:                  -5.436
REMARK INTRA:                  -3.001
REMARK UNBOUND:                -3.137
REMARK SMILES CCCCCCCCC=CCCCCCCCC(=O)[O-]
REMARK SMILES IDX 10 1 9 2 11 3 12 4 13 5 14 6 15 7 16 8 17 9 18 10 19 11
REMARK SMILES IDX 20 12 8 13 7 14 6 15 5 16 4 17 3 18 2 19 1 20
REMARK H PARENT
REMARK Flexibility Score: inf
ROOT
ATOM      1  C   UNL     1      -1.725   8.280  37.270  1.00  0.00    -0.031 C 
ATOM      2  C   UNL     1      -0.785   9.022  37.884  1.00  0.00    -0.031 C 
ENDROOT
BRANCH   1   3
ATOM      3  C   UNL     1      -1.488   6.948  36.594  1.00  0.00     0.027 C 
BRANCH   3   4
ATOM      4  C   UNL     1      -2.303   5.821  37.248  1.00  0.00     0.004 C 
BRANCH   4   5
ATOM      5  C   UNL     1      -1.467   4.624  37.743  1.00  0.00     0.000 C 
BRANCH   5   6
ATOM      6  C   UNL     1      -0.523   4.967  38.916  1.00  0.00     0.000 C 
BRANCH   6   7
ATOM      7  C   UNL     1       0.900   4.429  38.693  1.00  0.00     0.000 C 
BRANCH   7   8
ATOM      8  C   UNL     1       1.541   4.963  37.403  1.00  0.00     0.006 C 
BRANCH   8   9
ATOM      9  C   UNL     1       2.971   4.443  37.196  1.00  0.00     0.053 C 
BRANCH   9  10
ATOM     10  C   UNL     1       3.283   4.345  35.736  1.00  0.00     0.041 C 
ATOM     11  O   UNL     1       4.432   3.997  35.357  1.00  0.00    -0.550 OA
ATOM     12  O   UNL     1       2.322   4.689  34.795  1.00  0.00    -0.550 OA
ENDBRANCH   9  10
ENDBRANCH   8   9
ENDBRANCH   7   8
ENDBRANCH   6   7
ENDBRANCH   5   6
ENDBRANCH   4   5
ENDBRANCH   3   4
ENDBRANCH   1   3
BRANCH   2  13
ATOM     13  C   UNL     1       0.676   8.661  37.986  1.00  0.00     0.027 C 
BRANCH  13  14
ATOM     14  C   UNL     1       1.022   8.113  39.378  1.00  0.00     0.004 C 
BRANCH  14  15
ATOM     15  C   UNL     1       0.139   8.719  40.480  1.00  0.00     0.000 C 
BRANCH  15  16
ATOM     16  C   UNL     1      -0.089   7.745  41.650  1.00  0.00     0.000 C 
BRANCH  16  17
ATOM     17  C   UNL     1      -1.497   7.112  41.611  1.00  0.00    -0.000 C 
BRANCH  17  18
ATOM     18  C   UNL     1      -2.539   7.975  40.880  1.00  0.00    -0.000 C 
BRANCH  18  19
ATOM     19  C   UNL     1      -3.814   7.199  40.524  1.00  0.00    -0.003 C 
ATOM     20  C   UNL     1      -3.641   5.705  40.784  1.00  0.00     0.004 C 
ENDBRANCH  18  19
ENDBRANCH  17  18
ENDBRANCH  16  17
ENDBRANCH  15  16
ENDBRANCH  14  15
ENDBRANCH  13  14
ENDBRANCH   2  13
TORSDOF 15
ENDMDL
