MODEL 1
REMARK VINA RESULT:    -5.366      0.000      0.000
REMARK INTER + INTRA:         -12.261
REMARK INTER:                 -10.072
REMARK INTRA:                  -2.189
REMARK UNBOUND:                -2.189
REMARK SMILES CCCCCCCCC=CCCCCCCCC(=O)[O-]
REMARK SMILES IDX 10 1 9 2 11 3 12 4 13 5 14 6 15 7 16 8 17 9 18 10 19 11
REMARK SMILES IDX 20 12 8 13 7 14 6 15 5 16 4 17 3 18 2 19 1 20
REMARK H PARENT
REMARK Flexibility Score: inf
ROOT
ATOM      1  C   UNL     1      16.213  -4.573   9.557  1.00  0.00    -0.031 C 
ATOM      2  C   UNL     1      15.987  -5.019  10.808  1.00  0.00    -0.031 C 
ENDROOT
BRANCH   1   3
ATOM      3  C   UNL     1      16.010  -3.151   9.088  1.00  0.00     0.027 C 
BRANCH   3   4
ATOM      4  C   UNL     1      16.988  -2.791   7.961  1.00  0.00     0.004 C 
BRANCH   4   5
ATOM      5  C   UNL     1      18.377  -2.411   8.500  1.00  0.00     0.000 C 
BRANCH   5   6
ATOM      6  C   UNL     1      18.310  -1.613   9.813  1.00  0.00     0.000 C 
BRANCH   6   7
ATOM      7  C   UNL     1      19.381  -2.028  10.844  1.00  0.00     0.000 C 
BRANCH   7   8
ATOM      8  C   UNL     1      18.763  -2.417  12.199  1.00  0.00     0.006 C 
BRANCH   8   9
ATOM      9  C   UNL     1      19.829  -2.678  13.271  1.00  0.00     0.053 C 
BRANCH   9  10
ATOM     10  C   UNL     1      19.254  -3.350  14.479  1.00  0.00     0.041 C 
ATOM     11  O   UNL     1      18.010  -3.351  14.671  1.00  0.00    -0.550 OA
ATOM     12  O   UNL     1      20.095  -3.945  15.412  1.00  0.00    -0.550 OA
ENDBRANCH   9  10
ENDBRANCH   8   9
ENDBRANCH   7   8
ENDBRANCH   6   7
ENDBRANCH   5   6
ENDBRANCH   4   5
ENDBRANCH   3   4
ENDBRANCH   1   3
BRANCH   2  13
ATOM     13  C   UNL     1      15.542  -4.164  11.969  1.00  0.00     0.027 C 
BRANCH  13  14
ATOM     14  C   UNL     1      14.025  -4.234  12.210  1.00  0.00     0.004 C 
BRANCH  14  15
ATOM     15  C   UNL     1      13.409  -5.622  11.955  1.00  0.00     0.000 C 
BRANCH  15  16
ATOM     16  C   UNL     1      12.311  -5.624  10.869  1.00  0.00     0.000 C 
BRANCH  16  17
ATOM     17  C   UNL     1      12.338  -4.350  10.012  1.00  0.00    -0.000 C 
BRANCH  17  18
ATOM     18  C   UNL     1      12.463  -4.692   8.523  1.00  0.00    -0.000 C 
BRANCH  18  19
ATOM     19  C   UNL     1      12.419  -3.422   7.663  1.00  0.00    -0.003 C 
ATOM     20  C   UNL     1      10.982  -3.015   7.355  1.00  0.00     0.004 C 
ENDBRANCH  18  19
ENDBRANCH  17  18
ENDBRANCH  16  17
ENDBRANCH  15  16
ENDBRANCH  14  15
ENDBRANCH  13  14
ENDBRANCH   2  13
TORSDOF 15
ENDMDL
MODEL 2
REMARK VINA RESULT:    -5.268      2.584      7.093
REMARK INTER + INTRA:         -12.078
REMARK INTER:                 -10.061
REMARK INTRA:                  -2.016
REMARK UNBOUND:                -2.189
REMARK SMILES CCCCCCCCC=CCCCCCCCC(=O)[O-]
REMARK SMILES IDX 10 1 9 2 11 3 12 4 13 5 14 6 15 7 16 8 17 9 18 10 19 11
REMARK SMILES IDX 20 12 8 13 7 14 6 15 5 16 4 17 3 18 2 19 1 20
REMARK H PARENT
REMARK Flexibility Score: inf
ROOT
ATOM      1  C   UNL     1      19.621  -1.982  10.909  1.00  0.00    -0.031 C 
ATOM      2  C   UNL     1      19.576  -2.340  12.206  1.00  0.00    -0.031 C 
ENDROOT
BRANCH   1   3
ATOM      3  C   UNL     1      18.433  -1.547  10.082  1.00  0.00     0.027 C 
BRANCH   3   4
ATOM      4  C   UNL     1      18.485  -2.149   8.672  1.00  0.00     0.004 C 
BRANCH   4   5
ATOM      5  C   UNL     1      17.141  -2.773   8.260  1.00  0.00     0.000 C 
BRANCH   5   6
ATOM      6  C   UNL     1      16.244  -3.108   9.463  1.00  0.00     0.000 C 
BRANCH   6   7
ATOM      7  C   UNL     1      16.208  -4.612   9.807  1.00  0.00     0.000 C 
BRANCH   7   8
ATOM      8  C   UNL     1      16.236  -4.862  11.326  1.00  0.00     0.006 C 
BRANCH   8   9
ATOM      9  C   UNL     1      15.160  -4.059  12.068  1.00  0.00     0.053 C 
BRANCH   9  10
ATOM     10  C   UNL     1      15.190  -4.315  13.543  1.00  0.00     0.041 C 
ATOM     11  O   UNL     1      14.715  -3.467  14.343  1.00  0.00    -0.550 OA
ATOM     12  O   UNL     1      15.775  -5.475  14.036  1.00  0.00    -0.550 OA
ENDBRANCH   9  10
ENDBRANCH   8   9
ENDBRANCH   7   8
ENDBRANCH   6   7
ENDBRANCH   5   6
ENDBRANCH   4   5
ENDBRANCH   3   4
ENDBRANCH   1   3
BRANCH   2  13
ATOM     13  C   UNL     1      18.340  -2.319  13.072  1.00  0.00     0.027 C 
BRANCH  13  14
ATOM     14  C   UNL     1      18.493  -3.169  14.344  1.00  0.00     0.004 C 
BRANCH  14  15
ATOM     15  C   UNL     1      19.675  -4.156  14.306  1.00  0.00     0.000 C 
BRANCH  15  16
ATOM     16  C   UNL     1      20.661  -3.989  15.483  1.00  0.00     0.000 C 
BRANCH  16  17
ATOM     17  C   UNL     1      21.097  -2.529  15.673  1.00  0.00    -0.000 C 
BRANCH  17  18
ATOM     18  C   UNL     1      22.588  -2.355  15.362  1.00  0.00    -0.000 C 
BRANCH  18  19
ATOM     19  C   UNL     1      23.051  -3.368  14.308  1.00  0.00    -0.003 C 
ATOM     20  C   UNL     1      24.574  -3.425  14.230  1.00  0.00     0.004 C 
ENDBRANCH  18  19
ENDBRANCH  17  18
ENDBRANCH  16  17
ENDBRANCH  15  16
ENDBRANCH  14  15
ENDBRANCH  13  14
ENDBRANCH   2  13
TORSDOF 15
ENDMDL
MODEL 3
REMARK VINA RESULT:    -5.196      2.564      5.186
REMARK INTER + INTRA:         -11.942
REMARK INTER:                  -9.885
REMARK INTRA:                  -2.057
REMARK UNBOUND:                -2.189
REMARK SMILES CCCCCCCCC=CCCCCCCCC(=O)[O-]
REMARK SMILES IDX 10 1 9 2 11 3 12 4 13 5 14 6 15 7 16 8 17 9 18 10 19 11
REMARK SMILES IDX 20 12 8 13 7 14 6 15 5 16 4 17 3 18 2 19 1 20
REMARK H PARENT
REMARK Flexibility Score: inf
ROOT
ATOM      1  C   UNL     1      15.771  -6.034  11.988  1.00  0.00    -0.031 C 
ATOM      2  C   UNL     1      15.978  -5.367  10.836  1.00  0.00    -0.031 C 
ENDROOT
BRANCH   1   3
ATOM      3  C   UNL     1      14.877  -5.572  13.115  1.00  0.00     0.027 C 
BRANCH   3   4
ATOM      4  C   UNL     1      15.694  -5.214  14.364  1.00  0.00     0.004 C 
BRANCH   4   5
ATOM      5  C   UNL     1      15.545  -3.733  14.747  1.00  0.00     0.000 C 
BRANCH   5   6
ATOM      6  C   UNL     1      16.777  -2.892  14.372  1.00  0.00     0.000 C 
BRANCH   6   7
ATOM      7  C   UNL     1      17.991  -3.737  13.929  1.00  0.00     0.000 C 
BRANCH   7   8
ATOM      8  C   UNL     1      19.322  -2.989  14.126  1.00  0.00     0.006 C 
BRANCH   8   9
ATOM      9  C   UNL     1      20.226  -3.673  15.159  1.00  0.00     0.053 C 
BRANCH   9  10
ATOM     10  C   UNL     1      21.456  -2.867  15.445  1.00  0.00     0.041 C 
ATOM     11  O   UNL     1      22.521  -3.091  14.814  1.00  0.00    -0.550 OA
ATOM     12  O   UNL     1      21.434  -1.893  16.437  1.00  0.00    -0.550 OA
ENDBRANCH   9  10
ENDBRANCH   8   9
ENDBRANCH   7   8
ENDBRANCH   6   7
ENDBRANCH   5   6
ENDBRANCH   4   5
ENDBRANCH   3   4
ENDBRANCH   1   3
BRANCH   2  13
ATOM     13  C   UNL     1      15.312  -4.068  10.453  1.00  0.00     0.027 C 
BRANCH  13  14
ATOM     14  C   UNL     1      16.237  -2.852  10.630  1.00  0.00     0.004 C 
BRANCH  14  15
ATOM     15  C   UNL     1      17.724  -3.143  10.349  1.00  0.00     0.000 C 
BRANCH  15  16
ATOM     16  C   UNL     1      18.614  -1.881  10.349  1.00  0.00     0.000 C 
BRANCH  16  17
ATOM     17  C   UNL     1      18.365  -0.994   9.121  1.00  0.00    -0.000 C 
BRANCH  17  18
ATOM     18  C   UNL     1      19.626  -0.889   8.254  1.00  0.00    -0.000 C 
BRANCH  18  19
ATOM     19  C   UNL     1      19.866  -2.187   7.473  1.00  0.00    -0.003 C 
ATOM     20  C   UNL     1      18.824  -2.370   6.375  1.00  0.00     0.004 C 
ENDBRANCH  18  19
ENDBRANCH  17  18
ENDBRANCH  16  17
ENDBRANCH  15  16
ENDBRANCH  14  15
ENDBRANCH  13  14
ENDBRANCH   2  13
TORSDOF 15
ENDMDL
MODEL 4
REMARK VINA RESULT:    -5.190      2.025      3.881
REMARK INTER + INTRA:         -11.930
REMARK INTER:                  -9.754
REMARK INTRA:                  -2.177
REMARK UNBOUND:                -2.189
REMARK SMILES CCCCCCCCC=CCCCCCCCC(=O)[O-]
REMARK SMILES IDX 10 1 9 2 11 3 12 4 13 5 14 6 15 7 16 8 17 9 18 10 19 11
REMARK SMILES IDX 20 12 8 13 7 14 6 15 5 16 4 17 3 18 2 19 1 20
REMARK H PARENT
REMARK Flexibility Score: inf
ROOT
ATOM      1  C   UNL     1      16.379  -4.933  10.291  1.00  0.00    -0.031 C 
ATOM      2  C   UNL     1      15.758  -5.270  11.438  1.00  0.00    -0.031 C 
ENDROOT
BRANCH   1   3
ATOM      3  C   UNL     1      15.709  -4.319   9.084  1.00  0.00     0.027 C 
BRANCH   3   4
ATOM      4  C   UNL     1      16.142  -2.859   8.890  1.00  0.00     0.004 C 
BRANCH   4   5
ATOM      5  C   UNL     1      17.383  -2.739   7.991  1.00  0.00     0.000 C 
BRANCH   5   6
ATOM      6  C   UNL     1      18.629  -2.258   8.754  1.00  0.00     0.000 C 
BRANCH   6   7
ATOM      7  C   UNL     1      18.310  -1.641  10.132  1.00  0.00     0.000 C 
BRANCH   7   8
ATOM      8  C   UNL     1      19.159  -2.261  11.256  1.00  0.00     0.006 C 
BRANCH   8   9
ATOM      9  C   UNL     1      18.355  -2.469  12.546  1.00  0.00     0.053 C 
BRANCH   9  10
ATOM     10  C   UNL     1      19.231  -2.868  13.693  1.00  0.00     0.041 C 
ATOM     11  O   UNL     1      18.721  -3.274  14.769  1.00  0.00    -0.550 OA
ATOM     12  O   UNL     1      20.613  -2.756  13.584  1.00  0.00    -0.550 OA
ENDBRANCH   9  10
ENDBRANCH   8   9
ENDBRANCH   7   8
ENDBRANCH   6   7
ENDBRANCH   5   6
ENDBRANCH   4   5
ENDBRANCH   3   4
ENDBRANCH   1   3
BRANCH   2  13
ATOM     13  C   UNL     1      14.296  -5.045  11.733  1.00  0.00     0.027 C 
BRANCH  13  14
ATOM     14  C   UNL     1      13.702  -6.128  12.649  1.00  0.00     0.004 C 
BRANCH  14  15
ATOM     15  C   UNL     1      14.738  -7.124  13.203  1.00  0.00     0.000 C 
BRANCH  15  16
ATOM     16  C   UNL     1      14.541  -7.455  14.699  1.00  0.00     0.000 C 
BRANCH  16  17
ATOM     17  C   UNL     1      13.610  -6.456  15.399  1.00  0.00    -0.000 C 
BRANCH  17  18
ATOM     18  C   UNL     1      14.405  -5.489  16.285  1.00  0.00    -0.000 C 
BRANCH  18  19
ATOM     19  C   UNL     1      14.168  -4.034  15.861  1.00  0.00    -0.003 C 
ATOM     20  C   UNL     1      15.296  -3.530  14.967  1.00  0.00     0.004 C 
ENDBRANCH  18  19
ENDBRANCH  17  18
ENDBRANCH  16  17
ENDBRANCH  15  16
ENDBRANCH  14  15
ENDBRANCH  13  14
ENDBRANCH   2  13
TORSDOF 15
ENDMDL
MODEL 5
REMARK VINA RESULT:    -5.168     13.690     15.777
REMARK INTER + INTRA:         -11.888
REMARK INTER:                  -9.745
REMARK INTRA:                  -2.144
REMARK UNBOUND:                -2.189
REMARK SMILES CCCCCCCCC=CCCCCCCCC(=O)[O-]
REMARK SMILES IDX 10 1 9 2 11 3 12 4 13 5 14 6 15 7 16 8 17 9 18 10 19 11
REMARK SMILES IDX 20 12 8 13 7 14 6 15 5 16 4 17 3 18 2 19 1 20
REMARK H PARENT
REMARK Flexibility Score: inf
ROOT
ATOM      1  C   UNL     1      14.266 -18.459   8.326  1.00  0.00    -0.031 C 
ATOM      2  C   UNL     1      15.318 -18.398   9.165  1.00  0.00    -0.031 C 
ENDROOT
BRANCH   1   3
ATOM      3  C   UNL     1      14.350 -18.419   6.818  1.00  0.00     0.027 C 
BRANCH   3   4
ATOM      4  C   UNL     1      12.955 -18.488   6.181  1.00  0.00     0.004 C 
BRANCH   4   5
ATOM      5  C   UNL     1      12.978 -19.200   4.818  1.00  0.00     0.000 C 
BRANCH   5   6
ATOM      6  C   UNL     1      13.943 -18.542   3.817  1.00  0.00     0.000 C 
BRANCH   6   7
ATOM      7  C   UNL     1      13.400 -17.235   3.201  1.00  0.00     0.000 C 
BRANCH   7   8
ATOM      8  C   UNL     1      14.166 -15.996   3.699  1.00  0.00     0.006 C 
BRANCH   8   9
ATOM      9  C   UNL     1      13.237 -14.956   4.339  1.00  0.00     0.053 C 
BRANCH   9  10
ATOM     10  C   UNL     1      12.497 -14.161   3.308  1.00  0.00     0.041 C 
ATOM     11  O   UNL     1      11.255 -13.986   3.415  1.00  0.00    -0.550 OA
ATOM     12  O   UNL     1      13.174 -13.644   2.210  1.00  0.00    -0.550 OA
ENDBRANCH   9  10
ENDBRANCH   8   9
ENDBRANCH   7   8
ENDBRANCH   6   7
ENDBRANCH   5   6
ENDBRANCH   4   5
ENDBRANCH   3   4
ENDBRANCH   1   3
BRANCH   2  13
ATOM     13  C   UNL     1      16.765 -18.331   8.742  1.00  0.00     0.027 C 
BRANCH  13  14
ATOM     14  C   UNL     1      17.341 -16.907   8.823  1.00  0.00     0.004 C 
BRANCH  14  15
ATOM     15  C   UNL     1      18.186 -16.497   7.603  1.00  0.00     0.000 C 
BRANCH  15  16
ATOM     16  C   UNL     1      17.359 -16.298   6.314  1.00  0.00     0.000 C 
BRANCH  16  17
ATOM     17  C   UNL     1      18.181 -16.570   5.047  1.00  0.00    -0.000 C 
BRANCH  17  18
ATOM     18  C   UNL     1      17.416 -17.478   4.078  1.00  0.00    -0.000 C 
BRANCH  18  19
ATOM     19  C   UNL     1      17.611 -17.021   2.626  1.00  0.00    -0.003 C 
ATOM     20  C   UNL     1      16.871 -17.938   1.656  1.00  0.00     0.004 C 
ENDBRANCH  18  19
ENDBRANCH  17  18
ENDBRANCH  16  17
ENDBRANCH  15  16
ENDBRANCH  14  15
ENDBRANCH  13  14
ENDBRANCH   2  13
TORSDOF 15
ENDMDL
MODEL 6
REMARK VINA RESULT:    -5.141     13.760     15.314
REMARK INTER + INTRA:         -11.838
REMARK INTER:                  -9.718
REMARK INTRA:                  -2.120
REMARK UNBOUND:                -2.189
REMARK SMILES CCCCCCCCC=CCCCCCCCC(=O)[O-]
REMARK SMILES IDX 10 1 9 2 11 3 12 4 13 5 14 6 15 7 16 8 17 9 18 10 19 11
REMARK SMILES IDX 20 12 8 13 7 14 6 15 5 16 4 17 3 18 2 19 1 20
REMARK H PARENT
REMARK Flexibility Score: inf
ROOT
ATOM      1  C   UNL     1      15.372 -18.303   9.208  1.00  0.00    -0.031 C 
ATOM      2  C   UNL     1      14.295 -18.347   8.399  1.00  0.00    -0.031 C 
ENDROOT
BRANCH   1   3
ATOM      3  C   UNL     1      16.810 -18.371   8.749  1.00  0.00     0.027 C 
BRANCH   3   4
ATOM      4  C   UNL     1      17.450 -16.976   8.716  1.00  0.00     0.004 C 
BRANCH   4   5
ATOM      5  C   UNL     1      18.192 -16.713   7.395  1.00  0.00     0.000 C 
BRANCH   5   6
ATOM      6  C   UNL     1      17.249 -16.300   6.252  1.00  0.00     0.000 C 
BRANCH   6   7
ATOM      7  C   UNL     1      17.290 -17.256   5.041  1.00  0.00     0.000 C 
BRANCH   7   8
ATOM      8  C   UNL     1      16.257 -16.876   3.965  1.00  0.00     0.006 C 
BRANCH   8   9
ATOM      9  C   UNL     1      16.269 -17.848   2.778  1.00  0.00     0.053 C 
BRANCH   9  10
ATOM     10  C   UNL     1      17.624 -17.941   2.147  1.00  0.00     0.041 C 
ATOM     11  O   UNL     1      18.230 -19.043   2.107  1.00  0.00    -0.550 OA
ATOM     12  O   UNL     1      18.233 -16.801   1.635  1.00  0.00    -0.550 OA
ENDBRANCH   9  10
ENDBRANCH   8   9
ENDBRANCH   7   8
ENDBRANCH   6   7
ENDBRANCH   5   6
ENDBRANCH   4   5
ENDBRANCH   3   4
ENDBRANCH   1   3
BRANCH   2  13
ATOM     13  C   UNL     1      14.342 -18.420   6.893  1.00  0.00     0.027 C 
BRANCH  13  14
ATOM     14  C   UNL     1      12.965 -18.198   6.245  1.00  0.00     0.004 C 
BRANCH  14  15
ATOM     15  C   UNL     1      12.932 -18.456   4.727  1.00  0.00     0.000 C 
BRANCH  15  16
ATOM     16  C   UNL     1      12.508 -17.224   3.898  1.00  0.00     0.000 C 
BRANCH  16  17
ATOM     17  C   UNL     1      12.594 -15.921   4.706  1.00  0.00    -0.000 C 
BRANCH  17  18
ATOM     18  C   UNL     1      13.115 -14.769   3.840  1.00  0.00    -0.000 C 
BRANCH  18  19
ATOM     19  C   UNL     1      11.956 -13.976   3.223  1.00  0.00    -0.003 C 
ATOM     20  C   UNL     1      10.768 -13.907   4.177  1.00  0.00     0.004 C 
ENDBRANCH  18  19
ENDBRANCH  17  18
ENDBRANCH  16  17
ENDBRANCH  15  16
ENDBRANCH  14  15
ENDBRANCH  13  14
ENDBRANCH   2  13
TORSDOF 15
ENDMDL
MODEL 7
REMARK VINA RESULT:    -5.113      2.522      6.470
REMARK INTER + INTRA:         -11.786
REMARK INTER:                  -9.619
REMARK INTRA:                  -2.167
REMARK UNBOUND:                -2.189
REMARK SMILES CCCCCCCCC=CCCCCCCCC(=O)[O-]
REMARK SMILES IDX 10 1 9 2 11 3 12 4 13 5 14 6 15 7 16 8 17 9 18 10 19 11
REMARK SMILES IDX 20 12 8 13 7 14 6 15 5 16 4 17 3 18 2 19 1 20
REMARK H PARENT
REMARK Flexibility Score: inf
ROOT
ATOM      1  C   UNL     1      15.982  -4.915  10.762  1.00  0.00    -0.031 C 
ATOM      2  C   UNL     1      16.548  -4.565   9.591  1.00  0.00    -0.031 C 
ENDROOT
BRANCH   1   3
ATOM      3  C   UNL     1      14.916  -4.124  11.486  1.00  0.00     0.027 C 
BRANCH   3   4
ATOM      4  C   UNL     1      14.053  -5.033  12.371  1.00  0.00     0.004 C 
BRANCH   4   5
ATOM      5  C   UNL     1      14.604  -6.467  12.437  1.00  0.00     0.000 C 
BRANCH   5   6
ATOM      6  C   UNL     1      14.684  -7.011  13.873  1.00  0.00     0.000 C 
BRANCH   6   7
ATOM      7  C   UNL     1      13.395  -6.787  14.692  1.00  0.00     0.000 C 
BRANCH   7   8
ATOM      8  C   UNL     1      13.685  -6.199  16.084  1.00  0.00     0.006 C 
BRANCH   8   9
ATOM      9  C   UNL     1      14.642  -5.001  16.022  1.00  0.00     0.053 C 
BRANCH   9  10
ATOM     10  C   UNL     1      13.906  -3.707  15.858  1.00  0.00     0.041 C 
ATOM     11  O   UNL     1      12.648  -3.696  15.804  1.00  0.00    -0.550 OA
ATOM     12  O   UNL     1      14.611  -2.517  15.729  1.00  0.00    -0.550 OA
ENDBRANCH   9  10
ENDBRANCH   8   9
ENDBRANCH   7   8
ENDBRANCH   6   7
ENDBRANCH   5   6
ENDBRANCH   4   5
ENDBRANCH   3   4
ENDBRANCH   1   3
BRANCH   2  13
ATOM     13  C   UNL     1      16.180  -3.349   8.776  1.00  0.00     0.027 C 
BRANCH  13  14
ATOM     14  C   UNL     1      17.409  -2.539   8.331  1.00  0.00     0.004 C 
BRANCH  14  15
ATOM     15  C   UNL     1      17.991  -1.623   9.423  1.00  0.00     0.000 C 
BRANCH  15  16
ATOM     16  C   UNL     1      19.459  -1.941   9.782  1.00  0.00     0.000 C 
BRANCH  16  17
ATOM     17  C   UNL     1      19.698  -1.953  11.299  1.00  0.00    -0.000 C 
BRANCH  17  18
ATOM     18  C   UNL     1      18.436  -2.390  12.052  1.00  0.00    -0.000 C 
BRANCH  18  19
ATOM     19  C   UNL     1      18.796  -3.164  13.326  1.00  0.00    -0.003 C 
ATOM     20  C   UNL     1      17.543  -3.600  14.079  1.00  0.00     0.004 C 
ENDBRANCH  18  19
ENDBRANCH  17  18
ENDBRANCH  16  17
ENDBRANCH  15  16
ENDBRANCH  14  15
ENDBRANCH  13  14
ENDBRANCH   2  13
TORSDOF 15
ENDMDL
MODEL 8
REMARK VINA RESULT:    -5.102     14.986     16.959
REMARK INTER + INTRA:         -11.764
REMARK INTER:                  -9.619
REMARK INTRA:                  -2.146
REMARK UNBOUND:                -2.189
REMARK SMILES CCCCCCCCC=CCCCCCCCC(=O)[O-]
REMARK SMILES IDX 10 1 9 2 11 3 12 4 13 5 14 6 15 7 16 8 17 9 18 10 19 11
REMARK SMILES IDX 20 12 8 13 7 14 6 15 5 16 4 17 3 18 2 19 1 20
REMARK H PARENT
REMARK Flexibility Score: inf
ROOT
ATOM      1  C   UNL     1      20.741 -20.484   8.809  1.00  0.00    -0.031 C 
ATOM      2  C   UNL     1      21.993 -19.996   8.716  1.00  0.00    -0.031 C 
ENDROOT
BRANCH   1   3
ATOM      3  C   UNL     1      20.136 -21.099  10.050  1.00  0.00     0.027 C 
BRANCH   3   4
ATOM      4  C   UNL     1      18.603 -21.122   9.968  1.00  0.00     0.004 C 
BRANCH   4   5
ATOM      5  C   UNL     1      17.951 -20.375  11.143  1.00  0.00     0.000 C 
BRANCH   5   6
ATOM      6  C   UNL     1      16.986 -19.268  10.686  1.00  0.00     0.000 C 
BRANCH   6   7
ATOM      7  C   UNL     1      17.118 -18.912   9.190  1.00  0.00     0.000 C 
BRANCH   7   8
ATOM      8  C   UNL     1      17.317 -17.402   8.967  1.00  0.00     0.006 C 
BRANCH   8   9
ATOM      9  C   UNL     1      18.473 -17.104   8.004  1.00  0.00     0.053 C 
BRANCH   9  10
ATOM     10  C   UNL     1      17.983 -16.787   6.625  1.00  0.00     0.041 C 
ATOM     11  O   UNL     1      18.711 -16.143   5.826  1.00  0.00    -0.550 OA
ATOM     12  O   UNL     1      16.705 -17.173   6.235  1.00  0.00    -0.550 OA
ENDBRANCH   9  10
ENDBRANCH   8   9
ENDBRANCH   7   8
ENDBRANCH   6   7
ENDBRANCH   5   6
ENDBRANCH   4   5
ENDBRANCH   3   4
ENDBRANCH   1   3
BRANCH   2  13
ATOM     13  C   UNL     1      22.989 -19.934   9.848  1.00  0.00     0.027 C 
BRANCH  13  14
ATOM     14  C   UNL     1      24.446 -19.915   9.356  1.00  0.00     0.004 C 
BRANCH  14  15
ATOM     15  C   UNL     1      24.875 -18.587   8.703  1.00  0.00     0.000 C 
BRANCH  15  16
ATOM     16  C   UNL     1      24.829 -17.380   9.665  1.00  0.00     0.000 C 
BRANCH  16  17
ATOM     17  C   UNL     1      24.158 -16.155   9.028  1.00  0.00    -0.000 C 
BRANCH  17  18
ATOM     18  C   UNL     1      22.630 -16.287   9.056  1.00  0.00    -0.000 C 
BRANCH  18  19
ATOM     19  C   UNL     1      22.018 -15.868   7.713  1.00  0.00    -0.003 C 
ATOM     20  C   UNL     1      22.051 -17.018   6.711  1.00  0.00     0.004 C 
ENDBRANCH  18  19
ENDBRANCH  17  18
ENDBRANCH  16  17
ENDBRANCH  15  16
ENDBRANCH  14  15
ENDBRANCH  13  14
ENDBRANCH   2  13
TORSDOF 15
ENDMDL
MODEL 9
REMARK VINA RESULT:    -5.101      2.982      6.802
REMARK INTER + INTRA:         -11.764
REMARK INTER:                  -9.584
REMARK INTRA:                  -2.180
REMARK UNBOUND:                -2.189
REMARK SMILES CCCCCCCCC=CCCCCCCCC(=O)[O-]
REMARK SMILES IDX 10 1 9 2 11 3 12 4 13 5 14 6 15 7 16 8 17 9 18 10 19 11
REMARK SMILES IDX 20 12 8 13 7 14 6 15 5 16 4 17 3 18 2 19 1 20
REMARK H PARENT
REMARK Flexibility Score: inf
ROOT
ATOM      1  C   UNL     1      17.420  -2.853   7.983  1.00  0.00    -0.031 C 
ATOM      2  C   UNL     1      18.499  -2.064   8.148  1.00  0.00    -0.031 C 
ENDROOT
BRANCH   1   3
ATOM      3  C   UNL     1      16.331  -3.067   9.010  1.00  0.00     0.027 C 
BRANCH   3   4
ATOM      4  C   UNL     1      16.516  -4.400   9.748  1.00  0.00     0.004 C 
BRANCH   4   5
ATOM      5  C   UNL     1      15.861  -4.386  11.139  1.00  0.00     0.000 C 
BRANCH   5   6
ATOM      6  C   UNL     1      15.345  -5.769  11.570  1.00  0.00     0.000 C 
BRANCH   6   7
ATOM      7  C   UNL     1      14.018  -5.715  12.358  1.00  0.00     0.000 C 
BRANCH   7   8
ATOM      8  C   UNL     1      12.986  -4.786  11.694  1.00  0.00     0.006 C 
BRANCH   8   9
ATOM      9  C   UNL     1      12.100  -5.528  10.685  1.00  0.00     0.053 C 
BRANCH   9  10
ATOM     10  C   UNL     1      12.036  -4.817   9.369  1.00  0.00     0.041 C 
ATOM     11  O   UNL     1      10.940  -4.374   8.940  1.00  0.00    -0.550 OA
ATOM     12  O   UNL     1      13.185  -4.676   8.598  1.00  0.00    -0.550 OA
ENDBRANCH   9  10
ENDBRANCH   8   9
ENDBRANCH   7   8
ENDBRANCH   6   7
ENDBRANCH   5   6
ENDBRANCH   4   5
ENDBRANCH   3   4
ENDBRANCH   1   3
BRANCH   2  13
ATOM     13  C   UNL     1      18.780  -1.218   9.365  1.00  0.00     0.027 C 
BRANCH  13  14
ATOM     14  C   UNL     1      19.467  -2.008  10.491  1.00  0.00     0.004 C 
BRANCH  14  15
ATOM     15  C   UNL     1      18.639  -2.115  11.785  1.00  0.00     0.000 C 
BRANCH  15  16
ATOM     16  C   UNL     1      19.466  -2.540  13.018  1.00  0.00     0.000 C 
BRANCH  16  17
ATOM     17  C   UNL     1      18.673  -3.452  13.964  1.00  0.00    -0.000 C 
BRANCH  17  18
ATOM     18  C   UNL     1      17.338  -2.808  14.359  1.00  0.00    -0.000 C 
BRANCH  18  19
ATOM     19  C   UNL     1      16.300  -3.877  14.724  1.00  0.00    -0.003 C 
ATOM     20  C   UNL     1      14.950  -3.244  15.048  1.00  0.00     0.004 C 
ENDBRANCH  18  19
ENDBRANCH  17  18
ENDBRANCH  16  17
ENDBRANCH  15  16
ENDBRANCH  14  15
ENDBRANCH  13  14
ENDBRANCH   2  13
TORSDOF 15
ENDMDL
