MODEL 1
REMARK VINA RESULT:    28.285      0.000      0.000
REMARK INTER + INTRA:          33.005
REMARK INTER:                  33.246
REMARK INTRA:                  -0.241
REMARK UNBOUND:                -0.241
REMARK SMILES O=c1c(O)c(-c2ccc(O)cc2)oc2cc(O)cc(O)c12
REMARK SMILES IDX 5 1 3 2 2 3 1 4 21 5 19 6 18 7 16 8 15 9 14 10 13 11 6 12
REMARK SMILES IDX 7 13 8 14 9 15 12 16 11 17 10 18 4 20 20 22 17 24
REMARK H PARENT 10 19 4 21 20 23 17 25
REMARK Flexibility Score: inf
ROOT
ATOM      1  C   UNL     1      20.155 -12.542 -15.559  1.00  0.00     0.180 A 
ATOM      2  C   UNL     1      21.309 -12.118 -14.878  1.00  0.00     0.208 A 
ATOM      3  C   UNL     1      22.457 -11.794 -15.618  1.00  0.00     0.238 A 
ATOM      4  O   UNL     1      23.504 -11.468 -14.998  1.00  0.00    -0.285 OA
ATOM      5  C   UNL     1      22.433 -11.882 -17.030  1.00  0.00     0.111 A 
ATOM      6  C   UNL     1      23.526 -11.540 -17.882  1.00  0.00     0.134 A 
ATOM      7  C   UNL     1      23.434 -11.790 -19.257  1.00  0.00     0.093 A 
ATOM      8  C   UNL     1      22.264 -12.309 -19.818  1.00  0.00     0.123 A 
ATOM      9  C   UNL     1      21.171 -12.590 -19.003  1.00  0.00     0.094 A 
ATOM     10  C   UNL     1      21.246 -12.385 -17.623  1.00  0.00     0.146 A 
ATOM     11  O   UNL     1      20.184 -12.676 -16.880  1.00  0.00    -0.452 OA
ENDROOT
BRANCH   1  12
ATOM     12  C   UNL     1      18.899 -12.876 -14.850  1.00  0.00     0.021 A 
ATOM     13  C   UNL     1      18.091 -11.842 -14.349  1.00  0.00     0.016 A 
ATOM     14  C   UNL     1      16.912 -12.137 -13.657  1.00  0.00     0.047 A 
ATOM     15  C   UNL     1      16.533 -13.466 -13.444  1.00  0.00     0.115 A 
ATOM     16  C   UNL     1      18.523 -14.212 -14.616  1.00  0.00     0.016 A 
ATOM     17  C   UNL     1      17.345 -14.504 -13.923  1.00  0.00     0.047 A 
BRANCH  15  18
ATOM     18  O   UNL     1      15.356 -13.744 -12.753  1.00  0.00    -0.508 OA
ATOM     19  H   UNL     1      14.489 -13.271 -12.975  1.00  0.00     0.293 HD
ENDBRANCH  15  18
ENDBRANCH   1  12
BRANCH   2  20
ATOM     20  O   UNL     1      21.318 -12.059 -13.481  1.00  0.00    -0.502 OA
ATOM     21  H   UNL     1      22.148 -11.819 -12.952  1.00  0.00     0.293 HD
ENDBRANCH   2  20
BRANCH   6  22
ATOM     22  O   UNL     1      24.703 -10.931 -17.436  1.00  0.00    -0.507 OA
ATOM     23  H   UNL     1      24.907 -10.712 -16.473  1.00  0.00     0.293 HD
ENDBRANCH   6  22
BRANCH   8  24
ATOM     24  O   UNL     1      22.175 -12.540 -21.189  1.00  0.00    -0.508 OA
ATOM     25  H   UNL     1      23.002 -12.582 -21.775  1.00  0.00     0.293 HD
ENDBRANCH   8  24
TORSDOF 5
ENDMDL
MODEL 2
REMARK VINA RESULT:    29.125      1.211      3.053
REMARK INTER + INTRA:          33.992
REMARK INTER:                  34.123
REMARK INTRA:                  -0.131
REMARK UNBOUND:                -0.241
REMARK SMILES O=c1c(O)c(-c2ccc(O)cc2)oc2cc(O)cc(O)c12
REMARK SMILES IDX 5 1 3 2 2 3 1 4 21 5 19 6 18 7 16 8 15 9 14 10 13 11 6 12
REMARK SMILES IDX 7 13 8 14 9 15 12 16 11 17 10 18 4 20 20 22 17 24
REMARK H PARENT 10 19 4 21 20 23 17 25
REMARK Flexibility Score: inf
ROOT
ATOM      1  C   UNL     1      19.925 -12.668 -16.163  1.00  0.00     0.180 A 
ATOM      2  C   UNL     1      19.809 -13.119 -17.489  1.00  0.00     0.208 A 
ATOM      3  C   UNL     1      20.881 -12.917 -18.373  1.00  0.00     0.238 A 
ATOM      4  O   UNL     1      20.751 -13.274 -19.573  1.00  0.00    -0.285 OA
ATOM      5  C   UNL     1      22.061 -12.282 -17.916  1.00  0.00     0.111 A 
ATOM      6  C   UNL     1      23.223 -12.062 -18.714  1.00  0.00     0.134 A 
ATOM      7  C   UNL     1      24.284 -11.308 -18.197  1.00  0.00     0.093 A 
ATOM      8  C   UNL     1      24.250 -10.822 -16.887  1.00  0.00     0.123 A 
ATOM      9  C   UNL     1      23.145 -11.083 -16.081  1.00  0.00     0.094 A 
ATOM     10  C   UNL     1      22.057 -11.801 -16.581  1.00  0.00     0.146 A 
ATOM     11  O   UNL     1      21.019 -12.019 -15.782  1.00  0.00    -0.452 OA
ENDROOT
BRANCH   1  12
ATOM     12  C   UNL     1      18.848 -12.867 -15.166  1.00  0.00     0.021 A 
ATOM     13  C   UNL     1      18.492 -14.171 -14.783  1.00  0.00     0.016 A 
ATOM     14  C   UNL     1      17.463 -14.382 -13.859  1.00  0.00     0.047 A 
ATOM     15  C   UNL     1      16.767 -13.296 -13.320  1.00  0.00     0.115 A 
ATOM     16  C   UNL     1      18.131 -11.779 -14.634  1.00  0.00     0.016 A 
ATOM     17  C   UNL     1      17.102 -11.993 -13.713  1.00  0.00     0.047 A 
BRANCH  15  18
ATOM     18  O   UNL     1      15.744 -13.521 -12.401  1.00  0.00    -0.508 OA
ATOM     19  H   UNL     1      15.943 -13.756 -11.436  1.00  0.00     0.293 HD
ENDBRANCH  15  18
ENDBRANCH   1  12
BRANCH   2  20
ATOM     20  O   UNL     1      18.627 -13.724 -17.925  1.00  0.00    -0.502 OA
ATOM     21  H   UNL     1      18.107 -13.389 -18.727  1.00  0.00     0.293 HD
ENDBRANCH   2  20
BRANCH   6  22
ATOM     22  O   UNL     1      23.398 -12.582 -20.001  1.00  0.00    -0.507 OA
ATOM     23  H   UNL     1      23.182 -12.089 -20.853  1.00  0.00     0.293 HD
ENDBRANCH   6  22
BRANCH   8  24
ATOM     24  O   UNL     1      25.316 -10.086 -16.374  1.00  0.00    -0.508 OA
ATOM     25  H   UNL     1      25.231  -9.095 -16.180  1.00  0.00     0.293 HD
ENDBRANCH   8  24
TORSDOF 5
ENDMDL
MODEL 3
REMARK VINA RESULT:    30.815      4.692      7.517
REMARK INTER + INTRA:          35.978
REMARK INTER:                  36.235
REMARK INTRA:                  -0.257
REMARK UNBOUND:                -0.241
REMARK SMILES O=c1c(O)c(-c2ccc(O)cc2)oc2cc(O)cc(O)c12
REMARK SMILES IDX 5 1 3 2 2 3 1 4 21 5 19 6 18 7 16 8 15 9 14 10 13 11 6 12
REMARK SMILES IDX 7 13 8 14 9 15 12 16 11 17 10 18 4 20 20 22 17 24
REMARK H PARENT 10 19 4 21 20 23 17 25
REMARK Flexibility Score: inf
ROOT
ATOM      1  C   UNL     1      22.077  -8.022 -19.007  1.00  0.00     0.180 A 
ATOM      2  C   UNL     1      21.644  -8.937 -19.982  1.00  0.00     0.208 A 
ATOM      3  C   UNL     1      21.924 -10.302 -19.808  1.00  0.00     0.238 A 
ATOM      4  O   UNL     1      21.581 -11.110 -20.710  1.00  0.00    -0.285 OA
ATOM      5  C   UNL     1      22.619 -10.736 -18.654  1.00  0.00     0.111 A 
ATOM      6  C   UNL     1      22.921 -12.099 -18.355  1.00  0.00     0.134 A 
ATOM      7  C   UNL     1      23.727 -12.402 -17.251  1.00  0.00     0.093 A 
ATOM      8  C   UNL     1      24.187 -11.395 -16.397  1.00  0.00     0.123 A 
ATOM      9  C   UNL     1      23.847 -10.068 -16.647  1.00  0.00     0.094 A 
ATOM     10  C   UNL     1      23.075  -9.732 -17.762  1.00  0.00     0.146 A 
ATOM     11  O   UNL     1      22.783  -8.453 -17.969  1.00  0.00    -0.452 OA
ENDROOT
BRANCH   1  12
ATOM     12  C   UNL     1      21.798  -6.571 -19.109  1.00  0.00     0.021 A 
ATOM     13  C   UNL     1      20.525  -6.086 -18.765  1.00  0.00     0.016 A 
ATOM     14  C   UNL     1      20.234  -4.722 -18.874  1.00  0.00     0.047 A 
ATOM     15  C   UNL     1      21.203  -3.830 -19.343  1.00  0.00     0.115 A 
ATOM     16  C   UNL     1      22.763  -5.671 -19.598  1.00  0.00     0.016 A 
ATOM     17  C   UNL     1      22.468  -4.309 -19.708  1.00  0.00     0.047 A 
BRANCH  15  18
ATOM     18  O   UNL     1      20.898  -2.475 -19.446  1.00  0.00    -0.508 OA
ATOM     19  H   UNL     1      21.400  -1.868 -20.083  1.00  0.00     0.293 HD
ENDBRANCH  15  18
ENDBRANCH   1  12
BRANCH   2  20
ATOM     20  O   UNL     1      20.978  -8.484 -21.125  1.00  0.00    -0.502 OA
ATOM     21  H   UNL     1      21.283  -7.671 -21.647  1.00  0.00     0.293 HD
ENDBRANCH   2  20
BRANCH   6  22
ATOM     22  O   UNL     1      22.435 -13.186 -19.089  1.00  0.00    -0.507 OA
ATOM     23  H   UNL     1      21.615 -13.162 -19.675  1.00  0.00     0.293 HD
ENDBRANCH   6  22
BRANCH   8  24
ATOM     24  O   UNL     1      24.975 -11.705 -15.291  1.00  0.00    -0.508 OA
ATOM     25  H   UNL     1      25.792 -11.156 -15.052  1.00  0.00     0.293 HD
ENDBRANCH   8  24
TORSDOF 5
ENDMDL
MODEL 4
REMARK VINA RESULT:    31.074      4.697      6.809
REMARK INTER + INTRA:          36.282
REMARK INTER:                  36.458
REMARK INTRA:                  -0.175
REMARK UNBOUND:                -0.241
REMARK SMILES O=c1c(O)c(-c2ccc(O)cc2)oc2cc(O)cc(O)c12
REMARK SMILES IDX 5 1 3 2 2 3 1 4 21 5 19 6 18 7 16 8 15 9 14 10 13 11 6 12
REMARK SMILES IDX 7 13 8 14 9 15 12 16 11 17 10 18 4 20 20 22 17 24
REMARK H PARENT 10 19 4 21 20 23 17 25
REMARK Flexibility Score: inf
ROOT
ATOM      1  C   UNL     1      22.413  -8.104 -18.439  1.00  0.00     0.180 A 
ATOM      2  C   UNL     1      23.315  -8.303 -17.380  1.00  0.00     0.208 A 
ATOM      3  C   UNL     1      23.729  -9.609 -17.073  1.00  0.00     0.238 A 
ATOM      4  O   UNL     1      24.494  -9.785 -16.090  1.00  0.00    -0.285 OA
ATOM      5  C   UNL     1      23.248 -10.698 -17.839  1.00  0.00     0.111 A 
ATOM      6  C   UNL     1      23.632 -12.058 -17.642  1.00  0.00     0.134 A 
ATOM      7  C   UNL     1      22.994 -13.068 -18.373  1.00  0.00     0.093 A 
ATOM      8  C   UNL     1      22.033 -12.761 -19.340  1.00  0.00     0.123 A 
ATOM      9  C   UNL     1      21.696 -11.431 -19.581  1.00  0.00     0.094 A 
ATOM     10  C   UNL     1      22.289 -10.405 -18.842  1.00  0.00     0.146 A 
ATOM     11  O   UNL     1      21.930  -9.152 -19.097  1.00  0.00    -0.452 OA
ENDROOT
BRANCH   1  12
ATOM     12  C   UNL     1      21.951  -6.755 -18.839  1.00  0.00     0.021 A 
ATOM     13  C   UNL     1      22.860  -5.856 -19.419  1.00  0.00     0.016 A 
ATOM     14  C   UNL     1      22.450  -4.569 -19.784  1.00  0.00     0.047 A 
ATOM     15  C   UNL     1      21.133  -4.160 -19.558  1.00  0.00     0.115 A 
ATOM     16  C   UNL     1      20.631  -6.330 -18.596  1.00  0.00     0.016 A 
ATOM     17  C   UNL     1      20.224  -5.044 -18.960  1.00  0.00     0.047 A 
BRANCH  15  18
ATOM     18  O   UNL     1      20.738  -2.876 -19.926  1.00  0.00    -0.508 OA
ATOM     19  H   UNL     1      20.943  -2.072 -19.344  1.00  0.00     0.293 HD
ENDBRANCH  15  18
ENDBRANCH   1  12
BRANCH   2  20
ATOM     20  O   UNL     1      23.761  -7.215 -16.623  1.00  0.00    -0.502 OA
ATOM     21  H   UNL     1      23.241  -6.853 -15.832  1.00  0.00     0.293 HD
ENDBRANCH   2  20
BRANCH   6  22
ATOM     22  O   UNL     1      24.645 -12.466 -16.769  1.00  0.00    -0.507 OA
ATOM     23  H   UNL     1      25.597 -12.656 -17.043  1.00  0.00     0.293 HD
ENDBRANCH   6  22
BRANCH   8  24
ATOM     24  O   UNL     1      21.415 -13.770 -20.074  1.00  0.00    -0.508 OA
ATOM     25  H   UNL     1      20.456 -13.682 -20.393  1.00  0.00     0.293 HD
ENDBRANCH   8  24
TORSDOF 5
ENDMDL
