MODEL 1
REMARK VINA RESULT:    -3.912      0.000      0.000
REMARK INTER + INTRA:          -7.553
REMARK INTER:                  -6.200
REMARK INTRA:                  -1.353
REMARK UNBOUND:                -1.353
REMARK SMILES CCCCCCCCCCCC(=O)[O-]
REMARK SMILES IDX 7 1 8 2 9 3 10 4 11 5 12 6 13 7 14 8 6 9 5 10 4 11 3 12 2 13
REMARK SMILES IDX 1 14
REMARK H PARENT
REMARK Flexibility Score: inf
ROOT
ATOM      1  C   UNL     1     175.201 174.187 182.080  1.00  0.00     0.000 C 
ENDROOT
BRANCH   1   2
ATOM      2  C   UNL     1     174.143 174.856 182.974  1.00  0.00     0.000 C 
BRANCH   2   3
ATOM      3  C   UNL     1     173.129 175.697 182.175  1.00  0.00     0.000 C 
BRANCH   3   4
ATOM      4  C   UNL     1     173.195 177.217 182.425  1.00  0.00     0.006 C 
BRANCH   4   5
ATOM      5  C   UNL     1     171.826 177.909 182.516  1.00  0.00     0.053 C 
BRANCH   5   6
ATOM      6  C   UNL     1     171.023 177.735 181.264  1.00  0.00     0.041 C 
ATOM      7  O   UNL     1     169.805 177.421 181.332  1.00  0.00    -0.550 OA
ATOM      8  O   UNL     1     171.610 177.953 180.025  1.00  0.00    -0.550 OA
ENDBRANCH   5   6
ENDBRANCH   4   5
ENDBRANCH   3   4
ENDBRANCH   2   3
ENDBRANCH   1   2
BRANCH   1   9
ATOM      9  C   UNL     1     176.600 174.796 182.267  1.00  0.00     0.000 C 
BRANCH   9  10
ATOM     10  C   UNL     1     176.582 176.078 183.114  1.00  0.00    -0.000 C 
BRANCH  10  11
ATOM     11  C   UNL     1     176.878 177.311 182.251  1.00  0.00    -0.000 C 
BRANCH  11  12
ATOM     12  C   UNL     1     177.088 176.917 180.781  1.00  0.00    -0.000 C 
BRANCH  12  13
ATOM     13  C   UNL     1     176.192 177.715 179.822  1.00  0.00    -0.003 C 
ATOM     14  C   UNL     1     175.059 176.874 179.234  1.00  0.00     0.004 C 
ENDBRANCH  12  13
ENDBRANCH  11  12
ENDBRANCH  10  11
ENDBRANCH   9  10
ENDBRANCH   1   9
TORSDOF 10
ENDMDL
MODEL 2
REMARK VINA RESULT:    -3.899      2.351      4.930
REMARK INTER + INTRA:          -7.531
REMARK INTER:                  -6.512
REMARK INTRA:                  -1.019
REMARK UNBOUND:                -1.353
REMARK SMILES CCCCCCCCCCCC(=O)[O-]
REMARK SMILES IDX 7 1 8 2 9 3 10 4 11 5 12 6 13 7 14 8 6 9 5 10 4 11 3 12 2 13
REMARK SMILES IDX 1 14
REMARK H PARENT
REMARK Flexibility Score: inf
ROOT
ATOM      1  C   UNL     1     175.718 176.088 183.247  1.00  0.00     0.000 C 
ENDROOT
BRANCH   1   2
ATOM      2  C   UNL     1     176.968 176.263 182.368  1.00  0.00     0.000 C 
BRANCH   2   3
ATOM      3  C   UNL     1     177.160 177.712 181.882  1.00  0.00     0.000 C 
BRANCH   3   4
ATOM      4  C   UNL     1     177.184 177.893 180.351  1.00  0.00     0.006 C 
BRANCH   4   5
ATOM      5  C   UNL     1     175.900 177.446 179.634  1.00  0.00     0.053 C 
BRANCH   5   6
ATOM      6  C   UNL     1     176.156 176.334 178.664  1.00  0.00     0.041 C 
ATOM      7  O   UNL     1     177.177 175.607 178.789  1.00  0.00    -0.550 OA
ATOM      8  O   UNL     1     175.250 176.077 177.644  1.00  0.00    -0.550 OA
ENDBRANCH   5   6
ENDBRANCH   4   5
ENDBRANCH   3   4
ENDBRANCH   2   3
ENDBRANCH   1   2
BRANCH   1   9
ATOM      9  C   UNL     1     174.659 175.185 182.593  1.00  0.00     0.000 C 
BRANCH   9  10
ATOM     10  C   UNL     1     173.295 175.878 182.450  1.00  0.00    -0.000 C 
BRANCH  10  11
ATOM     11  C   UNL     1     173.448 177.403 182.482  1.00  0.00    -0.000 C 
BRANCH  11  12
ATOM     12  C   UNL     1     172.113 178.085 182.819  1.00  0.00    -0.000 C 
BRANCH  12  13
ATOM     13  C   UNL     1     170.899 177.266 182.357  1.00  0.00    -0.003 C 
ATOM     14  C   UNL     1     169.877 177.043 183.472  1.00  0.00     0.004 C 
ENDBRANCH  12  13
ENDBRANCH  11  12
ENDBRANCH  10  11
ENDBRANCH   9  10
ENDBRANCH   1   9
TORSDOF 10
ENDMDL
MODEL 3
REMARK VINA RESULT:    -3.883      0.836      1.742
REMARK INTER + INTRA:          -7.506
REMARK INTER:                  -6.035
REMARK INTRA:                  -1.470
REMARK UNBOUND:                -1.353
REMARK SMILES CCCCCCCCCCCC(=O)[O-]
REMARK SMILES IDX 7 1 8 2 9 3 10 4 11 5 12 6 13 7 14 8 6 9 5 10 4 11 3 12 2 13
REMARK SMILES IDX 1 14
REMARK H PARENT
REMARK Flexibility Score: inf
ROOT
ATOM      1  C   UNL     1     176.440 175.528 182.687  1.00  0.00     0.000 C 
ENDROOT
BRANCH   1   2
ATOM      2  C   UNL     1     174.947 175.169 182.775  1.00  0.00     0.000 C 
BRANCH   2   3
ATOM      3  C   UNL     1     174.034 176.409 182.792  1.00  0.00     0.000 C 
BRANCH   3   4
ATOM      4  C   UNL     1     172.878 176.387 181.771  1.00  0.00     0.006 C 
BRANCH   4   5
ATOM      5  C   UNL     1     172.014 177.659 181.757  1.00  0.00     0.053 C 
BRANCH   5   6
ATOM      6  C   UNL     1     171.124 177.720 180.554  1.00  0.00     0.041 C 
ATOM      7  O   UNL     1     171.624 177.812 179.401  1.00  0.00    -0.550 OA
ATOM      8  O   UNL     1     169.746 177.638 180.702  1.00  0.00    -0.550 OA
ENDBRANCH   5   6
ENDBRANCH   4   5
ENDBRANCH   3   4
ENDBRANCH   2   3
ENDBRANCH   1   2
BRANCH   1   9
ATOM      9  C   UNL     1     176.710 177.009 182.996  1.00  0.00     0.000 C 
BRANCH   9  10
ATOM     10  C   UNL     1     177.331 177.761 181.808  1.00  0.00    -0.000 C 
BRANCH  10  11
ATOM     11  C   UNL     1     177.042 177.035 180.489  1.00  0.00    -0.000 C 
BRANCH  11  12
ATOM     12  C   UNL     1     175.931 177.744 179.700  1.00  0.00    -0.000 C 
BRANCH  12  13
ATOM     13  C   UNL     1     175.050 176.766 178.910  1.00  0.00    -0.003 C 
ATOM     14  C   UNL     1     175.513 175.315 179.042  1.00  0.00     0.004 C 
ENDBRANCH  12  13
ENDBRANCH  11  12
ENDBRANCH  10  11
ENDBRANCH   9  10
ENDBRANCH   1   9
TORSDOF 10
ENDMDL
MODEL 4
REMARK VINA RESULT:    -3.855      2.314      5.339
REMARK INTER + INTRA:          -7.462
REMARK INTER:                  -6.372
REMARK INTRA:                  -1.090
REMARK UNBOUND:                -1.353
REMARK SMILES CCCCCCCCCCCC(=O)[O-]
REMARK SMILES IDX 7 1 8 2 9 3 10 4 11 5 12 6 13 7 14 8 6 9 5 10 4 11 3 12 2 13
REMARK SMILES IDX 1 14
REMARK H PARENT
REMARK Flexibility Score: inf
ROOT
ATOM      1  C   UNL     1     173.490 175.929 182.135  1.00  0.00     0.000 C 
ENDROOT
BRANCH   1   2
ATOM      2  C   UNL     1     174.565 175.051 182.798  1.00  0.00     0.000 C 
BRANCH   2   3
ATOM      3  C   UNL     1     175.822 175.845 183.201  1.00  0.00     0.000 C 
BRANCH   3   4
ATOM      4  C   UNL     1     176.898 175.973 182.104  1.00  0.00     0.006 C 
BRANCH   4   5
ATOM      5  C   UNL     1     177.014 177.374 181.483  1.00  0.00     0.053 C 
BRANCH   5   6
ATOM      6  C   UNL     1     176.636 177.379 180.034  1.00  0.00     0.041 C 
ATOM      7  O   UNL     1     177.487 177.075 179.156  1.00  0.00    -0.550 OA
ATOM      8  O   UNL     1     175.336 177.685 179.655  1.00  0.00    -0.550 OA
ENDBRANCH   5   6
ENDBRANCH   4   5
ENDBRANCH   3   4
ENDBRANCH   2   3
ENDBRANCH   1   2
BRANCH   1   9
ATOM      9  C   UNL     1     173.447 177.351 182.719  1.00  0.00     0.000 C 
BRANCH   9  10
ATOM     10  C   UNL     1     172.107 178.057 182.463  1.00  0.00    -0.000 C 
BRANCH  10  11
ATOM     11  C   UNL     1     171.223 177.232 181.519  1.00  0.00    -0.000 C 
BRANCH  11  12
ATOM     12  C   UNL     1     169.834 176.997 182.131  1.00  0.00    -0.000 C 
BRANCH  12  13
ATOM     13  C   UNL     1     169.904 176.440 183.560  1.00  0.00    -0.003 C 
ATOM     14  C   UNL     1     170.172 174.935 183.595  1.00  0.00     0.004 C 
ENDBRANCH  12  13
ENDBRANCH  11  12
ENDBRANCH  10  11
ENDBRANCH   9  10
ENDBRANCH   1   9
TORSDOF 10
ENDMDL
MODEL 5
REMARK VINA RESULT:    -3.829      3.714      4.727
REMARK INTER + INTRA:          -7.420
REMARK INTER:                  -6.111
REMARK INTRA:                  -1.309
REMARK UNBOUND:                -1.353
REMARK SMILES CCCCCCCCCCCC(=O)[O-]
REMARK SMILES IDX 7 1 8 2 9 3 10 4 11 5 12 6 13 7 14 8 6 9 5 10 4 11 3 12 2 13
REMARK SMILES IDX 1 14
REMARK H PARENT
REMARK Flexibility Score: inf
ROOT
ATOM      1  C   UNL     1     174.640 176.772 182.699  1.00  0.00     0.000 C 
ENDROOT
BRANCH   1   2
ATOM      2  C   UNL     1     174.045 175.553 181.975  1.00  0.00     0.000 C 
BRANCH   2   3
ATOM      3  C   UNL     1     174.240 174.239 182.756  1.00  0.00     0.000 C 
BRANCH   3   4
ATOM      4  C   UNL     1     174.790 173.059 181.930  1.00  0.00     0.006 C 
BRANCH   4   5
ATOM      5  C   UNL     1     175.959 173.421 180.999  1.00  0.00     0.053 C 
BRANCH   5   6
ATOM      6  C   UNL     1     177.197 172.644 181.326  1.00  0.00     0.041 C 
ATOM      7  O   UNL     1     178.114 173.172 182.010  1.00  0.00    -0.550 OA
ATOM      8  O   UNL     1     177.324 171.327 180.906  1.00  0.00    -0.550 OA
ENDBRANCH   5   6
ENDBRANCH   4   5
ENDBRANCH   3   4
ENDBRANCH   2   3
ENDBRANCH   1   2
BRANCH   1   9
ATOM      9  C   UNL     1     176.030 176.486 183.292  1.00  0.00     0.000 C 
BRANCH   9  10
ATOM     10  C   UNL     1     177.154 176.600 182.252  1.00  0.00    -0.000 C 
BRANCH  10  11
ATOM     11  C   UNL     1     177.149 177.983 181.587  1.00  0.00    -0.000 C 
BRANCH  11  12
ATOM     12  C   UNL     1     177.325 177.864 180.066  1.00  0.00    -0.000 C 
BRANCH  12  13
ATOM     13  C   UNL     1     176.109 177.227 179.378  1.00  0.00    -0.003 C 
ATOM     14  C   UNL     1     176.496 176.107 178.412  1.00  0.00     0.004 C 
ENDBRANCH  12  13
ENDBRANCH  11  12
ENDBRANCH  10  11
ENDBRANCH   9  10
ENDBRANCH   1   9
TORSDOF 10
ENDMDL
MODEL 6
REMARK VINA RESULT:    -3.759      1.111      2.926
REMARK INTER + INTRA:          -7.309
REMARK INTER:                  -5.914
REMARK INTRA:                  -1.396
REMARK UNBOUND:                -1.353
REMARK SMILES CCCCCCCCCCCC(=O)[O-]
REMARK SMILES IDX 7 1 8 2 9 3 10 4 11 5 12 6 13 7 14 8 6 9 5 10 4 11 3 12 2 13
REMARK SMILES IDX 1 14
REMARK H PARENT
REMARK Flexibility Score: inf
ROOT
ATOM      1  C   UNL     1     176.649 176.417 179.735  1.00  0.00     0.000 C 
ENDROOT
BRANCH   1   2
ATOM      2  C   UNL     1     175.385 176.468 178.860  1.00  0.00     0.000 C 
BRANCH   2   3
ATOM      3  C   UNL     1     174.283 177.366 179.453  1.00  0.00     0.000 C 
BRANCH   3   4
ATOM      4  C   UNL     1     173.201 176.628 180.266  1.00  0.00     0.006 C 
BRANCH   4   5
ATOM      5  C   UNL     1     172.915 177.236 181.649  1.00  0.00     0.053 C 
BRANCH   5   6
ATOM      6  C   UNL     1     171.490 177.677 181.785  1.00  0.00     0.041 C 
ATOM      7  O   UNL     1     170.933 177.680 182.915  1.00  0.00    -0.550 OA
ATOM      8  O   UNL     1     170.789 178.120 180.671  1.00  0.00    -0.550 OA
ENDBRANCH   5   6
ENDBRANCH   4   5
ENDBRANCH   3   4
ENDBRANCH   2   3
ENDBRANCH   1   2
BRANCH   1   9
ATOM      9  C   UNL     1     176.944 177.759 180.424  1.00  0.00     0.000 C 
BRANCH   9  10
ATOM     10  C   UNL     1     177.382 177.591 181.888  1.00  0.00    -0.000 C 
BRANCH  10  11
ATOM     11  C   UNL     1     176.254 176.983 182.731  1.00  0.00    -0.000 C 
BRANCH  11  12
ATOM     12  C   UNL     1     176.524 175.499 183.024  1.00  0.00    -0.000 C 
BRANCH  12  13
ATOM     13  C   UNL     1     175.242 174.653 183.018  1.00  0.00    -0.003 C 
ATOM     14  C   UNL     1     175.153 173.724 181.807  1.00  0.00     0.004 C 
ENDBRANCH  12  13
ENDBRANCH  11  12
ENDBRANCH  10  11
ENDBRANCH   9  10
ENDBRANCH   1   9
TORSDOF 10
ENDMDL
MODEL 7
REMARK VINA RESULT:    -3.728      1.462      3.939
REMARK INTER + INTRA:          -7.261
REMARK INTER:                  -5.736
REMARK INTRA:                  -1.525
REMARK UNBOUND:                -1.353
REMARK SMILES CCCCCCCCCCCC(=O)[O-]
REMARK SMILES IDX 7 1 8 2 9 3 10 4 11 5 12 6 13 7 14 8 6 9 5 10 4 11 3 12 2 13
REMARK SMILES IDX 1 14
REMARK H PARENT
REMARK Flexibility Score: inf
ROOT
ATOM      1  C   UNL     1     175.999 176.275 183.318  1.00  0.00     0.000 C 
ENDROOT
BRANCH   1   2
ATOM      2  C   UNL     1     176.699 177.406 182.545  1.00  0.00     0.000 C 
BRANCH   2   3
ATOM      3  C   UNL     1     177.109 176.992 181.119  1.00  0.00     0.000 C 
BRANCH   3   4
ATOM      4  C   UNL     1     176.186 177.504 179.996  1.00  0.00     0.006 C 
BRANCH   4   5
ATOM      5  C   UNL     1     175.371 176.409 179.289  1.00  0.00     0.053 C 
BRANCH   5   6
ATOM      6  C   UNL     1     174.235 176.978 178.496  1.00  0.00     0.041 C 
ATOM      7  O   UNL     1     173.426 177.779 179.035  1.00  0.00    -0.550 OA
ATOM      8  O   UNL     1     174.090 176.651 177.154  1.00  0.00    -0.550 OA
ENDBRANCH   5   6
ENDBRANCH   4   5
ENDBRANCH   3   4
ENDBRANCH   2   3
ENDBRANCH   1   2
BRANCH   1   9
ATOM      9  C   UNL     1     176.354 174.882 182.775  1.00  0.00     0.000 C 
BRANCH   9  10
ATOM     10  C   UNL     1     175.123 174.105 182.281  1.00  0.00    -0.000 C 
BRANCH  10  11
ATOM     11  C   UNL     1     173.828 174.742 182.801  1.00  0.00    -0.000 C 
BRANCH  11  12
ATOM     12  C   UNL     1     172.882 175.091 181.642  1.00  0.00    -0.000 C 
BRANCH  12  13
ATOM     13  C   UNL     1     171.984 176.297 181.955  1.00  0.00    -0.003 C 
ATOM     14  C   UNL     1     172.768 177.492 182.498  1.00  0.00     0.004 C 
ENDBRANCH  12  13
ENDBRANCH  11  12
ENDBRANCH  10  11
ENDBRANCH   9  10
ENDBRANCH   1   9
TORSDOF 10
ENDMDL
MODEL 8
REMARK VINA RESULT:    -3.701      2.074      4.438
REMARK INTER + INTRA:          -7.217
REMARK INTER:                  -5.935
REMARK INTRA:                  -1.282
REMARK UNBOUND:                -1.353
REMARK SMILES CCCCCCCCCCCC(=O)[O-]
REMARK SMILES IDX 7 1 8 2 9 3 10 4 11 5 12 6 13 7 14 8 6 9 5 10 4 11 3 12 2 13
REMARK SMILES IDX 1 14
REMARK H PARENT
REMARK Flexibility Score: inf
ROOT
ATOM      1  C   UNL     1     174.242 176.869 182.587  1.00  0.00     0.000 C 
ENDROOT
BRANCH   1   2
ATOM      2  C   UNL     1     175.612 176.541 183.204  1.00  0.00     0.000 C 
BRANCH   2   3
ATOM      3  C   UNL     1     176.778 177.235 182.474  1.00  0.00     0.000 C 
BRANCH   3   4
ATOM      4  C   UNL     1     177.067 176.713 181.053  1.00  0.00     0.006 C 
BRANCH   4   5
ATOM      5  C   UNL     1     176.740 177.708 179.928  1.00  0.00     0.053 C 
BRANCH   5   6
ATOM      6  C   UNL     1     175.613 177.232 179.065  1.00  0.00     0.041 C 
ATOM      7  O   UNL     1     175.811 176.336 178.202  1.00  0.00    -0.550 OA
ATOM      8  O   UNL     1     174.336 177.750 179.238  1.00  0.00    -0.550 OA
ENDBRANCH   5   6
ENDBRANCH   4   5
ENDBRANCH   3   4
ENDBRANCH   2   3
ENDBRANCH   1   2
BRANCH   1   9
ATOM      9  C   UNL     1     173.431 175.608 182.247  1.00  0.00     0.000 C 
BRANCH   9  10
ATOM     10  C   UNL     1     173.949 174.356 182.973  1.00  0.00    -0.000 C 
BRANCH  10  11
ATOM     11  C   UNL     1     174.147 173.195 181.991  1.00  0.00    -0.000 C 
BRANCH  11  12
ATOM     12  C   UNL     1     175.409 173.402 181.140  1.00  0.00    -0.000 C 
BRANCH  12  13
ATOM     13  C   UNL     1     176.599 172.566 181.635  1.00  0.00    -0.003 C 
ATOM     14  C   UNL     1     177.841 173.412 181.914  1.00  0.00     0.004 C 
ENDBRANCH  12  13
ENDBRANCH  11  12
ENDBRANCH  10  11
ENDBRANCH   9  10
ENDBRANCH   1   9
TORSDOF 10
ENDMDL
MODEL 9
REMARK VINA RESULT:    -3.635      0.973      2.738
REMARK INTER + INTRA:          -7.112
REMARK INTER:                  -5.767
REMARK INTRA:                  -1.345
REMARK UNBOUND:                -1.353
REMARK SMILES CCCCCCCCCCCC(=O)[O-]
REMARK SMILES IDX 7 1 8 2 9 3 10 4 11 5 12 6 13 7 14 8 6 9 5 10 4 11 3 12 2 13
REMARK SMILES IDX 1 14
REMARK H PARENT
REMARK Flexibility Score: inf
ROOT
ATOM      1  C   UNL     1     173.692 176.841 179.720  1.00  0.00     0.000 C 
ENDROOT
BRANCH   1   2
ATOM      2  C   UNL     1     173.440 175.578 180.560  1.00  0.00     0.000 C 
BRANCH   2   3
ATOM      3  C   UNL     1     173.077 175.895 182.023  1.00  0.00     0.000 C 
BRANCH   3   4
ATOM      4  C   UNL     1     172.584 177.333 182.281  1.00  0.00     0.006 C 
BRANCH   4   5
ATOM      5  C   UNL     1     171.191 177.426 182.924  1.00  0.00     0.053 C 
BRANCH   5   6
ATOM      6  C   UNL     1     170.096 177.375 181.903  1.00  0.00     0.041 C 
ATOM      7  O   UNL     1     170.309 177.772 180.727  1.00  0.00    -0.550 OA
ATOM      8  O   UNL     1     168.853 176.858 182.241  1.00  0.00    -0.550 OA
ENDBRANCH   5   6
ENDBRANCH   4   5
ENDBRANCH   3   4
ENDBRANCH   2   3
ENDBRANCH   1   2
BRANCH   1   9
ATOM      9  C   UNL     1     175.087 176.851 179.073  1.00  0.00     0.000 C 
BRANCH   9  10
ATOM     10  C   UNL     1     176.072 177.781 179.799  1.00  0.00    -0.000 C 
BRANCH  10  11
ATOM     11  C   UNL     1     177.033 176.978 180.684  1.00  0.00    -0.000 C 
BRANCH  11  12
ATOM     12  C   UNL     1     177.092 177.561 182.104  1.00  0.00    -0.000 C 
BRANCH  12  13
ATOM     13  C   UNL     1     176.421 176.651 183.144  1.00  0.00    -0.003 C 
ATOM     14  C   UNL     1     176.601 175.165 182.833  1.00  0.00     0.004 C 
ENDBRANCH  12  13
ENDBRANCH  11  12
ENDBRANCH  10  11
ENDBRANCH   9  10
ENDBRANCH   1   9
TORSDOF 10
ENDMDL
