MODEL 1
REMARK VINA RESULT:    -3.886      0.000      0.000
REMARK INTER + INTRA:          -7.344
REMARK INTER:                  -6.157
REMARK INTRA:                  -1.187
REMARK UNBOUND:                -1.187
REMARK SMILES CCCCCCCCCCCC(=O)[O-]
REMARK SMILES IDX 7 1 8 2 9 3 10 4 11 5 12 6 13 7 14 8 6 9 5 10 4 11 3 12 2 13
REMARK SMILES IDX 1 14
REMARK H PARENT
REMARK Flexibility Score: inf
ROOT
ATOM      1  C   UNL     1      26.218  33.808  34.308  1.00  0.00     0.000 C 
ENDROOT
BRANCH   1   2
ATOM      2  C   UNL     1      26.595  35.282  34.094  1.00  0.00     0.000 C 
BRANCH   2   3
ATOM      3  C   UNL     1      27.423  35.455  32.812  1.00  0.00     0.000 C 
BRANCH   3   4
ATOM      4  C   UNL     1      27.888  34.116  32.220  1.00  0.00     0.006 C 
BRANCH   4   5
ATOM      5  C   UNL     1      27.543  33.977  30.732  1.00  0.00     0.053 C 
BRANCH   5   6
ATOM      6  C   UNL     1      26.059  33.944  30.541  1.00  0.00     0.041 C 
ATOM      7  O   UNL     1      25.515  34.682  29.677  1.00  0.00    -0.550 OA
ATOM      8  O   UNL     1      25.282  33.062  31.281  1.00  0.00    -0.550 OA
ENDBRANCH   5   6
ENDBRANCH   4   5
ENDBRANCH   3   4
ENDBRANCH   2   3
ENDBRANCH   1   2
BRANCH   1   9
ATOM      9  C   UNL     1      25.314  33.596  35.534  1.00  0.00     0.000 C 
BRANCH   9  10
ATOM     10  C   UNL     1      25.921  32.616  36.554  1.00  0.00    -0.000 C 
BRANCH  10  11
ATOM     11  C   UNL     1      27.011  31.724  35.937  1.00  0.00    -0.000 C 
BRANCH  11  12
ATOM     12  C   UNL     1      28.332  31.774  36.725  1.00  0.00    -0.000 C 
BRANCH  12  13
ATOM     13  C   UNL     1      28.961  33.176  36.730  1.00  0.00    -0.003 C 
ATOM     14  C   UNL     1      29.740  33.481  35.452  1.00  0.00     0.004 C 
ENDBRANCH  12  13
ENDBRANCH  11  12
ENDBRANCH  10  11
ENDBRANCH   9  10
ENDBRANCH   1   9
TORSDOF 10
ENDMDL
MODEL 2
REMARK VINA RESULT:    -3.882      0.881      2.586
REMARK INTER + INTRA:          -7.339
REMARK INTER:                  -6.102
REMARK INTRA:                  -1.236
REMARK UNBOUND:                -1.187
REMARK SMILES CCCCCCCCCCCC(=O)[O-]
REMARK SMILES IDX 7 1 8 2 9 3 10 4 11 5 12 6 13 7 14 8 6 9 5 10 4 11 3 12 2 13
REMARK SMILES IDX 1 14
REMARK H PARENT
REMARK Flexibility Score: inf
ROOT
ATOM      1  C   UNL     1      29.312  33.315  35.152  1.00  0.00     0.000 C 
ENDROOT
BRANCH   1   2
ATOM      2  C   UNL     1      28.381  33.297  33.930  1.00  0.00     0.000 C 
BRANCH   2   3
ATOM      3  C   UNL     1      27.594  34.612  33.822  1.00  0.00     0.000 C 
BRANCH   3   4
ATOM      4  C   UNL     1      27.664  35.233  32.418  1.00  0.00     0.006 C 
BRANCH   4   5
ATOM      5  C   UNL     1      27.603  34.181  31.304  1.00  0.00     0.053 C 
BRANCH   5   6
ATOM      6  C   UNL     1      26.188  33.960  30.871  1.00  0.00     0.041 C 
ATOM      7  O   UNL     1      25.754  34.502  29.820  1.00  0.00    -0.550 OA
ATOM      8  O   UNL     1      25.362  33.114  31.600  1.00  0.00    -0.550 OA
ENDBRANCH   5   6
ENDBRANCH   4   5
ENDBRANCH   3   4
ENDBRANCH   2   3
ENDBRANCH   1   2
BRANCH   1   9
ATOM      9  C   UNL     1      28.548  33.232  36.484  1.00  0.00     0.000 C 
BRANCH   9  10
ATOM     10  C   UNL     1      27.809  31.893  36.659  1.00  0.00    -0.000 C 
BRANCH  10  11
ATOM     11  C   UNL     1      26.294  32.075  36.842  1.00  0.00    -0.000 C 
BRANCH  11  12
ATOM     12  C   UNL     1      25.903  33.537  37.123  1.00  0.00    -0.000 C 
BRANCH  12  13
ATOM     13  C   UNL     1      24.838  34.060  36.147  1.00  0.00    -0.003 C 
ATOM     14  C   UNL     1      24.501  33.056  35.045  1.00  0.00     0.004 C 
ENDBRANCH  12  13
ENDBRANCH  11  12
ENDBRANCH  10  11
ENDBRANCH   9  10
ENDBRANCH   1   9
TORSDOF 10
ENDMDL
MODEL 3
REMARK VINA RESULT:    -3.882      1.003      1.696
REMARK INTER + INTRA:          -7.338
REMARK INTER:                  -6.053
REMARK INTRA:                  -1.285
REMARK UNBOUND:                -1.187
REMARK SMILES CCCCCCCCCCCC(=O)[O-]
REMARK SMILES IDX 7 1 8 2 9 3 10 4 11 5 12 6 13 7 14 8 6 9 5 10 4 11 3 12 2 13
REMARK SMILES IDX 1 14
REMARK H PARENT
REMARK Flexibility Score: inf
ROOT
ATOM      1  C   UNL     1      25.040  33.252  35.814  1.00  0.00     0.000 C 
ENDROOT
BRANCH   1   2
ATOM      2  C   UNL     1      25.826  33.425  34.505  1.00  0.00     0.000 C 
BRANCH   2   3
ATOM      3  C   UNL     1      26.484  34.812  34.441  1.00  0.00     0.000 C 
BRANCH   3   4
ATOM      4  C   UNL     1      27.365  34.994  33.194  1.00  0.00     0.006 C 
BRANCH   4   5
ATOM      5  C   UNL     1      26.579  35.522  31.989  1.00  0.00     0.053 C 
BRANCH   5   6
ATOM      6  C   UNL     1      26.655  34.554  30.850  1.00  0.00     0.041 C 
ATOM      7  O   UNL     1      25.688  34.439  30.051  1.00  0.00    -0.550 OA
ATOM      8  O   UNL     1      27.811  33.814  30.642  1.00  0.00    -0.550 OA
ENDBRANCH   5   6
ENDBRANCH   4   5
ENDBRANCH   3   4
ENDBRANCH   2   3
ENDBRANCH   1   2
BRANCH   1   9
ATOM      9  C   UNL     1      25.927  32.796  36.984  1.00  0.00     0.000 C 
BRANCH   9  10
ATOM     10  C   UNL     1      26.689  31.495  36.676  1.00  0.00    -0.000 C 
BRANCH  10  11
ATOM     11  C   UNL     1      28.196  31.614  36.956  1.00  0.00    -0.000 C 
BRANCH  11  12
ATOM     12  C   UNL     1      28.690  33.072  36.926  1.00  0.00    -0.000 C 
BRANCH  12  13
ATOM     13  C   UNL     1      29.647  33.345  35.755  1.00  0.00    -0.003 C 
ATOM     14  C   UNL     1      29.559  32.285  34.658  1.00  0.00     0.004 C 
ENDBRANCH  12  13
ENDBRANCH  11  12
ENDBRANCH  10  11
ENDBRANCH   9  10
ENDBRANCH   1   9
TORSDOF 10
ENDMDL
MODEL 4
REMARK VINA RESULT:    -3.845      1.047      1.767
REMARK INTER + INTRA:          -7.279
REMARK INTER:                  -5.925
REMARK INTRA:                  -1.354
REMARK UNBOUND:                -1.187
REMARK SMILES CCCCCCCCCCCC(=O)[O-]
REMARK SMILES IDX 7 1 8 2 9 3 10 4 11 5 12 6 13 7 14 8 6 9 5 10 4 11 3 12 2 13
REMARK SMILES IDX 1 14
REMARK H PARENT
REMARK Flexibility Score: inf
ROOT
ATOM      1  C   UNL     1      25.111  33.103  35.467  1.00  0.00     0.000 C 
ENDROOT
BRANCH   1   2
ATOM      2  C   UNL     1      25.886  33.510  34.204  1.00  0.00     0.000 C 
BRANCH   2   3
ATOM      3  C   UNL     1      26.574  34.870  34.397  1.00  0.00     0.000 C 
BRANCH   3   4
ATOM      4  C   UNL     1      26.746  35.642  33.080  1.00  0.00     0.006 C 
BRANCH   4   5
ATOM      5  C   UNL     1      27.880  35.083  32.211  1.00  0.00     0.053 C 
BRANCH   5   6
ATOM      6  C   UNL     1      27.324  34.413  30.994  1.00  0.00     0.041 C 
ATOM      7  O   UNL     1      28.015  33.569  30.364  1.00  0.00    -0.550 OA
ATOM      8  O   UNL     1      26.025  34.683  30.584  1.00  0.00    -0.550 OA
ENDBRANCH   5   6
ENDBRANCH   4   5
ENDBRANCH   3   4
ENDBRANCH   2   3
ENDBRANCH   1   2
BRANCH   1   9
ATOM      9  C   UNL     1      25.996  33.072  36.724  1.00  0.00     0.000 C 
BRANCH   9  10
ATOM     10  C   UNL     1      26.613  31.685  36.977  1.00  0.00    -0.000 C 
BRANCH  10  11
ATOM     11  C   UNL     1      28.150  31.708  36.939  1.00  0.00    -0.000 C 
BRANCH  11  12
ATOM     12  C   UNL     1      28.719  33.136  36.868  1.00  0.00    -0.000 C 
BRANCH  12  13
ATOM     13  C   UNL     1      29.671  33.332  35.678  1.00  0.00    -0.003 C 
ATOM     14  C   UNL     1      29.407  32.348  34.540  1.00  0.00     0.004 C 
ENDBRANCH  12  13
ENDBRANCH  11  12
ENDBRANCH  10  11
ENDBRANCH   9  10
ENDBRANCH   1   9
TORSDOF 10
ENDMDL
MODEL 5
REMARK VINA RESULT:    -3.816      2.385      5.311
REMARK INTER + INTRA:          -7.234
REMARK INTER:                  -6.188
REMARK INTRA:                  -1.046
REMARK UNBOUND:                -1.187
REMARK SMILES CCCCCCCCCCCC(=O)[O-]
REMARK SMILES IDX 7 1 8 2 9 3 10 4 11 5 12 6 13 7 14 8 6 9 5 10 4 11 3 12 2 13
REMARK SMILES IDX 1 14
REMARK H PARENT
REMARK Flexibility Score: inf
ROOT
ATOM      1  C   UNL     1      25.144  33.533  35.458  1.00  0.00     0.000 C 
ENDROOT
BRANCH   1   2
ATOM      2  C   UNL     1      25.954  33.166  36.712  1.00  0.00     0.000 C 
BRANCH   2   3
ATOM      3  C   UNL     1      26.601  31.781  36.560  1.00  0.00     0.000 C 
BRANCH   3   4
ATOM      4  C   UNL     1      28.098  31.784  36.910  1.00  0.00     0.006 C 
BRANCH   4   5
ATOM      5  C   UNL     1      28.717  33.185  36.840  1.00  0.00     0.053 C 
BRANCH   5   6
ATOM      6  C   UNL     1      29.641  33.290  35.667  1.00  0.00     0.041 C 
ATOM      7  O   UNL     1      30.713  33.944  35.762  1.00  0.00    -0.550 OA
ATOM      8  O   UNL     1      29.343  32.623  34.486  1.00  0.00    -0.550 OA
ENDBRANCH   5   6
ENDBRANCH   4   5
ENDBRANCH   3   4
ENDBRANCH   2   3
ENDBRANCH   1   2
BRANCH   1   9
ATOM      9  C   UNL     1      26.025  33.696  34.208  1.00  0.00     0.000 C 
BRANCH   9  10
ATOM     10  C   UNL     1      26.658  35.096  34.110  1.00  0.00    -0.000 C 
BRANCH  10  11
ATOM     11  C   UNL     1      26.887  35.539  32.656  1.00  0.00    -0.000 C 
BRANCH  11  12
ATOM     12  C   UNL     1      27.864  34.617  31.903  1.00  0.00    -0.000 C 
BRANCH  12  13
ATOM     13  C   UNL     1      27.261  34.055  30.607  1.00  0.00    -0.003 C 
ATOM     14  C   UNL     1      25.775  34.381  30.454  1.00  0.00     0.004 C 
ENDBRANCH  12  13
ENDBRANCH  11  12
ENDBRANCH  10  11
ENDBRANCH   9  10
ENDBRANCH   1   9
TORSDOF 10
ENDMDL
MODEL 6
REMARK VINA RESULT:    -3.809      2.406      5.332
REMARK INTER + INTRA:          -7.223
REMARK INTER:                  -6.346
REMARK INTRA:                  -0.877
REMARK UNBOUND:                -1.187
REMARK SMILES CCCCCCCCCCCC(=O)[O-]
REMARK SMILES IDX 7 1 8 2 9 3 10 4 11 5 12 6 13 7 14 8 6 9 5 10 4 11 3 12 2 13
REMARK SMILES IDX 1 14
REMARK H PARENT
REMARK Flexibility Score: inf
ROOT
ATOM      1  C   UNL     1      25.871  33.645  34.322  1.00  0.00     0.000 C 
ENDROOT
BRANCH   1   2
ATOM      2  C   UNL     1      25.114  33.446  35.644  1.00  0.00     0.000 C 
BRANCH   2   3
ATOM      3  C   UNL     1      25.940  32.602  36.626  1.00  0.00     0.000 C 
BRANCH   3   4
ATOM      4  C   UNL     1      26.995  31.734  35.922  1.00  0.00     0.006 C 
BRANCH   4   5
ATOM      5  C   UNL     1      28.419  32.020  36.414  1.00  0.00     0.053 C 
BRANCH   5   6
ATOM      6  C   UNL     1      29.272  32.511  35.287  1.00  0.00     0.041 C 
ATOM      7  O   UNL     1      29.706  33.693  35.289  1.00  0.00    -0.550 OA
ATOM      8  O   UNL     1      29.630  31.648  34.259  1.00  0.00    -0.550 OA
ENDBRANCH   5   6
ENDBRANCH   4   5
ENDBRANCH   3   4
ENDBRANCH   2   3
ENDBRANCH   1   2
BRANCH   1   9
ATOM      9  C   UNL     1      26.606  34.993  34.254  1.00  0.00     0.000 C 
BRANCH   9  10
ATOM     10  C   UNL     1      26.856  35.459  32.809  1.00  0.00    -0.000 C 
BRANCH  10  11
ATOM     11  C   UNL     1      27.943  34.632  32.102  1.00  0.00    -0.000 C 
BRANCH  11  12
ATOM     12  C   UNL     1      27.471  34.064  30.752  1.00  0.00    -0.000 C 
BRANCH  12  13
ATOM     13  C   UNL     1      25.981  33.686  30.761  1.00  0.00    -0.003 C 
ATOM     14  C   UNL     1      25.165  34.468  29.732  1.00  0.00     0.004 C 
ENDBRANCH  12  13
ENDBRANCH  11  12
ENDBRANCH  10  11
ENDBRANCH   9  10
ENDBRANCH   1   9
TORSDOF 10
ENDMDL
MODEL 7
REMARK VINA RESULT:    -3.538      1.977      5.362
REMARK INTER + INTRA:          -6.794
REMARK INTER:                  -5.941
REMARK INTRA:                  -0.852
REMARK UNBOUND:                -1.187
REMARK SMILES CCCCCCCCCCCC(=O)[O-]
REMARK SMILES IDX 7 1 8 2 9 3 10 4 11 5 12 6 13 7 14 8 6 9 5 10 4 11 3 12 2 13
REMARK SMILES IDX 1 14
REMARK H PARENT
REMARK Flexibility Score: inf
ROOT
ATOM      1  C   UNL     1      29.203  33.777  34.885  1.00  0.00     0.000 C 
ENDROOT
BRANCH   1   2
ATOM      2  C   UNL     1      29.425  32.539  35.768  1.00  0.00     0.000 C 
BRANCH   2   3
ATOM      3  C   UNL     1      28.084  31.945  36.226  1.00  0.00     0.000 C 
BRANCH   3   4
ATOM      4  C   UNL     1      27.287  32.903  37.125  1.00  0.00     0.006 C 
BRANCH   4   5
ATOM      5  C   UNL     1      25.773  32.673  37.036  1.00  0.00     0.053 C 
BRANCH   5   6
ATOM      6  C   UNL     1      25.176  33.532  35.966  1.00  0.00     0.041 C 
ATOM      7  O   UNL     1      25.211  34.788  36.069  1.00  0.00    -0.550 OA
ATOM      8  O   UNL     1      24.627  32.949  34.832  1.00  0.00    -0.550 OA
ENDBRANCH   5   6
ENDBRANCH   4   5
ENDBRANCH   3   4
ENDBRANCH   2   3
ENDBRANCH   1   2
BRANCH   1   9
ATOM      9  C   UNL     1      28.282  33.495  33.686  1.00  0.00     0.000 C 
BRANCH   9  10
ATOM     10  C   UNL     1      27.373  34.690  33.346  1.00  0.00    -0.000 C 
BRANCH  10  11
ATOM     11  C   UNL     1      27.580  35.198  31.910  1.00  0.00    -0.000 C 
BRANCH  11  12
ATOM     12  C   UNL     1      27.538  34.064  30.870  1.00  0.00    -0.000 C 
BRANCH  12  13
ATOM     13  C   UNL     1      26.110  33.562  30.604  1.00  0.00    -0.003 C 
ATOM     14  C   UNL     1      25.229  34.612  29.929  1.00  0.00     0.004 C 
ENDBRANCH  12  13
ENDBRANCH  11  12
ENDBRANCH  10  11
ENDBRANCH   9  10
ENDBRANCH   1   9
TORSDOF 10
ENDMDL
MODEL 8
REMARK VINA RESULT:    -3.524      2.714      5.010
REMARK INTER + INTRA:          -6.771
REMARK INTER:                  -5.720
REMARK INTRA:                  -1.051
REMARK UNBOUND:                -1.187
REMARK SMILES CCCCCCCCCCCC(=O)[O-]
REMARK SMILES IDX 7 1 8 2 9 3 10 4 11 5 12 6 13 7 14 8 6 9 5 10 4 11 3 12 2 13
REMARK SMILES IDX 1 14
REMARK H PARENT
REMARK Flexibility Score: inf
ROOT
ATOM      1  C   UNL     1      25.580  33.046  36.388  1.00  0.00     0.000 C 
ENDROOT
BRANCH   1   2
ATOM      2  C   UNL     1      26.875  32.275  36.090  1.00  0.00     0.000 C 
BRANCH   2   3
ATOM      3  C   UNL     1      28.072  32.915  36.810  1.00  0.00     0.000 C 
BRANCH   3   4
ATOM      4  C   UNL     1      29.234  33.239  35.858  1.00  0.00     0.006 C 
BRANCH   4   5
ATOM      5  C   UNL     1      29.138  32.479  34.530  1.00  0.00     0.053 C 
BRANCH   5   6
ATOM      6  C   UNL     1      30.174  31.401  34.470  1.00  0.00     0.041 C 
ATOM      7  O   UNL     1      30.594  30.987  33.357  1.00  0.00    -0.550 OA
ATOM      8  O   UNL     1      30.713  30.888  35.643  1.00  0.00    -0.550 OA
ENDBRANCH   5   6
ENDBRANCH   4   5
ENDBRANCH   3   4
ENDBRANCH   2   3
ENDBRANCH   1   2
BRANCH   1   9
ATOM      9  C   UNL     1      25.468  34.355  35.589  1.00  0.00     0.000 C 
BRANCH   9  10
ATOM     10  C   UNL     1      25.956  34.203  34.137  1.00  0.00    -0.000 C 
BRANCH  10  11
ATOM     11  C   UNL     1      26.933  35.316  33.725  1.00  0.00    -0.000 C 
BRANCH  11  12
ATOM     12  C   UNL     1      26.683  35.823  32.293  1.00  0.00    -0.000 C 
BRANCH  12  13
ATOM     13  C   UNL     1      26.390  34.682  31.307  1.00  0.00    -0.003 C 
ATOM     14  C   UNL     1      27.658  33.989  30.809  1.00  0.00     0.004 C 
ENDBRANCH  12  13
ENDBRANCH  11  12
ENDBRANCH  10  11
ENDBRANCH   9  10
ENDBRANCH   1   9
TORSDOF 10
ENDMDL
MODEL 9
REMARK VINA RESULT:    -3.395      2.840      5.060
REMARK INTER + INTRA:          -6.566
REMARK INTER:                  -5.435
REMARK INTRA:                  -1.130
REMARK UNBOUND:                -1.187
REMARK SMILES CCCCCCCCCCCC(=O)[O-]
REMARK SMILES IDX 7 1 8 2 9 3 10 4 11 5 12 6 13 7 14 8 6 9 5 10 4 11 3 12 2 13
REMARK SMILES IDX 1 14
REMARK H PARENT
REMARK Flexibility Score: inf
ROOT
ATOM      1  C   UNL     1      26.840  31.982  35.655  1.00  0.00     0.000 C 
ENDROOT
BRANCH   1   2
ATOM      2  C   UNL     1      27.862  32.551  36.652  1.00  0.00     0.000 C 
BRANCH   2   3
ATOM      3  C   UNL     1      29.107  33.075  35.921  1.00  0.00     0.000 C 
BRANCH   3   4
ATOM      4  C   UNL     1      29.315  32.411  34.550  1.00  0.00     0.006 C 
BRANCH   4   5
ATOM      5  C   UNL     1      30.459  31.390  34.556  1.00  0.00     0.053 C 
BRANCH   5   6
ATOM      6  C   UNL     1      29.921  30.003  34.718  1.00  0.00     0.041 C 
ATOM      7  O   UNL     1      29.620  29.569  35.862  1.00  0.00    -0.550 OA
ATOM      8  O   UNL     1      29.704  29.207  33.601  1.00  0.00    -0.550 OA
ENDBRANCH   5   6
ENDBRANCH   4   5
ENDBRANCH   3   4
ENDBRANCH   2   3
ENDBRANCH   1   2
BRANCH   1   9
ATOM      9  C   UNL     1      25.687  32.957  35.364  1.00  0.00     0.000 C 
BRANCH   9  10
ATOM     10  C   UNL     1      25.844  33.671  34.010  1.00  0.00    -0.000 C 
BRANCH  10  11
ATOM     11  C   UNL     1      26.591  35.009  34.133  1.00  0.00    -0.000 C 
BRANCH  11  12
ATOM     12  C   UNL     1      26.899  35.643  32.765  1.00  0.00    -0.000 C 
BRANCH  12  13
ATOM     13  C   UNL     1      27.940  34.843  31.967  1.00  0.00    -0.003 C 
ATOM     14  C   UNL     1      27.343  34.148  30.744  1.00  0.00     0.004 C 
ENDBRANCH  12  13
ENDBRANCH  11  12
ENDBRANCH  10  11
ENDBRANCH   9  10
ENDBRANCH   1   9
TORSDOF 10
ENDMDL
