MODEL 1
REMARK VINA RESULT:    -5.837      0.000      0.000
REMARK INTER + INTRA:          -6.985
REMARK INTER:                  -6.861
REMARK INTRA:                  -0.124
REMARK UNBOUND:                -0.124
REMARK SMILES O=C([O-])C=Cc1ccc(O)c(O)c1
REMARK SMILES IDX 6 1 13 2 7 3 11 4 8 5 9 6 5 7 4 8 2 9 1 10 3 11 12 12 10 14
REMARK H PARENT 12 13 10 15
REMARK Flexibility Score: inf
ROOT
ATOM      1  C   UNL     1     -33.389  -3.580 -18.620  1.00  0.00    -0.022 A 
ATOM      2  C   UNL     1     -33.641  -3.139 -19.934  1.00  0.00     0.058 A 
ATOM      3  C   UNL     1     -32.098  -3.426 -18.089  1.00  0.00     0.012 A 
ATOM      4  C   UNL     1     -32.627  -2.531 -20.689  1.00  0.00     0.157 A 
ATOM      5  C   UNL     1     -31.089  -2.818 -18.840  1.00  0.00     0.051 A 
ATOM      6  C   UNL     1     -31.347  -2.367 -20.137  1.00  0.00     0.157 A 
ENDROOT
BRANCH   1   7
ATOM      7  C   UNL     1     -34.424  -4.240 -17.786  1.00  0.00     0.010 C 
ATOM      8  C   UNL     1     -35.317  -5.117 -18.264  1.00  0.00     0.025 C 
BRANCH   8   9
ATOM      9  C   UNL     1     -36.334  -5.740 -17.402  1.00  0.00     0.064 C 
ATOM     10  O   UNL     1     -37.515  -5.304 -17.422  1.00  0.00    -0.545 OA
ATOM     11  O   UNL     1     -36.014  -6.803 -16.565  1.00  0.00    -0.545 OA
ENDBRANCH   8   9
ENDBRANCH   1   7
BRANCH   4  12
ATOM     12  O   UNL     1     -32.888  -2.094 -21.987  1.00  0.00    -0.504 OA
ATOM     13  H   UNL     1     -33.737  -2.352 -22.475  1.00  0.00     0.293 HD
ENDBRANCH   4  12
BRANCH   6  14
ATOM     14  O   UNL     1     -30.319  -1.763 -20.862  1.00  0.00    -0.504 OA
ATOM     15  H   UNL     1     -30.244  -1.856 -21.867  1.00  0.00     0.293 HD
ENDBRANCH   6  14
TORSDOF 4
ENDMDL
MODEL 2
REMARK VINA RESULT:    -5.670      3.497      5.286
REMARK INTER + INTRA:          -6.789
REMARK INTER:                  -6.661
REMARK INTRA:                  -0.128
REMARK UNBOUND:                -0.124
REMARK SMILES O=C([O-])C=Cc1ccc(O)c(O)c1
REMARK SMILES IDX 6 1 13 2 7 3 11 4 8 5 9 6 5 7 4 8 2 9 1 10 3 11 12 12 10 14
REMARK H PARENT 12 13 10 15
REMARK Flexibility Score: inf
ROOT
ATOM      1  C   UNL     1     -30.232  -3.363 -18.780  1.00  0.00    -0.022 A 
ATOM      2  C   UNL     1     -29.810  -2.796 -19.998  1.00  0.00     0.058 A 
ATOM      3  C   UNL     1     -31.608  -3.455 -18.516  1.00  0.00     0.012 A 
ATOM      4  C   UNL     1     -30.748  -2.356 -20.943  1.00  0.00     0.157 A 
ATOM      5  C   UNL     1     -32.543  -3.019 -19.458  1.00  0.00     0.051 A 
ATOM      6  C   UNL     1     -32.121  -2.472 -20.672  1.00  0.00     0.157 A 
ENDROOT
BRANCH   1   7
ATOM      7  C   UNL     1     -29.279  -3.832 -17.743  1.00  0.00     0.010 C 
ATOM      8  C   UNL     1     -28.867  -5.102 -17.631  1.00  0.00     0.025 C 
BRANCH   8   9
ATOM      9  C   UNL     1     -27.929  -5.526 -16.580  1.00  0.00     0.064 C 
ATOM     10  O   UNL     1     -26.987  -4.763 -16.243  1.00  0.00    -0.545 OA
ATOM     11  O   UNL     1     -28.067  -6.759 -15.949  1.00  0.00    -0.545 OA
ENDBRANCH   8   9
ENDBRANCH   1   7
BRANCH   4  12
ATOM     12  O   UNL     1     -30.320  -1.800 -22.148  1.00  0.00    -0.504 OA
ATOM     13  H   UNL     1     -30.523  -2.239 -23.038  1.00  0.00     0.293 HD
ENDBRANCH   4  12
BRANCH   6  14
ATOM     14  O   UNL     1     -33.077  -2.046 -21.594  1.00  0.00    -0.504 OA
ATOM     15  H   UNL     1     -32.824  -1.570 -22.451  1.00  0.00     0.293 HD
ENDBRANCH   6  14
TORSDOF 4
ENDMDL
MODEL 3
REMARK VINA RESULT:    -5.403      3.189      4.384
REMARK INTER + INTRA:          -6.475
REMARK INTER:                  -6.352
REMARK INTRA:                  -0.123
REMARK UNBOUND:                -0.124
REMARK SMILES O=C([O-])C=Cc1ccc(O)c(O)c1
REMARK SMILES IDX 6 1 13 2 7 3 11 4 8 5 9 6 5 7 4 8 2 9 1 10 3 11 12 12 10 14
REMARK H PARENT 12 13 10 15
REMARK Flexibility Score: inf
ROOT
ATOM      1  C   UNL     1     -35.983  -5.415 -16.740  1.00  0.00    -0.022 A 
ATOM      2  C   UNL     1     -36.515  -5.798 -17.987  1.00  0.00     0.058 A 
ATOM      3  C   UNL     1     -35.249  -4.221 -16.655  1.00  0.00     0.012 A 
ATOM      4  C   UNL     1     -36.337  -4.988 -19.118  1.00  0.00     0.157 A 
ATOM      5  C   UNL     1     -35.073  -3.412 -17.780  1.00  0.00     0.051 A 
ATOM      6  C   UNL     1     -35.616  -3.788 -19.012  1.00  0.00     0.157 A 
ENDROOT
BRANCH   1   7
ATOM      7  C   UNL     1     -36.134  -6.244 -15.518  1.00  0.00     0.010 C 
ATOM      8  C   UNL     1     -36.342  -7.567 -15.538  1.00  0.00     0.025 C 
BRANCH   8   9
ATOM      9  C   UNL     1     -36.498  -8.349 -14.301  1.00  0.00     0.064 C 
ATOM     10  O   UNL     1     -35.582  -8.335 -13.438  1.00  0.00    -0.545 OA
ATOM     11  O   UNL     1     -37.643  -9.103 -14.068  1.00  0.00    -0.545 OA
ENDBRANCH   8   9
ENDBRANCH   1   7
BRANCH   4  12
ATOM     12  O   UNL     1     -36.871  -5.373 -20.347  1.00  0.00    -0.504 OA
ATOM     13  H   UNL     1     -36.518  -5.001 -21.220  1.00  0.00     0.293 HD
ENDBRANCH   4  12
BRANCH   6  14
ATOM     14  O   UNL     1     -35.425  -2.959 -20.118  1.00  0.00    -0.504 OA
ATOM     15  H   UNL     1     -35.820  -2.028 -20.168  1.00  0.00     0.293 HD
ENDBRANCH   6  14
TORSDOF 4
ENDMDL
MODEL 4
REMARK VINA RESULT:    -5.350      2.584      3.530
REMARK INTER + INTRA:          -6.413
REMARK INTER:                  -6.289
REMARK INTRA:                  -0.124
REMARK UNBOUND:                -0.124
REMARK SMILES O=C([O-])C=Cc1ccc(O)c(O)c1
REMARK SMILES IDX 6 1 13 2 7 3 11 4 8 5 9 6 5 7 4 8 2 9 1 10 3 11 12 12 10 14
REMARK H PARENT 12 13 10 15
REMARK Flexibility Score: inf
ROOT
ATOM      1  C   UNL     1     -35.755  -5.236 -17.379  1.00  0.00    -0.022 A 
ATOM      2  C   UNL     1     -36.098  -5.495 -18.720  1.00  0.00     0.058 A 
ATOM      3  C   UNL     1     -34.852  -4.197 -17.098  1.00  0.00     0.012 A 
ATOM      4  C   UNL     1     -35.569  -4.711 -19.756  1.00  0.00     0.157 A 
ATOM      5  C   UNL     1     -34.327  -3.414 -18.129  1.00  0.00     0.051 A 
ATOM      6  C   UNL     1     -34.682  -3.664 -19.458  1.00  0.00     0.157 A 
ENDROOT
BRANCH   1   7
ATOM      7  C   UNL     1     -36.278  -6.045 -16.249  1.00  0.00     0.010 C 
ATOM      8  C   UNL     1     -36.125  -7.372 -16.151  1.00  0.00     0.025 C 
BRANCH   8   9
ATOM      9  C   UNL     1     -36.671  -8.136 -15.018  1.00  0.00     0.064 C 
ATOM     10  O   UNL     1     -37.860  -8.546 -15.061  1.00  0.00    -0.545 OA
ATOM     11  O   UNL     1     -35.893  -8.415 -13.899  1.00  0.00    -0.545 OA
ENDBRANCH   8   9
ENDBRANCH   1   7
BRANCH   4  12
ATOM     12  O   UNL     1     -35.918  -4.972 -21.080  1.00  0.00    -0.504 OA
ATOM     13  H   UNL     1     -36.630  -4.433 -21.559  1.00  0.00     0.293 HD
ENDBRANCH   4  12
BRANCH   6  14
ATOM     14  O   UNL     1     -34.143  -2.865 -20.466  1.00  0.00    -0.504 OA
ATOM     15  H   UNL     1     -34.650  -2.656 -21.316  1.00  0.00     0.293 HD
ENDBRANCH   6  14
TORSDOF 4
ENDMDL
MODEL 5
REMARK VINA RESULT:    -5.152      4.280      6.946
REMARK INTER + INTRA:          -6.180
REMARK INTER:                  -6.052
REMARK INTRA:                  -0.128
REMARK UNBOUND:                -0.124
REMARK SMILES O=C([O-])C=Cc1ccc(O)c(O)c1
REMARK SMILES IDX 6 1 13 2 7 3 11 4 8 5 9 6 5 7 4 8 2 9 1 10 3 11 12 12 10 14
REMARK H PARENT 12 13 10 15
REMARK Flexibility Score: inf
ROOT
ATOM      1  C   UNL     1     -36.490  -6.424 -16.120  1.00  0.00    -0.022 A 
ATOM      2  C   UNL     1     -36.067  -5.767 -14.949  1.00  0.00     0.058 A 
ATOM      3  C   UNL     1     -36.461  -7.827 -16.159  1.00  0.00     0.012 A 
ATOM      4  C   UNL     1     -35.649  -6.502 -13.829  1.00  0.00     0.157 A 
ATOM      5  C   UNL     1     -36.047  -8.560 -15.044  1.00  0.00     0.051 A 
ATOM      6  C   UNL     1     -35.643  -7.905 -13.877  1.00  0.00     0.157 A 
ENDROOT
BRANCH   1   7
ATOM      7  C   UNL     1     -36.929  -5.690 -17.334  1.00  0.00     0.010 C 
ATOM      8  C   UNL     1     -36.143  -5.471 -18.396  1.00  0.00     0.025 C 
BRANCH   8   9
ATOM      9  C   UNL     1     -36.616  -4.728 -19.574  1.00  0.00     0.064 C 
ATOM     10  O   UNL     1     -36.618  -5.288 -20.702  1.00  0.00    -0.545 OA
ATOM     11  O   UNL     1     -37.062  -3.416 -19.464  1.00  0.00    -0.545 OA
ENDBRANCH   8   9
ENDBRANCH   1   7
BRANCH   4  12
ATOM     12  O   UNL     1     -35.236  -5.843 -12.673  1.00  0.00    -0.504 OA
ATOM     13  H   UNL     1     -34.731  -6.324 -11.938  1.00  0.00     0.293 HD
ENDBRANCH   4  12
BRANCH   6  14
ATOM     14  O   UNL     1     -35.236  -8.664 -12.780  1.00  0.00    -0.504 OA
ATOM     15  H   UNL     1     -35.847  -9.338 -12.335  1.00  0.00     0.293 HD
ENDBRANCH   6  14
TORSDOF 4
ENDMDL
MODEL 6
REMARK VINA RESULT:    -5.128      3.579      7.762
REMARK INTER + INTRA:          -6.152
REMARK INTER:                  -6.029
REMARK INTRA:                  -0.123
REMARK UNBOUND:                -0.124
REMARK SMILES O=C([O-])C=Cc1ccc(O)c(O)c1
REMARK SMILES IDX 6 1 13 2 7 3 11 4 8 5 9 6 5 7 4 8 2 9 1 10 3 11 12 12 10 14
REMARK H PARENT 12 13 10 15
REMARK Flexibility Score: inf
ROOT
ATOM      1  C   UNL     1     -36.813  -6.903 -16.177  1.00  0.00    -0.022 A 
ATOM      2  C   UNL     1     -38.113  -6.482 -15.832  1.00  0.00     0.058 A 
ATOM      3  C   UNL     1     -36.290  -8.054 -15.566  1.00  0.00     0.012 A 
ATOM      4  C   UNL     1     -38.881  -7.214 -14.915  1.00  0.00     0.157 A 
ATOM      5  C   UNL     1     -37.055  -8.786 -14.655  1.00  0.00     0.051 A 
ATOM      6  C   UNL     1     -38.350  -8.374 -14.327  1.00  0.00     0.157 A 
ENDROOT
BRANCH   1   7
ATOM      7  C   UNL     1     -35.957  -6.156 -17.132  1.00  0.00     0.010 C 
ATOM      8  C   UNL     1     -36.429  -5.260 -18.010  1.00  0.00     0.025 C 
BRANCH   8   9
ATOM      9  C   UNL     1     -35.545  -4.550 -18.947  1.00  0.00     0.064 C 
ATOM     10  O   UNL     1     -35.083  -5.158 -19.948  1.00  0.00    -0.545 OA
ATOM     11  O   UNL     1     -35.211  -3.215 -18.747  1.00  0.00    -0.545 OA
ENDBRANCH   8   9
ENDBRANCH   1   7
BRANCH   4  12
ATOM     12  O   UNL     1     -40.167  -6.792 -14.584  1.00  0.00    -0.504 OA
ATOM     13  H   UNL     1     -40.710  -6.203 -15.205  1.00  0.00     0.293 HD
ENDBRANCH   4  12
BRANCH   6  14
ATOM     14  O   UNL     1     -39.090  -9.125 -13.415  1.00  0.00    -0.504 OA
ATOM     15  H   UNL     1     -40.090  -9.008 -13.308  1.00  0.00     0.293 HD
ENDBRANCH   6  14
TORSDOF 4
ENDMDL
MODEL 7
REMARK VINA RESULT:    -5.122      1.907      2.718
REMARK INTER + INTRA:          -6.145
REMARK INTER:                  -6.019
REMARK INTRA:                  -0.126
REMARK UNBOUND:                -0.124
REMARK SMILES O=C([O-])C=Cc1ccc(O)c(O)c1
REMARK SMILES IDX 6 1 13 2 7 3 11 4 8 5 9 6 5 7 4 8 2 9 1 10 3 11 12 12 10 14
REMARK H PARENT 12 13 10 15
REMARK Flexibility Score: inf
ROOT
ATOM      1  C   UNL     1     -35.232  -4.802 -18.218  1.00  0.00    -0.022 A 
ATOM      2  C   UNL     1     -35.486  -5.354 -19.489  1.00  0.00     0.058 A 
ATOM      3  C   UNL     1     -34.136  -3.939 -18.061  1.00  0.00     0.012 A 
ATOM      4  C   UNL     1     -34.674  -5.026 -20.584  1.00  0.00     0.157 A 
ATOM      5  C   UNL     1     -33.327  -3.610 -19.152  1.00  0.00     0.051 A 
ATOM      6  C   UNL     1     -33.592  -4.148 -20.414  1.00  0.00     0.157 A 
ENDROOT
BRANCH   1   7
ATOM      7  C   UNL     1     -36.055  -5.127 -17.026  1.00  0.00     0.010 C 
ATOM      8  C   UNL     1     -36.163  -6.359 -16.510  1.00  0.00     0.025 C 
BRANCH   8   9
ATOM      9  C   UNL     1     -37.000  -6.638 -15.333  1.00  0.00     0.064 C 
ATOM     10  O   UNL     1     -38.227  -6.359 -15.362  1.00  0.00    -0.545 OA
ATOM     11  O   UNL     1     -36.458  -7.208 -14.186  1.00  0.00    -0.545 OA
ENDBRANCH   8   9
ENDBRANCH   1   7
BRANCH   4  12
ATOM     12  O   UNL     1     -34.935  -5.575 -21.839  1.00  0.00    -0.504 OA
ATOM     13  H   UNL     1     -34.566  -6.478 -22.112  1.00  0.00     0.293 HD
ENDBRANCH   4  12
BRANCH   6  14
ATOM     14  O   UNL     1     -32.768  -3.800 -21.485  1.00  0.00    -0.504 OA
ATOM     15  H   UNL     1     -32.128  -3.018 -21.440  1.00  0.00     0.293 HD
ENDBRANCH   6  14
TORSDOF 4
ENDMDL
MODEL 8
REMARK VINA RESULT:    -5.084      1.984      2.979
REMARK INTER + INTRA:          -6.100
REMARK INTER:                  -5.963
REMARK INTRA:                  -0.137
REMARK UNBOUND:                -0.124
REMARK SMILES O=C([O-])C=Cc1ccc(O)c(O)c1
REMARK SMILES IDX 6 1 13 2 7 3 11 4 8 5 9 6 5 7 4 8 2 9 1 10 3 11 12 12 10 14
REMARK H PARENT 12 13 10 15
REMARK Flexibility Score: inf
ROOT
ATOM      1  C   UNL     1     -34.986  -4.334 -17.873  1.00  0.00    -0.022 A 
ATOM      2  C   UNL     1     -33.759  -3.659 -18.027  1.00  0.00     0.058 A 
ATOM      3  C   UNL     1     -35.547  -4.982 -18.985  1.00  0.00     0.012 A 
ATOM      4  C   UNL     1     -33.096  -3.657 -19.263  1.00  0.00     0.157 A 
ATOM      5  C   UNL     1     -34.886  -4.983 -20.216  1.00  0.00     0.051 A 
ATOM      6  C   UNL     1     -33.661  -4.325 -20.361  1.00  0.00     0.157 A 
ENDROOT
BRANCH   1   7
ATOM      7  C   UNL     1     -35.731  -4.355 -16.589  1.00  0.00     0.010 C 
ATOM      8  C   UNL     1     -36.026  -5.477 -15.919  1.00  0.00     0.025 C 
BRANCH   8   9
ATOM      9  C   UNL     1     -36.778  -5.453 -14.655  1.00  0.00     0.064 C 
ATOM     10  O   UNL     1     -37.364  -4.397 -14.301  1.00  0.00    -0.545 OA
ATOM     11  O   UNL     1     -36.854  -6.579 -13.843  1.00  0.00    -0.545 OA
ENDBRANCH   8   9
ENDBRANCH   1   7
BRANCH   4  12
ATOM     12  O   UNL     1     -31.880  -2.989 -19.405  1.00  0.00    -0.504 OA
ATOM     13  H   UNL     1     -31.133  -3.097 -18.730  1.00  0.00     0.293 HD
ENDBRANCH   4  12
BRANCH   6  14
ATOM     14  O   UNL     1     -33.024  -4.343 -21.602  1.00  0.00    -0.504 OA
ATOM     15  H   UNL     1     -32.104  -4.745 -21.728  1.00  0.00     0.293 HD
ENDBRANCH   6  14
TORSDOF 4
ENDMDL
MODEL 9
REMARK VINA RESULT:    -5.082      2.385      3.621
REMARK INTER + INTRA:          -6.098
REMARK INTER:                  -5.977
REMARK INTRA:                  -0.121
REMARK UNBOUND:                -0.124
REMARK SMILES O=C([O-])C=Cc1ccc(O)c(O)c1
REMARK SMILES IDX 6 1 13 2 7 3 11 4 8 5 9 6 5 7 4 8 2 9 1 10 3 11 12 12 10 14
REMARK H PARENT 12 13 10 15
REMARK Flexibility Score: inf
ROOT
ATOM      1  C   UNL     1     -35.983  -5.085 -17.765  1.00  0.00    -0.022 A 
ATOM      2  C   UNL     1     -34.796  -4.428 -17.384  1.00  0.00     0.058 A 
ATOM      3  C   UNL     1     -36.436  -4.954 -19.088  1.00  0.00     0.012 A 
ATOM      4  C   UNL     1     -34.065  -3.678 -18.318  1.00  0.00     0.157 A 
ATOM      5  C   UNL     1     -35.707  -4.209 -20.019  1.00  0.00     0.051 A 
ATOM      6  C   UNL     1     -34.521  -3.572 -19.641  1.00  0.00     0.157 A 
ENDROOT
BRANCH   1   7
ATOM      7  C   UNL     1     -36.798  -5.879 -16.812  1.00  0.00     0.010 C 
ATOM      8  C   UNL     1     -36.406  -7.051 -16.295  1.00  0.00     0.025 C 
BRANCH   8   9
ATOM      9  C   UNL     1     -37.251  -7.812 -15.362  1.00  0.00     0.064 C 
ATOM     10  O   UNL     1     -37.119  -7.639 -14.122  1.00  0.00    -0.545 OA
ATOM     11  O   UNL     1     -38.197  -8.719 -15.827  1.00  0.00    -0.545 OA
ENDBRANCH   8   9
ENDBRANCH   1   7
BRANCH   4  12
ATOM     12  O   UNL     1     -32.889  -3.035 -17.933  1.00  0.00    -0.504 OA
ATOM     13  H   UNL     1     -32.836  -2.491 -17.080  1.00  0.00     0.293 HD
ENDBRANCH   4  12
BRANCH   6  14
ATOM     14  O   UNL     1     -33.814  -2.837 -20.593  1.00  0.00    -0.504 OA
ATOM     15  H   UNL     1     -33.061  -2.211 -20.338  1.00  0.00     0.293 HD
ENDBRANCH   6  14
TORSDOF 4
ENDMDL
