MODEL 1
REMARK VINA RESULT:    -6.483      0.000      0.000
REMARK INTER + INTRA:          -8.142
REMARK INTER:                  -7.809
REMARK INTRA:                  -0.332
REMARK UNBOUND:                -0.332
REMARK SMILES O=c1c(O)c(-c2ccc(O)c(O)c2)oc2cc(O)cc(O)c12
REMARK SMILES IDX 5 1 3 2 2 3 1 4 22 5 20 6 19 7 17 8 16 9 15 10 14 11 6 12
REMARK SMILES IDX 7 13 8 14 9 15 13 16 11 17 10 18 12 20 4 22 21 24 18 26
REMARK H PARENT 10 19 12 21 4 23 21 25 18 27
REMARK Flexibility Score: inf
ROOT
ATOM      1  C   UNL     1     -16.629  14.555  -7.012  1.00  0.00     0.180 A 
ATOM      2  C   UNL     1     -17.863  13.909  -6.821  1.00  0.00     0.208 A 
ATOM      3  C   UNL     1     -18.323  13.018  -7.804  1.00  0.00     0.238 A 
ATOM      4  O   UNL     1     -19.402  12.402  -7.603  1.00  0.00    -0.285 OA
ATOM      5  C   UNL     1     -17.553  12.797  -8.972  1.00  0.00     0.111 A 
ATOM      6  C   UNL     1     -17.942  11.947 -10.050  1.00  0.00     0.134 A 
ATOM      7  C   UNL     1     -17.041  11.701 -11.094  1.00  0.00     0.093 A 
ATOM      8  C   UNL     1     -15.793  12.326 -11.131  1.00  0.00     0.123 A 
ATOM      9  C   UNL     1     -15.428  13.203 -10.113  1.00  0.00     0.094 A 
ATOM     10  C   UNL     1     -16.289  13.441  -9.039  1.00  0.00     0.146 A 
ATOM     11  O   UNL     1     -15.898  14.276  -8.085  1.00  0.00    -0.452 OA
ENDROOT
BRANCH   1  12
ATOM     12  C   UNL     1     -16.088  15.526  -6.032  1.00  0.00     0.025 A 
ATOM     13  C   UNL     1     -15.173  15.091  -5.062  1.00  0.00     0.016 A 
ATOM     14  C   UNL     1     -14.635  15.994  -4.141  1.00  0.00     0.051 A 
ATOM     15  C   UNL     1     -14.990  17.345  -4.185  1.00  0.00     0.157 A 
ATOM     16  C   UNL     1     -16.430  16.889  -6.088  1.00  0.00     0.062 A 
ATOM     17  C   UNL     1     -15.890  17.798  -5.167  1.00  0.00     0.158 A 
BRANCH  15  18
ATOM     18  O   UNL     1     -14.440  18.224  -3.252  1.00  0.00    -0.504 OA
ATOM     19  H   UNL     1     -14.205  19.180  -3.487  1.00  0.00     0.293 HD
ENDBRANCH  15  18
BRANCH  17  20
ATOM     20  O   UNL     1     -16.238  19.146  -5.225  1.00  0.00    -0.504 OA
ATOM     21  H   UNL     1     -15.536  19.876  -5.218  1.00  0.00     0.293 HD
ENDBRANCH  17  20
ENDBRANCH   1  12
BRANCH   2  22
ATOM     22  O   UNL     1     -18.597  14.125  -5.652  1.00  0.00    -0.502 OA
ATOM     23  H   UNL     1     -18.784  15.052  -5.291  1.00  0.00     0.293 HD
ENDBRANCH   2  22
BRANCH   6  24
ATOM     24  O   UNL     1     -19.200  11.347 -10.156  1.00  0.00    -0.507 OA
ATOM     25  H   UNL     1     -19.371  10.437 -10.558  1.00  0.00     0.293 HD
ENDBRANCH   6  24
BRANCH   8  26
ATOM     26  O   UNL     1     -14.909  12.087 -12.183  1.00  0.00    -0.508 OA
ATOM     27  H   UNL     1     -14.504  11.172 -12.335  1.00  0.00     0.293 HD
ENDBRANCH   8  26
TORSDOF 6
ENDMDL
MODEL 2
REMARK VINA RESULT:    -6.461      2.249      6.509
REMARK INTER + INTRA:          -8.115
REMARK INTER:                  -7.820
REMARK INTRA:                  -0.295
REMARK UNBOUND:                -0.332
REMARK SMILES O=c1c(O)c(-c2ccc(O)c(O)c2)oc2cc(O)cc(O)c12
REMARK SMILES IDX 5 1 3 2 2 3 1 4 22 5 20 6 19 7 17 8 16 9 15 10 14 11 6 12
REMARK SMILES IDX 7 13 8 14 9 15 13 16 11 17 10 18 12 20 4 22 21 24 18 26
REMARK H PARENT 10 19 12 21 4 23 21 25 18 27
REMARK Flexibility Score: inf
ROOT
ATOM      1  C   UNL     1     -17.643  13.928  -8.116  1.00  0.00     0.180 A 
ATOM      2  C   UNL     1     -17.922  14.599  -6.913  1.00  0.00     0.208 A 
ATOM      3  C   UNL     1     -16.999  15.541  -6.430  1.00  0.00     0.238 A 
ATOM      4  O   UNL     1     -17.279  16.178  -5.381  1.00  0.00    -0.285 OA
ATOM      5  C   UNL     1     -15.802  15.787  -7.146  1.00  0.00     0.111 A 
ATOM      6  C   UNL     1     -14.779  16.689  -6.728  1.00  0.00     0.134 A 
ATOM      7  C   UNL     1     -13.700  16.952  -7.581  1.00  0.00     0.093 A 
ATOM      8  C   UNL     1     -13.574  16.295  -8.807  1.00  0.00     0.123 A 
ATOM      9  C   UNL     1     -14.537  15.368  -9.197  1.00  0.00     0.094 A 
ATOM     10  C   UNL     1     -15.644  15.111  -8.385  1.00  0.00     0.146 A 
ATOM     11  O   UNL     1     -16.544  14.229  -8.799  1.00  0.00    -0.452 OA
ENDROOT
BRANCH   1  12
ATOM     12  C   UNL     1     -18.555  12.904  -8.676  1.00  0.00     0.025 A 
ATOM     13  C   UNL     1     -19.354  13.223  -9.785  1.00  0.00     0.016 A 
ATOM     14  C   UNL     1     -20.206  12.267 -10.342  1.00  0.00     0.051 A 
ATOM     15  C   UNL     1     -20.262  10.975  -9.811  1.00  0.00     0.157 A 
ATOM     16  C   UNL     1     -18.598  11.599  -8.155  1.00  0.00     0.062 A 
ATOM     17  C   UNL     1     -19.451  10.636  -8.714  1.00  0.00     0.158 A 
BRANCH  15  18
ATOM     18  O   UNL     1     -21.124  10.041 -10.387  1.00  0.00    -0.504 OA
ATOM     19  H   UNL     1     -21.780  10.292 -11.116  1.00  0.00     0.293 HD
ENDBRANCH  15  18
BRANCH  17  20
ATOM     20  O   UNL     1     -19.492   9.345  -8.189  1.00  0.00    -0.504 OA
ATOM     21  H   UNL     1     -19.003   8.577  -8.632  1.00  0.00     0.293 HD
ENDBRANCH  17  20
ENDBRANCH   1  12
BRANCH   2  22
ATOM     22  O   UNL     1     -19.118  14.358  -6.232  1.00  0.00    -0.502 OA
ATOM     23  H   UNL     1     -19.724  15.104  -5.915  1.00  0.00     0.293 HD
ENDBRANCH   2  22
BRANCH   6  24
ATOM     24  O   UNL     1     -14.761  17.328  -5.485  1.00  0.00    -0.507 OA
ATOM     25  H   UNL     1     -15.577  17.689  -5.012  1.00  0.00     0.293 HD
ENDBRANCH   6  24
BRANCH   8  26
ATOM     26  O   UNL     1     -12.488  16.551  -9.643  1.00  0.00    -0.508 OA
ATOM     27  H   UNL     1     -12.579  16.525 -10.651  1.00  0.00     0.293 HD
ENDBRANCH   8  26
TORSDOF 6
ENDMDL
MODEL 3
REMARK VINA RESULT:    -6.385      1.297      2.880
REMARK INTER + INTRA:          -8.023
REMARK INTER:                  -7.703
REMARK INTRA:                  -0.320
REMARK UNBOUND:                -0.332
REMARK SMILES O=c1c(O)c(-c2ccc(O)c(O)c2)oc2cc(O)cc(O)c12
REMARK SMILES IDX 5 1 3 2 2 3 1 4 22 5 20 6 19 7 17 8 16 9 15 10 14 11 6 12
REMARK SMILES IDX 7 13 8 14 9 15 13 16 11 17 10 18 12 20 4 22 21 24 18 26
REMARK H PARENT 10 19 12 21 4 23 21 25 18 27
REMARK Flexibility Score: inf
ROOT
ATOM      1  C   UNL     1     -16.488  14.729  -7.598  1.00  0.00     0.180 A 
ATOM      2  C   UNL     1     -15.553  14.411  -8.598  1.00  0.00     0.208 A 
ATOM      3  C   UNL     1     -15.884  13.437  -9.555  1.00  0.00     0.238 A 
ATOM      4  O   UNL     1     -15.065  13.197 -10.479  1.00  0.00    -0.285 OA
ATOM      5  C   UNL     1     -17.137  12.781  -9.488  1.00  0.00     0.111 A 
ATOM      6  C   UNL     1     -17.560  11.751 -10.380  1.00  0.00     0.134 A 
ATOM      7  C   UNL     1     -18.871  11.266 -10.302  1.00  0.00     0.093 A 
ATOM      8  C   UNL     1     -19.753  11.727  -9.322  1.00  0.00     0.123 A 
ATOM      9  C   UNL     1     -19.330  12.690  -8.409  1.00  0.00     0.094 A 
ATOM     10  C   UNL     1     -18.040  13.220  -8.484  1.00  0.00     0.146 A 
ATOM     11  O   UNL     1     -17.681  14.144  -7.602  1.00  0.00    -0.452 OA
ENDROOT
BRANCH   1  12
ATOM     12  C   UNL     1     -16.204  15.727  -6.541  1.00  0.00     0.025 A 
ATOM     13  C   UNL     1     -15.627  15.307  -5.333  1.00  0.00     0.016 A 
ATOM     14  C   UNL     1     -15.331  16.234  -4.330  1.00  0.00     0.051 A 
ATOM     15  C   UNL     1     -15.592  17.594  -4.525  1.00  0.00     0.157 A 
ATOM     16  C   UNL     1     -16.447  17.097  -6.743  1.00  0.00     0.062 A 
ATOM     17  C   UNL     1     -16.149  18.030  -5.739  1.00  0.00     0.158 A 
BRANCH  15  18
ATOM     18  O   UNL     1     -15.288  18.496  -3.505  1.00  0.00    -0.504 OA
ATOM     19  H   UNL     1     -15.964  19.167  -3.161  1.00  0.00     0.293 HD
ENDBRANCH  15  18
BRANCH  17  20
ATOM     20  O   UNL     1     -16.398  19.386  -5.945  1.00  0.00    -0.504 OA
ATOM     21  H   UNL     1     -17.342  19.745  -6.020  1.00  0.00     0.293 HD
ENDBRANCH  17  20
ENDBRANCH   1  12
BRANCH   2  22
ATOM     22  O   UNL     1     -14.331  15.086  -8.658  1.00  0.00    -0.502 OA
ATOM     23  H   UNL     1     -13.444  14.601  -8.723  1.00  0.00     0.293 HD
ENDBRANCH   2  22
BRANCH   6  24
ATOM     24  O   UNL     1     -16.730  11.155 -11.334  1.00  0.00    -0.507 OA
ATOM     25  H   UNL     1     -16.844  10.218 -11.690  1.00  0.00     0.293 HD
ENDBRANCH   6  24
BRANCH   8  26
ATOM     26  O   UNL     1     -21.051  11.227  -9.241  1.00  0.00    -0.508 OA
ATOM     27  H   UNL     1     -21.763  11.492  -9.912  1.00  0.00     0.293 HD
ENDBRANCH   8  26
TORSDOF 6
ENDMDL
MODEL 4
REMARK VINA RESULT:    -6.312      1.987      7.133
REMARK INTER + INTRA:          -7.936
REMARK INTER:                  -7.708
REMARK INTRA:                  -0.229
REMARK UNBOUND:                -0.332
REMARK SMILES O=c1c(O)c(-c2ccc(O)c(O)c2)oc2cc(O)cc(O)c12
REMARK SMILES IDX 5 1 3 2 2 3 1 4 22 5 20 6 19 7 17 8 16 9 15 10 14 11 6 12
REMARK SMILES IDX 7 13 8 14 9 15 13 16 11 17 10 18 12 20 4 22 21 24 18 26
REMARK H PARENT 10 19 12 21 4 23 21 25 18 27
REMARK Flexibility Score: inf
ROOT
ATOM      1  C   UNL     1     -17.116  13.789  -8.336  1.00  0.00     0.180 A 
ATOM      2  C   UNL     1     -16.061  14.177  -9.179  1.00  0.00     0.208 A 
ATOM      3  C   UNL     1     -15.137  15.129  -8.719  1.00  0.00     0.238 A 
ATOM      4  O   UNL     1     -14.163  15.432  -9.457  1.00  0.00    -0.285 OA
ATOM      5  C   UNL     1     -15.289  15.694  -7.429  1.00  0.00     0.111 A 
ATOM      6  C   UNL     1     -14.437  16.696  -6.878  1.00  0.00     0.134 A 
ATOM      7  C   UNL     1     -14.603  17.086  -5.543  1.00  0.00     0.093 A 
ATOM      8  C   UNL     1     -15.634  16.559  -4.762  1.00  0.00     0.123 A 
ATOM      9  C   UNL     1     -16.509  15.624  -5.311  1.00  0.00     0.094 A 
ATOM     10  C   UNL     1     -16.346  15.187  -6.627  1.00  0.00     0.146 A 
ATOM     11  O   UNL     1     -17.194  14.288  -7.107  1.00  0.00    -0.452 OA
ENDROOT
BRANCH   1  12
ATOM     12  C   UNL     1     -18.143  12.809  -8.759  1.00  0.00     0.025 A 
ATOM     13  C   UNL     1     -19.084  13.173  -9.734  1.00  0.00     0.016 A 
ATOM     14  C   UNL     1     -20.049  12.258 -10.162  1.00  0.00     0.051 A 
ATOM     15  C   UNL     1     -20.080  10.963  -9.636  1.00  0.00     0.157 A 
ATOM     16  C   UNL     1     -18.163  11.501  -8.244  1.00  0.00     0.062 A 
ATOM     17  C   UNL     1     -19.129  10.579  -8.674  1.00  0.00     0.158 A 
BRANCH  15  18
ATOM     18  O   UNL     1     -21.056  10.072 -10.081  1.00  0.00    -0.504 OA
ATOM     19  H   UNL     1     -22.018  10.128  -9.770  1.00  0.00     0.293 HD
ENDBRANCH  15  18
BRANCH  17  20
ATOM     20  O   UNL     1     -19.145   9.286  -8.154  1.00  0.00    -0.504 OA
ATOM     21  H   UNL     1     -18.607   8.539  -8.576  1.00  0.00     0.293 HD
ENDBRANCH  17  20
ENDBRANCH   1  12
BRANCH   2  22
ATOM     22  O   UNL     1     -15.916  13.591 -10.439  1.00  0.00    -0.502 OA
ATOM     23  H   UNL     1     -16.298  12.681 -10.664  1.00  0.00     0.293 HD
ENDBRANCH   2  22
BRANCH   6  24
ATOM     24  O   UNL     1     -13.436  17.353  -7.599  1.00  0.00    -0.507 OA
ATOM     25  H   UNL     1     -13.406  17.425  -8.606  1.00  0.00     0.293 HD
ENDBRANCH   6  24
BRANCH   8  26
ATOM     26  O   UNL     1     -15.803  16.965  -3.439  1.00  0.00    -0.508 OA
ATOM     27  H   UNL     1     -15.519  16.377  -2.665  1.00  0.00     0.293 HD
ENDBRANCH   8  26
TORSDOF 6
ENDMDL
MODEL 5
REMARK VINA RESULT:    -6.037      1.997      6.781
REMARK INTER + INTRA:          -7.605
REMARK INTER:                  -7.313
REMARK INTRA:                  -0.292
REMARK UNBOUND:                -0.332
REMARK SMILES O=c1c(O)c(-c2ccc(O)c(O)c2)oc2cc(O)cc(O)c12
REMARK SMILES IDX 5 1 3 2 2 3 1 4 22 5 20 6 19 7 17 8 16 9 15 10 14 11 6 12
REMARK SMILES IDX 7 13 8 14 9 15 13 16 11 17 10 18 12 20 4 22 21 24 18 26
REMARK H PARENT 10 19 12 21 4 23 21 25 18 27
REMARK Flexibility Score: inf
ROOT
ATOM      1  C   UNL     1     -17.423  14.601  -8.110  1.00  0.00     0.180 A 
ATOM      2  C   UNL     1     -18.155  15.631  -7.495  1.00  0.00     0.208 A 
ATOM      3  C   UNL     1     -17.540  16.398  -6.492  1.00  0.00     0.238 A 
ATOM      4  O   UNL     1     -18.182  17.353  -5.983  1.00  0.00    -0.285 OA
ATOM      5  C   UNL     1     -16.208  16.114  -6.105  1.00  0.00     0.111 A 
ATOM      6  C   UNL     1     -15.500  16.799  -5.073  1.00  0.00     0.134 A 
ATOM      7  C   UNL     1     -14.143  16.523  -4.865  1.00  0.00     0.093 A 
ATOM      8  C   UNL     1     -13.487  15.539  -5.607  1.00  0.00     0.123 A 
ATOM      9  C   UNL     1     -14.185  14.822  -6.576  1.00  0.00     0.094 A 
ATOM     10  C   UNL     1     -15.529  15.101  -6.833  1.00  0.00     0.146 A 
ATOM     11  O   UNL     1     -16.154  14.402  -7.772  1.00  0.00    -0.452 OA
ENDROOT
BRANCH   1  12
ATOM     12  C   UNL     1     -18.010  13.734  -9.158  1.00  0.00     0.025 A 
ATOM     13  C   UNL     1     -18.076  14.197 -10.480  1.00  0.00     0.016 A 
ATOM     14  C   UNL     1     -18.608  13.388 -11.488  1.00  0.00     0.051 A 
ATOM     15  C   UNL     1     -19.066  12.101 -11.194  1.00  0.00     0.157 A 
ATOM     16  C   UNL     1     -18.454  12.431  -8.866  1.00  0.00     0.062 A 
ATOM     17  C   UNL     1     -18.985  11.616  -9.876  1.00  0.00     0.158 A 
BRANCH  15  18
ATOM     18  O   UNL     1     -19.594  11.316 -12.219  1.00  0.00    -0.504 OA
ATOM     19  H   UNL     1     -19.110  11.184 -13.099  1.00  0.00     0.293 HD
ENDBRANCH  15  18
BRANCH  17  20
ATOM     20  O   UNL     1     -19.428  10.329  -9.578  1.00  0.00    -0.504 OA
ATOM     21  H   UNL     1     -20.195   9.902 -10.083  1.00  0.00     0.293 HD
ENDBRANCH  17  20
ENDBRANCH   1  12
BRANCH   2  22
ATOM     22  O   UNL     1     -19.461  15.908  -7.906  1.00  0.00    -0.502 OA
ATOM     23  H   UNL     1     -20.242  15.927  -7.262  1.00  0.00     0.293 HD
ENDBRANCH   2  22
BRANCH   6  24
ATOM     24  O   UNL     1     -16.085  17.734  -4.213  1.00  0.00    -0.507 OA
ATOM     25  H   UNL     1     -15.669  18.065  -3.355  1.00  0.00     0.293 HD
ENDBRANCH   6  24
BRANCH   8  26
ATOM     26  O   UNL     1     -12.140  15.259  -5.383  1.00  0.00    -0.508 OA
ATOM     27  H   UNL     1     -11.424  15.963  -5.516  1.00  0.00     0.293 HD
ENDBRANCH   8  26
TORSDOF 6
ENDMDL
MODEL 6
REMARK VINA RESULT:    -5.970      1.820      2.113
REMARK INTER + INTRA:          -7.524
REMARK INTER:                  -7.288
REMARK INTRA:                  -0.237
REMARK UNBOUND:                -0.332
REMARK SMILES O=c1c(O)c(-c2ccc(O)c(O)c2)oc2cc(O)cc(O)c12
REMARK SMILES IDX 5 1 3 2 2 3 1 4 22 5 20 6 19 7 17 8 16 9 15 10 14 11 6 12
REMARK SMILES IDX 7 13 8 14 9 15 13 16 11 17 10 18 12 20 4 22 21 24 18 26
REMARK H PARENT 10 19 12 21 4 23 21 25 18 27
REMARK Flexibility Score: inf
ROOT
ATOM      1  C   UNL     1     -16.844  14.390  -7.117  1.00  0.00     0.180 A 
ATOM      2  C   UNL     1     -17.745  13.652  -6.331  1.00  0.00     0.208 A 
ATOM      3  C   UNL     1     -18.805  12.980  -6.960  1.00  0.00     0.238 A 
ATOM      4  O   UNL     1     -19.577  12.277  -6.257  1.00  0.00    -0.285 OA
ATOM      5  C   UNL     1     -18.962  13.069  -8.365  1.00  0.00     0.111 A 
ATOM      6  C   UNL     1     -20.022  12.463  -9.102  1.00  0.00     0.134 A 
ATOM      7  C   UNL     1     -20.003  12.507 -10.502  1.00  0.00     0.093 A 
ATOM      8  C   UNL     1     -18.998  13.193 -11.187  1.00  0.00     0.123 A 
ATOM      9  C   UNL     1     -17.990  13.838 -10.474  1.00  0.00     0.094 A 
ATOM     10  C   UNL     1     -17.961  13.781  -9.079  1.00  0.00     0.146 A 
ATOM     11  O   UNL     1     -16.978  14.400  -8.439  1.00  0.00    -0.452 OA
ENDROOT
BRANCH   1  12
ATOM     12  C   UNL     1     -15.715  15.144  -6.524  1.00  0.00     0.025 A 
ATOM     13  C   UNL     1     -14.398  14.737  -6.787  1.00  0.00     0.016 A 
ATOM     14  C   UNL     1     -13.319  15.446  -6.254  1.00  0.00     0.051 A 
ATOM     15  C   UNL     1     -13.536  16.580  -5.466  1.00  0.00     0.157 A 
ATOM     16  C   UNL     1     -15.933  16.296  -5.748  1.00  0.00     0.062 A 
ATOM     17  C   UNL     1     -14.850  17.011  -5.214  1.00  0.00     0.158 A 
BRANCH  15  18
ATOM     18  O   UNL     1     -12.439  17.267  -4.946  1.00  0.00    -0.504 OA
ATOM     19  H   UNL     1     -11.697  17.620  -5.537  1.00  0.00     0.293 HD
ENDBRANCH  15  18
BRANCH  17  20
ATOM     20  O   UNL     1     -15.075  18.149  -4.440  1.00  0.00    -0.504 OA
ATOM     21  H   UNL     1     -15.507  18.978  -4.830  1.00  0.00     0.293 HD
ENDBRANCH  17  20
ENDBRANCH   1  12
BRANCH   2  22
ATOM     22  O   UNL     1     -17.560  13.559  -4.949  1.00  0.00    -0.502 OA
ATOM     23  H   UNL     1     -17.138  14.302  -4.405  1.00  0.00     0.293 HD
ENDBRANCH   2  22
BRANCH   6  24
ATOM     24  O   UNL     1     -21.123  11.835  -8.513  1.00  0.00    -0.507 OA
ATOM     25  H   UNL     1     -21.193  10.843  -8.337  1.00  0.00     0.293 HD
ENDBRANCH   6  24
BRANCH   8  26
ATOM     26  O   UNL     1     -18.995  13.245 -12.580  1.00  0.00    -0.508 OA
ATOM     27  H   UNL     1     -18.187  12.960 -13.119  1.00  0.00     0.293 HD
ENDBRANCH   8  26
TORSDOF 6
ENDMDL
MODEL 7
REMARK VINA RESULT:    -5.929      1.955      7.337
REMARK INTER + INTRA:          -7.475
REMARK INTER:                  -7.440
REMARK INTRA:                  -0.035
REMARK UNBOUND:                -0.332
REMARK SMILES O=c1c(O)c(-c2ccc(O)c(O)c2)oc2cc(O)cc(O)c12
REMARK SMILES IDX 5 1 3 2 2 3 1 4 22 5 20 6 19 7 17 8 16 9 15 10 14 11 6 12
REMARK SMILES IDX 7 13 8 14 9 15 13 16 11 17 10 18 12 20 4 22 21 24 18 26
REMARK H PARENT 10 19 12 21 4 23 21 25 18 27
REMARK Flexibility Score: inf
ROOT
ATOM      1  C   UNL     1     -16.785  14.690  -8.310  1.00  0.00     0.180 A 
ATOM      2  C   UNL     1     -15.467  15.170  -8.390  1.00  0.00     0.208 A 
ATOM      3  C   UNL     1     -14.956  15.936  -7.329  1.00  0.00     0.238 A 
ATOM      4  O   UNL     1     -13.758  16.317  -7.382  1.00  0.00    -0.285 OA
ATOM      5  C   UNL     1     -15.775  16.227  -6.211  1.00  0.00     0.111 A 
ATOM      6  C   UNL     1     -15.374  17.027  -5.100  1.00  0.00     0.134 A 
ATOM      7  C   UNL     1     -16.220  17.138  -3.989  1.00  0.00     0.093 A 
ATOM      8  C   UNL     1     -17.479  16.534  -3.978  1.00  0.00     0.123 A 
ATOM      9  C   UNL     1     -17.903  15.800  -5.084  1.00  0.00     0.094 A 
ATOM     10  C   UNL     1     -17.067  15.639  -6.191  1.00  0.00     0.146 A 
ATOM     11  O   UNL     1     -17.506  14.924  -7.219  1.00  0.00    -0.452 OA
ENDROOT
BRANCH   1  12
ATOM     12  C   UNL     1     -17.403  13.897  -9.398  1.00  0.00     0.025 A 
ATOM     13  C   UNL     1     -18.593  14.346  -9.990  1.00  0.00     0.016 A 
ATOM     14  C   UNL     1     -19.181  13.625 -11.032  1.00  0.00     0.051 A 
ATOM     15  C   UNL     1     -18.583  12.454 -11.508  1.00  0.00     0.157 A 
ATOM     16  C   UNL     1     -16.792  12.730  -9.890  1.00  0.00     0.062 A 
ATOM     17  C   UNL     1     -17.379  12.005 -10.938  1.00  0.00     0.158 A 
BRANCH  15  18
ATOM     18  O   UNL     1     -19.195  11.753 -12.547  1.00  0.00    -0.504 OA
ATOM     19  H   UNL     1     -18.661  11.318 -13.290  1.00  0.00     0.293 HD
ENDBRANCH  15  18
BRANCH  17  20
ATOM     20  O   UNL     1     -16.770  10.846 -11.416  1.00  0.00    -0.504 OA
ATOM     21  H   UNL     1     -16.144  10.299 -10.838  1.00  0.00     0.293 HD
ENDBRANCH  17  20
ENDBRANCH   1  12
BRANCH   2  22
ATOM     22  O   UNL     1     -14.669  14.854  -9.492  1.00  0.00    -0.502 OA
ATOM     23  H   UNL     1     -14.854  14.056 -10.088  1.00  0.00     0.293 HD
ENDBRANCH   2  22
BRANCH   6  24
ATOM     24  O   UNL     1     -14.178  17.748  -5.048  1.00  0.00    -0.507 OA
ATOM     25  H   UNL     1     -13.290  17.414  -5.393  1.00  0.00     0.293 HD
ENDBRANCH   6  24
BRANCH   8  26
ATOM     26  O   UNL     1     -18.320  16.663  -2.875  1.00  0.00    -0.508 OA
ATOM     27  H   UNL     1     -18.700  15.853  -2.401  1.00  0.00     0.293 HD
ENDBRANCH   8  26
TORSDOF 6
ENDMDL
MODEL 8
REMARK VINA RESULT:    -5.566      1.622      7.202
REMARK INTER + INTRA:          -7.038
REMARK INTER:                  -6.874
REMARK INTRA:                  -0.164
REMARK UNBOUND:                -0.332
REMARK SMILES O=c1c(O)c(-c2ccc(O)c(O)c2)oc2cc(O)cc(O)c12
REMARK SMILES IDX 5 1 3 2 2 3 1 4 22 5 20 6 19 7 17 8 16 9 15 10 14 11 6 12
REMARK SMILES IDX 7 13 8 14 9 15 13 16 11 17 10 18 12 20 4 22 21 24 18 26
REMARK H PARENT 10 19 12 21 4 23 21 25 18 27
REMARK Flexibility Score: inf
ROOT
ATOM      1  C   UNL     1     -16.229  15.120  -7.059  1.00  0.00     0.180 A 
ATOM      2  C   UNL     1     -15.127  15.055  -6.189  1.00  0.00     0.208 A 
ATOM      3  C   UNL     1     -14.993  16.031  -5.188  1.00  0.00     0.238 A 
ATOM      4  O   UNL     1     -14.035  15.936  -4.377  1.00  0.00    -0.285 OA
ATOM      5  C   UNL     1     -15.950  17.069  -5.082  1.00  0.00     0.111 A 
ATOM      6  C   UNL     1     -15.890  18.133  -4.133  1.00  0.00     0.134 A 
ATOM      7  C   UNL     1     -16.961  19.029  -4.033  1.00  0.00     0.093 A 
ATOM      8  C   UNL     1     -18.058  18.940  -4.893  1.00  0.00     0.123 A 
ATOM      9  C   UNL     1     -18.098  17.941  -5.862  1.00  0.00     0.094 A 
ATOM     10  C   UNL     1     -17.063  17.009  -5.963  1.00  0.00     0.146 A 
ATOM     11  O   UNL     1     -17.145  16.067  -6.893  1.00  0.00    -0.452 OA
ENDROOT
BRANCH   1  12
ATOM     12  C   UNL     1     -16.426  14.142  -8.154  1.00  0.00     0.025 A 
ATOM     13  C   UNL     1     -15.491  14.075  -9.198  1.00  0.00     0.016 A 
ATOM     14  C   UNL     1     -15.647  13.147 -10.230  1.00  0.00     0.051 A 
ATOM     15  C   UNL     1     -16.728  12.261 -10.228  1.00  0.00     0.157 A 
ATOM     16  C   UNL     1     -17.503  13.238  -8.142  1.00  0.00     0.062 A 
ATOM     17  C   UNL     1     -17.661  12.303  -9.176  1.00  0.00     0.158 A 
BRANCH  15  18
ATOM     18  O   UNL     1     -16.860  11.346 -11.272  1.00  0.00    -0.504 OA
ATOM     19  H   UNL     1     -16.348  10.473 -11.290  1.00  0.00     0.293 HD
ENDBRANCH  15  18
BRANCH  17  20
ATOM     20  O   UNL     1     -18.734  11.414  -9.160  1.00  0.00    -0.504 OA
ATOM     21  H   UNL     1     -19.477  11.492  -8.476  1.00  0.00     0.293 HD
ENDBRANCH  17  20
ENDBRANCH   1  12
BRANCH   2  22
ATOM     22  O   UNL     1     -14.206  14.010  -6.296  1.00  0.00    -0.502 OA
ATOM     23  H   UNL     1     -14.129  13.279  -5.600  1.00  0.00     0.293 HD
ENDBRANCH   2  22
BRANCH   6  24
ATOM     24  O   UNL     1     -14.800  18.367  -3.290  1.00  0.00    -0.507 OA
ATOM     25  H   UNL     1     -13.933  17.849  -3.314  1.00  0.00     0.293 HD
ENDBRANCH   6  24
BRANCH   8  26
ATOM     26  O   UNL     1     -19.112  19.847  -4.797  1.00  0.00    -0.508 OA
ATOM     27  H   UNL     1     -19.036  20.690  -4.240  1.00  0.00     0.293 HD
ENDBRANCH   8  26
TORSDOF 6
ENDMDL
MODEL 9
REMARK VINA RESULT:    -5.531      2.060      2.393
REMARK INTER + INTRA:          -6.996
REMARK INTER:                  -6.676
REMARK INTRA:                  -0.320
REMARK UNBOUND:                -0.332
REMARK SMILES O=c1c(O)c(-c2ccc(O)c(O)c2)oc2cc(O)cc(O)c12
REMARK SMILES IDX 5 1 3 2 2 3 1 4 22 5 20 6 19 7 17 8 16 9 15 10 14 11 6 12
REMARK SMILES IDX 7 13 8 14 9 15 13 16 11 17 10 18 12 20 4 22 21 24 18 26
REMARK H PARENT 10 19 12 21 4 23 21 25 18 27
REMARK Flexibility Score: inf
ROOT
ATOM      1  C   UNL     1     -18.058  14.611  -7.313  1.00  0.00     0.180 A 
ATOM      2  C   UNL     1     -18.377  13.393  -6.689  1.00  0.00     0.208 A 
ATOM      3  C   UNL     1     -18.865  12.334  -7.472  1.00  0.00     0.238 A 
ATOM      4  O   UNL     1     -19.096  11.229  -6.917  1.00  0.00    -0.285 OA
ATOM      5  C   UNL     1     -19.045  12.513  -8.865  1.00  0.00     0.111 A 
ATOM      6  C   UNL     1     -19.571  11.523  -9.748  1.00  0.00     0.134 A 
ATOM      7  C   UNL     1     -19.581  11.763 -11.127  1.00  0.00     0.093 A 
ATOM      8  C   UNL     1     -19.146  12.984 -11.649  1.00  0.00     0.123 A 
ATOM      9  C   UNL     1     -18.687  13.979 -10.790  1.00  0.00     0.094 A 
ATOM     10  C   UNL     1     -18.629  13.756  -9.413  1.00  0.00     0.146 A 
ATOM     11  O   UNL     1     -18.175  14.726  -8.631  1.00  0.00    -0.452 OA
ENDROOT
BRANCH   1  12
ATOM     12  C   UNL     1     -17.561  15.780  -6.551  1.00  0.00     0.025 A 
ATOM     13  C   UNL     1     -18.480  16.647  -5.940  1.00  0.00     0.016 A 
ATOM     14  C   UNL     1     -18.033  17.745  -5.199  1.00  0.00     0.051 A 
ATOM     15  C   UNL     1     -16.665  17.984  -5.045  1.00  0.00     0.157 A 
ATOM     16  C   UNL     1     -16.185  16.011  -6.379  1.00  0.00     0.062 A 
ATOM     17  C   UNL     1     -15.734  17.111  -5.634  1.00  0.00     0.158 A 
BRANCH  15  18
ATOM     18  O   UNL     1     -16.248  19.089  -4.303  1.00  0.00    -0.504 OA
ATOM     19  H   UNL     1     -16.882  19.610  -3.710  1.00  0.00     0.293 HD
ENDBRANCH  15  18
BRANCH  17  20
ATOM     20  O   UNL     1     -14.367  17.336  -5.474  1.00  0.00    -0.504 OA
ATOM     21  H   UNL     1     -13.902  18.114  -5.925  1.00  0.00     0.293 HD
ENDBRANCH  17  20
ENDBRANCH   1  12
BRANCH   2  22
ATOM     22  O   UNL     1     -18.171  13.230  -5.316  1.00  0.00    -0.502 OA
ATOM     23  H   UNL     1     -18.612  13.826  -4.626  1.00  0.00     0.293 HD
ENDBRANCH   2  22
BRANCH   6  24
ATOM     24  O   UNL     1     -20.115  10.308  -9.322  1.00  0.00    -0.507 OA
ATOM     25  H   UNL     1     -20.945   9.882  -9.709  1.00  0.00     0.293 HD
ENDBRANCH   6  24
BRANCH   8  26
ATOM     26  O   UNL     1     -19.175  13.220 -13.023  1.00  0.00    -0.508 OA
ATOM     27  H   UNL     1     -18.815  12.542 -13.684  1.00  0.00     0.293 HD
ENDBRANCH   8  26
TORSDOF 6
ENDMDL
