MODEL 1
REMARK VINA RESULT:    -3.247      0.000      0.000
REMARK INTER + INTRA:         -13.062
REMARK INTER:                  -8.181
REMARK INTRA:                  -4.881
REMARK UNBOUND:                -4.881
REMARK SMILES CCCCCCCCCCCCCCCCCCCCCCCCCCCC(=O)[O-]
REMARK SMILES IDX 15 1 16 2 17 3 18 4 19 5 20 6 21 7 22 8 23 9 24 10 25 11
REMARK SMILES IDX 26 12 27 13 28 14 29 15 30 16 14 17 13 18 12 19 11 20 10 21
REMARK SMILES IDX 9 22 8 23 7 24 6 25 5 26 4 27 3 28 2 29 1 30
REMARK H PARENT
REMARK Flexibility Score: inf
ROOT
ATOM      1  C   UNL     1      59.455  27.640  48.624  1.00  0.00     0.000 C 
ENDROOT
BRANCH   1   2
ATOM      2  C   UNL     1      59.454  26.146  49.006  1.00  0.00     0.000 C 
BRANCH   2   3
ATOM      3  C   UNL     1      60.836  25.551  49.347  1.00  0.00     0.000 C 
BRANCH   3   4
ATOM      4  C   UNL     1      61.018  25.110  50.812  1.00  0.00     0.000 C 
BRANCH   4   5
ATOM      5  C   UNL     1      61.910  23.865  50.950  1.00  0.00     0.000 C 
BRANCH   5   6
ATOM      6  C   UNL     1      62.575  23.458  49.625  1.00  0.00     0.000 C 
BRANCH   6   7
ATOM      7  C   UNL     1      64.111  23.572  49.668  1.00  0.00     0.000 C 
BRANCH   7   8
ATOM      8  C   UNL     1      64.629  24.831  48.950  1.00  0.00     0.000 C 
BRANCH   8   9
ATOM      9  C   UNL     1      64.823  26.018  49.910  1.00  0.00     0.000 C 
BRANCH   9  10
ATOM     10  C   UNL     1      64.256  27.335  49.351  1.00  0.00     0.000 C 
BRANCH  10  11
ATOM     11  C   UNL     1      63.690  27.246  47.918  1.00  0.00     0.000 C 
BRANCH  11  12
ATOM     12  C   UNL     1      64.145  28.365  46.963  1.00  0.00     0.006 C 
BRANCH  12  13
ATOM     13  C   UNL     1      65.669  28.538  46.932  1.00  0.00     0.053 C 
BRANCH  13  14
ATOM     14  C   UNL     1      66.050  29.964  47.190  1.00  0.00     0.041 C 
ATOM     15  O   UNL     1      66.715  30.605  46.334  1.00  0.00    -0.550 OA
ATOM     16  O   UNL     1      65.674  30.586  48.378  1.00  0.00    -0.550 OA
ENDBRANCH  13  14
ENDBRANCH  12  13
ENDBRANCH  11  12
ENDBRANCH  10  11
ENDBRANCH   9  10
ENDBRANCH   8   9
ENDBRANCH   7   8
ENDBRANCH   6   7
ENDBRANCH   5   6
ENDBRANCH   4   5
ENDBRANCH   3   4
ENDBRANCH   2   3
ENDBRANCH   1   2
BRANCH   1  17
ATOM     17  C   UNL     1      58.179  28.409  49.008  1.00  0.00     0.000 C 
BRANCH  17  18
ATOM     18  C   UNL     1      57.170  27.540  49.781  1.00  0.00     0.000 C 
BRANCH  18  19
ATOM     19  C   UNL     1      56.089  28.380  50.496  1.00  0.00     0.000 C 
BRANCH  19  20
ATOM     20  C   UNL     1      55.756  29.709  49.791  1.00  0.00     0.000 C 
BRANCH  20  21
ATOM     21  C   UNL     1      55.288  30.845  50.720  1.00  0.00     0.000 C 
BRANCH  21  22
ATOM     22  C   UNL     1      55.742  30.710  52.189  1.00  0.00    -0.000 C 
BRANCH  22  23
ATOM     23  C   UNL     1      57.130  31.301  52.502  1.00  0.00    -0.000 C 
BRANCH  23  24
ATOM     24  C   UNL     1      58.174  30.281  52.994  1.00  0.00    -0.000 C 
BRANCH  24  25
ATOM     25  C   UNL     1      59.347  30.116  52.017  1.00  0.00    -0.000 C 
BRANCH  25  26
ATOM     26  C   UNL     1      60.021  28.747  52.182  1.00  0.00    -0.000 C 
BRANCH  26  27
ATOM     27  C   UNL     1      61.451  28.710  51.605  1.00  0.00    -0.000 C 
BRANCH  27  28
ATOM     28  C   UNL     1      61.978  30.061  51.086  1.00  0.00    -0.000 C 
BRANCH  28  29
ATOM     29  C   UNL     1      62.008  30.141  49.554  1.00  0.00    -0.003 C 
ATOM     30  C   UNL     1      62.393  31.541  49.084  1.00  0.00     0.004 C 
ENDBRANCH  28  29
ENDBRANCH  27  28
ENDBRANCH  26  27
ENDBRANCH  25  26
ENDBRANCH  24  25
ENDBRANCH  23  24
ENDBRANCH  22  23
ENDBRANCH  21  22
ENDBRANCH  20  21
ENDBRANCH  19  20
ENDBRANCH  18  19
ENDBRANCH  17  18
ENDBRANCH   1  17
TORSDOF 26
ENDMDL
MODEL 2
REMARK VINA RESULT:    -3.135      5.991      8.947
REMARK INTER + INTRA:         -12.782
REMARK INTER:                  -7.923
REMARK INTRA:                  -4.858
REMARK UNBOUND:                -4.881
REMARK SMILES CCCCCCCCCCCCCCCCCCCCCCCCCCCC(=O)[O-]
REMARK SMILES IDX 15 1 16 2 17 3 18 4 19 5 20 6 21 7 22 8 23 9 24 10 25 11
REMARK SMILES IDX 26 12 27 13 28 14 29 15 30 16 14 17 13 18 12 19 11 20 10 21
REMARK SMILES IDX 9 22 8 23 7 24 6 25 5 26 4 27 3 28 2 29 1 30
REMARK H PARENT
REMARK Flexibility Score: inf
ROOT
ATOM      1  C   UNL     1      62.645  22.807  50.421  1.00  0.00     0.000 C 
ENDROOT
BRANCH   1   2
ATOM      2  C   UNL     1      62.154  22.392  49.020  1.00  0.00     0.000 C 
BRANCH   2   3
ATOM      3  C   UNL     1      60.780  21.692  48.981  1.00  0.00     0.000 C 
BRANCH   3   4
ATOM      4  C   UNL     1      60.298  21.118  50.328  1.00  0.00     0.000 C 
BRANCH   4   5
ATOM      5  C   UNL     1      60.664  19.634  50.504  1.00  0.00     0.000 C 
BRANCH   5   6
ATOM      6  C   UNL     1      60.759  19.215  51.981  1.00  0.00     0.000 C 
BRANCH   6   7
ATOM      7  C   UNL     1      60.228  17.791  52.232  1.00  0.00     0.000 C 
BRANCH   7   8
ATOM      8  C   UNL     1      60.073  16.981  50.934  1.00  0.00     0.000 C 
BRANCH   8   9
ATOM      9  C   UNL     1      58.777  16.152  50.908  1.00  0.00     0.000 C 
BRANCH   9  10
ATOM     10  C   UNL     1      57.808  16.596  49.797  1.00  0.00     0.000 C 
BRANCH  10  11
ATOM     11  C   UNL     1      57.385  18.078  49.854  1.00  0.00     0.000 C 
BRANCH  11  12
ATOM     12  C   UNL     1      56.376  18.428  50.963  1.00  0.00     0.006 C 
BRANCH  12  13
ATOM     13  C   UNL     1      56.942  19.415  51.993  1.00  0.00     0.053 C 
BRANCH  13  14
ATOM     14  C   UNL     1      56.293  19.221  53.331  1.00  0.00     0.041 C 
ATOM     15  O   UNL     1      55.382  18.363  53.471  1.00  0.00    -0.550 OA
ATOM     16  O   UNL     1      56.694  19.988  54.421  1.00  0.00    -0.550 OA
ENDBRANCH  13  14
ENDBRANCH  12  13
ENDBRANCH  11  12
ENDBRANCH  10  11
ENDBRANCH   9  10
ENDBRANCH   8   9
ENDBRANCH   7   8
ENDBRANCH   6   7
ENDBRANCH   5   6
ENDBRANCH   4   5
ENDBRANCH   3   4
ENDBRANCH   2   3
ENDBRANCH   1   2
BRANCH   1  17
ATOM     17  C   UNL     1      62.500  24.304  50.744  1.00  0.00     0.000 C 
BRANCH  17  18
ATOM     18  C   UNL     1      62.072  25.137  49.523  1.00  0.00     0.000 C 
BRANCH  18  19
ATOM     19  C   UNL     1      62.283  26.652  49.734  1.00  0.00     0.000 C 
BRANCH  19  20
ATOM     20  C   UNL     1      61.638  27.204  51.020  1.00  0.00     0.000 C 
BRANCH  20  21
ATOM     21  C   UNL     1      60.530  28.251  50.799  1.00  0.00     0.000 C 
BRANCH  21  22
ATOM     22  C   UNL     1      60.251  28.601  49.322  1.00  0.00    -0.000 C 
BRANCH  22  23
ATOM     23  C   UNL     1      58.949  28.011  48.745  1.00  0.00    -0.000 C 
BRANCH  23  24
ATOM     24  C   UNL     1      57.805  27.844  49.763  1.00  0.00    -0.000 C 
BRANCH  24  25
ATOM     25  C   UNL     1      57.246  26.415  49.795  1.00  0.00    -0.000 C 
BRANCH  25  26
ATOM     26  C   UNL     1      58.343  25.381  49.503  1.00  0.00    -0.000 C 
BRANCH  26  27
ATOM     27  C   UNL     1      58.518  24.355  50.640  1.00  0.00    -0.000 C 
BRANCH  27  28
ATOM     28  C   UNL     1      58.992  24.946  51.982  1.00  0.00    -0.000 C 
BRANCH  28  29
ATOM     29  C   UNL     1      59.627  23.898  52.904  1.00  0.00    -0.003 C 
ATOM     30  C   UNL     1      58.681  22.722  53.134  1.00  0.00     0.004 C 
ENDBRANCH  28  29
ENDBRANCH  27  28
ENDBRANCH  26  27
ENDBRANCH  25  26
ENDBRANCH  24  25
ENDBRANCH  23  24
ENDBRANCH  22  23
ENDBRANCH  21  22
ENDBRANCH  20  21
ENDBRANCH  19  20
ENDBRANCH  18  19
ENDBRANCH  17  18
ENDBRANCH   1  17
TORSDOF 26
ENDMDL
MODEL 3
REMARK VINA RESULT:    -3.088      5.214      8.109
REMARK INTER + INTRA:         -12.663
REMARK INTER:                  -8.670
REMARK INTRA:                  -3.992
REMARK UNBOUND:                -4.881
REMARK SMILES CCCCCCCCCCCCCCCCCCCCCCCCCCCC(=O)[O-]
REMARK SMILES IDX 15 1 16 2 17 3 18 4 19 5 20 6 21 7 22 8 23 9 24 10 25 11
REMARK SMILES IDX 26 12 27 13 28 14 29 15 30 16 14 17 13 18 12 19 11 20 10 21
REMARK SMILES IDX 9 22 8 23 7 24 6 25 5 26 4 27 3 28 2 29 1 30
REMARK H PARENT
REMARK Flexibility Score: inf
ROOT
ATOM      1  C   UNL     1      61.520  25.699  53.531  1.00  0.00     0.000 C 
ENDROOT
BRANCH   1   2
ATOM      2  C   UNL     1      62.652  25.022  52.733  1.00  0.00     0.000 C 
BRANCH   2   3
ATOM      3  C   UNL     1      62.229  24.397  51.387  1.00  0.00     0.000 C 
BRANCH   3   4
ATOM      4  C   UNL     1      63.104  24.785  50.179  1.00  0.00     0.000 C 
BRANCH   4   5
ATOM      5  C   UNL     1      63.600  23.561  49.390  1.00  0.00     0.000 C 
BRANCH   5   6
ATOM      6  C   UNL     1      62.776  22.295  49.672  1.00  0.00     0.000 C 
BRANCH   6   7
ATOM      7  C   UNL     1      62.109  21.722  48.407  1.00  0.00     0.000 C 
BRANCH   7   8
ATOM      8  C   UNL     1      60.686  21.204  48.674  1.00  0.00     0.000 C 
BRANCH   8   9
ATOM      9  C   UNL     1      60.431  20.921  50.165  1.00  0.00     0.000 C 
BRANCH   9  10
ATOM     10  C   UNL     1      59.847  19.519  50.414  1.00  0.00     0.000 C 
BRANCH  10  11
ATOM     11  C   UNL     1      59.156  18.874  49.194  1.00  0.00     0.000 C 
BRANCH  11  12
ATOM     12  C   UNL     1      58.416  17.555  49.482  1.00  0.00     0.006 C 
BRANCH  12  13
ATOM     13  C   UNL     1      57.801  17.512  50.887  1.00  0.00     0.053 C 
BRANCH  13  14
ATOM     14  C   UNL     1      56.400  18.043  50.873  1.00  0.00     0.041 C 
ATOM     15  O   UNL     1      55.781  18.219  51.955  1.00  0.00    -0.550 OA
ATOM     16  O   UNL     1      55.776  18.341  49.664  1.00  0.00    -0.550 OA
ENDBRANCH  13  14
ENDBRANCH  12  13
ENDBRANCH  11  12
ENDBRANCH  10  11
ENDBRANCH   9  10
ENDBRANCH   8   9
ENDBRANCH   7   8
ENDBRANCH   6   7
ENDBRANCH   5   6
ENDBRANCH   4   5
ENDBRANCH   3   4
ENDBRANCH   2   3
ENDBRANCH   1   2
BRANCH   1  17
ATOM     17  C   UNL     1      60.441  26.384  52.675  1.00  0.00     0.000 C 
BRANCH  17  18
ATOM     18  C   UNL     1      60.711  27.884  52.464  1.00  0.00     0.000 C 
BRANCH  18  19
ATOM     19  C   UNL     1      60.237  28.384  51.082  1.00  0.00     0.000 C 
BRANCH  19  20
ATOM     20  C   UNL     1      61.348  28.431  50.016  1.00  0.00     0.000 C 
BRANCH  20  21
ATOM     21  C   UNL     1      61.176  27.442  48.847  1.00  0.00     0.000 C 
BRANCH  21  22
ATOM     22  C   UNL     1      59.766  26.830  48.716  1.00  0.00    -0.000 C 
BRANCH  22  23
ATOM     23  C   UNL     1      59.682  25.314  48.982  1.00  0.00    -0.000 C 
BRANCH  23  24
ATOM     24  C   UNL     1      58.556  24.885  49.941  1.00  0.00    -0.000 C 
BRANCH  24  25
ATOM     25  C   UNL     1      57.340  25.822  49.881  1.00  0.00    -0.000 C 
BRANCH  25  26
ATOM     26  C   UNL     1      56.880  26.227  51.288  1.00  0.00    -0.000 C 
BRANCH  26  27
ATOM     27  C   UNL     1      56.078  27.544  51.301  1.00  0.00    -0.000 C 
BRANCH  27  28
ATOM     28  C   UNL     1      56.851  28.781  50.805  1.00  0.00    -0.000 C 
BRANCH  28  29
ATOM     29  C   UNL     1      56.108  29.545  49.701  1.00  0.00    -0.003 C 
ATOM     30  C   UNL     1      54.652  29.792  50.088  1.00  0.00     0.004 C 
ENDBRANCH  28  29
ENDBRANCH  27  28
ENDBRANCH  26  27
ENDBRANCH  25  26
ENDBRANCH  24  25
ENDBRANCH  23  24
ENDBRANCH  22  23
ENDBRANCH  21  22
ENDBRANCH  20  21
ENDBRANCH  19  20
ENDBRANCH  18  19
ENDBRANCH  17  18
ENDBRANCH   1  17
TORSDOF 26
ENDMDL
MODEL 4
REMARK VINA RESULT:    -3.064      3.776      8.575
REMARK INTER + INTRA:         -12.603
REMARK INTER:                  -7.800
REMARK INTRA:                  -4.803
REMARK UNBOUND:                -4.881
REMARK SMILES CCCCCCCCCCCCCCCCCCCCCCCCCCCC(=O)[O-]
REMARK SMILES IDX 15 1 16 2 17 3 18 4 19 5 20 6 21 7 22 8 23 9 24 10 25 11
REMARK SMILES IDX 26 12 27 13 28 14 29 15 30 16 14 17 13 18 12 19 11 20 10 21
REMARK SMILES IDX 9 22 8 23 7 24 6 25 5 26 4 27 3 28 2 29 1 30
REMARK H PARENT
REMARK Flexibility Score: inf
ROOT
ATOM      1  C   UNL     1      62.923  24.144  51.123  1.00  0.00     0.000 C 
ENDROOT
BRANCH   1   2
ATOM      2  C   UNL     1      61.420  24.454  51.269  1.00  0.00     0.000 C 
BRANCH   2   3
ATOM      3  C   UNL     1      60.636  24.565  49.944  1.00  0.00     0.000 C 
BRANCH   3   4
ATOM      4  C   UNL     1      59.104  24.462  50.077  1.00  0.00     0.000 C 
BRANCH   4   5
ATOM      5  C   UNL     1      58.578  25.099  51.374  1.00  0.00     0.000 C 
BRANCH   5   6
ATOM      6  C   UNL     1      57.188  25.734  51.205  1.00  0.00     0.000 C 
BRANCH   6   7
ATOM      7  C   UNL     1      56.935  26.247  49.775  1.00  0.00     0.000 C 
BRANCH   7   8
ATOM      8  C   UNL     1      56.686  27.764  49.729  1.00  0.00     0.000 C 
BRANCH   8   9
ATOM      9  C   UNL     1      57.990  28.571  49.600  1.00  0.00     0.000 C 
BRANCH   9  10
ATOM     10  C   UNL     1      59.025  27.890  48.687  1.00  0.00     0.000 C 
BRANCH  10  11
ATOM     11  C   UNL     1      60.495  28.070  49.120  1.00  0.00     0.000 C 
BRANCH  11  12
ATOM     12  C   UNL     1      60.695  28.656  50.530  1.00  0.00     0.006 C 
BRANCH  12  13
ATOM     13  C   UNL     1      61.797  27.939  51.321  1.00  0.00     0.053 C 
BRANCH  13  14
ATOM     14  C   UNL     1      63.155  28.358  50.844  1.00  0.00     0.041 C 
ATOM     15  O   UNL     1      63.387  29.568  50.584  1.00  0.00    -0.550 OA
ATOM     16  O   UNL     1      64.164  27.412  50.685  1.00  0.00    -0.550 OA
ENDBRANCH  13  14
ENDBRANCH  12  13
ENDBRANCH  11  12
ENDBRANCH  10  11
ENDBRANCH   9  10
ENDBRANCH   8   9
ENDBRANCH   7   8
ENDBRANCH   6   7
ENDBRANCH   5   6
ENDBRANCH   4   5
ENDBRANCH   3   4
ENDBRANCH   2   3
ENDBRANCH   1   2
BRANCH   1  17
ATOM     17  C   UNL     1      63.435  24.080  49.673  1.00  0.00     0.000 C 
BRANCH  17  18
ATOM     18  C   UNL     1      64.100  22.734  49.335  1.00  0.00     0.000 C 
BRANCH  18  19
ATOM     19  C   UNL     1      63.116  21.548  49.417  1.00  0.00     0.000 C 
BRANCH  19  20
ATOM     20  C   UNL     1      62.125  21.471  48.240  1.00  0.00     0.000 C 
BRANCH  20  21
ATOM     21  C   UNL     1      60.655  21.229  48.636  1.00  0.00     0.000 C 
BRANCH  21  22
ATOM     22  C   UNL     1      60.455  20.320  49.866  1.00  0.00    -0.000 C 
BRANCH  22  23
ATOM     23  C   UNL     1      59.965  21.039  51.139  1.00  0.00    -0.000 C 
BRANCH  23  24
ATOM     24  C   UNL     1      60.240  20.287  52.454  1.00  0.00    -0.000 C 
BRANCH  24  25
ATOM     25  C   UNL     1      60.420  18.776  52.246  1.00  0.00    -0.000 C 
BRANCH  25  26
ATOM     26  C   UNL     1      59.400  17.975  53.066  1.00  0.00    -0.000 C 
BRANCH  26  27
ATOM     27  C   UNL     1      58.352  17.262  52.189  1.00  0.00    -0.000 C 
BRANCH  27  28
ATOM     28  C   UNL     1      57.204  18.159  51.690  1.00  0.00    -0.000 C 
BRANCH  28  29
ATOM     29  C   UNL     1      57.213  18.347  50.167  1.00  0.00    -0.003 C 
ATOM     30  C   UNL     1      57.779  17.115  49.465  1.00  0.00     0.004 C 
ENDBRANCH  28  29
ENDBRANCH  27  28
ENDBRANCH  26  27
ENDBRANCH  25  26
ENDBRANCH  24  25
ENDBRANCH  23  24
ENDBRANCH  22  23
ENDBRANCH  21  22
ENDBRANCH  20  21
ENDBRANCH  19  20
ENDBRANCH  18  19
ENDBRANCH  17  18
ENDBRANCH   1  17
TORSDOF 26
ENDMDL
MODEL 5
REMARK VINA RESULT:    -3.014      2.594      5.054
REMARK INTER + INTRA:         -12.475
REMARK INTER:                  -7.440
REMARK INTRA:                  -5.035
REMARK UNBOUND:                -4.881
REMARK SMILES CCCCCCCCCCCCCCCCCCCCCCCCCCCC(=O)[O-]
REMARK SMILES IDX 15 1 16 2 17 3 18 4 19 5 20 6 21 7 22 8 23 9 24 10 25 11
REMARK SMILES IDX 26 12 27 13 28 14 29 15 30 16 14 17 13 18 12 19 11 20 10 21
REMARK SMILES IDX 9 22 8 23 7 24 6 25 5 26 4 27 3 28 2 29 1 30
REMARK H PARENT
REMARK Flexibility Score: inf
ROOT
ATOM      1  C   UNL     1      59.558  27.297  48.616  1.00  0.00     0.000 C 
ENDROOT
BRANCH   1   2
ATOM      2  C   UNL     1      60.004  28.559  49.382  1.00  0.00     0.000 C 
BRANCH   2   3
ATOM      3  C   UNL     1      60.591  28.306  50.786  1.00  0.00     0.000 C 
BRANCH   3   4
ATOM      4  C   UNL     1      60.975  29.573  51.575  1.00  0.00     0.000 C 
BRANCH   4   5
ATOM      5  C   UNL     1      62.413  30.038  51.285  1.00  0.00     0.000 C 
BRANCH   5   6
ATOM      6  C   UNL     1      62.467  31.261  50.355  1.00  0.00     0.000 C 
BRANCH   6   7
ATOM      7  C   UNL     1      62.975  30.915  48.943  1.00  0.00     0.000 C 
BRANCH   7   8
ATOM      8  C   UNL     1      63.938  29.717  48.939  1.00  0.00     0.000 C 
BRANCH   8   9
ATOM      9  C   UNL     1      63.795  28.850  47.676  1.00  0.00     0.000 C 
BRANCH   9  10
ATOM     10  C   UNL     1      63.322  27.418  47.986  1.00  0.00     0.000 C 
BRANCH  10  11
ATOM     11  C   UNL     1      63.710  26.892  49.384  1.00  0.00     0.000 C 
BRANCH  11  12
ATOM     12  C   UNL     1      63.692  25.360  49.535  1.00  0.00     0.006 C 
BRANCH  12  13
ATOM     13  C   UNL     1      62.993  24.896  50.820  1.00  0.00     0.053 C 
BRANCH  13  14
ATOM     14  C   UNL     1      62.375  23.544  50.633  1.00  0.00     0.041 C 
ATOM     15  O   UNL     1      62.131  22.818  51.632  1.00  0.00    -0.550 OA
ATOM     16  O   UNL     1      62.070  23.083  49.355  1.00  0.00    -0.550 OA
ENDBRANCH  13  14
ENDBRANCH  12  13
ENDBRANCH  11  12
ENDBRANCH  10  11
ENDBRANCH   9  10
ENDBRANCH   8   9
ENDBRANCH   7   8
ENDBRANCH   6   7
ENDBRANCH   5   6
ENDBRANCH   4   5
ENDBRANCH   3   4
ENDBRANCH   2   3
ENDBRANCH   1   2
BRANCH   1  17
ATOM     17  C   UNL     1      59.928  25.964  49.288  1.00  0.00     0.000 C 
BRANCH  17  18
ATOM     18  C   UNL     1      58.697  25.100  49.616  1.00  0.00     0.000 C 
BRANCH  18  19
ATOM     19  C   UNL     1      57.392  25.924  49.674  1.00  0.00     0.000 C 
BRANCH  19  20
ATOM     20  C   UNL     1      57.084  26.517  51.062  1.00  0.00     0.000 C 
BRANCH  20  21
ATOM     21  C   UNL     1      56.729  28.016  51.070  1.00  0.00     0.000 C 
BRANCH  21  22
ATOM     22  C   UNL     1      56.223  28.571  49.722  1.00  0.00    -0.000 C 
BRANCH  22  23
ATOM     23  C   UNL     1      55.779  30.046  49.746  1.00  0.00    -0.000 C 
BRANCH  23  24
ATOM     24  C   UNL     1      54.753  30.397  50.840  1.00  0.00    -0.000 C 
BRANCH  24  25
ATOM     25  C   UNL     1      55.274  31.457  51.821  1.00  0.00    -0.000 C 
BRANCH  25  26
ATOM     26  C   UNL     1      55.468  30.868  53.226  1.00  0.00    -0.000 C 
BRANCH  26  27
ATOM     27  C   UNL     1      56.953  30.725  53.616  1.00  0.00    -0.000 C 
BRANCH  27  28
ATOM     28  C   UNL     1      57.948  31.377  52.637  1.00  0.00    -0.000 C 
BRANCH  28  29
ATOM     29  C   UNL     1      58.571  32.665  53.190  1.00  0.00    -0.003 C 
ATOM     30  C   UNL     1      59.922  32.948  52.536  1.00  0.00     0.004 C 
ENDBRANCH  28  29
ENDBRANCH  27  28
ENDBRANCH  26  27
ENDBRANCH  25  26
ENDBRANCH  24  25
ENDBRANCH  23  24
ENDBRANCH  22  23
ENDBRANCH  21  22
ENDBRANCH  20  21
ENDBRANCH  19  20
ENDBRANCH  18  19
ENDBRANCH  17  18
ENDBRANCH   1  17
TORSDOF 26
ENDMDL
MODEL 6
REMARK VINA RESULT:    -3.002      1.441      3.929
REMARK INTER + INTRA:         -12.445
REMARK INTER:                  -7.920
REMARK INTRA:                  -4.525
REMARK UNBOUND:                -4.881
REMARK SMILES CCCCCCCCCCCCCCCCCCCCCCCCCCCC(=O)[O-]
REMARK SMILES IDX 15 1 16 2 17 3 18 4 19 5 20 6 21 7 22 8 23 9 24 10 25 11
REMARK SMILES IDX 26 12 27 13 28 14 29 15 30 16 14 17 13 18 12 19 11 20 10 21
REMARK SMILES IDX 9 22 8 23 7 24 6 25 5 26 4 27 3 28 2 29 1 30
REMARK H PARENT
REMARK Flexibility Score: inf
ROOT
ATOM      1  C   UNL     1      59.803  26.233  48.963  1.00  0.00     0.000 C 
ENDROOT
BRANCH   1   2
ATOM      2  C   UNL     1      58.548  25.430  49.360  1.00  0.00     0.000 C 
BRANCH   2   3
ATOM      3  C   UNL     1      58.751  24.407  50.498  1.00  0.00     0.000 C 
BRANCH   3   4
ATOM      4  C   UNL     1      60.120  24.471  51.201  1.00  0.00     0.000 C 
BRANCH   4   5
ATOM      5  C   UNL     1      61.084  23.371  50.724  1.00  0.00     0.000 C 
BRANCH   5   6
ATOM      6  C   UNL     1      62.562  23.768  50.871  1.00  0.00     0.000 C 
BRANCH   6   7
ATOM      7  C   UNL     1      63.212  24.156  49.530  1.00  0.00     0.000 C 
BRANCH   7   8
ATOM      8  C   UNL     1      63.977  25.488  49.608  1.00  0.00     0.000 C 
BRANCH   8   9
ATOM      9  C   UNL     1      63.488  26.509  48.566  1.00  0.00     0.000 C 
BRANCH   9  10
ATOM     10  C   UNL     1      64.628  27.053  47.684  1.00  0.00     0.000 C 
BRANCH  10  11
ATOM     11  C   UNL     1      64.349  28.422  47.030  1.00  0.00     0.000 C 
BRANCH  11  12
ATOM     12  C   UNL     1      64.711  29.645  47.891  1.00  0.00     0.006 C 
BRANCH  12  13
ATOM     13  C   UNL     1      63.498  30.244  48.614  1.00  0.00     0.053 C 
BRANCH  13  14
ATOM     14  C   UNL     1      63.641  31.729  48.756  1.00  0.00     0.041 C 
ATOM     15  O   UNL     1      64.786  32.249  48.831  1.00  0.00    -0.550 OA
ATOM     16  O   UNL     1      62.511  32.541  48.809  1.00  0.00    -0.550 OA
ENDBRANCH  13  14
ENDBRANCH  12  13
ENDBRANCH  11  12
ENDBRANCH  10  11
ENDBRANCH   9  10
ENDBRANCH   8   9
ENDBRANCH   7   8
ENDBRANCH   6   7
ENDBRANCH   5   6
ENDBRANCH   4   5
ENDBRANCH   3   4
ENDBRANCH   2   3
ENDBRANCH   1   2
BRANCH   1  17
ATOM     17  C   UNL     1      59.544  27.705  48.600  1.00  0.00     0.000 C 
BRANCH  17  18
ATOM     18  C   UNL     1      60.260  28.687  49.544  1.00  0.00     0.000 C 
BRANCH  18  19
ATOM     19  C   UNL     1      61.120  27.969  50.607  1.00  0.00     0.000 C 
BRANCH  19  20
ATOM     20  C   UNL     1      60.717  28.284  52.060  1.00  0.00     0.000 C 
BRANCH  20  21
ATOM     21  C   UNL     1      59.497  29.212  52.214  1.00  0.00     0.000 C 
BRANCH  21  22
ATOM     22  C   UNL     1      58.334  28.625  53.041  1.00  0.00    -0.000 C 
BRANCH  22  23
ATOM     23  C   UNL     1      57.690  27.354  52.453  1.00  0.00    -0.000 C 
BRANCH  23  24
ATOM     24  C   UNL     1      56.316  27.571  51.790  1.00  0.00    -0.000 C 
BRANCH  24  25
ATOM     25  C   UNL     1      56.427  27.892  50.292  1.00  0.00    -0.000 C 
BRANCH  25  26
ATOM     26  C   UNL     1      56.352  29.404  50.039  1.00  0.00    -0.000 C 
BRANCH  26  27
ATOM     27  C   UNL     1      54.905  29.916  49.891  1.00  0.00    -0.000 C 
BRANCH  27  28
ATOM     28  C   UNL     1      54.334  30.619  51.137  1.00  0.00    -0.000 C 
BRANCH  28  29
ATOM     29  C   UNL     1      55.297  31.656  51.731  1.00  0.00    -0.003 C 
ATOM     30  C   UNL     1      55.842  31.191  53.079  1.00  0.00     0.004 C 
ENDBRANCH  28  29
ENDBRANCH  27  28
ENDBRANCH  26  27
ENDBRANCH  25  26
ENDBRANCH  24  25
ENDBRANCH  23  24
ENDBRANCH  22  23
ENDBRANCH  21  22
ENDBRANCH  20  21
ENDBRANCH  19  20
ENDBRANCH  18  19
ENDBRANCH  17  18
ENDBRANCH   1  17
TORSDOF 26
ENDMDL
MODEL 7
REMARK VINA RESULT:    -2.985      5.701      8.356
REMARK INTER + INTRA:         -12.402
REMARK INTER:                  -7.433
REMARK INTRA:                  -4.969
REMARK UNBOUND:                -4.881
REMARK SMILES CCCCCCCCCCCCCCCCCCCCCCCCCCCC(=O)[O-]
REMARK SMILES IDX 15 1 16 2 17 3 18 4 19 5 20 6 21 7 22 8 23 9 24 10 25 11
REMARK SMILES IDX 26 12 27 13 28 14 29 15 30 16 14 17 13 18 12 19 11 20 10 21
REMARK SMILES IDX 9 22 8 23 7 24 6 25 5 26 4 27 3 28 2 29 1 30
REMARK H PARENT
REMARK Flexibility Score: inf
ROOT
ATOM      1  C   UNL     1      58.907  25.821  49.005  1.00  0.00     0.000 C 
ENDROOT
BRANCH   1   2
ATOM      2  C   UNL     1      59.592  24.646  49.732  1.00  0.00     0.000 C 
BRANCH   2   3
ATOM      3  C   UNL     1      61.131  24.612  49.628  1.00  0.00     0.000 C 
BRANCH   3   4
ATOM      4  C   UNL     1      61.756  23.204  49.601  1.00  0.00     0.000 C 
BRANCH   4   5
ATOM      5  C   UNL     1      60.747  22.115  49.196  1.00  0.00     0.000 C 
BRANCH   5   6
ATOM      6  C   UNL     1      60.383  21.176  50.358  1.00  0.00     0.000 C 
BRANCH   6   7
ATOM      7  C   UNL     1      61.390  21.249  51.521  1.00  0.00     0.000 C 
BRANCH   7   8
ATOM      8  C   UNL     1      61.141  20.166  52.585  1.00  0.00     0.000 C 
BRANCH   8   9
ATOM      9  C   UNL     1      59.763  19.498  52.434  1.00  0.00     0.000 C 
BRANCH   9  10
ATOM     10  C   UNL     1      59.857  17.974  52.240  1.00  0.00     0.000 C 
BRANCH  10  11
ATOM     11  C   UNL     1      59.680  17.490  50.786  1.00  0.00     0.000 C 
BRANCH  11  12
ATOM     12  C   UNL     1      58.370  16.732  50.502  1.00  0.00     0.006 C 
BRANCH  12  13
ATOM     13  C   UNL     1      57.416  17.513  49.589  1.00  0.00     0.053 C 
BRANCH  13  14
ATOM     14  C   UNL     1      56.265  18.070  50.371  1.00  0.00     0.041 C 
ATOM     15  O   UNL     1      56.327  18.131  51.628  1.00  0.00    -0.550 OA
ATOM     16  O   UNL     1      55.123  18.520  49.713  1.00  0.00    -0.550 OA
ENDBRANCH  13  14
ENDBRANCH  12  13
ENDBRANCH  11  12
ENDBRANCH  10  11
ENDBRANCH   9  10
ENDBRANCH   8   9
ENDBRANCH   7   8
ENDBRANCH   6   7
ENDBRANCH   5   6
ENDBRANCH   4   5
ENDBRANCH   3   4
ENDBRANCH   2   3
ENDBRANCH   1   2
BRANCH   1  17
ATOM     17  C   UNL     1      59.834  26.997  48.655  1.00  0.00     0.000 C 
BRANCH  17  18
ATOM     18  C   UNL     1      59.233  28.363  49.035  1.00  0.00     0.000 C 
BRANCH  18  19
ATOM     19  C   UNL     1      58.154  28.252  50.133  1.00  0.00     0.000 C 
BRANCH  19  20
ATOM     20  C   UNL     1      58.633  28.687  51.531  1.00  0.00     0.000 C 
BRANCH  20  21
ATOM     21  C   UNL     1      58.887  27.538  52.524  1.00  0.00     0.000 C 
BRANCH  21  22
ATOM     22  C   UNL     1      60.318  26.960  52.497  1.00  0.00    -0.000 C 
BRANCH  22  23
ATOM     23  C   UNL     1      60.642  25.959  53.623  1.00  0.00    -0.000 C 
BRANCH  23  24
ATOM     24  C   UNL     1      60.688  24.483  53.184  1.00  0.00    -0.000 C 
BRANCH  24  25
ATOM     25  C   UNL     1      60.266  23.520  54.303  1.00  0.00    -0.000 C 
BRANCH  25  26
ATOM     26  C   UNL     1      58.921  22.852  53.985  1.00  0.00    -0.000 C 
BRANCH  26  27
ATOM     27  C   UNL     1      58.293  23.363  52.673  1.00  0.00    -0.000 C 
BRANCH  27  28
ATOM     28  C   UNL     1      56.850  23.886  52.803  1.00  0.00    -0.000 C 
BRANCH  28  29
ATOM     29  C   UNL     1      56.412  24.732  51.600  1.00  0.00    -0.003 C 
ATOM     30  C   UNL     1      55.746  26.028  52.052  1.00  0.00     0.004 C 
ENDBRANCH  28  29
ENDBRANCH  27  28
ENDBRANCH  26  27
ENDBRANCH  25  26
ENDBRANCH  24  25
ENDBRANCH  23  24
ENDBRANCH  22  23
ENDBRANCH  21  22
ENDBRANCH  20  21
ENDBRANCH  19  20
ENDBRANCH  18  19
ENDBRANCH  17  18
ENDBRANCH   1  17
TORSDOF 26
ENDMDL
MODEL 8
REMARK VINA RESULT:    -2.971      3.134      7.166
REMARK INTER + INTRA:         -12.367
REMARK INTER:                  -7.714
REMARK INTRA:                  -4.652
REMARK UNBOUND:                -4.881
REMARK SMILES CCCCCCCCCCCCCCCCCCCCCCCCCCCC(=O)[O-]
REMARK SMILES IDX 15 1 16 2 17 3 18 4 19 5 20 6 21 7 22 8 23 9 24 10 25 11
REMARK SMILES IDX 26 12 27 13 28 14 29 15 30 16 14 17 13 18 12 19 11 20 10 21
REMARK SMILES IDX 9 22 8 23 7 24 6 25 5 26 4 27 3 28 2 29 1 30
REMARK H PARENT
REMARK Flexibility Score: inf
ROOT
ATOM      1  C   UNL     1      62.310  26.321  49.379  1.00  0.00     0.000 C 
ENDROOT
BRANCH   1   2
ATOM      2  C   UNL     1      61.749  27.161  50.543  1.00  0.00     0.000 C 
BRANCH   2   3
ATOM      3  C   UNL     1      60.521  28.029  50.200  1.00  0.00     0.000 C 
BRANCH   3   4
ATOM      4  C   UNL     1      60.167  28.103  48.702  1.00  0.00     0.000 C 
BRANCH   4   5
ATOM      5  C   UNL     1      58.712  28.539  48.457  1.00  0.00     0.000 C 
BRANCH   5   6
ATOM      6  C   UNL     1      57.933  28.774  49.761  1.00  0.00     0.000 C 
BRANCH   6   7
ATOM      7  C   UNL     1      56.591  28.019  49.798  1.00  0.00     0.000 C 
BRANCH   7   8
ATOM      8  C   UNL     1      56.321  27.362  51.162  1.00  0.00     0.000 C 
BRANCH   8   9
ATOM      9  C   UNL     1      57.163  26.093  51.381  1.00  0.00     0.000 C 
BRANCH   9  10
ATOM     10  C   UNL     1      57.238  25.204  50.126  1.00  0.00     0.000 C 
BRANCH  10  11
ATOM     11  C   UNL     1      58.660  24.981  49.570  1.00  0.00     0.000 C 
BRANCH  11  12
ATOM     12  C   UNL     1      59.586  24.133  50.461  1.00  0.00     0.006 C 
BRANCH  12  13
ATOM     13  C   UNL     1      60.385  23.090  49.669  1.00  0.00     0.053 C 
BRANCH  13  14
ATOM     14  C   UNL     1      60.626  21.863  50.494  1.00  0.00     0.041 C 
ATOM     15  O   UNL     1      59.675  21.330  51.126  1.00  0.00    -0.550 OA
ATOM     16  O   UNL     1      61.901  21.307  50.568  1.00  0.00    -0.550 OA
ENDBRANCH  13  14
ENDBRANCH  12  13
ENDBRANCH  11  12
ENDBRANCH  10  11
ENDBRANCH   9  10
ENDBRANCH   8   9
ENDBRANCH   7   8
ENDBRANCH   6   7
ENDBRANCH   5   6
ENDBRANCH   4   5
ENDBRANCH   3   4
ENDBRANCH   2   3
ENDBRANCH   1   2
BRANCH   1  17
ATOM     17  C   UNL     1      63.830  26.089  49.419  1.00  0.00     0.000 C 
BRANCH  17  18
ATOM     18  C   UNL     1      64.526  26.467  48.100  1.00  0.00     0.000 C 
BRANCH  18  19
ATOM     19  C   UNL     1      63.969  27.771  47.487  1.00  0.00     0.000 C 
BRANCH  19  20
ATOM     20  C   UNL     1      65.005  28.905  47.373  1.00  0.00     0.000 C 
BRANCH  20  21
ATOM     21  C   UNL     1      64.618  30.220  48.076  1.00  0.00     0.000 C 
BRANCH  21  22
ATOM     22  C   UNL     1      63.438  30.106  49.063  1.00  0.00    -0.000 C 
BRANCH  22  23
ATOM     23  C   UNL     1      62.420  31.262  49.002  1.00  0.00    -0.000 C 
BRANCH  23  24
ATOM     24  C   UNL     1      62.234  32.032  50.323  1.00  0.00    -0.000 C 
BRANCH  24  25
ATOM     25  C   UNL     1      61.881  31.110  51.500  1.00  0.00    -0.000 C 
BRANCH  25  26
ATOM     26  C   UNL     1      60.792  31.731  52.386  1.00  0.00    -0.000 C 
BRANCH  26  27
ATOM     27  C   UNL     1      59.534  30.846  52.499  1.00  0.00    -0.000 C 
BRANCH  27  28
ATOM     28  C   UNL     1      58.229  31.607  52.801  1.00  0.00    -0.000 C 
BRANCH  28  29
ATOM     29  C   UNL     1      56.978  30.734  52.639  1.00  0.00    -0.003 C 
ATOM     30  C   UNL     1      55.862  31.498  51.933  1.00  0.00     0.004 C 
ENDBRANCH  28  29
ENDBRANCH  27  28
ENDBRANCH  26  27
ENDBRANCH  25  26
ENDBRANCH  24  25
ENDBRANCH  23  24
ENDBRANCH  22  23
ENDBRANCH  21  22
ENDBRANCH  20  21
ENDBRANCH  19  20
ENDBRANCH  18  19
ENDBRANCH  17  18
ENDBRANCH   1  17
TORSDOF 26
ENDMDL
MODEL 9
REMARK VINA RESULT:    -2.952      2.325      4.782
REMARK INTER + INTRA:         -12.321
REMARK INTER:                  -6.692
REMARK INTRA:                  -5.629
REMARK UNBOUND:                -4.881
REMARK SMILES CCCCCCCCCCCCCCCCCCCCCCCCCCCC(=O)[O-]
REMARK SMILES IDX 15 1 16 2 17 3 18 4 19 5 20 6 21 7 22 8 23 9 24 10 25 11
REMARK SMILES IDX 26 12 27 13 28 14 29 15 30 16 14 17 13 18 12 19 11 20 10 21
REMARK SMILES IDX 9 22 8 23 7 24 6 25 5 26 4 27 3 28 2 29 1 30
REMARK H PARENT
REMARK Flexibility Score: inf
ROOT
ATOM      1  C   UNL     1      60.806  26.830  49.411  1.00  0.00     0.000 C 
ENDROOT
BRANCH   1   2
ATOM      2  C   UNL     1      60.971  25.328  49.719  1.00  0.00     0.000 C 
BRANCH   2   3
ATOM      3  C   UNL     1      59.683  24.487  49.613  1.00  0.00     0.000 C 
BRANCH   3   4
ATOM      4  C   UNL     1      58.932  24.265  50.940  1.00  0.00     0.000 C 
BRANCH   4   5
ATOM      5  C   UNL     1      57.513  24.858  50.925  1.00  0.00     0.000 C 
BRANCH   5   6
ATOM      6  C   UNL     1      57.310  25.946  51.993  1.00  0.00     0.000 C 
BRANCH   6   7
ATOM      7  C   UNL     1      58.635  26.571  52.468  1.00  0.00     0.000 C 
BRANCH   7   8
ATOM      8  C   UNL     1      58.435  27.582  53.610  1.00  0.00     0.000 C 
BRANCH   8   9
ATOM      9  C   UNL     1      58.787  29.020  53.192  1.00  0.00     0.000 C 
BRANCH   9  10
ATOM     10  C   UNL     1      60.131  29.111  52.446  1.00  0.00     0.000 C 
BRANCH  10  11
ATOM     11  C   UNL     1      60.440  30.489  51.825  1.00  0.00     0.000 C 
BRANCH  11  12
ATOM     12  C   UNL     1      61.866  30.651  51.266  1.00  0.00     0.006 C 
BRANCH  12  13
ATOM     13  C   UNL     1      61.971  30.266  49.784  1.00  0.00     0.053 C 
BRANCH  13  14
ATOM     14  C   UNL     1      62.783  31.273  49.028  1.00  0.00     0.041 C 
ATOM     15  O   UNL     1      63.764  30.898  48.332  1.00  0.00    -0.550 OA
ATOM     16  O   UNL     1      62.459  32.625  49.092  1.00  0.00    -0.550 OA
ENDBRANCH  13  14
ENDBRANCH  12  13
ENDBRANCH  11  12
ENDBRANCH  10  11
ENDBRANCH   9  10
ENDBRANCH   8   9
ENDBRANCH   7   8
ENDBRANCH   6   7
ENDBRANCH   5   6
ENDBRANCH   4   5
ENDBRANCH   3   4
ENDBRANCH   2   3
ENDBRANCH   1   2
BRANCH   1  17
ATOM     17  C   UNL     1      59.545  27.194  48.609  1.00  0.00     0.000 C 
BRANCH  17  18
ATOM     18  C   UNL     1      58.831  28.442  49.157  1.00  0.00     0.000 C 
BRANCH  18  19
ATOM     19  C   UNL     1      57.315  28.222  49.351  1.00  0.00     0.000 C 
BRANCH  19  20
ATOM     20  C   UNL     1      56.647  29.241  50.294  1.00  0.00     0.000 C 
BRANCH  20  21
ATOM     21  C   UNL     1      55.141  29.463  50.058  1.00  0.00     0.000 C 
BRANCH  21  22
ATOM     22  C   UNL     1      54.275  29.454  51.335  1.00  0.00    -0.000 C 
BRANCH  22  23
ATOM     23  C   UNL     1      54.948  28.841  52.578  1.00  0.00    -0.000 C 
BRANCH  23  24
ATOM     24  C   UNL     1      54.440  29.386  53.926  1.00  0.00    -0.000 C 
BRANCH  24  25
ATOM     25  C   UNL     1      55.557  29.511  54.972  1.00  0.00    -0.000 C 
BRANCH  25  26
ATOM     26  C   UNL     1      55.735  30.967  55.426  1.00  0.00    -0.000 C 
BRANCH  26  27
ATOM     27  C   UNL     1      57.131  31.531  55.098  1.00  0.00    -0.000 C 
BRANCH  27  28
ATOM     28  C   UNL     1      57.148  32.648  54.038  1.00  0.00    -0.000 C 
BRANCH  28  29
ATOM     29  C   UNL     1      56.817  32.138  52.629  1.00  0.00    -0.003 C 
ATOM     30  C   UNL     1      55.518  32.752  52.113  1.00  0.00     0.004 C 
ENDBRANCH  28  29
ENDBRANCH  27  28
ENDBRANCH  26  27
ENDBRANCH  25  26
ENDBRANCH  24  25
ENDBRANCH  23  24
ENDBRANCH  22  23
ENDBRANCH  21  22
ENDBRANCH  20  21
ENDBRANCH  19  20
ENDBRANCH  18  19
ENDBRANCH  17  18
ENDBRANCH   1  17
TORSDOF 26
ENDMDL
