MODEL 1
REMARK VINA RESULT:    -3.960      0.000      0.000
REMARK INTER + INTRA:          -3.960
REMARK INTER:                  -3.960
REMARK INTRA:                   0.000
REMARK UNBOUND:                 0.000
REMARK SMILES C=C1CC[C@@H]2C[C@H]1C2(C)C
REMARK SMILES IDX 9 1 8 2 5 3 4 4 3 5 2 6 1 7 7 8 6 9 10 10
REMARK H PARENT
REMARK Flexibility Score: inf
ROOT
ATOM      1  C   UNL     1      31.626   9.976  35.635  1.00  0.00     0.012 C 
ATOM      2  C   UNL     1      31.146   9.996  34.162  1.00  0.00    -0.026 C 
ATOM      3  C   UNL     1      31.829  11.122  33.345  1.00  0.00    -0.004 C 
ATOM      4  C   UNL     1      31.061  11.394  32.012  1.00  0.00     0.008 C 
ATOM      5  C   UNL     1      30.804  10.078  31.183  1.00  0.00     0.031 C 
ATOM      6  C   UNL     1      31.216   8.814  31.953  1.00  0.00    -0.074 C 
ATOM      7  C   UNL     1      30.949   7.592  31.479  1.00  0.00     0.008 C 
ATOM      8  C   UNL     1      31.946   9.012  33.277  1.00  0.00     0.021 C 
ATOM      9  C   UNL     1      32.960  10.136  33.006  1.00  0.00     0.012 C 
ATOM     10  C   UNL     1      29.595   9.904  34.152  1.00  0.00     0.012 C 
ENDROOT
TORSDOF 0
ENDMDL
MODEL 2
REMARK VINA RESULT:    -3.944      1.059      3.367
REMARK INTER + INTRA:          -3.944
REMARK INTER:                  -3.944
REMARK INTRA:                   0.000
REMARK UNBOUND:                 0.000
REMARK SMILES C=C1CC[C@@H]2C[C@H]1C2(C)C
REMARK SMILES IDX 9 1 8 2 5 3 4 4 3 5 2 6 1 7 7 8 6 9 10 10
REMARK H PARENT
REMARK Flexibility Score: inf
ROOT
ATOM      1  C   UNL     1      30.936   7.376  30.757  1.00  0.00     0.012 C 
ATOM      2  C   UNL     1      30.819   8.520  31.795  1.00  0.00    -0.026 C 
ATOM      3  C   UNL     1      30.059   8.070  33.069  1.00  0.00    -0.004 C 
ATOM      4  C   UNL     1      29.598   9.303  33.911  1.00  0.00     0.008 C 
ATOM      5  C   UNL     1      30.773  10.313  34.199  1.00  0.00     0.031 C 
ATOM      6  C   UNL     1      32.060   9.942  33.445  1.00  0.00    -0.074 C 
ATOM      7  C   UNL     1      33.125  10.750  33.447  1.00  0.00     0.008 C 
ATOM      8  C   UNL     1      32.070   8.611  32.701  1.00  0.00     0.021 C 
ATOM      9  C   UNL     1      31.403   7.613  33.662  1.00  0.00     0.012 C 
ATOM     10  C   UNL     1      30.346   9.803  31.059  1.00  0.00     0.012 C 
ENDROOT
TORSDOF 0
ENDMDL
MODEL 3
REMARK VINA RESULT:    -3.863      1.136      2.895
REMARK INTER + INTRA:          -3.863
REMARK INTER:                  -3.863
REMARK INTRA:                   0.000
REMARK UNBOUND:                 0.000
REMARK SMILES C=C1CC[C@@H]2C[C@H]1C2(C)C
REMARK SMILES IDX 9 1 8 2 5 3 4 4 3 5 2 6 1 7 7 8 6 9 10 10
REMARK H PARENT
REMARK Flexibility Score: inf
ROOT
ATOM      1  C   UNL     1      31.604  11.687  31.721  1.00  0.00     0.012 C 
ATOM      2  C   UNL     1      31.675  10.638  32.858  1.00  0.00    -0.026 C 
ATOM      3  C   UNL     1      30.487  10.772  33.845  1.00  0.00    -0.004 C 
ATOM      4  C   UNL     1      30.774  10.006  35.176  1.00  0.00     0.008 C 
ATOM      5  C   UNL     1      31.229   8.517  34.932  1.00  0.00     0.031 C 
ATOM      6  C   UNL     1      31.448   8.211  33.442  1.00  0.00    -0.074 C 
ATOM      7  C   UNL     1      31.969   7.047  33.040  1.00  0.00     0.008 C 
ATOM      8  C   UNL     1      31.041   9.289  32.443  1.00  0.00     0.021 C 
ATOM      9  C   UNL     1      29.687   9.810  32.950  1.00  0.00     0.012 C 
ATOM     10  C   UNL     1      33.119  10.631  33.428  1.00  0.00     0.012 C 
ENDROOT
TORSDOF 0
ENDMDL
MODEL 4
REMARK VINA RESULT:    -3.696      1.120      2.979
REMARK INTER + INTRA:          -3.696
REMARK INTER:                  -3.696
REMARK INTRA:                   0.000
REMARK UNBOUND:                 0.000
REMARK SMILES C=C1CC[C@@H]2C[C@H]1C2(C)C
REMARK SMILES IDX 9 1 8 2 5 3 4 4 3 5 2 6 1 7 7 8 6 9 10 10
REMARK H PARENT
REMARK Flexibility Score: inf
ROOT
ATOM      1  C   UNL     1      32.004  11.880  31.888  1.00  0.00     0.012 C 
ATOM      2  C   UNL     1      31.354  10.544  32.328  1.00  0.00    -0.026 C 
ATOM      3  C   UNL     1      32.376   9.598  33.007  1.00  0.00    -0.004 C 
ATOM      4  C   UNL     1      31.829   8.136  33.075  1.00  0.00     0.008 C 
ATOM      5  C   UNL     1      30.384   8.060  33.699  1.00  0.00     0.031 C 
ATOM      6  C   UNL     1      29.778   9.450  33.941  1.00  0.00    -0.074 C 
ATOM      7  C   UNL     1      28.508   9.598  34.334  1.00  0.00     0.008 C 
ATOM      8  C   UNL     1      30.689  10.654  33.720  1.00  0.00     0.021 C 
ATOM      9  C   UNL     1      32.032  10.257  34.354  1.00  0.00     0.012 C 
ATOM     10  C   UNL     1      30.507  10.000  31.145  1.00  0.00     0.012 C 
ENDROOT
TORSDOF 0
ENDMDL
MODEL 5
REMARK VINA RESULT:    -3.653      1.011      2.663
REMARK INTER + INTRA:          -3.653
REMARK INTER:                  -3.653
REMARK INTRA:                   0.000
REMARK UNBOUND:                 0.000
REMARK SMILES C=C1CC[C@@H]2C[C@H]1C2(C)C
REMARK SMILES IDX 9 1 8 2 5 3 4 4 3 5 2 6 1 7 7 8 6 9 10 10
REMARK H PARENT
REMARK Flexibility Score: inf
ROOT
ATOM      1  C   UNL     1      31.595  10.048  35.492  1.00  0.00     0.012 C 
ATOM      2  C   UNL     1      31.600   9.505  34.041  1.00  0.00    -0.026 C 
ATOM      3  C   UNL     1      31.207   8.007  33.981  1.00  0.00    -0.004 C 
ATOM      4  C   UNL     1      31.602   7.378  32.606  1.00  0.00     0.008 C 
ATOM      5  C   UNL     1      31.075   8.220  31.382  1.00  0.00     0.031 C 
ATOM      6  C   UNL     1      30.442   9.550  31.818  1.00  0.00    -0.074 C 
ATOM      7  C   UNL     1      30.063  10.467  30.922  1.00  0.00     0.008 C 
ATOM      8  C   UNL     1      30.261   9.777  33.315  1.00  0.00     0.021 C 
ATOM      9  C   UNL     1      29.736   8.438  33.859  1.00  0.00     0.012 C 
ATOM     10  C   UNL     1      32.917   9.958  33.353  1.00  0.00     0.012 C 
ENDROOT
TORSDOF 0
ENDMDL
MODEL 6
REMARK VINA RESULT:    -3.643      1.623      3.730
REMARK INTER + INTRA:          -3.643
REMARK INTER:                  -3.643
REMARK INTRA:                   0.000
REMARK UNBOUND:                 0.000
REMARK SMILES C=C1CC[C@@H]2C[C@H]1C2(C)C
REMARK SMILES IDX 9 1 8 2 5 3 4 4 3 5 2 6 1 7 7 8 6 9 10 10
REMARK H PARENT
REMARK Flexibility Score: inf
ROOT
ATOM      1  C   UNL     1      31.771   7.235  32.939  1.00  0.00     0.012 C 
ATOM      2  C   UNL     1      31.429   8.531  33.715  1.00  0.00    -0.026 C 
ATOM      3  C   UNL     1      29.908   8.827  33.707  1.00  0.00    -0.004 C 
ATOM      4  C   UNL     1      29.622  10.305  34.125  1.00  0.00     0.008 C 
ATOM      5  C   UNL     1      30.337  10.702  35.472  1.00  0.00     0.031 C 
ATOM      6  C   UNL     1      31.284   9.603  35.977  1.00  0.00    -0.074 C 
ATOM      7  C   UNL     1      32.087   9.803  37.027  1.00  0.00     0.008 C 
ATOM      8  C   UNL     1      31.264   8.272  35.231  1.00  0.00     0.021 C 
ATOM      9  C   UNL     1      29.776   7.978  34.983  1.00  0.00     0.012 C 
ATOM     10  C   UNL     1      32.409   9.647  33.259  1.00  0.00     0.012 C 
ENDROOT
TORSDOF 0
ENDMDL
MODEL 7
REMARK VINA RESULT:    -3.553      5.021      6.955
REMARK INTER + INTRA:          -3.553
REMARK INTER:                  -3.553
REMARK INTRA:                   0.000
REMARK UNBOUND:                 0.000
REMARK SMILES C=C1CC[C@@H]2C[C@H]1C2(C)C
REMARK SMILES IDX 9 1 8 2 5 3 4 4 3 5 2 6 1 7 7 8 6 9 10 10
REMARK H PARENT
REMARK Flexibility Score: inf
ROOT
ATOM      1  C   UNL     1      30.755   8.738  25.648  1.00  0.00     0.012 C 
ATOM      2  C   UNL     1      30.199   7.926  26.845  1.00  0.00    -0.026 C 
ATOM      3  C   UNL     1      29.357   6.712  26.379  1.00  0.00    -0.004 C 
ATOM      4  C   UNL     1      28.484   6.153  27.549  1.00  0.00     0.008 C 
ATOM      5  C   UNL     1      29.325   5.877  28.853  1.00  0.00     0.031 C 
ATOM      6  C   UNL     1      30.772   6.378  28.731  1.00  0.00    -0.074 C 
ATOM      7  C   UNL     1      31.604   6.363  29.777  1.00  0.00     0.008 C 
ATOM      8  C   UNL     1      31.219   6.886  27.364  1.00  0.00     0.021 C 
ATOM      9  C   UNL     1      30.647   5.875  26.358  1.00  0.00     0.012 C 
ATOM     10  C   UNL     1      29.575   8.920  27.863  1.00  0.00     0.012 C 
ENDROOT
TORSDOF 0
ENDMDL
MODEL 8
REMARK VINA RESULT:    -3.517      1.119      3.268
REMARK INTER + INTRA:          -3.517
REMARK INTER:                  -3.517
REMARK INTRA:                   0.000
REMARK UNBOUND:                 0.000
REMARK SMILES C=C1CC[C@@H]2C[C@H]1C2(C)C
REMARK SMILES IDX 9 1 8 2 5 3 4 4 3 5 2 6 1 7 7 8 6 9 10 10
REMARK H PARENT
REMARK Flexibility Score: inf
ROOT
ATOM      1  C   UNL     1      30.854   8.115  30.959  1.00  0.00     0.012 C 
ATOM      2  C   UNL     1      31.212   8.582  32.392  1.00  0.00    -0.026 C 
ATOM      3  C   UNL     1      31.895   9.973  32.395  1.00  0.00    -0.004 C 
ATOM      4  C   UNL     1      32.603  10.248  33.760  1.00  0.00     0.008 C 
ATOM      5  C   UNL     1      31.653  10.007  34.994  1.00  0.00     0.031 C 
ATOM      6  C   UNL     1      30.304   9.398  34.582  1.00  0.00    -0.074 C 
ATOM      7  C   UNL     1      29.416   8.991  35.495  1.00  0.00     0.008 C 
ATOM      8  C   UNL     1      30.021   9.283  33.088  1.00  0.00     0.021 C 
ATOM      9  C   UNL     1      30.500  10.615  32.489  1.00  0.00     0.012 C 
ATOM     10  C   UNL     1      31.910   7.407  33.130  1.00  0.00     0.012 C 
ENDROOT
TORSDOF 0
ENDMDL
MODEL 9
REMARK VINA RESULT:    -3.488      2.596      3.815
REMARK INTER + INTRA:          -3.488
REMARK INTER:                  -3.488
REMARK INTRA:                   0.000
REMARK UNBOUND:                 0.000
REMARK SMILES C=C1CC[C@@H]2C[C@H]1C2(C)C
REMARK SMILES IDX 9 1 8 2 5 3 4 4 3 5 2 6 1 7 7 8 6 9 10 10
REMARK H PARENT
REMARK Flexibility Score: inf
ROOT
ATOM      1  C   UNL     1      31.577   8.866  37.397  1.00  0.00     0.012 C 
ATOM      2  C   UNL     1      31.063   7.872  36.325  1.00  0.00    -0.026 C 
ATOM      3  C   UNL     1      29.535   8.002  36.100  1.00  0.00    -0.004 C 
ATOM      4  C   UNL     1      28.972   6.756  35.343  1.00  0.00     0.008 C 
ATOM      5  C   UNL     1      29.780   6.431  34.029  1.00  0.00     0.031 C 
ATOM      6  C   UNL     1      31.034   7.306  33.883  1.00  0.00    -0.074 C 
ATOM      7  C   UNL     1      31.925   7.089  32.910  1.00  0.00     0.008 C 
ATOM      8  C   UNL     1      31.215   8.435  34.892  1.00  0.00     0.021 C 
ATOM      9  C   UNL     1      29.823   9.070  35.032  1.00  0.00     0.012 C 
ATOM     10  C   UNL     1      31.655   6.470  36.634  1.00  0.00     0.012 C 
ENDROOT
TORSDOF 0
ENDMDL
