MODEL 1
REMARK VINA RESULT:    -4.480      0.000      0.000
REMARK INTER + INTRA:         -14.053
REMARK INTER:                 -10.241
REMARK INTRA:                  -3.812
REMARK UNBOUND:                -3.812
REMARK SMILES CCCCCCCCCCCCCCCCCCCCCCCC(=O)[O-]
REMARK SMILES IDX 13 1 14 2 15 3 16 4 17 5 18 6 19 7 20 8 21 9 22 10 23 11
REMARK SMILES IDX 24 12 25 13 26 14 12 15 11 16 10 17 9 18 8 19 7 20 6 21 5 22
REMARK SMILES IDX 4 23 3 24 2 25 1 26
REMARK H PARENT
REMARK Flexibility Score: inf
ROOT
ATOM      1  C   UNL     1       7.495 -19.016  19.945  1.00  0.00     0.000 C 
ENDROOT
BRANCH   1   2
ATOM      2  C   UNL     1       8.185 -17.644  20.060  1.00  0.00     0.000 C 
BRANCH   2   3
ATOM      3  C   UNL     1       8.247 -17.121  21.505  1.00  0.00     0.000 C 
BRANCH   3   4
ATOM      4  C   UNL     1       7.139 -16.099  21.823  1.00  0.00     0.000 C 
BRANCH   4   5
ATOM      5  C   UNL     1       6.765 -15.970  23.311  1.00  0.00     0.000 C 
BRANCH   5   6
ATOM      6  C   UNL     1       6.068 -17.224  23.866  1.00  0.00     0.000 C 
BRANCH   6   7
ATOM      7  C   UNL     1       6.765 -17.780  25.119  1.00  0.00     0.000 C 
BRANCH   7   8
ATOM      8  C   UNL     1       7.706 -18.956  24.803  1.00  0.00     0.000 C 
BRANCH   8   9
ATOM      9  C   UNL     1       9.181 -18.531  24.741  1.00  0.00     0.000 C 
BRANCH   9  10
ATOM     10  C   UNL     1       9.473 -17.285  25.597  1.00  0.00     0.006 C 
BRANCH  10  11
ATOM     11  C   UNL     1      10.853 -16.686  25.299  1.00  0.00     0.053 C 
BRANCH  11  12
ATOM     12  C   UNL     1      10.783 -15.636  24.233  1.00  0.00     0.041 C 
ATOM     13  O   UNL     1       9.836 -14.806  24.222  1.00  0.00    -0.550 OA
ATOM     14  O   UNL     1      11.745 -15.596  23.229  1.00  0.00    -0.550 OA
ENDBRANCH  11  12
ENDBRANCH  10  11
ENDBRANCH   9  10
ENDBRANCH   8   9
ENDBRANCH   7   8
ENDBRANCH   6   7
ENDBRANCH   5   6
ENDBRANCH   4   5
ENDBRANCH   3   4
ENDBRANCH   2   3
ENDBRANCH   1   2
BRANCH   1  15
ATOM     15  C   UNL     1       6.981 -19.614  21.268  1.00  0.00     0.000 C 
BRANCH  15  16
ATOM     16  C   UNL     1       7.176 -21.138  21.356  1.00  0.00     0.000 C 
BRANCH  16  17
ATOM     17  C   UNL     1       8.276 -21.659  20.412  1.00  0.00     0.000 C 
BRANCH  17  18
ATOM     18  C   UNL     1       9.307 -22.601  21.062  1.00  0.00    -0.000 C 
BRANCH  18  19
ATOM     19  C   UNL     1      10.706 -21.975  21.179  1.00  0.00    -0.000 C 
BRANCH  19  20
ATOM     20  C   UNL     1      10.617 -20.443  21.247  1.00  0.00    -0.000 C 
BRANCH  20  21
ATOM     21  C   UNL     1      11.428 -19.759  20.132  1.00  0.00    -0.000 C 
BRANCH  21  22
ATOM     22  C   UNL     1      11.460 -20.558  18.810  1.00  0.00    -0.000 C 
BRANCH  22  23
ATOM     23  C   UNL     1      10.312 -20.204  17.845  1.00  0.00    -0.000 C 
BRANCH  23  24
ATOM     24  C   UNL     1      10.448 -18.832  17.162  1.00  0.00    -0.000 C 
BRANCH  24  25
ATOM     25  C   UNL     1      11.780 -18.671  16.414  1.00  0.00    -0.003 C 
ATOM     26  C   UNL     1      11.562 -18.654  14.904  1.00  0.00     0.004 C 
ENDBRANCH  24  25
ENDBRANCH  23  24
ENDBRANCH  22  23
ENDBRANCH  21  22
ENDBRANCH  20  21
ENDBRANCH  19  20
ENDBRANCH  18  19
ENDBRANCH  17  18
ENDBRANCH  16  17
ENDBRANCH  15  16
ENDBRANCH   1  15
TORSDOF 22
ENDMDL
MODEL 2
REMARK VINA RESULT:    -4.394      2.271      6.522
REMARK INTER + INTRA:         -13.856
REMARK INTER:                  -9.447
REMARK INTRA:                  -4.410
REMARK UNBOUND:                -3.812
REMARK SMILES CCCCCCCCCCCCCCCCCCCCCCCC(=O)[O-]
REMARK SMILES IDX 13 1 14 2 15 3 16 4 17 5 18 6 19 7 20 8 21 9 22 10 23 11
REMARK SMILES IDX 24 12 25 13 26 14 12 15 11 16 10 17 9 18 8 19 7 20 6 21 5 22
REMARK SMILES IDX 4 23 3 24 2 25 1 26
REMARK H PARENT
REMARK Flexibility Score: inf
ROOT
ATOM      1  C   UNL     1       6.413 -17.128  23.555  1.00  0.00     0.000 C 
ENDROOT
BRANCH   1   2
ATOM      2  C   UNL     1       6.313 -18.624  23.202  1.00  0.00     0.000 C 
BRANCH   2   3
ATOM      3  C   UNL     1       6.939 -18.963  21.838  1.00  0.00     0.000 C 
BRANCH   3   4
ATOM      4  C   UNL     1       6.868 -20.464  21.500  1.00  0.00     0.000 C 
BRANCH   4   5
ATOM      5  C   UNL     1       8.225 -21.182  21.390  1.00  0.00     0.000 C 
BRANCH   5   6
ATOM      6  C   UNL     1       8.430 -21.875  20.033  1.00  0.00     0.000 C 
BRANCH   6   7
ATOM      7  C   UNL     1       8.555 -20.874  18.872  1.00  0.00     0.000 C 
BRANCH   7   8
ATOM      8  C   UNL     1       9.741 -19.909  19.044  1.00  0.00     0.000 C 
BRANCH   8   9
ATOM      9  C   UNL     1      10.957 -20.313  18.195  1.00  0.00     0.000 C 
BRANCH   9  10
ATOM     10  C   UNL     1      12.261 -20.349  19.011  1.00  0.00     0.006 C 
BRANCH  10  11
ATOM     11  C   UNL     1      12.114 -21.158  20.306  1.00  0.00     0.053 C 
BRANCH  11  12
ATOM     12  C   UNL     1      12.965 -20.601  21.407  1.00  0.00     0.041 C 
ATOM     13  O   UNL     1      13.563 -19.503  21.252  1.00  0.00    -0.550 OA
ATOM     14  O   UNL     1      13.125 -21.310  22.591  1.00  0.00    -0.550 OA
ENDBRANCH  11  12
ENDBRANCH  10  11
ENDBRANCH   9  10
ENDBRANCH   8   9
ENDBRANCH   7   8
ENDBRANCH   6   7
ENDBRANCH   5   6
ENDBRANCH   4   5
ENDBRANCH   3   4
ENDBRANCH   2   3
ENDBRANCH   1   2
BRANCH   1  15
ATOM     15  C   UNL     1       7.180 -16.256  22.543  1.00  0.00     0.000 C 
BRANCH  15  16
ATOM     16  C   UNL     1       7.718 -14.952  23.158  1.00  0.00     0.000 C 
BRANCH  16  17
ATOM     17  C   UNL     1       8.245 -15.136  24.593  1.00  0.00     0.000 C 
BRANCH  17  18
ATOM     18  C   UNL     1       9.779 -15.201  24.726  1.00  0.00    -0.000 C 
BRANCH  18  19
ATOM     19  C   UNL     1      10.513 -14.801  23.437  1.00  0.00    -0.000 C 
BRANCH  19  20
ATOM     20  C   UNL     1      11.560 -15.857  23.050  1.00  0.00    -0.000 C 
BRANCH  20  21
ATOM     21  C   UNL     1      11.140 -16.673  21.815  1.00  0.00    -0.000 C 
BRANCH  21  22
ATOM     22  C   UNL     1      10.445 -18.009  22.161  1.00  0.00    -0.000 C 
BRANCH  22  23
ATOM     23  C   UNL     1      10.733 -18.504  23.592  1.00  0.00    -0.000 C 
BRANCH  23  24
ATOM     24  C   UNL     1       9.488 -18.945  24.381  1.00  0.00    -0.000 C 
BRANCH  24  25
ATOM     25  C   UNL     1       9.537 -18.517  25.855  1.00  0.00    -0.003 C 
ATOM     26  C   UNL     1      10.977 -18.436  26.354  1.00  0.00     0.004 C 
ENDBRANCH  24  25
ENDBRANCH  23  24
ENDBRANCH  22  23
ENDBRANCH  21  22
ENDBRANCH  20  21
ENDBRANCH  19  20
ENDBRANCH  18  19
ENDBRANCH  17  18
ENDBRANCH  16  17
ENDBRANCH  15  16
ENDBRANCH   1  15
TORSDOF 22
ENDMDL
MODEL 3
REMARK VINA RESULT:    -4.389      1.748      3.444
REMARK INTER + INTRA:         -13.847
REMARK INTER:                  -9.280
REMARK INTRA:                  -4.566
REMARK UNBOUND:                -3.812
REMARK SMILES CCCCCCCCCCCCCCCCCCCCCCCC(=O)[O-]
REMARK SMILES IDX 13 1 14 2 15 3 16 4 17 5 18 6 19 7 20 8 21 9 22 10 23 11
REMARK SMILES IDX 24 12 25 13 26 14 12 15 11 16 10 17 9 18 8 19 7 20 6 21 5 22
REMARK SMILES IDX 4 23 3 24 2 25 1 26
REMARK H PARENT
REMARK Flexibility Score: inf
ROOT
ATOM      1  C   UNL     1       6.785 -19.736  23.942  1.00  0.00     0.000 C 
ENDROOT
BRANCH   1   2
ATOM      2  C   UNL     1       6.647 -18.244  24.298  1.00  0.00     0.000 C 
BRANCH   2   3
ATOM      3  C   UNL     1       7.380 -17.864  25.596  1.00  0.00     0.000 C 
BRANCH   3   4
ATOM      4  C   UNL     1       8.648 -18.705  25.838  1.00  0.00     0.000 C 
BRANCH   4   5
ATOM      5  C   UNL     1       9.929 -17.902  26.125  1.00  0.00     0.000 C 
BRANCH   5   6
ATOM      6  C   UNL     1      11.212 -18.660  25.741  1.00  0.00     0.000 C 
BRANCH   6   7
ATOM      7  C   UNL     1      11.306 -18.932  24.230  1.00  0.00     0.000 C 
BRANCH   7   8
ATOM      8  C   UNL     1      11.455 -17.644  23.403  1.00  0.00     0.000 C 
BRANCH   8   9
ATOM      9  C   UNL     1      10.496 -17.601  22.202  1.00  0.00     0.000 C 
BRANCH   9  10
ATOM     10  C   UNL     1       9.601 -16.349  22.207  1.00  0.00     0.006 C 
BRANCH  10  11
ATOM     11  C   UNL     1       9.950 -15.389  23.351  1.00  0.00     0.053 C 
BRANCH  11  12
ATOM     12  C   UNL     1       8.723 -14.898  24.057  1.00  0.00     0.041 C 
ATOM     13  O   UNL     1       7.668 -14.670  23.408  1.00  0.00    -0.550 OA
ATOM     14  O   UNL     1       8.755 -14.657  25.425  1.00  0.00    -0.550 OA
ENDBRANCH  11  12
ENDBRANCH  10  11
ENDBRANCH   9  10
ENDBRANCH   8   9
ENDBRANCH   7   8
ENDBRANCH   6   7
ENDBRANCH   5   6
ENDBRANCH   4   5
ENDBRANCH   3   4
ENDBRANCH   2   3
ENDBRANCH   1   2
BRANCH   1  15
ATOM     15  C   UNL     1       6.911 -20.052  22.440  1.00  0.00     0.000 C 
BRANCH  15  16
ATOM     16  C   UNL     1       8.348 -20.408  22.019  1.00  0.00     0.000 C 
BRANCH  16  17
ATOM     17  C   UNL     1       8.427 -21.697  21.181  1.00  0.00     0.000 C 
BRANCH  17  18
ATOM     18  C   UNL     1       9.849 -22.244  20.949  1.00  0.00    -0.000 C 
BRANCH  18  19
ATOM     19  C   UNL     1      10.930 -21.445  21.693  1.00  0.00    -0.000 C 
BRANCH  19  20
ATOM     20  C   UNL     1      11.942 -20.840  20.707  1.00  0.00    -0.000 C 
BRANCH  20  21
ATOM     21  C   UNL     1      11.419 -20.837  19.260  1.00  0.00    -0.000 C 
BRANCH  21  22
ATOM     22  C   UNL     1      11.400 -19.434  18.611  1.00  0.00    -0.000 C 
BRANCH  22  23
ATOM     23  C   UNL     1      10.083 -18.667  18.835  1.00  0.00    -0.000 C 
BRANCH  23  24
ATOM     24  C   UNL     1       8.815 -19.433  18.420  1.00  0.00    -0.000 C 
BRANCH  24  25
ATOM     25  C   UNL     1       7.583 -18.523  18.305  1.00  0.00    -0.003 C 
ATOM     26  C   UNL     1       7.361 -17.735  19.592  1.00  0.00     0.004 C 
ENDBRANCH  24  25
ENDBRANCH  23  24
ENDBRANCH  22  23
ENDBRANCH  21  22
ENDBRANCH  20  21
ENDBRANCH  19  20
ENDBRANCH  18  19
ENDBRANCH  17  18
ENDBRANCH  16  17
ENDBRANCH  15  16
ENDBRANCH   1  15
TORSDOF 22
ENDMDL
MODEL 4
REMARK VINA RESULT:    -4.385      2.707      5.740
REMARK INTER + INTRA:         -13.838
REMARK INTER:                  -9.480
REMARK INTRA:                  -4.357
REMARK UNBOUND:                -3.812
REMARK SMILES CCCCCCCCCCCCCCCCCCCCCCCC(=O)[O-]
REMARK SMILES IDX 13 1 14 2 15 3 16 4 17 5 18 6 19 7 20 8 21 9 22 10 23 11
REMARK SMILES IDX 24 12 25 13 26 14 12 15 11 16 10 17 9 18 8 19 7 20 6 21 5 22
REMARK SMILES IDX 4 23 3 24 2 25 1 26
REMARK H PARENT
REMARK Flexibility Score: inf
ROOT
ATOM      1  C   UNL     1       9.017 -14.865  24.408  1.00  0.00     0.000 C 
ENDROOT
BRANCH   1   2
ATOM      2  C   UNL     1       7.738 -14.969  23.555  1.00  0.00     0.000 C 
BRANCH   2   3
ATOM      3  C   UNL     1       7.526 -16.370  22.958  1.00  0.00     0.000 C 
BRANCH   3   4
ATOM      4  C   UNL     1       6.363 -17.135  23.618  1.00  0.00     0.000 C 
BRANCH   4   5
ATOM      5  C   UNL     1       6.765 -18.119  24.732  1.00  0.00     0.000 C 
BRANCH   5   6
ATOM      6  C   UNL     1       7.137 -19.513  24.198  1.00  0.00     0.000 C 
BRANCH   6   7
ATOM      7  C   UNL     1       6.345 -19.889  22.934  1.00  0.00     0.000 C 
BRANCH   7   8
ATOM      8  C   UNL     1       7.246 -20.063  21.698  1.00  0.00     0.000 C 
BRANCH   8   9
ATOM      9  C   UNL     1       7.399 -21.534  21.282  1.00  0.00     0.000 C 
BRANCH   9  10
ATOM     10  C   UNL     1       8.663 -21.782  20.441  1.00  0.00     0.006 C 
BRANCH  10  11
ATOM     11  C   UNL     1       8.567 -21.148  19.047  1.00  0.00     0.053 C 
BRANCH  11  12
ATOM     12  C   UNL     1       9.695 -20.195  18.792  1.00  0.00     0.041 C 
ATOM     13  O   UNL     1       9.607 -18.995  19.165  1.00  0.00    -0.550 OA
ATOM     14  O   UNL     1      10.829 -20.623  18.111  1.00  0.00    -0.550 OA
ENDBRANCH  11  12
ENDBRANCH  10  11
ENDBRANCH   9  10
ENDBRANCH   8   9
ENDBRANCH   7   8
ENDBRANCH   6   7
ENDBRANCH   5   6
ENDBRANCH   4   5
ENDBRANCH   3   4
ENDBRANCH   2   3
ENDBRANCH   1   2
BRANCH   1  15
ATOM     15  C   UNL     1      10.336 -14.773  23.618  1.00  0.00     0.000 C 
BRANCH  15  16
ATOM     16  C   UNL     1      11.260 -15.982  23.847  1.00  0.00     0.000 C 
BRANCH  16  17
ATOM     17  C   UNL     1      10.737 -16.942  24.932  1.00  0.00     0.000 C 
BRANCH  17  18
ATOM     18  C   UNL     1      10.558 -18.405  24.483  1.00  0.00    -0.000 C 
BRANCH  18  19
ATOM     19  C   UNL     1      10.463 -18.560  22.957  1.00  0.00    -0.000 C 
BRANCH  19  20
ATOM     20  C   UNL     1      11.113 -19.874  22.497  1.00  0.00    -0.000 C 
BRANCH  20  21
ATOM     21  C   UNL     1      12.220 -19.646  21.453  1.00  0.00    -0.000 C 
BRANCH  21  22
ATOM     22  C   UNL     1      12.832 -18.227  21.497  1.00  0.00    -0.000 C 
BRANCH  22  23
ATOM     23  C   UNL     1      14.325 -18.209  21.880  1.00  0.00    -0.000 C 
BRANCH  23  24
ATOM     24  C   UNL     1      14.724 -19.236  22.953  1.00  0.00    -0.000 C 
BRANCH  24  25
ATOM     25  C   UNL     1      14.224 -18.856  24.354  1.00  0.00    -0.003 C 
ATOM     26  C   UNL     1      13.829 -20.095  25.152  1.00  0.00     0.004 C 
ENDBRANCH  24  25
ENDBRANCH  23  24
ENDBRANCH  22  23
ENDBRANCH  21  22
ENDBRANCH  20  21
ENDBRANCH  19  20
ENDBRANCH  18  19
ENDBRANCH  17  18
ENDBRANCH  16  17
ENDBRANCH  15  16
ENDBRANCH   1  15
TORSDOF 22
ENDMDL
MODEL 5
REMARK VINA RESULT:    -4.379      2.353      3.719
REMARK INTER + INTRA:         -13.824
REMARK INTER:                  -9.724
REMARK INTRA:                  -4.099
REMARK UNBOUND:                -3.812
REMARK SMILES CCCCCCCCCCCCCCCCCCCCCCCC(=O)[O-]
REMARK SMILES IDX 13 1 14 2 15 3 16 4 17 5 18 6 19 7 20 8 21 9 22 10 23 11
REMARK SMILES IDX 24 12 25 13 26 14 12 15 11 16 10 17 9 18 8 19 7 20 6 21 5 22
REMARK SMILES IDX 4 23 3 24 2 25 1 26
REMARK H PARENT
REMARK Flexibility Score: inf
ROOT
ATOM      1  C   UNL     1       7.120 -19.159  22.070  1.00  0.00     0.000 C 
ENDROOT
BRANCH   1   2
ATOM      2  C   UNL     1       8.274 -18.139  22.079  1.00  0.00     0.000 C 
BRANCH   2   3
ATOM      3  C   UNL     1       8.081 -17.004  21.058  1.00  0.00     0.000 C 
BRANCH   3   4
ATOM      4  C   UNL     1       7.001 -15.990  21.484  1.00  0.00     0.000 C 
BRANCH   4   5
ATOM      5  C   UNL     1       6.975 -15.642  22.983  1.00  0.00     0.000 C 
BRANCH   5   6
ATOM      6  C   UNL     1       7.804 -14.393  23.325  1.00  0.00     0.000 C 
BRANCH   6   7
ATOM      7  C   UNL     1       8.779 -14.633  24.490  1.00  0.00     0.000 C 
BRANCH   7   8
ATOM      8  C   UNL     1      10.047 -15.390  24.057  1.00  0.00     0.000 C 
BRANCH   8   9
ATOM      9  C   UNL     1      10.541 -16.373  25.130  1.00  0.00     0.000 C 
BRANCH   9  10
ATOM     10  C   UNL     1       9.396 -16.928  25.996  1.00  0.00     0.006 C 
BRANCH  10  11
ATOM     11  C   UNL     1       9.027 -18.368  25.618  1.00  0.00     0.053 C 
BRANCH  11  12
ATOM     12  C   UNL     1       7.558 -18.620  25.766  1.00  0.00     0.041 C 
ATOM     13  O   UNL     1       6.754 -17.654  25.852  1.00  0.00    -0.550 OA
ATOM     14  O   UNL     1       7.079 -19.923  25.845  1.00  0.00    -0.550 OA
ENDBRANCH  11  12
ENDBRANCH  10  11
ENDBRANCH   9  10
ENDBRANCH   8   9
ENDBRANCH   7   8
ENDBRANCH   6   7
ENDBRANCH   5   6
ENDBRANCH   4   5
ENDBRANCH   3   4
ENDBRANCH   2   3
ENDBRANCH   1   2
BRANCH   1  15
ATOM     15  C   UNL     1       7.524 -20.621  22.340  1.00  0.00     0.000 C 
BRANCH  15  16
ATOM     16  C   UNL     1       7.506 -21.494  21.074  1.00  0.00     0.000 C 
BRANCH  16  17
ATOM     17  C   UNL     1       8.911 -21.943  20.632  1.00  0.00     0.000 C 
BRANCH  17  18
ATOM     18  C   UNL     1       9.578 -21.057  19.562  1.00  0.00    -0.000 C 
BRANCH  18  19
ATOM     19  C   UNL     1      10.727 -20.203  20.120  1.00  0.00    -0.000 C 
BRANCH  19  20
ATOM     20  C   UNL     1      11.915 -21.084  20.536  1.00  0.00    -0.000 C 
BRANCH  20  21
ATOM     21  C   UNL     1      12.150 -21.070  22.057  1.00  0.00    -0.000 C 
BRANCH  21  22
ATOM     22  C   UNL     1      11.429 -19.913  22.786  1.00  0.00    -0.000 C 
BRANCH  22  23
ATOM     23  C   UNL     1      12.278 -18.633  22.905  1.00  0.00    -0.000 C 
BRANCH  23  24
ATOM     24  C   UNL     1      13.778 -18.878  23.142  1.00  0.00    -0.000 C 
BRANCH  24  25
ATOM     25  C   UNL     1      14.670 -17.928  22.328  1.00  0.00    -0.003 C 
ATOM     26  C   UNL     1      14.313 -17.975  20.846  1.00  0.00     0.004 C 
ENDBRANCH  24  25
ENDBRANCH  23  24
ENDBRANCH  22  23
ENDBRANCH  21  22
ENDBRANCH  20  21
ENDBRANCH  19  20
ENDBRANCH  18  19
ENDBRANCH  17  18
ENDBRANCH  16  17
ENDBRANCH  15  16
ENDBRANCH   1  15
TORSDOF 22
ENDMDL
MODEL 6
REMARK VINA RESULT:    -4.356      2.079      6.402
REMARK INTER + INTRA:         -13.770
REMARK INTER:                  -9.451
REMARK INTRA:                  -4.319
REMARK UNBOUND:                -3.812
REMARK SMILES CCCCCCCCCCCCCCCCCCCCCCCC(=O)[O-]
REMARK SMILES IDX 13 1 14 2 15 3 16 4 17 5 18 6 19 7 20 8 21 9 22 10 23 11
REMARK SMILES IDX 24 12 25 13 26 14 12 15 11 16 10 17 9 18 8 19 7 20 6 21 5 22
REMARK SMILES IDX 4 23 3 24 2 25 1 26
REMARK H PARENT
REMARK Flexibility Score: inf
ROOT
ATOM      1  C   UNL     1       7.331 -21.431  21.276  1.00  0.00     0.000 C 
ENDROOT
BRANCH   1   2
ATOM      2  C   UNL     1       8.560 -22.063  20.596  1.00  0.00     0.000 C 
BRANCH   2   3
ATOM      3  C   UNL     1       9.893 -21.511  21.131  1.00  0.00     0.000 C 
BRANCH   3   4
ATOM      4  C   UNL     1      10.866 -21.098  20.010  1.00  0.00     0.000 C 
BRANCH   4   5
ATOM      5  C   UNL     1      10.211 -20.492  18.756  1.00  0.00     0.000 C 
BRANCH   5   6
ATOM      6  C   UNL     1      10.426 -18.973  18.640  1.00  0.00     0.000 C 
BRANCH   6   7
ATOM      7  C   UNL     1       9.323 -18.166  19.345  1.00  0.00     0.000 C 
BRANCH   7   8
ATOM      8  C   UNL     1       9.882 -17.169  20.375  1.00  0.00     0.000 C 
BRANCH   8   9
ATOM      9  C   UNL     1      10.298 -17.850  21.688  1.00  0.00     0.000 C 
BRANCH   9  10
ATOM     10  C   UNL     1      11.825 -17.873  21.884  1.00  0.00     0.006 C 
BRANCH  10  11
ATOM     11  C   UNL     1      12.271 -18.989  22.837  1.00  0.00     0.053 C 
BRANCH  11  12
ATOM     12  C   UNL     1      13.711 -19.350  22.633  1.00  0.00     0.041 C 
ATOM     13  O   UNL     1      14.022 -20.495  22.210  1.00  0.00    -0.550 OA
ATOM     14  O   UNL     1      14.710 -18.435  22.943  1.00  0.00    -0.550 OA
ENDBRANCH  11  12
ENDBRANCH  10  11
ENDBRANCH   9  10
ENDBRANCH   8   9
ENDBRANCH   7   8
ENDBRANCH   6   7
ENDBRANCH   5   6
ENDBRANCH   4   5
ENDBRANCH   3   4
ENDBRANCH   2   3
ENDBRANCH   1   2
BRANCH   1  15
ATOM     15  C   UNL     1       7.582 -20.087  21.984  1.00  0.00     0.000 C 
BRANCH  15  16
ATOM     16  C   UNL     1       6.420 -19.664  22.901  1.00  0.00     0.000 C 
BRANCH  16  17
ATOM     17  C   UNL     1       6.860 -18.715  24.031  1.00  0.00     0.000 C 
BRANCH  17  18
ATOM     18  C   UNL     1       6.389 -17.256  23.885  1.00  0.00    -0.000 C 
BRANCH  18  19
ATOM     19  C   UNL     1       7.168 -16.476  22.814  1.00  0.00    -0.000 C 
BRANCH  19  20
ATOM     20  C   UNL     1       7.447 -15.038  23.278  1.00  0.00    -0.000 C 
BRANCH  20  21
ATOM     21  C   UNL     1       8.386 -14.987  24.496  1.00  0.00    -0.000 C 
BRANCH  21  22
ATOM     22  C   UNL     1       9.884 -15.086  24.130  1.00  0.00    -0.000 C 
BRANCH  22  23
ATOM     23  C   UNL     1      10.647 -16.160  24.929  1.00  0.00    -0.000 C 
BRANCH  23  24
ATOM     24  C   UNL     1       9.793 -16.922  25.957  1.00  0.00    -0.000 C 
BRANCH  24  25
ATOM     25  C   UNL     1      10.000 -18.442  25.891  1.00  0.00    -0.003 C 
ATOM     26  C   UNL     1      10.921 -18.919  27.010  1.00  0.00     0.004 C 
ENDBRANCH  24  25
ENDBRANCH  23  24
ENDBRANCH  22  23
ENDBRANCH  21  22
ENDBRANCH  20  21
ENDBRANCH  19  20
ENDBRANCH  18  19
ENDBRANCH  17  18
ENDBRANCH  16  17
ENDBRANCH  15  16
ENDBRANCH   1  15
TORSDOF 22
ENDMDL
MODEL 7
REMARK VINA RESULT:    -4.346      2.367      3.818
REMARK INTER + INTRA:         -13.748
REMARK INTER:                  -9.440
REMARK INTRA:                  -4.307
REMARK UNBOUND:                -3.812
REMARK SMILES CCCCCCCCCCCCCCCCCCCCCCCC(=O)[O-]
REMARK SMILES IDX 13 1 14 2 15 3 16 4 17 5 18 6 19 7 20 8 21 9 22 10 23 11
REMARK SMILES IDX 24 12 25 13 26 14 12 15 11 16 10 17 9 18 8 19 7 20 6 21 5 22
REMARK SMILES IDX 4 23 3 24 2 25 1 26
REMARK H PARENT
REMARK Flexibility Score: inf
ROOT
ATOM      1  C   UNL     1       7.972 -18.031  21.306  1.00  0.00     0.000 C 
ENDROOT
BRANCH   1   2
ATOM      2  C   UNL     1       9.487 -17.952  21.576  1.00  0.00     0.000 C 
BRANCH   2   3
ATOM      3  C   UNL     1       9.946 -18.889  22.707  1.00  0.00     0.000 C 
BRANCH   3   4
ATOM      4  C   UNL     1      11.452 -18.775  23.007  1.00  0.00     0.000 C 
BRANCH   4   5
ATOM      5  C   UNL     1      12.111 -17.446  22.596  1.00  0.00     0.000 C 
BRANCH   5   6
ATOM      6  C   UNL     1      12.231 -16.449  23.761  1.00  0.00     0.000 C 
BRANCH   6   7
ATOM      7  C   UNL     1      11.727 -17.034  25.092  1.00  0.00     0.000 C 
BRANCH   7   8
ATOM      8  C   UNL     1      10.443 -16.351  25.592  1.00  0.00     0.000 C 
BRANCH   8   9
ATOM      9  C   UNL     1       9.768 -15.499  24.506  1.00  0.00     0.000 C 
BRANCH   9  10
ATOM     10  C   UNL     1       8.246 -15.719  24.443  1.00  0.00     0.006 C 
BRANCH  10  11
ATOM     11  C   UNL     1       7.772 -16.789  25.435  1.00  0.00     0.053 C 
BRANCH  11  12
ATOM     12  C   UNL     1       6.853 -17.778  24.786  1.00  0.00     0.041 C 
ATOM     13  O   UNL     1       5.863 -17.379  24.118  1.00  0.00    -0.550 OA
ATOM     14  O   UNL     1       7.068 -19.142  24.948  1.00  0.00    -0.550 OA
ENDBRANCH  11  12
ENDBRANCH  10  11
ENDBRANCH   9  10
ENDBRANCH   8   9
ENDBRANCH   7   8
ENDBRANCH   6   7
ENDBRANCH   5   6
ENDBRANCH   4   5
ENDBRANCH   3   4
ENDBRANCH   2   3
ENDBRANCH   1   2
BRANCH   1  15
ATOM     15  C   UNL     1       7.505 -19.262  20.507  1.00  0.00     0.000 C 
BRANCH  15  16
ATOM     16  C   UNL     1       6.870 -20.349  21.393  1.00  0.00     0.000 C 
BRANCH  16  17
ATOM     17  C   UNL     1       7.525 -21.731  21.213  1.00  0.00     0.000 C 
BRANCH  17  18
ATOM     18  C   UNL     1       8.789 -21.749  20.331  1.00  0.00    -0.000 C 
BRANCH  18  19
ATOM     19  C   UNL     1      10.043 -22.218  21.086  1.00  0.00    -0.000 C 
BRANCH  19  20
ATOM     20  C   UNL     1      11.306 -21.554  20.518  1.00  0.00    -0.000 C 
BRANCH  20  21
ATOM     21  C   UNL     1      11.001 -20.649  19.312  1.00  0.00    -0.000 C 
BRANCH  21  22
ATOM     22  C   UNL     1      11.943 -19.429  19.198  1.00  0.00    -0.000 C 
BRANCH  22  23
ATOM     23  C   UNL     1      13.436 -19.803  19.134  1.00  0.00    -0.000 C 
BRANCH  23  24
ATOM     24  C   UNL     1      14.278 -19.286  20.313  1.00  0.00    -0.000 C 
BRANCH  24  25
ATOM     25  C   UNL     1      15.047 -18.001  19.974  1.00  0.00    -0.003 C 
ATOM     26  C   UNL     1      16.553 -18.213  20.098  1.00  0.00     0.004 C 
ENDBRANCH  24  25
ENDBRANCH  23  24
ENDBRANCH  22  23
ENDBRANCH  21  22
ENDBRANCH  20  21
ENDBRANCH  19  20
ENDBRANCH  18  19
ENDBRANCH  17  18
ENDBRANCH  16  17
ENDBRANCH  15  16
ENDBRANCH   1  15
TORSDOF 22
ENDMDL
MODEL 8
REMARK VINA RESULT:    -4.337      3.419      5.665
REMARK INTER + INTRA:         -13.726
REMARK INTER:                  -9.623
REMARK INTRA:                  -4.103
REMARK UNBOUND:                -3.812
REMARK SMILES CCCCCCCCCCCCCCCCCCCCCCCC(=O)[O-]
REMARK SMILES IDX 13 1 14 2 15 3 16 4 17 5 18 6 19 7 20 8 21 9 22 10 23 11
REMARK SMILES IDX 24 12 25 13 26 14 12 15 11 16 10 17 9 18 8 19 7 20 6 21 5 22
REMARK SMILES IDX 4 23 3 24 2 25 1 26
REMARK H PARENT
REMARK Flexibility Score: inf
ROOT
ATOM      1  C   UNL     1      10.350 -17.438  25.115  1.00  0.00     0.000 C 
ENDROOT
BRANCH   1   2
ATOM      2  C   UNL     1      10.514 -15.906  25.097  1.00  0.00     0.000 C 
BRANCH   2   3
ATOM      3  C   UNL     1       9.237 -15.169  24.660  1.00  0.00     0.000 C 
BRANCH   3   4
ATOM      4  C   UNL     1       7.960 -16.007  24.862  1.00  0.00     0.000 C 
BRANCH   4   5
ATOM      5  C   UNL     1       7.113 -16.237  23.598  1.00  0.00     0.000 C 
BRANCH   5   6
ATOM      6  C   UNL     1       6.291 -17.536  23.653  1.00  0.00     0.000 C 
BRANCH   6   7
ATOM      7  C   UNL     1       6.894 -18.575  24.613  1.00  0.00     0.000 C 
BRANCH   7   8
ATOM      8  C   UNL     1       6.786 -20.013  24.078  1.00  0.00     0.000 C 
BRANCH   8   9
ATOM      9  C   UNL     1       6.286 -20.065  22.626  1.00  0.00     0.000 C 
BRANCH   9  10
ATOM     10  C   UNL     1       7.221 -20.873  21.708  1.00  0.00     0.006 C 
BRANCH  10  11
ATOM     11  C   UNL     1       7.722 -20.047  20.516  1.00  0.00     0.053 C 
BRANCH  11  12
ATOM     12  C   UNL     1       8.714 -20.809  19.691  1.00  0.00     0.041 C 
ATOM     13  O   UNL     1       8.418 -21.175  18.523  1.00  0.00    -0.550 OA
ATOM     14  O   UNL     1       9.952 -21.146  20.225  1.00  0.00    -0.550 OA
ENDBRANCH  11  12
ENDBRANCH  10  11
ENDBRANCH   9  10
ENDBRANCH   8   9
ENDBRANCH   7   8
ENDBRANCH   6   7
ENDBRANCH   5   6
ENDBRANCH   4   5
ENDBRANCH   3   4
ENDBRANCH   2   3
ENDBRANCH   1   2
BRANCH   1  15
ATOM     15  C   UNL     1      10.992 -18.188  23.934  1.00  0.00     0.000 C 
BRANCH  15  16
ATOM     16  C   UNL     1      10.009 -18.444  22.778  1.00  0.00     0.000 C 
BRANCH  16  17
ATOM     17  C   UNL     1      10.468 -17.819  21.448  1.00  0.00     0.000 C 
BRANCH  17  18
ATOM     18  C   UNL     1      10.644 -16.288  21.467  1.00  0.00    -0.000 C 
BRANCH  18  19
ATOM     19  C   UNL     1      12.048 -15.838  21.034  1.00  0.00    -0.000 C 
BRANCH  19  20
ATOM     20  C   UNL     1      12.788 -15.155  22.194  1.00  0.00    -0.000 C 
BRANCH  20  21
ATOM     21  C   UNL     1      13.727 -16.121  22.939  1.00  0.00    -0.000 C 
BRANCH  21  22
ATOM     22  C   UNL     1      14.471 -17.105  22.008  1.00  0.00    -0.000 C 
BRANCH  22  23
ATOM     23  C   UNL     1      14.072 -18.578  22.219  1.00  0.00    -0.000 C 
BRANCH  23  24
ATOM     24  C   UNL     1      15.243 -19.574  22.161  1.00  0.00    -0.000 C 
BRANCH  24  25
ATOM     25  C   UNL     1      16.578 -18.899  21.812  1.00  0.00    -0.003 C 
ATOM     26  C   UNL     1      17.661 -19.272  22.820  1.00  0.00     0.004 C 
ENDBRANCH  24  25
ENDBRANCH  23  24
ENDBRANCH  22  23
ENDBRANCH  21  22
ENDBRANCH  20  21
ENDBRANCH  19  20
ENDBRANCH  18  19
ENDBRANCH  17  18
ENDBRANCH  16  17
ENDBRANCH  15  16
ENDBRANCH   1  15
TORSDOF 22
ENDMDL
MODEL 9
REMARK VINA RESULT:    -4.299      2.857      4.727
REMARK INTER + INTRA:         -13.641
REMARK INTER:                  -9.158
REMARK INTRA:                  -4.482
REMARK UNBOUND:                -3.812
REMARK SMILES CCCCCCCCCCCCCCCCCCCCCCCC(=O)[O-]
REMARK SMILES IDX 13 1 14 2 15 3 16 4 17 5 18 6 19 7 20 8 21 9 22 10 23 11
REMARK SMILES IDX 24 12 25 13 26 14 12 15 11 16 10 17 9 18 8 19 7 20 6 21 5 22
REMARK SMILES IDX 4 23 3 24 2 25 1 26
REMARK H PARENT
REMARK Flexibility Score: inf
ROOT
ATOM      1  C   UNL     1       7.793 -18.273  20.602  1.00  0.00     0.000 C 
ENDROOT
BRANCH   1   2
ATOM      2  C   UNL     1       7.527 -19.551  21.421  1.00  0.00     0.000 C 
BRANCH   2   3
ATOM      3  C   UNL     1       8.465 -19.695  22.632  1.00  0.00     0.000 C 
BRANCH   3   4
ATOM      4  C   UNL     1       9.955 -19.670  22.244  1.00  0.00     0.000 C 
BRANCH   4   5
ATOM      5  C   UNL     1      10.918 -19.199  23.349  1.00  0.00     0.000 C 
BRANCH   5   6
ATOM      6  C   UNL     1      11.826 -18.041  22.901  1.00  0.00     0.000 C 
BRANCH   6   7
ATOM      7  C   UNL     1      11.314 -17.349  21.627  1.00  0.00     0.000 C 
BRANCH   7   8
ATOM      8  C   UNL     1      10.680 -15.976  21.910  1.00  0.00     0.000 C 
BRANCH   8   9
ATOM      9  C   UNL     1      10.936 -15.494  23.347  1.00  0.00     0.000 C 
BRANCH   9  10
ATOM     10  C   UNL     1       9.640 -15.110  24.082  1.00  0.00     0.006 C 
BRANCH  10  11
ATOM     11  C   UNL     1       8.695 -16.305  24.256  1.00  0.00     0.053 C 
BRANCH  11  12
ATOM     12  C   UNL     1       7.354 -16.048  23.638  1.00  0.00     0.041 C 
ATOM     13  O   UNL     1       7.148 -14.986  22.993  1.00  0.00    -0.550 OA
ATOM     14  O   UNL     1       6.322 -16.964  23.804  1.00  0.00    -0.550 OA
ENDBRANCH  11  12
ENDBRANCH  10  11
ENDBRANCH   9  10
ENDBRANCH   8   9
ENDBRANCH   7   8
ENDBRANCH   6   7
ENDBRANCH   5   6
ENDBRANCH   4   5
ENDBRANCH   3   4
ENDBRANCH   2   3
ENDBRANCH   1   2
BRANCH   1  15
ATOM     15  C   UNL     1       8.368 -18.497  19.191  1.00  0.00     0.000 C 
BRANCH  15  16
ATOM     16  C   UNL     1       8.518 -19.986  18.832  1.00  0.00     0.000 C 
BRANCH  16  17
ATOM     17  C   UNL     1       9.966 -20.380  18.488  1.00  0.00     0.000 C 
BRANCH  17  18
ATOM     18  C   UNL     1      10.958 -19.205  18.379  1.00  0.00    -0.000 C 
BRANCH  18  19
ATOM     19  C   UNL     1      12.424 -19.637  18.546  1.00  0.00    -0.000 C 
BRANCH  19  20
ATOM     20  C   UNL     1      12.577 -20.617  19.720  1.00  0.00    -0.000 C 
BRANCH  20  21
ATOM     21  C   UNL     1      13.731 -20.229  20.660  1.00  0.00    -0.000 C 
BRANCH  21  22
ATOM     22  C   UNL     1      14.697 -19.183  20.058  1.00  0.00    -0.000 C 
BRANCH  22  23
ATOM     23  C   UNL     1      15.068 -18.049  21.034  1.00  0.00    -0.000 C 
BRANCH  23  24
ATOM     24  C   UNL     1      15.504 -18.522  22.431  1.00  0.00    -0.000 C 
BRANCH  24  25
ATOM     25  C   UNL     1      16.931 -19.091  22.445  1.00  0.00    -0.003 C 
ATOM     26  C   UNL     1      16.992 -20.397  23.233  1.00  0.00     0.004 C 
ENDBRANCH  24  25
ENDBRANCH  23  24
ENDBRANCH  22  23
ENDBRANCH  21  22
ENDBRANCH  20  21
ENDBRANCH  19  20
ENDBRANCH  18  19
ENDBRANCH  17  18
ENDBRANCH  16  17
ENDBRANCH  15  16
ENDBRANCH   1  15
TORSDOF 22
ENDMDL
