MODEL 1
REMARK VINA RESULT:    -0.207      0.000      0.000
REMARK INTER + INTRA:          -1.427
REMARK INTER:                  -0.351
REMARK INTRA:                  -1.075
REMARK UNBOUND:                -1.075
REMARK SMILES CCCCCCCCCCCCCC(=O)[O-]
REMARK SMILES IDX 8 1 9 2 10 3 11 4 12 5 13 6 14 7 15 8 16 9 7 10 6 11 5 12
REMARK SMILES IDX 4 13 3 14 2 15 1 16
REMARK H PARENT
REMARK Flexibility Score: inf
ROOT
ATOM      1  C   UNL     1      20.000  53.961  32.835  1.00  0.00     0.000 C 
ENDROOT
BRANCH   1   2
ATOM      2  C   UNL     1      20.148  54.915  31.640  1.00  0.00     0.000 C 
BRANCH   2   3
ATOM      3  C   UNL     1      21.082  54.359  30.553  1.00  0.00     0.000 C 
BRANCH   3   4
ATOM      4  C   UNL     1      20.490  54.498  29.139  1.00  0.00     0.000 C 
BRANCH   4   5
ATOM      5  C   UNL     1      20.773  53.271  28.253  1.00  0.00     0.006 C 
BRANCH   5   6
ATOM      6  C   UNL     1      22.052  52.505  28.627  1.00  0.00     0.053 C 
BRANCH   6   7
ATOM      7  C   UNL     1      22.862  52.140  27.421  1.00  0.00     0.041 C 
ATOM      8  O   UNL     1      23.163  53.019  26.571  1.00  0.00    -0.550 OA
ATOM      9  O   UNL     1      23.253  50.823  27.217  1.00  0.00    -0.550 OA
ENDBRANCH   6   7
ENDBRANCH   5   6
ENDBRANCH   4   5
ENDBRANCH   3   4
ENDBRANCH   2   3
ENDBRANCH   1   2
BRANCH   1  10
ATOM     10  C   UNL     1      20.239  54.698  34.158  1.00  0.00     0.000 C 
BRANCH  10  11
ATOM     11  C   UNL     1      21.472  54.144  34.882  1.00  0.00    -0.000 C 
BRANCH  11  12
ATOM     12  C   UNL     1      22.649  55.123  34.791  1.00  0.00    -0.000 C 
BRANCH  12  13
ATOM     13  C   UNL     1      23.983  54.372  34.698  1.00  0.00    -0.000 C 
BRANCH  13  14
ATOM     14  C   UNL     1      24.888  54.989  33.624  1.00  0.00    -0.000 C 
BRANCH  14  15
ATOM     15  C   UNL     1      24.150  55.112  32.288  1.00  0.00    -0.003 C 
ATOM     16  C   UNL     1      24.948  54.473  31.155  1.00  0.00     0.004 C 
ENDBRANCH  14  15
ENDBRANCH  13  14
ENDBRANCH  12  13
ENDBRANCH  11  12
ENDBRANCH  10  11
ENDBRANCH   1  10
TORSDOF 12
ENDMDL
MODEL 2
REMARK VINA RESULT:    -0.181     23.528     26.391
REMARK INTER + INTRA:          -1.383
REMARK INTER:                  -0.207
REMARK INTRA:                  -1.176
REMARK UNBOUND:                -1.075
REMARK SMILES CCCCCCCCCCCCCC(=O)[O-]
REMARK SMILES IDX 8 1 9 2 10 3 11 4 12 5 13 6 14 7 15 8 16 9 7 10 6 11 5 12
REMARK SMILES IDX 4 13 3 14 2 15 1 16
REMARK H PARENT
REMARK Flexibility Score: inf
ROOT
ATOM      1  C   UNL     1      38.369  40.515  18.832  1.00  0.00     0.000 C 
ENDROOT
BRANCH   1   2
ATOM      2  C   UNL     1      37.204  40.589  19.830  1.00  0.00     0.000 C 
BRANCH   2   3
ATOM      3  C   UNL     1      36.061  39.625  19.474  1.00  0.00     0.000 C 
BRANCH   3   4
ATOM      4  C   UNL     1      35.730  38.652  20.620  1.00  0.00     0.000 C 
BRANCH   4   5
ATOM      5  C   UNL     1      36.209  37.217  20.338  1.00  0.00     0.006 C 
BRANCH   5   6
ATOM      6  C   UNL     1      37.697  36.977  20.642  1.00  0.00     0.053 C 
BRANCH   6   7
ATOM      7  C   UNL     1      37.999  35.527  20.862  1.00  0.00     0.041 C 
ATOM      8  O   UNL     1      37.374  34.875  21.739  1.00  0.00    -0.550 OA
ATOM      9  O   UNL     1      38.996  34.904  20.122  1.00  0.00    -0.550 OA
ENDBRANCH   6   7
ENDBRANCH   5   6
ENDBRANCH   4   5
ENDBRANCH   3   4
ENDBRANCH   2   3
ENDBRANCH   1   2
BRANCH   1  10
ATOM     10  C   UNL     1      39.373  39.429  19.240  1.00  0.00     0.000 C 
BRANCH  10  11
ATOM     11  C   UNL     1      40.123  38.887  18.017  1.00  0.00    -0.000 C 
BRANCH  11  12
ATOM     12  C   UNL     1      39.143  38.448  16.921  1.00  0.00    -0.000 C 
BRANCH  12  13
ATOM     13  C   UNL     1      39.733  37.309  16.080  1.00  0.00    -0.000 C 
BRANCH  13  14
ATOM     14  C   UNL     1      39.577  35.961  16.794  1.00  0.00    -0.000 C 
BRANCH  14  15
ATOM     15  C   UNL     1      38.535  35.084  16.092  1.00  0.00    -0.003 C 
ATOM     16  C   UNL     1      37.301  34.884  16.967  1.00  0.00     0.004 C 
ENDBRANCH  14  15
ENDBRANCH  13  14
ENDBRANCH  12  13
ENDBRANCH  11  12
ENDBRANCH  10  11
ENDBRANCH   1  10
TORSDOF 12
ENDMDL
MODEL 3
REMARK VINA RESULT:    -0.058      1.121      3.036
REMARK INTER + INTRA:          -1.174
REMARK INTER:                  -0.230
REMARK INTRA:                  -0.944
REMARK UNBOUND:                -1.075
REMARK SMILES CCCCCCCCCCCCCC(=O)[O-]
REMARK SMILES IDX 8 1 9 2 10 3 11 4 12 5 13 6 14 7 15 8 16 9 7 10 6 11 5 12
REMARK SMILES IDX 4 13 3 14 2 15 1 16
REMARK H PARENT
REMARK Flexibility Score: inf
ROOT
ATOM      1  C   UNL     1      23.344  55.124  31.729  1.00  0.00     0.000 C 
ENDROOT
BRANCH   1   2
ATOM      2  C   UNL     1      21.921  54.958  32.283  1.00  0.00     0.000 C 
BRANCH   2   3
ATOM      3  C   UNL     1      20.919  54.506  31.210  1.00  0.00     0.000 C 
BRANCH   3   4
ATOM      4  C   UNL     1      21.442  53.326  30.372  1.00  0.00     0.000 C 
BRANCH   4   5
ATOM      5  C   UNL     1      21.451  53.627  28.862  1.00  0.00     0.006 C 
BRANCH   5   6
ATOM      6  C   UNL     1      21.380  52.376  27.971  1.00  0.00     0.053 C 
BRANCH   6   7
ATOM      7  C   UNL     1      22.693  52.080  27.314  1.00  0.00     0.041 C 
ATOM      8  O   UNL     1      23.299  51.004  27.564  1.00  0.00    -0.550 OA
ATOM      9  O   UNL     1      23.266  53.008  26.453  1.00  0.00    -0.550 OA
ENDBRANCH   6   7
ENDBRANCH   5   6
ENDBRANCH   4   5
ENDBRANCH   3   4
ENDBRANCH   2   3
ENDBRANCH   1   2
BRANCH   1  10
ATOM     10  C   UNL     1      24.384  55.046  32.853  1.00  0.00     0.000 C 
BRANCH  10  11
ATOM     11  C   UNL     1      23.851  54.235  34.041  1.00  0.00    -0.000 C 
BRANCH  11  12
ATOM     12  C   UNL     1      23.798  55.092  35.312  1.00  0.00    -0.000 C 
BRANCH  12  13
ATOM     13  C   UNL     1      22.528  54.800  36.119  1.00  0.00    -0.000 C 
BRANCH  13  14
ATOM     14  C   UNL     1      22.212  53.299  36.124  1.00  0.00    -0.000 C 
BRANCH  14  15
ATOM     15  C   UNL     1      20.703  53.055  36.025  1.00  0.00    -0.003 C 
ATOM     16  C   UNL     1      20.197  53.293  34.605  1.00  0.00     0.004 C 
ENDBRANCH  14  15
ENDBRANCH  13  14
ENDBRANCH  12  13
ENDBRANCH  11  12
ENDBRANCH  10  11
ENDBRANCH   1  10
TORSDOF 12
ENDMDL
MODEL 4
REMARK VINA RESULT:     0.504      3.465      6.801
REMARK INTER + INTRA:          -0.218
REMARK INTER:                   0.274
REMARK INTRA:                  -0.492
REMARK UNBOUND:                -1.075
REMARK SMILES CCCCCCCCCCCCCC(=O)[O-]
REMARK SMILES IDX 8 1 9 2 10 3 11 4 12 5 13 6 14 7 15 8 16 9 7 10 6 11 5 12
REMARK SMILES IDX 4 13 3 14 2 15 1 16
REMARK H PARENT
REMARK Flexibility Score: inf
ROOT
ATOM      1  C   UNL     1      24.416  53.869  30.799  1.00  0.00     0.000 C 
ENDROOT
BRANCH   1   2
ATOM      2  C   UNL     1      24.780  54.963  31.813  1.00  0.00     0.000 C 
BRANCH   2   3
ATOM      3  C   UNL     1      23.719  55.125  32.913  1.00  0.00     0.000 C 
BRANCH   3   4
ATOM      4  C   UNL     1      23.854  54.069  34.025  1.00  0.00     0.000 C 
BRANCH   4   5
ATOM      5  C   UNL     1      23.244  54.531  35.360  1.00  0.00     0.006 C 
BRANCH   5   6
ATOM      6  C   UNL     1      22.156  53.596  35.914  1.00  0.00     0.053 C 
BRANCH   6   7
ATOM      7  C   UNL     1      20.838  53.803  35.234  1.00  0.00     0.041 C 
ATOM      8  O   UNL     1      19.925  54.453  35.809  1.00  0.00    -0.550 OA
ATOM      9  O   UNL     1      20.605  53.250  33.982  1.00  0.00    -0.550 OA
ENDBRANCH   6   7
ENDBRANCH   5   6
ENDBRANCH   4   5
ENDBRANCH   3   4
ENDBRANCH   2   3
ENDBRANCH   1   2
BRANCH   1  10
ATOM     10  C   UNL     1      22.926  53.514  30.883  1.00  0.00     0.000 C 
BRANCH  10  11
ATOM     11  C   UNL     1      22.418  52.954  29.550  1.00  0.00    -0.000 C 
BRANCH  11  12
ATOM     12  C   UNL     1      23.502  52.122  28.853  1.00  0.00    -0.000 C 
BRANCH  12  13
ATOM     13  C   UNL     1      23.131  51.850  27.390  1.00  0.00    -0.000 C 
BRANCH  13  14
ATOM     14  C   UNL     1      22.810  53.155  26.652  1.00  0.00    -0.000 C 
BRANCH  14  15
ATOM     15  C   UNL     1      23.619  53.265  25.355  1.00  0.00    -0.003 C 
ATOM     16  C   UNL     1      23.278  54.547  24.599  1.00  0.00     0.004 C 
ENDBRANCH  14  15
ENDBRANCH  13  14
ENDBRANCH  12  13
ENDBRANCH  11  12
ENDBRANCH  10  11
ENDBRANCH   1  10
TORSDOF 12
ENDMDL
MODEL 5
REMARK VINA RESULT:     0.615      3.301      6.390
REMARK INTER + INTRA:          -0.029
REMARK INTER:                   0.155
REMARK INTRA:                  -0.183
REMARK UNBOUND:                -1.075
REMARK SMILES CCCCCCCCCCCCCC(=O)[O-]
REMARK SMILES IDX 8 1 9 2 10 3 11 4 12 5 13 6 14 7 15 8 16 9 7 10 6 11 5 12
REMARK SMILES IDX 4 13 3 14 2 15 1 16
REMARK H PARENT
REMARK Flexibility Score: inf
ROOT
ATOM      1  C   UNL     1      23.274  54.498  31.314  1.00  0.00     0.000 C 
ENDROOT
BRANCH   1   2
ATOM      2  C   UNL     1      24.609  54.807  32.007  1.00  0.00     0.000 C 
BRANCH   2   3
ATOM      3  C   UNL     1      24.440  55.125  33.501  1.00  0.00     0.000 C 
BRANCH   3   4
ATOM      4  C   UNL     1      23.650  54.037  34.250  1.00  0.00     0.000 C 
BRANCH   4   5
ATOM      5  C   UNL     1      23.482  54.350  35.748  1.00  0.00     0.006 C 
BRANCH   5   6
ATOM      6  C   UNL     1      22.105  54.924  36.121  1.00  0.00     0.053 C 
BRANCH   6   7
ATOM      7  C   UNL     1      20.985  54.137  35.513  1.00  0.00     0.041 C 
ATOM      8  O   UNL     1      20.955  52.884  35.630  1.00  0.00    -0.550 OA
ATOM      9  O   UNL     1      19.994  54.785  34.787  1.00  0.00    -0.550 OA
ENDBRANCH   6   7
ENDBRANCH   5   6
ENDBRANCH   4   5
ENDBRANCH   3   4
ENDBRANCH   2   3
ENDBRANCH   1   2
BRANCH   1  10
ATOM     10  C   UNL     1      22.094  55.042  32.128  1.00  0.00     0.000 C 
BRANCH  10  11
ATOM     11  C   UNL     1      20.794  54.990  31.316  1.00  0.00    -0.000 C 
BRANCH  11  12
ATOM     12  C   UNL     1      20.792  53.791  30.359  1.00  0.00    -0.000 C 
BRANCH  12  13
ATOM     13  C   UNL     1      20.554  54.243  28.913  1.00  0.00    -0.000 C 
BRANCH  13  14
ATOM     14  C   UNL     1      21.115  53.219  27.918  1.00  0.00    -0.000 C 
BRANCH  14  15
ATOM     15  C   UNL     1      22.323  52.485  28.507  1.00  0.00    -0.003 C 
ATOM     16  C   UNL     1      22.860  51.437  27.536  1.00  0.00     0.004 C 
ENDBRANCH  14  15
ENDBRANCH  13  14
ENDBRANCH  12  13
ENDBRANCH  11  12
ENDBRANCH  10  11
ENDBRANCH   1  10
TORSDOF 12
ENDMDL
MODEL 6
REMARK VINA RESULT:     0.701      3.331      6.005
REMARK INTER + INTRA:           0.118
REMARK INTER:                   0.067
REMARK INTRA:                   0.051
REMARK UNBOUND:                -1.075
REMARK SMILES CCCCCCCCCCCCCC(=O)[O-]
REMARK SMILES IDX 8 1 9 2 10 3 11 4 12 5 13 6 14 7 15 8 16 9 7 10 6 11 5 12
REMARK SMILES IDX 4 13 3 14 2 15 1 16
REMARK H PARENT
REMARK Flexibility Score: inf
ROOT
ATOM      1  C   UNL     1      20.892  54.014  31.785  1.00  0.00     0.000 C 
ENDROOT
BRANCH   1   2
ATOM      2  C   UNL     1      20.203  54.484  33.074  1.00  0.00     0.000 C 
BRANCH   2   3
ATOM      3  C   UNL     1      20.338  53.469  34.220  1.00  0.00     0.000 C 
BRANCH   3   4
ATOM      4  C   UNL     1      20.899  54.101  35.506  1.00  0.00     0.000 C 
BRANCH   4   5
ATOM      5  C   UNL     1      22.014  55.125  35.228  1.00  0.00     0.006 C 
BRANCH   5   6
ATOM      6  C   UNL     1      23.253  54.966  36.125  1.00  0.00     0.053 C 
BRANCH   6   7
ATOM      7  C   UNL     1      24.503  54.767  35.325  1.00  0.00     0.041 C 
ATOM      8  O   UNL     1      24.435  54.533  34.089  1.00  0.00    -0.550 OA
ATOM      9  O   UNL     1      25.744  54.804  35.950  1.00  0.00    -0.550 OA
ENDBRANCH   6   7
ENDBRANCH   5   6
ENDBRANCH   4   5
ENDBRANCH   3   4
ENDBRANCH   2   3
ENDBRANCH   1   2
BRANCH   1  10
ATOM     10  C   UNL     1      22.147  54.849  31.497  1.00  0.00     0.000 C 
BRANCH  10  11
ATOM     11  C   UNL     1      23.420  54.029  31.740  1.00  0.00    -0.000 C 
BRANCH  11  12
ATOM     12  C   UNL     1      24.187  53.804  30.431  1.00  0.00    -0.000 C 
BRANCH  12  13
ATOM     13  C   UNL     1      23.744  52.504  29.750  1.00  0.00    -0.000 C 
BRANCH  13  14
ATOM     14  C   UNL     1      22.407  52.693  29.022  1.00  0.00    -0.000 C 
BRANCH  14  15
ATOM     15  C   UNL     1      22.548  52.389  27.527  1.00  0.00    -0.003 C 
ATOM     16  C   UNL     1      23.433  51.168  27.293  1.00  0.00     0.004 C 
ENDBRANCH  14  15
ENDBRANCH  13  14
ENDBRANCH  12  13
ENDBRANCH  11  12
ENDBRANCH  10  11
ENDBRANCH   1  10
TORSDOF 12
ENDMDL
MODEL 7
REMARK VINA RESULT:     0.984      1.250      2.039
REMARK INTER + INTRA:           0.599
REMARK INTER:                   1.192
REMARK INTRA:                  -0.593
REMARK UNBOUND:                -1.075
REMARK SMILES CCCCCCCCCCCCCC(=O)[O-]
REMARK SMILES IDX 8 1 9 2 10 3 11 4 12 5 13 6 14 7 15 8 16 9 7 10 6 11 5 12
REMARK SMILES IDX 4 13 3 14 2 15 1 16
REMARK H PARENT
REMARK Flexibility Score: inf
ROOT
ATOM      1  C   UNL     1      21.071  54.227  31.188  1.00  0.00     0.000 C 
ENDROOT
BRANCH   1   2
ATOM      2  C   UNL     1      19.875  54.973  30.579  1.00  0.00     0.000 C 
BRANCH   2   3
ATOM      3  C   UNL     1      19.987  55.124  29.054  1.00  0.00     0.000 C 
BRANCH   3   4
ATOM      4  C   UNL     1      20.035  53.767  28.328  1.00  0.00     0.000 C 
BRANCH   4   5
ATOM      5  C   UNL     1      21.391  53.503  27.649  1.00  0.00     0.006 C 
BRANCH   5   6
ATOM      6  C   UNL     1      21.923  52.074  27.839  1.00  0.00     0.053 C 
BRANCH   6   7
ATOM      7  C   UNL     1      23.160  51.824  27.034  1.00  0.00     0.041 C 
ATOM      8  O   UNL     1      23.488  52.618  26.113  1.00  0.00    -0.550 OA
ATOM      9  O   UNL     1      23.933  50.695  27.276  1.00  0.00    -0.550 OA
ENDBRANCH   6   7
ENDBRANCH   5   6
ENDBRANCH   4   5
ENDBRANCH   3   4
ENDBRANCH   2   3
ENDBRANCH   1   2
BRANCH   1  10
ATOM     10  C   UNL     1      21.641  54.990  32.390  1.00  0.00     0.000 C 
BRANCH  10  11
ATOM     11  C   UNL     1      20.643  55.006  33.555  1.00  0.00    -0.000 C 
BRANCH  11  12
ATOM     12  C   UNL     1      20.647  53.665  34.301  1.00  0.00    -0.000 C 
BRANCH  12  13
ATOM     13  C   UNL     1      21.836  53.576  35.264  1.00  0.00    -0.000 C 
BRANCH  13  14
ATOM     14  C   UNL     1      22.311  54.973  35.684  1.00  0.00    -0.000 C 
BRANCH  14  15
ATOM     15  C   UNL     1      23.841  55.058  35.680  1.00  0.00    -0.003 C 
ATOM     16  C   UNL     1      24.391  55.028  34.257  1.00  0.00     0.004 C 
ENDBRANCH  14  15
ENDBRANCH  13  14
ENDBRANCH  12  13
ENDBRANCH  11  12
ENDBRANCH  10  11
ENDBRANCH   1  10
TORSDOF 12
ENDMDL
MODEL 8
REMARK VINA RESULT:     1.289      3.387      6.448
REMARK INTER + INTRA:           1.117
REMARK INTER:                   1.927
REMARK INTRA:                  -0.810
REMARK UNBOUND:                -1.075
REMARK SMILES CCCCCCCCCCCCCC(=O)[O-]
REMARK SMILES IDX 8 1 9 2 10 3 11 4 12 5 13 6 14 7 15 8 16 9 7 10 6 11 5 12
REMARK SMILES IDX 4 13 3 14 2 15 1 16
REMARK H PARENT
REMARK Flexibility Score: inf
ROOT
ATOM      1  C   UNL     1      21.402  53.724  31.193  1.00  0.00     0.000 C 
ENDROOT
BRANCH   1   2
ATOM      2  C   UNL     1      20.978  54.721  32.281  1.00  0.00     0.000 C 
BRANCH   2   3
ATOM      3  C   UNL     1      20.060  54.086  33.338  1.00  0.00     0.000 C 
BRANCH   3   4
ATOM      4  C   UNL     1      20.512  54.397  34.776  1.00  0.00     0.000 C 
BRANCH   4   5
ATOM      5  C   UNL     1      21.869  55.122  34.829  1.00  0.00     0.006 C 
BRANCH   5   6
ATOM      6  C   UNL     1      22.955  54.370  35.616  1.00  0.00     0.053 C 
BRANCH   6   7
ATOM      7  C   UNL     1      24.332  54.698  35.126  1.00  0.00     0.041 C 
ATOM      8  O   UNL     1      25.293  54.768  35.937  1.00  0.00    -0.550 OA
ATOM      9  O   UNL     1      24.548  54.960  33.779  1.00  0.00    -0.550 OA
ENDBRANCH   6   7
ENDBRANCH   5   6
ENDBRANCH   4   5
ENDBRANCH   3   4
ENDBRANCH   2   3
ENDBRANCH   1   2
BRANCH   1  10
ATOM     10  C   UNL     1      22.884  53.896  30.838  1.00  0.00     0.000 C 
BRANCH  10  11
ATOM     11  C   UNL     1      23.320  52.870  29.785  1.00  0.00    -0.000 C 
BRANCH  11  12
ATOM     12  C   UNL     1      22.107  52.277  29.058  1.00  0.00    -0.000 C 
BRANCH  12  13
ATOM     13  C   UNL     1      22.377  52.142  27.555  1.00  0.00    -0.000 C 
BRANCH  13  14
ATOM     14  C   UNL     1      23.249  53.297  27.047  1.00  0.00    -0.000 C 
BRANCH  14  15
ATOM     15  C   UNL     1      23.684  53.061  25.598  1.00  0.00    -0.003 C 
ATOM     16  C   UNL     1      23.193  54.181  24.684  1.00  0.00     0.004 C 
ENDBRANCH  14  15
ENDBRANCH  13  14
ENDBRANCH  12  13
ENDBRANCH  11  12
ENDBRANCH  10  11
ENDBRANCH   1  10
TORSDOF 12
ENDMDL
