MODEL 1
REMARK VINA RESULT:    -2.773      0.000      0.000
REMARK INTER + INTRA:         -11.110
REMARK INTER:                  -6.340
REMARK INTRA:                  -4.769
REMARK UNBOUND:                -4.769
REMARK SMILES CCCCCCCCCCCCCCCCCCCCCCCC(=O)[O-]
REMARK SMILES IDX 13 1 14 2 15 3 16 4 17 5 18 6 19 7 20 8 21 9 22 10 23 11
REMARK SMILES IDX 24 12 25 13 26 14 12 15 11 16 10 17 9 18 8 19 7 20 6 21 5 22
REMARK SMILES IDX 4 23 3 24 2 25 1 26
REMARK H PARENT
REMARK Flexibility Score: inf
ROOT
ATOM      1  C   UNL     1     146.106 163.474 153.169  1.00  0.00     0.000 C 
ENDROOT
BRANCH   1   2
ATOM      2  C   UNL     1     145.876 162.582 151.936  1.00  0.00     0.000 C 
BRANCH   2   3
ATOM      3  C   UNL     1     146.915 161.457 151.815  1.00  0.00     0.000 C 
BRANCH   3   4
ATOM      4  C   UNL     1     148.308 161.886 152.305  1.00  0.00     0.000 C 
BRANCH   4   5
ATOM      5  C   UNL     1     149.430 161.435 151.355  1.00  0.00     0.000 C 
BRANCH   5   6
ATOM      6  C   UNL     1     150.059 162.610 150.585  1.00  0.00     0.000 C 
BRANCH   6   7
ATOM      7  C   UNL     1     149.756 163.975 151.238  1.00  0.00     0.000 C 
BRANCH   7   8
ATOM      8  C   UNL     1     149.054 164.979 150.303  1.00  0.00     0.000 C 
BRANCH   8   9
ATOM      9  C   UNL     1     147.951 164.385 149.411  1.00  0.00     0.000 C 
BRANCH   9  10
ATOM     10  C   UNL     1     146.731 165.310 149.279  1.00  0.00     0.006 C 
BRANCH  10  11
ATOM     11  C   UNL     1     147.069 166.738 149.720  1.00  0.00     0.053 C 
BRANCH  11  12
ATOM     12  C   UNL     1     147.142 167.648 148.534  1.00  0.00     0.041 C 
ATOM     13  O   UNL     1     146.456 168.706 148.503  1.00  0.00    -0.550 OA
ATOM     14  O   UNL     1     148.011 167.357 147.489  1.00  0.00    -0.550 OA
ENDBRANCH  11  12
ENDBRANCH  10  11
ENDBRANCH   9  10
ENDBRANCH   8   9
ENDBRANCH   7   8
ENDBRANCH   6   7
ENDBRANCH   5   6
ENDBRANCH   4   5
ENDBRANCH   3   4
ENDBRANCH   2   3
ENDBRANCH   1   2
BRANCH   1  15
ATOM     15  C   UNL     1     146.096 164.974 152.806  1.00  0.00     0.000 C 
BRANCH  15  16
ATOM     16  C   UNL     1     147.028 165.827 153.684  1.00  0.00     0.000 C 
BRANCH  16  17
ATOM     17  C   UNL     1     147.685 165.020 154.815  1.00  0.00     0.000 C 
BRANCH  17  18
ATOM     18  C   UNL     1     149.209 164.889 154.646  1.00  0.00    -0.000 C 
BRANCH  18  19
ATOM     19  C   UNL     1     149.900 163.881 155.590  1.00  0.00    -0.000 C 
BRANCH  19  20
ATOM     20  C   UNL     1     150.780 162.815 154.904  1.00  0.00    -0.000 C 
BRANCH  20  21
ATOM     21  C   UNL     1     151.577 161.915 155.875  1.00  0.00    -0.000 C 
BRANCH  21  22
ATOM     22  C   UNL     1     150.786 160.696 156.386  1.00  0.00    -0.000 C 
BRANCH  22  23
ATOM     23  C   UNL     1     149.748 160.132 155.398  1.00  0.00    -0.000 C 
BRANCH  23  24
ATOM     24  C   UNL     1     148.336 159.936 155.981  1.00  0.00    -0.000 C 
BRANCH  24  25
ATOM     25  C   UNL     1     147.337 160.993 155.488  1.00  0.00    -0.003 C 
ATOM     26  C   UNL     1     146.875 161.889 156.635  1.00  0.00     0.004 C 
ENDBRANCH  24  25
ENDBRANCH  23  24
ENDBRANCH  22  23
ENDBRANCH  21  22
ENDBRANCH  20  21
ENDBRANCH  19  20
ENDBRANCH  18  19
ENDBRANCH  17  18
ENDBRANCH  16  17
ENDBRANCH  15  16
ENDBRANCH   1  15
TORSDOF 22
ENDMDL
MODEL 2
REMARK VINA RESULT:    -2.593      3.539      7.055
REMARK INTER + INTRA:         -10.697
REMARK INTER:                  -6.453
REMARK INTRA:                  -4.244
REMARK UNBOUND:                -4.769
REMARK SMILES CCCCCCCCCCCCCCCCCCCCCCCC(=O)[O-]
REMARK SMILES IDX 13 1 14 2 15 3 16 4 17 5 18 6 19 7 20 8 21 9 22 10 23 11
REMARK SMILES IDX 24 12 25 13 26 14 12 15 11 16 10 17 9 18 8 19 7 20 6 21 5 22
REMARK SMILES IDX 4 23 3 24 2 25 1 26
REMARK H PARENT
REMARK Flexibility Score: inf
ROOT
ATOM      1  C   UNL     1     147.615 166.218 152.992  1.00  0.00     0.000 C 
ENDROOT
BRANCH   1   2
ATOM      2  C   UNL     1     148.015 165.439 154.258  1.00  0.00     0.000 C 
BRANCH   2   3
ATOM      3  C   UNL     1     146.881 165.365 155.292  1.00  0.00     0.000 C 
BRANCH   3   4
ATOM      4  C   UNL     1     146.502 163.918 155.651  1.00  0.00     0.000 C 
BRANCH   4   5
ATOM      5  C   UNL     1     147.726 162.988 155.711  1.00  0.00     0.000 C 
BRANCH   5   6
ATOM      6  C   UNL     1     147.343 161.529 156.016  1.00  0.00     0.000 C 
BRANCH   6   7
ATOM      7  C   UNL     1     148.562 160.582 155.997  1.00  0.00     0.000 C 
BRANCH   7   8
ATOM      8  C   UNL     1     148.633 159.622 157.201  1.00  0.00     0.000 C 
BRANCH   8   9
ATOM      9  C   UNL     1     149.822 158.648 157.193  1.00  0.00     0.000 C 
BRANCH   9  10
ATOM     10  C   UNL     1     150.920 159.059 156.199  1.00  0.00     0.006 C 
BRANCH  10  11
ATOM     11  C   UNL     1     151.543 157.833 155.525  1.00  0.00     0.053 C 
BRANCH  11  12
ATOM     12  C   UNL     1     151.278 157.855 154.052  1.00  0.00     0.041 C 
ATOM     13  O   UNL     1     150.714 158.853 153.524  1.00  0.00    -0.550 OA
ATOM     14  O   UNL     1     151.706 156.802 153.254  1.00  0.00    -0.550 OA
ENDBRANCH  11  12
ENDBRANCH  10  11
ENDBRANCH   9  10
ENDBRANCH   8   9
ENDBRANCH   7   8
ENDBRANCH   6   7
ENDBRANCH   5   6
ENDBRANCH   4   5
ENDBRANCH   3   4
ENDBRANCH   2   3
ENDBRANCH   1   2
BRANCH   1  15
ATOM     15  C   UNL     1     146.420 165.565 152.266  1.00  0.00     0.000 C 
BRANCH  15  16
ATOM     16  C   UNL     1     146.802 164.877 150.944  1.00  0.00     0.000 C 
BRANCH  16  17
ATOM     17  C   UNL     1     146.200 163.470 150.807  1.00  0.00     0.000 C 
BRANCH  17  18
ATOM     18  C   UNL     1     146.192 162.692 152.134  1.00  0.00    -0.000 C 
BRANCH  18  19
ATOM     19  C   UNL     1     146.970 161.359 152.131  1.00  0.00    -0.000 C 
BRANCH  19  20
ATOM     20  C   UNL     1     148.477 161.462 152.451  1.00  0.00    -0.000 C 
BRANCH  20  21
ATOM     21  C   UNL     1     149.410 161.248 151.238  1.00  0.00    -0.000 C 
BRANCH  21  22
ATOM     22  C   UNL     1     149.951 162.557 150.630  1.00  0.00    -0.000 C 
BRANCH  22  23
ATOM     23  C   UNL     1     150.091 163.726 151.622  1.00  0.00    -0.000 C 
BRANCH  23  24
ATOM     24  C   UNL     1     151.400 163.737 152.434  1.00  0.00    -0.000 C 
BRANCH  24  25
ATOM     25  C   UNL     1     151.166 163.558 153.941  1.00  0.00    -0.003 C 
ATOM     26  C   UNL     1     151.613 162.174 154.406  1.00  0.00     0.004 C 
ENDBRANCH  24  25
ENDBRANCH  23  24
ENDBRANCH  22  23
ENDBRANCH  21  22
ENDBRANCH  20  21
ENDBRANCH  19  20
ENDBRANCH  18  19
ENDBRANCH  17  18
ENDBRANCH  16  17
ENDBRANCH  15  16
ENDBRANCH   1  15
TORSDOF 22
ENDMDL
MODEL 3
REMARK VINA RESULT:    -2.560      3.478      6.051
REMARK INTER + INTRA:         -10.621
REMARK INTER:                  -5.849
REMARK INTRA:                  -4.772
REMARK UNBOUND:                -4.769
REMARK SMILES CCCCCCCCCCCCCCCCCCCCCCCC(=O)[O-]
REMARK SMILES IDX 13 1 14 2 15 3 16 4 17 5 18 6 19 7 20 8 21 9 22 10 23 11
REMARK SMILES IDX 24 12 25 13 26 14 12 15 11 16 10 17 9 18 8 19 7 20 6 21 5 22
REMARK SMILES IDX 4 23 3 24 2 25 1 26
REMARK H PARENT
REMARK Flexibility Score: inf
ROOT
ATOM      1  C   UNL     1     146.854 162.238 154.054  1.00  0.00     0.000 C 
ENDROOT
BRANCH   1   2
ATOM      2  C   UNL     1     145.971 162.537 152.829  1.00  0.00     0.000 C 
BRANCH   2   3
ATOM      3  C   UNL     1     146.692 162.268 151.499  1.00  0.00     0.000 C 
BRANCH   3   4
ATOM      4  C   UNL     1     147.672 161.086 151.588  1.00  0.00     0.000 C 
BRANCH   4   5
ATOM      5  C   UNL     1     149.118 161.495 151.256  1.00  0.00     0.000 C 
BRANCH   5   6
ATOM      6  C   UNL     1     150.067 160.287 151.171  1.00  0.00     0.000 C 
BRANCH   6   7
ATOM      7  C   UNL     1     151.282 160.421 152.114  1.00  0.00     0.000 C 
BRANCH   7   8
ATOM      8  C   UNL     1     151.240 159.480 153.334  1.00  0.00     0.000 C 
BRANCH   8   9
ATOM      9  C   UNL     1     150.050 159.692 154.285  1.00  0.00     0.000 C 
BRANCH   9  10
ATOM     10  C   UNL     1     150.001 161.113 154.867  1.00  0.00     0.006 C 
BRANCH  10  11
ATOM     11  C   UNL     1     150.953 161.256 156.059  1.00  0.00     0.053 C 
BRANCH  11  12
ATOM     12  C   UNL     1     151.933 162.361 155.814  1.00  0.00     0.041 C 
ATOM     13  O   UNL     1     152.982 162.142 155.149  1.00  0.00    -0.550 OA
ATOM     14  O   UNL     1     151.660 163.644 156.271  1.00  0.00    -0.550 OA
ENDBRANCH  11  12
ENDBRANCH  10  11
ENDBRANCH   9  10
ENDBRANCH   8   9
ENDBRANCH   7   8
ENDBRANCH   6   7
ENDBRANCH   5   6
ENDBRANCH   4   5
ENDBRANCH   3   4
ENDBRANCH   2   3
ENDBRANCH   1   2
BRANCH   1  15
ATOM     15  C   UNL     1     146.588 163.223 155.212  1.00  0.00     0.000 C 
BRANCH  15  16
ATOM     16  C   UNL     1     147.831 164.022 155.641  1.00  0.00     0.000 C 
BRANCH  16  17
ATOM     17  C   UNL     1     147.676 165.534 155.413  1.00  0.00     0.000 C 
BRANCH  17  18
ATOM     18  C   UNL     1     146.567 165.875 154.404  1.00  0.00    -0.000 C 
BRANCH  18  19
ATOM     19  C   UNL     1     147.035 166.106 152.951  1.00  0.00    -0.000 C 
BRANCH  19  20
ATOM     20  C   UNL     1     148.560 166.231 152.750  1.00  0.00    -0.000 C 
BRANCH  20  21
ATOM     21  C   UNL     1     149.239 164.971 152.168  1.00  0.00    -0.000 C 
BRANCH  21  22
ATOM     22  C   UNL     1     150.368 164.407 153.052  1.00  0.00    -0.000 C 
BRANCH  22  23
ATOM     23  C   UNL     1     151.648 164.006 152.296  1.00  0.00    -0.000 C 
BRANCH  23  24
ATOM     24  C   UNL     1     151.759 164.563 150.865  1.00  0.00    -0.000 C 
BRANCH  24  25
ATOM     25  C   UNL     1     151.934 163.461 149.810  1.00  0.00    -0.003 C 
ATOM     26  C   UNL     1     150.807 163.502 148.780  1.00  0.00     0.004 C 
ENDBRANCH  24  25
ENDBRANCH  23  24
ENDBRANCH  22  23
ENDBRANCH  21  22
ENDBRANCH  20  21
ENDBRANCH  19  20
ENDBRANCH  18  19
ENDBRANCH  17  18
ENDBRANCH  16  17
ENDBRANCH  15  16
ENDBRANCH   1  15
TORSDOF 22
ENDMDL
MODEL 4
REMARK VINA RESULT:    -2.545      2.498      5.200
REMARK INTER + INTRA:         -10.588
REMARK INTER:                  -5.891
REMARK INTRA:                  -4.697
REMARK UNBOUND:                -4.769
REMARK SMILES CCCCCCCCCCCCCCCCCCCCCCCC(=O)[O-]
REMARK SMILES IDX 13 1 14 2 15 3 16 4 17 5 18 6 19 7 20 8 21 9 22 10 23 11
REMARK SMILES IDX 24 12 25 13 26 14 12 15 11 16 10 17 9 18 8 19 7 20 6 21 5 22
REMARK SMILES IDX 4 23 3 24 2 25 1 26
REMARK H PARENT
REMARK Flexibility Score: inf
ROOT
ATOM      1  C   UNL     1     145.875 165.104 153.333  1.00  0.00     0.000 C 
ENDROOT
BRANCH   1   2
ATOM      2  C   UNL     1     146.523 165.847 154.514  1.00  0.00     0.000 C 
BRANCH   2   3
ATOM      3  C   UNL     1     146.958 164.899 155.643  1.00  0.00     0.000 C 
BRANCH   3   4
ATOM      4  C   UNL     1     147.183 163.459 155.150  1.00  0.00     0.000 C 
BRANCH   4   5
ATOM      5  C   UNL     1     148.549 162.898 155.579  1.00  0.00     0.000 C 
BRANCH   5   6
ATOM      6  C   UNL     1     149.657 163.965 155.562  1.00  0.00     0.000 C 
BRANCH   6   7
ATOM      7  C   UNL     1     150.823 163.593 154.621  1.00  0.00     0.000 C 
BRANCH   7   8
ATOM      8  C   UNL     1     151.019 164.569 153.444  1.00  0.00     0.000 C 
BRANCH   8   9
ATOM      9  C   UNL     1     149.756 165.328 153.006  1.00  0.00     0.000 C 
BRANCH   9  10
ATOM     10  C   UNL     1     150.014 166.277 151.824  1.00  0.00     0.006 C 
BRANCH  10  11
ATOM     11  C   UNL     1     151.499 166.634 151.715  1.00  0.00     0.053 C 
BRANCH  11  12
ATOM     12  C   UNL     1     151.725 168.058 152.117  1.00  0.00     0.041 C 
ATOM     13  O   UNL     1     151.452 168.994 151.316  1.00  0.00    -0.550 OA
ATOM     14  O   UNL     1     152.180 168.354 153.396  1.00  0.00    -0.550 OA
ENDBRANCH  11  12
ENDBRANCH  10  11
ENDBRANCH   9  10
ENDBRANCH   8   9
ENDBRANCH   7   8
ENDBRANCH   6   7
ENDBRANCH   5   6
ENDBRANCH   4   5
ENDBRANCH   3   4
ENDBRANCH   2   3
ENDBRANCH   1   2
BRANCH   1  15
ATOM     15  C   UNL     1     146.363 165.646 151.972  1.00  0.00     0.000 C 
BRANCH  15  16
ATOM     16  C   UNL     1     146.324 164.603 150.842  1.00  0.00     0.000 C 
BRANCH  16  17
ATOM     17  C   UNL     1     146.451 163.161 151.357  1.00  0.00     0.000 C 
BRANCH  17  18
ATOM     18  C   UNL     1     147.901 162.646 151.338  1.00  0.00    -0.000 C 
BRANCH  18  19
ATOM     19  C   UNL     1     148.169 161.377 152.174  1.00  0.00    -0.000 C 
BRANCH  19  20
ATOM     20  C   UNL     1     149.631 160.881 152.190  1.00  0.00    -0.000 C 
BRANCH  20  21
ATOM     21  C   UNL     1     150.126 160.290 150.851  1.00  0.00    -0.000 C 
BRANCH  21  22
ATOM     22  C   UNL     1     151.205 161.141 150.155  1.00  0.00    -0.000 C 
BRANCH  22  23
ATOM     23  C   UNL     1     151.226 162.626 150.563  1.00  0.00    -0.000 C 
BRANCH  23  24
ATOM     24  C   UNL     1     151.291 163.621 149.389  1.00  0.00    -0.000 C 
BRANCH  24  25
ATOM     25  C   UNL     1     150.032 163.586 148.510  1.00  0.00    -0.003 C 
ATOM     26  C   UNL     1     149.353 164.953 148.468  1.00  0.00     0.004 C 
ENDBRANCH  24  25
ENDBRANCH  23  24
ENDBRANCH  22  23
ENDBRANCH  21  22
ENDBRANCH  20  21
ENDBRANCH  19  20
ENDBRANCH  18  19
ENDBRANCH  17  18
ENDBRANCH  16  17
ENDBRANCH  15  16
ENDBRANCH   1  15
TORSDOF 22
ENDMDL
MODEL 5
REMARK VINA RESULT:    -2.534      1.542      3.413
REMARK INTER + INTRA:         -10.562
REMARK INTER:                  -5.606
REMARK INTRA:                  -4.956
REMARK UNBOUND:                -4.769
REMARK SMILES CCCCCCCCCCCCCCCCCCCCCCCC(=O)[O-]
REMARK SMILES IDX 13 1 14 2 15 3 16 4 17 5 18 6 19 7 20 8 21 9 22 10 23 11
REMARK SMILES IDX 24 12 25 13 26 14 12 15 11 16 10 17 9 18 8 19 7 20 6 21 5 22
REMARK SMILES IDX 4 23 3 24 2 25 1 26
REMARK H PARENT
REMARK Flexibility Score: inf
ROOT
ATOM      1  C   UNL     1     148.474 161.819 152.003  1.00  0.00     0.000 C 
ENDROOT
BRANCH   1   2
ATOM      2  C   UNL     1     149.344 160.627 151.567  1.00  0.00     0.000 C 
BRANCH   2   3
ATOM      3  C   UNL     1     150.845 160.877 151.787  1.00  0.00     0.000 C 
BRANCH   3   4
ATOM      4  C   UNL     1     151.141 161.524 153.151  1.00  0.00     0.000 C 
BRANCH   4   5
ATOM      5  C   UNL     1     151.529 163.007 153.027  1.00  0.00     0.000 C 
BRANCH   5   6
ATOM      6  C   UNL     1     152.766 163.220 152.137  1.00  0.00     0.000 C 
BRANCH   6   7
ATOM      7  C   UNL     1     152.442 164.012 150.852  1.00  0.00     0.000 C 
BRANCH   7   8
ATOM      8  C   UNL     1     150.959 164.411 150.715  1.00  0.00     0.000 C 
BRANCH   8   9
ATOM      9  C   UNL     1     150.233 163.823 149.494  1.00  0.00     0.000 C 
BRANCH   9  10
ATOM     10  C   UNL     1     149.443 164.881 148.707  1.00  0.00     0.006 C 
BRANCH  10  11
ATOM     11  C   UNL     1     149.407 166.217 149.456  1.00  0.00     0.053 C 
BRANCH  11  12
ATOM     12  C   UNL     1     148.254 167.048 148.987  1.00  0.00     0.041 C 
ATOM     13  O   UNL     1     147.752 166.850 147.847  1.00  0.00    -0.550 OA
ATOM     14  O   UNL     1     147.698 168.000 149.832  1.00  0.00    -0.550 OA
ENDBRANCH  11  12
ENDBRANCH  10  11
ENDBRANCH   9  10
ENDBRANCH   8   9
ENDBRANCH   7   8
ENDBRANCH   6   7
ENDBRANCH   5   6
ENDBRANCH   4   5
ENDBRANCH   3   4
ENDBRANCH   2   3
ENDBRANCH   1   2
BRANCH   1  15
ATOM     15  C   UNL     1     146.978 161.446 152.077  1.00  0.00     0.000 C 
BRANCH  15  16
ATOM     16  C   UNL     1     146.042 162.536 151.528  1.00  0.00     0.000 C 
BRANCH  16  17
ATOM     17  C   UNL     1     146.796 163.796 151.073  1.00  0.00     0.000 C 
BRANCH  17  18
ATOM     18  C   UNL     1     146.105 165.097 151.516  1.00  0.00    -0.000 C 
BRANCH  18  19
ATOM     19  C   UNL     1     146.831 165.895 152.620  1.00  0.00    -0.000 C 
BRANCH  19  20
ATOM     20  C   UNL     1     148.306 165.513 152.864  1.00  0.00    -0.000 C 
BRANCH  20  21
ATOM     21  C   UNL     1     148.606 164.970 154.279  1.00  0.00    -0.000 C 
BRANCH  21  22
ATOM     22  C   UNL     1     147.345 164.690 155.119  1.00  0.00    -0.000 C 
BRANCH  22  23
ATOM     23  C   UNL     1     146.977 163.202 155.265  1.00  0.00    -0.000 C 
BRANCH  23  24
ATOM     24  C   UNL     1     148.155 162.271 155.604  1.00  0.00    -0.000 C 
BRANCH  24  25
ATOM     25  C   UNL     1     147.743 160.793 155.675  1.00  0.00    -0.003 C 
ATOM     26  C   UNL     1     148.942 159.876 155.442  1.00  0.00     0.004 C 
ENDBRANCH  24  25
ENDBRANCH  23  24
ENDBRANCH  22  23
ENDBRANCH  21  22
ENDBRANCH  20  21
ENDBRANCH  19  20
ENDBRANCH  18  19
ENDBRANCH  17  18
ENDBRANCH  16  17
ENDBRANCH  15  16
ENDBRANCH   1  15
TORSDOF 22
ENDMDL
MODEL 6
REMARK VINA RESULT:    -2.487      1.770      3.470
REMARK INTER + INTRA:         -10.454
REMARK INTER:                  -5.283
REMARK INTRA:                  -5.170
REMARK UNBOUND:                -4.769
REMARK SMILES CCCCCCCCCCCCCCCCCCCCCCCC(=O)[O-]
REMARK SMILES IDX 13 1 14 2 15 3 16 4 17 5 18 6 19 7 20 8 21 9 22 10 23 11
REMARK SMILES IDX 24 12 25 13 26 14 12 15 11 16 10 17 9 18 8 19 7 20 6 21 5 22
REMARK SMILES IDX 4 23 3 24 2 25 1 26
REMARK H PARENT
REMARK Flexibility Score: inf
ROOT
ATOM      1  C   UNL     1     146.122 163.587 153.021  1.00  0.00     0.000 C 
ENDROOT
BRANCH   1   2
ATOM      2  C   UNL     1     146.230 163.094 151.567  1.00  0.00     0.000 C 
BRANCH   2   3
ATOM      3  C   UNL     1     146.960 161.747 151.450  1.00  0.00     0.000 C 
BRANCH   3   4
ATOM      4  C   UNL     1     147.705 161.366 152.741  1.00  0.00     0.000 C 
BRANCH   4   5
ATOM      5  C   UNL     1     149.185 161.032 152.488  1.00  0.00     0.000 C 
BRANCH   5   6
ATOM      6  C   UNL     1     150.012 162.272 152.103  1.00  0.00     0.000 C 
BRANCH   6   7
ATOM      7  C   UNL     1     151.035 161.978 150.985  1.00  0.00     0.000 C 
BRANCH   7   8
ATOM      8  C   UNL     1     150.487 162.186 149.560  1.00  0.00     0.000 C 
BRANCH   8   9
ATOM      9  C   UNL     1     150.390 163.651 149.103  1.00  0.00     0.000 C 
BRANCH   9  10
ATOM     10  C   UNL     1     148.974 164.229 149.253  1.00  0.00     0.006 C 
BRANCH  10  11
ATOM     11  C   UNL     1     148.936 165.335 150.311  1.00  0.00     0.053 C 
BRANCH  11  12
ATOM     12  C   UNL     1     147.774 166.248 150.072  1.00  0.00     0.041 C 
ATOM     13  O   UNL     1     146.814 165.875 149.344  1.00  0.00    -0.550 OA
ATOM     14  O   UNL     1     147.725 167.487 150.699  1.00  0.00    -0.550 OA
ENDBRANCH  11  12
ENDBRANCH  10  11
ENDBRANCH   9  10
ENDBRANCH   8   9
ENDBRANCH   7   8
ENDBRANCH   6   7
ENDBRANCH   5   6
ENDBRANCH   4   5
ENDBRANCH   3   4
ENDBRANCH   2   3
ENDBRANCH   1   2
BRANCH   1  15
ATOM     15  C   UNL     1     145.918 165.115 153.100  1.00  0.00     0.000 C 
BRANCH  15  16
ATOM     16  C   UNL     1     146.990 165.838 153.933  1.00  0.00     0.000 C 
BRANCH  16  17
ATOM     17  C   UNL     1     148.365 165.155 153.859  1.00  0.00     0.000 C 
BRANCH  17  18
ATOM     18  C   UNL     1     148.897 164.734 155.239  1.00  0.00    -0.000 C 
BRANCH  18  19
ATOM     19  C   UNL     1     148.918 163.215 155.512  1.00  0.00    -0.000 C 
BRANCH  19  20
ATOM     20  C   UNL     1     150.312 162.593 155.736  1.00  0.00    -0.000 C 
BRANCH  20  21
ATOM     21  C   UNL     1     151.479 163.606 155.724  1.00  0.00    -0.000 C 
BRANCH  21  22
ATOM     22  C   UNL     1     152.490 163.378 154.583  1.00  0.00    -0.000 C 
BRANCH  22  23
ATOM     23  C   UNL     1     152.979 164.658 153.882  1.00  0.00    -0.000 C 
BRANCH  23  24
ATOM     24  C   UNL     1     151.917 165.381 153.033  1.00  0.00    -0.000 C 
BRANCH  24  25
ATOM     25  C   UNL     1     152.379 165.630 151.590  1.00  0.00    -0.003 C 
ATOM     26  C   UNL     1     153.544 164.715 151.219  1.00  0.00     0.004 C 
ENDBRANCH  24  25
ENDBRANCH  23  24
ENDBRANCH  22  23
ENDBRANCH  21  22
ENDBRANCH  20  21
ENDBRANCH  19  20
ENDBRANCH  18  19
ENDBRANCH  17  18
ENDBRANCH  16  17
ENDBRANCH  15  16
ENDBRANCH   1  15
TORSDOF 22
ENDMDL
MODEL 7
REMARK VINA RESULT:    -2.484      3.936      7.020
REMARK INTER + INTRA:         -10.448
REMARK INTER:                  -5.922
REMARK INTRA:                  -4.526
REMARK UNBOUND:                -4.769
REMARK SMILES CCCCCCCCCCCCCCCCCCCCCCCC(=O)[O-]
REMARK SMILES IDX 13 1 14 2 15 3 16 4 17 5 18 6 19 7 20 8 21 9 22 10 23 11
REMARK SMILES IDX 24 12 25 13 26 14 12 15 11 16 10 17 9 18 8 19 7 20 6 21 5 22
REMARK SMILES IDX 4 23 3 24 2 25 1 26
REMARK H PARENT
REMARK Flexibility Score: inf
ROOT
ATOM      1  C   UNL     1     152.725 162.182 151.867  1.00  0.00     0.000 C 
ENDROOT
BRANCH   1   2
ATOM      2  C   UNL     1     152.876 161.251 150.650  1.00  0.00     0.000 C 
BRANCH   2   3
ATOM      3  C   UNL     1     151.528 160.899 150.003  1.00  0.00     0.000 C 
BRANCH   3   4
ATOM      4  C   UNL     1     150.814 159.741 150.720  1.00  0.00     0.000 C 
BRANCH   4   5
ATOM      5  C   UNL     1     151.795 158.797 151.435  1.00  0.00     0.000 C 
BRANCH   5   6
ATOM      6  C   UNL     1     151.431 158.578 152.914  1.00  0.00     0.000 C 
BRANCH   6   7
ATOM      7  C   UNL     1     150.395 159.601 153.427  1.00  0.00     0.000 C 
BRANCH   7   8
ATOM      8  C   UNL     1     150.918 160.519 154.549  1.00  0.00     0.000 C 
BRANCH   8   9
ATOM      9  C   UNL     1     149.837 161.107 155.472  1.00  0.00     0.000 C 
BRANCH   9  10
ATOM     10  C   UNL     1     148.432 160.571 155.157  1.00  0.00     0.006 C 
BRANCH  10  11
ATOM     11  C   UNL     1     147.367 161.282 155.998  1.00  0.00     0.053 C 
BRANCH  11  12
ATOM     12  C   UNL     1     146.894 160.391 157.104  1.00  0.00     0.041 C 
ATOM     13  O   UNL     1     147.000 159.139 156.998  1.00  0.00    -0.550 OA
ATOM     14  O   UNL     1     146.391 160.946 158.274  1.00  0.00    -0.550 OA
ENDBRANCH  11  12
ENDBRANCH  10  11
ENDBRANCH   9  10
ENDBRANCH   8   9
ENDBRANCH   7   8
ENDBRANCH   6   7
ENDBRANCH   5   6
ENDBRANCH   4   5
ENDBRANCH   3   4
ENDBRANCH   2   3
ENDBRANCH   1   2
BRANCH   1  15
ATOM     15  C   UNL     1     152.100 163.540 151.480  1.00  0.00     0.000 C 
BRANCH  15  16
ATOM     16  C   UNL     1     151.412 164.259 152.654  1.00  0.00     0.000 C 
BRANCH  16  17
ATOM     17  C   UNL     1     149.989 163.742 152.919  1.00  0.00     0.000 C 
BRANCH  17  18
ATOM     18  C   UNL     1     149.277 163.272 151.639  1.00  0.00    -0.000 C 
BRANCH  18  19
ATOM     19  C   UNL     1     148.274 162.112 151.822  1.00  0.00    -0.000 C 
BRANCH  19  20
ATOM     20  C   UNL     1     146.801 162.443 151.501  1.00  0.00    -0.000 C 
BRANCH  20  21
ATOM     21  C   UNL     1     145.875 162.527 152.735  1.00  0.00    -0.000 C 
BRANCH  21  22
ATOM     22  C   UNL     1     146.056 163.814 153.564  1.00  0.00    -0.000 C 
BRANCH  22  23
ATOM     23  C   UNL     1     146.059 165.119 152.747  1.00  0.00    -0.000 C 
BRANCH  23  24
ATOM     24  C   UNL     1     147.214 166.085 153.070  1.00  0.00    -0.000 C 
BRANCH  24  25
ATOM     25  C   UNL     1     147.739 166.819 151.827  1.00  0.00    -0.003 C 
ATOM     26  C   UNL     1     147.221 166.171 150.546  1.00  0.00     0.004 C 
ENDBRANCH  24  25
ENDBRANCH  23  24
ENDBRANCH  22  23
ENDBRANCH  21  22
ENDBRANCH  20  21
ENDBRANCH  19  20
ENDBRANCH  18  19
ENDBRANCH  17  18
ENDBRANCH  16  17
ENDBRANCH  15  16
ENDBRANCH   1  15
TORSDOF 22
ENDMDL
MODEL 8
REMARK VINA RESULT:    -2.478      2.189      4.366
REMARK INTER + INTRA:         -10.434
REMARK INTER:                  -6.348
REMARK INTRA:                  -4.086
REMARK UNBOUND:                -4.769
REMARK SMILES CCCCCCCCCCCCCCCCCCCCCCCC(=O)[O-]
REMARK SMILES IDX 13 1 14 2 15 3 16 4 17 5 18 6 19 7 20 8 21 9 22 10 23 11
REMARK SMILES IDX 24 12 25 13 26 14 12 15 11 16 10 17 9 18 8 19 7 20 6 21 5 22
REMARK SMILES IDX 4 23 3 24 2 25 1 26
REMARK H PARENT
REMARK Flexibility Score: inf
ROOT
ATOM      1  C   UNL     1     149.906 164.543 154.488  1.00  0.00     0.000 C 
ENDROOT
BRANCH   1   2
ATOM      2  C   UNL     1     148.592 164.560 155.289  1.00  0.00     0.000 C 
BRANCH   2   3
ATOM      3  C   UNL     1     147.365 164.840 154.408  1.00  0.00     0.000 C 
BRANCH   3   4
ATOM      4  C   UNL     1     146.306 163.728 154.499  1.00  0.00     0.000 C 
BRANCH   4   5
ATOM      5  C   UNL     1     146.090 163.011 153.156  1.00  0.00     0.000 C 
BRANCH   5   6
ATOM      6  C   UNL     1     146.849 161.675 153.070  1.00  0.00     0.000 C 
BRANCH   6   7
ATOM      7  C   UNL     1     147.296 161.339 151.632  1.00  0.00     0.000 C 
BRANCH   7   8
ATOM      8  C   UNL     1     148.821 161.192 151.464  1.00  0.00     0.000 C 
BRANCH   8   9
ATOM      9  C   UNL     1     149.583 162.505 151.217  1.00  0.00     0.000 C 
BRANCH   9  10
ATOM     10  C   UNL     1     148.823 163.469 150.292  1.00  0.00     0.006 C 
BRANCH  10  11
ATOM     11  C   UNL     1     148.722 164.866 150.912  1.00  0.00     0.053 C 
BRANCH  11  12
ATOM     12  C   UNL     1     147.342 165.419 150.732  1.00  0.00     0.041 C 
ATOM     13  O   UNL     1     147.040 166.543 151.219  1.00  0.00    -0.550 OA
ATOM     14  O   UNL     1     146.408 164.720 149.977  1.00  0.00    -0.550 OA
ENDBRANCH  11  12
ENDBRANCH  10  11
ENDBRANCH   9  10
ENDBRANCH   8   9
ENDBRANCH   7   8
ENDBRANCH   6   7
ENDBRANCH   5   6
ENDBRANCH   4   5
ENDBRANCH   3   4
ENDBRANCH   2   3
ENDBRANCH   1   2
BRANCH   1  15
ATOM     15  C   UNL     1     150.821 163.372 154.905  1.00  0.00     0.000 C 
BRANCH  15  16
ATOM     16  C   UNL     1     150.174 161.988 154.721  1.00  0.00     0.000 C 
BRANCH  16  17
ATOM     17  C   UNL     1     150.119 161.177 156.026  1.00  0.00     0.000 C 
BRANCH  17  18
ATOM     18  C   UNL     1     149.383 159.836 155.864  1.00  0.00    -0.000 C 
BRANCH  18  19
ATOM     19  C   UNL     1     147.841 159.916 155.874  1.00  0.00    -0.000 C 
BRANCH  19  20
ATOM     20  C   UNL     1     147.233 161.012 156.775  1.00  0.00    -0.000 C 
BRANCH  20  21
ATOM     21  C   UNL     1     146.452 160.482 157.998  1.00  0.00    -0.000 C 
BRANCH  21  22
ATOM     22  C   UNL     1     146.126 158.978 157.925  1.00  0.00    -0.000 C 
BRANCH  22  23
ATOM     23  C   UNL     1     146.728 158.125 159.057  1.00  0.00    -0.000 C 
BRANCH  23  24
ATOM     24  C   UNL     1     148.161 157.624 158.801  1.00  0.00    -0.000 C 
BRANCH  24  25
ATOM     25  C   UNL     1     149.231 158.593 159.326  1.00  0.00    -0.003 C 
ATOM     26  C   UNL     1     149.013 158.906 160.804  1.00  0.00     0.004 C 
ENDBRANCH  24  25
ENDBRANCH  23  24
ENDBRANCH  22  23
ENDBRANCH  21  22
ENDBRANCH  20  21
ENDBRANCH  19  20
ENDBRANCH  18  19
ENDBRANCH  17  18
ENDBRANCH  16  17
ENDBRANCH  15  16
ENDBRANCH   1  15
TORSDOF 22
ENDMDL
MODEL 9
REMARK VINA RESULT:    -2.434      2.257      4.079
REMARK INTER + INTRA:         -10.335
REMARK INTER:                  -5.870
REMARK INTRA:                  -4.464
REMARK UNBOUND:                -4.769
REMARK SMILES CCCCCCCCCCCCCCCCCCCCCCCC(=O)[O-]
REMARK SMILES IDX 13 1 14 2 15 3 16 4 17 5 18 6 19 7 20 8 21 9 22 10 23 11
REMARK SMILES IDX 24 12 25 13 26 14 12 15 11 16 10 17 9 18 8 19 7 20 6 21 5 22
REMARK SMILES IDX 4 23 3 24 2 25 1 26
REMARK H PARENT
REMARK Flexibility Score: inf
ROOT
ATOM      1  C   UNL     1     148.698 162.095 151.624  1.00  0.00     0.000 C 
ENDROOT
BRANCH   1   2
ATOM      2  C   UNL     1     149.676 160.918 151.458  1.00  0.00     0.000 C 
BRANCH   2   3
ATOM      3  C   UNL     1     151.143 161.336 151.638  1.00  0.00     0.000 C 
BRANCH   3   4
ATOM      4  C   UNL     1     152.026 160.915 150.450  1.00  0.00     0.000 C 
BRANCH   4   5
ATOM      5  C   UNL     1     151.305 161.066 149.100  1.00  0.00     0.000 C 
BRANCH   5   6
ATOM      6  C   UNL     1     151.818 162.268 148.288  1.00  0.00     0.000 C 
BRANCH   6   7
ATOM      7  C   UNL     1     150.673 163.093 147.663  1.00  0.00     0.000 C 
BRANCH   7   8
ATOM      8  C   UNL     1     149.674 163.663 148.689  1.00  0.00     0.000 C 
BRANCH   8   9
ATOM      9  C   UNL     1     149.197 165.098 148.412  1.00  0.00     0.000 C 
BRANCH   9  10
ATOM     10  C   UNL     1     149.677 166.100 149.474  1.00  0.00     0.006 C 
BRANCH  10  11
ATOM     11  C   UNL     1     150.289 165.378 150.679  1.00  0.00     0.053 C 
BRANCH  11  12
ATOM     12  C   UNL     1     150.947 166.360 151.597  1.00  0.00     0.041 C 
ATOM     13  O   UNL     1     150.332 167.400 151.960  1.00  0.00    -0.550 OA
ATOM     14  O   UNL     1     152.216 166.098 152.098  1.00  0.00    -0.550 OA
ENDBRANCH  11  12
ENDBRANCH  10  11
ENDBRANCH   9  10
ENDBRANCH   8   9
ENDBRANCH   7   8
ENDBRANCH   6   7
ENDBRANCH   5   6
ENDBRANCH   4   5
ENDBRANCH   3   4
ENDBRANCH   2   3
ENDBRANCH   1   2
BRANCH   1  15
ATOM     15  C   UNL     1     147.299 161.625 152.076  1.00  0.00     0.000 C 
BRANCH  15  16
ATOM     16  C   UNL     1     146.152 162.497 151.539  1.00  0.00     0.000 C 
BRANCH  16  17
ATOM     17  C   UNL     1     146.647 163.791 150.873  1.00  0.00     0.000 C 
BRANCH  17  18
ATOM     18  C   UNL     1     146.012 165.055 151.478  1.00  0.00    -0.000 C 
BRANCH  18  19
ATOM     19  C   UNL     1     146.999 166.065 152.101  1.00  0.00    -0.000 C 
BRANCH  19  20
ATOM     20  C   UNL     1     146.959 166.178 153.640  1.00  0.00    -0.000 C 
BRANCH  20  21
ATOM     21  C   UNL     1     147.517 164.948 154.392  1.00  0.00    -0.000 C 
BRANCH  21  22
ATOM     22  C   UNL     1     149.034 164.745 154.215  1.00  0.00    -0.000 C 
BRANCH  22  23
ATOM     23  C   UNL     1     149.675 163.741 155.190  1.00  0.00    -0.000 C 
BRANCH  23  24
ATOM     24  C   UNL     1     148.968 162.375 155.273  1.00  0.00    -0.000 C 
BRANCH  24  25
ATOM     25  C   UNL     1     149.948 161.194 155.206  1.00  0.00    -0.003 C 
ATOM     26  C   UNL     1     149.203 159.862 155.169  1.00  0.00     0.004 C 
ENDBRANCH  24  25
ENDBRANCH  23  24
ENDBRANCH  22  23
ENDBRANCH  21  22
ENDBRANCH  20  21
ENDBRANCH  19  20
ENDBRANCH  18  19
ENDBRANCH  17  18
ENDBRANCH  16  17
ENDBRANCH  15  16
ENDBRANCH   1  15
TORSDOF 22
ENDMDL
