MODEL 1
REMARK VINA RESULT:    36.600      0.000      0.000
REMARK INTER + INTRA:          39.769
REMARK INTER:                  39.810
REMARK INTRA:                  -0.041
REMARK UNBOUND:                -0.041
REMARK SMILES C[C@H]1[C@H]2C3=CC[C@H]4[C@@]5(C)CC[C@@H](O)C(C)(C)[C@@H]5CC[C@]4(C)[C@]3(C)CC[C@@]2(C(=O)[O-])CC[C@@H]1C
REMARK SMILES IDX 26 1 30 2 25 3 3 4 31 5 24 6 4 7 2 8 32 9 22 10 5 11 1 12
REMARK SMILES IDX 33 13 23 14 20 15 6 16 7 17 19 18 21 19 8 20 18 21 17 22
REMARK SMILES IDX 10 23 9 24 14 25 11 26 12 27 15 28 16 29 27 30 28 31 29 32
REMARK SMILES IDX 13 33
REMARK H PARENT 13 34
REMARK Flexibility Score: inf
ROOT
ATOM      1  C   UNL     1      23.789  34.921  41.766  1.00  0.00     0.017 C 
ATOM      2  C   UNL     1      25.090  35.359  42.510  1.00  0.00     0.014 C 
ATOM      3  C   UNL     1      23.967  35.203  40.257  1.00  0.00     0.014 C 
ATOM      4  C   UNL     1      22.542  35.679  42.371  1.00  0.00     0.030 C 
ATOM      5  C   UNL     1      24.848  35.510  44.012  1.00  0.00     0.004 C 
ATOM      6  C   UNL     1      22.681  34.979  39.439  1.00  0.00     0.013 C 
ATOM      7  C   UNL     1      21.317  35.749  41.431  1.00  0.00    -0.063 C 
ATOM      8  C   UNL     1      22.833  36.969  43.207  1.00  0.00    -0.003 C 
ATOM      9  C   UNL     1      23.921  36.713  44.314  1.00  0.00    -0.011 C 
ATOM     10  C   UNL     1      21.472  35.870  39.878  1.00  0.00    -0.006 C 
ATOM     11  C   UNL     1      20.130  35.390  42.003  1.00  0.00    -0.027 C 
ATOM     12  C   UNL     1      23.182  38.212  42.378  1.00  0.00     0.008 C 
ATOM     13  C   UNL     1      23.276  36.533  45.696  1.00  0.00     0.008 C 
ATOM     14  C   UNL     1      21.833  37.337  39.483  1.00  0.00     0.017 C 
ATOM     15  C   UNL     1      20.097  35.442  39.130  1.00  0.00    -0.020 C 
ATOM     16  C   UNL     1      19.019  34.671  41.271  1.00  0.00     0.032 C 
ATOM     17  C   UNL     1      19.497  34.198  39.883  1.00  0.00     0.006 C 
ATOM     18  C   UNL     1      20.326  35.041  37.644  1.00  0.00     0.008 C 
ATOM     19  C   UNL     1      19.101  36.665  39.158  1.00  0.00     0.012 C 
ATOM     20  C   UNL     1      18.547  33.197  39.046  1.00  0.00    -0.025 C 
ATOM     21  C   UNL     1      19.046  34.623  36.895  1.00  0.00     0.005 C 
ATOM     22  C   UNL     1      17.972  33.902  37.765  1.00  0.00     0.003 C 
ATOM     23  C   UNL     1      17.338  32.709  39.907  1.00  0.00     0.010 C 
ATOM     24  C   UNL     1      19.402  31.945  38.669  1.00  0.00     0.012 C 
ATOM     25  C   UNL     1      16.891  33.097  36.932  1.00  0.00    -0.006 C 
ATOM     26  C   UNL     1      16.301  31.878  39.133  1.00  0.00     0.033 C 
ATOM     27  C   UNL     1      15.754  32.620  37.897  1.00  0.00     0.120 C 
ATOM     28  C   UNL     1      16.257  34.049  35.877  1.00  0.00     0.014 C 
ATOM     29  C   UNL     1      17.461  31.876  36.146  1.00  0.00     0.014 C 
ENDROOT
BRANCH   1  30
ATOM     30  C   UNL     1      23.606  33.406  41.921  1.00  0.00     0.048 C 
ATOM     31  O   UNL     1      24.606  32.640  41.973  1.00  0.00    -0.550 OA
ATOM     32  O   UNL     1      22.337  32.836  41.901  1.00  0.00    -0.550 OA
ENDBRANCH   1  30
BRANCH  27  33
ATOM     33  O   UNL     1      14.983  33.717  38.327  1.00  0.00    -0.393 OA
ATOM     34  H   UNL     1      14.059  33.384  38.475  1.00  0.00     0.210 HD
ENDBRANCH  27  33
TORSDOF 2
ENDMDL
MODEL 2
REMARK VINA RESULT:    38.252      2.320      7.734
REMARK INTER + INTRA:          41.565
REMARK INTER:                  41.821
REMARK INTRA:                  -0.255
REMARK UNBOUND:                -0.041
REMARK SMILES C[C@H]1[C@H]2C3=CC[C@H]4[C@@]5(C)CC[C@@H](O)C(C)(C)[C@@H]5CC[C@]4(C)[C@]3(C)CC[C@@]2(C(=O)[O-])CC[C@@H]1C
REMARK SMILES IDX 26 1 30 2 25 3 3 4 31 5 24 6 4 7 2 8 32 9 22 10 5 11 1 12
REMARK SMILES IDX 33 13 23 14 20 15 6 16 7 17 19 18 21 19 8 20 18 21 17 22
REMARK SMILES IDX 10 23 9 24 14 25 11 26 12 27 15 28 16 29 27 30 28 31 29 32
REMARK SMILES IDX 13 33
REMARK H PARENT 13 34
REMARK Flexibility Score: inf
ROOT
ATOM      1  C   UNL     1      19.918  32.981  37.549  1.00  0.00     0.017 C 
ATOM      2  C   UNL     1      19.276  31.972  36.545  1.00  0.00     0.014 C 
ATOM      3  C   UNL     1      20.871  32.204  38.484  1.00  0.00     0.014 C 
ATOM      4  C   UNL     1      18.785  33.740  38.349  1.00  0.00     0.030 C 
ATOM      5  C   UNL     1      18.032  32.564  35.881  1.00  0.00     0.004 C 
ATOM      6  C   UNL     1      21.430  33.063  39.635  1.00  0.00     0.013 C 
ATOM      7  C   UNL     1      19.250  34.353  39.689  1.00  0.00    -0.063 C 
ATOM      8  C   UNL     1      17.363  33.088  38.354  1.00  0.00    -0.003 C 
ATOM      9  C   UNL     1      16.878  32.736  36.899  1.00  0.00    -0.011 C 
ATOM     10  C   UNL     1      20.338  33.666  40.580  1.00  0.00    -0.006 C 
ATOM     11  C   UNL     1      18.886  35.655  39.884  1.00  0.00    -0.027 C 
ATOM     12  C   UNL     1      17.208  31.880  39.287  1.00  0.00     0.008 C 
ATOM     13  C   UNL     1      15.881  33.780  36.378  1.00  0.00     0.008 C 
ATOM     14  C   UNL     1      19.717  32.468  41.367  1.00  0.00     0.017 C 
ATOM     15  C   UNL     1      20.966  34.726  41.637  1.00  0.00    -0.020 C 
ATOM     16  C   UNL     1      19.733  36.671  40.616  1.00  0.00     0.032 C 
ATOM     17  C   UNL     1      21.140  36.105  40.900  1.00  0.00     0.006 C 
ATOM     18  C   UNL     1      22.360  34.284  42.168  1.00  0.00     0.008 C 
ATOM     19  C   UNL     1      19.990  34.853  42.870  1.00  0.00     0.012 C 
ATOM     20  C   UNL     1      22.274  37.114  41.449  1.00  0.00    -0.025 C 
ATOM     21  C   UNL     1      22.996  35.265  43.172  1.00  0.00     0.005 C 
ATOM     22  C   UNL     1      22.668  36.770  42.931  1.00  0.00     0.003 C 
ATOM     23  C   UNL     1      21.779  38.596  41.418  1.00  0.00     0.010 C 
ATOM     24  C   UNL     1      23.505  37.001  40.494  1.00  0.00     0.012 C 
ATOM     25  C   UNL     1      23.651  37.776  43.660  1.00  0.00    -0.006 C 
ATOM     26  C   UNL     1      22.743  39.602  42.072  1.00  0.00     0.033 C 
ATOM     27  C   UNL     1      23.083  39.230  43.529  1.00  0.00     0.120 C 
ATOM     28  C   UNL     1      23.707  37.418  45.173  1.00  0.00     0.014 C 
ATOM     29  C   UNL     1      25.120  37.736  43.137  1.00  0.00     0.014 C 
ENDROOT
BRANCH   1  30
ATOM     30  C   UNL     1      20.774  33.989  36.772  1.00  0.00     0.048 C 
ATOM     31  O   UNL     1      20.515  35.222  36.815  1.00  0.00    -0.550 OA
ATOM     32  O   UNL     1      21.786  33.556  35.920  1.00  0.00    -0.550 OA
ENDBRANCH   1  30
BRANCH  27  33
ATOM     33  O   UNL     1      21.928  39.379  44.320  1.00  0.00    -0.393 OA
ATOM     34  H   UNL     1      22.115  40.101  44.976  1.00  0.00     0.210 HD
ENDBRANCH  27  33
TORSDOF 2
ENDMDL
