MODEL 1
REMARK VINA RESULT:    -2.165      0.000      0.000
REMARK INTER + INTRA:          -7.137
REMARK INTER:                  -4.190
REMARK INTRA:                  -2.947
REMARK UNBOUND:                -2.947
REMARK SMILES CCCCCCCCCCCCCCCCCC(=O)[O-]
REMARK SMILES IDX 10 1 11 2 12 3 13 4 14 5 15 6 16 7 17 8 18 9 19 10 20 11
REMARK SMILES IDX 9 12 8 13 7 14 6 15 5 16 4 17 3 18 2 19 1 20
REMARK H PARENT
REMARK Flexibility Score: inf
ROOT
ATOM      1  C   UNL     1       1.352  14.087   0.543  1.00  0.00     0.000 C 
ENDROOT
BRANCH   1   2
ATOM      2  C   UNL     1       2.156  13.892  -0.754  1.00  0.00     0.000 C 
BRANCH   2   3
ATOM      3  C   UNL     1       2.084  12.478  -1.365  1.00  0.00     0.000 C 
BRANCH   3   4
ATOM      4  C   UNL     1       1.576  12.412  -2.817  1.00  0.00     0.000 C 
BRANCH   4   5
ATOM      5  C   UNL     1       2.717  12.352  -3.847  1.00  0.00     0.000 C 
BRANCH   5   6
ATOM      6  C   UNL     1       2.367  13.052  -5.173  1.00  0.00     0.000 C 
BRANCH   6   7
ATOM      7  C   UNL     1       0.867  13.094  -5.517  1.00  0.00     0.006 C 
BRANCH   7   8
ATOM      8  C   UNL     1       0.586  13.681  -6.906  1.00  0.00     0.053 C 
BRANCH   8   9
ATOM      9  C   UNL     1       0.021  12.634  -7.812  1.00  0.00     0.041 C 
ATOM     10  O   UNL     1       0.740  11.678  -8.203  1.00  0.00    -0.550 OA
ATOM     11  O   UNL     1      -1.290  12.738  -8.261  1.00  0.00    -0.550 OA
ENDBRANCH   8   9
ENDBRANCH   7   8
ENDBRANCH   6   7
ENDBRANCH   5   6
ENDBRANCH   4   5
ENDBRANCH   3   4
ENDBRANCH   2   3
ENDBRANCH   1   2
BRANCH   1  12
ATOM     12  C   UNL     1       0.333  12.964   0.786  1.00  0.00     0.000 C 
BRANCH  12  13
ATOM     13  C   UNL     1      -1.098  13.459   0.538  1.00  0.00    -0.000 C 
BRANCH  13  14
ATOM     14  C   UNL     1      -1.699  12.801  -0.710  1.00  0.00    -0.000 C 
BRANCH  14  15
ATOM     15  C   UNL     1      -1.753  13.788  -1.882  1.00  0.00    -0.000 C 
BRANCH  15  16
ATOM     16  C   UNL     1      -1.915  15.231  -1.378  1.00  0.00    -0.000 C 
BRANCH  16  17
ATOM     17  C   UNL     1      -0.784  16.158  -1.854  1.00  0.00    -0.000 C 
BRANCH  17  18
ATOM     18  C   UNL     1      -0.038  15.598  -3.078  1.00  0.00    -0.000 C 
BRANCH  18  19
ATOM     19  C   UNL     1       1.279  16.341  -3.353  1.00  0.00    -0.003 C 
ATOM     20  C   UNL     1       1.440  16.740  -4.819  1.00  0.00     0.004 C 
ENDBRANCH  18  19
ENDBRANCH  17  18
ENDBRANCH  16  17
ENDBRANCH  15  16
ENDBRANCH  14  15
ENDBRANCH  13  14
ENDBRANCH  12  13
ENDBRANCH   1  12
TORSDOF 16
ENDMDL
MODEL 2
REMARK VINA RESULT:    -2.122      6.704      9.969
REMARK INTER + INTRA:          -7.053
REMARK INTER:                  -3.833
REMARK INTRA:                  -3.220
REMARK UNBOUND:                -2.947
REMARK SMILES CCCCCCCCCCCCCCCCCC(=O)[O-]
REMARK SMILES IDX 10 1 11 2 12 3 13 4 14 5 15 6 16 7 17 8 18 9 19 10 20 11
REMARK SMILES IDX 9 12 8 13 7 14 6 15 5 16 4 17 3 18 2 19 1 20
REMARK H PARENT
REMARK Flexibility Score: inf
ROOT
ATOM      1  C   UNL     1      -1.583   6.992 -11.383  1.00  0.00     0.000 C 
ENDROOT
BRANCH   1   2
ATOM      2  C   UNL     1      -3.040   7.172 -10.921  1.00  0.00     0.000 C 
BRANCH   2   3
ATOM      3  C   UNL     1      -3.314   6.796  -9.451  1.00  0.00     0.000 C 
BRANCH   3   4
ATOM      4  C   UNL     1      -3.914   7.920  -8.585  1.00  0.00     0.000 C 
BRANCH   4   5
ATOM      5  C   UNL     1      -3.727   9.315  -9.203  1.00  0.00     0.000 C 
BRANCH   5   6
ATOM      6  C   UNL     1      -2.509  10.066  -8.635  1.00  0.00     0.000 C 
BRANCH   6   7
ATOM      7  C   UNL     1      -1.362  10.305  -9.634  1.00  0.00     0.006 C 
BRANCH   7   8
ATOM      8  C   UNL     1      -0.282  11.251  -9.093  1.00  0.00     0.053 C 
BRANCH   8   9
ATOM      9  C   UNL     1      -0.881  12.571  -8.724  1.00  0.00     0.041 C 
ATOM     10  O   UNL     1      -0.785  13.005  -7.546  1.00  0.00    -0.550 OA
ATOM     11  O   UNL     1      -1.583  13.305  -9.672  1.00  0.00    -0.550 OA
ENDBRANCH   8   9
ENDBRANCH   7   8
ENDBRANCH   6   7
ENDBRANCH   5   6
ENDBRANCH   4   5
ENDBRANCH   3   4
ENDBRANCH   2   3
ENDBRANCH   1   2
BRANCH   1  12
ATOM     12  C   UNL     1      -0.961   5.676 -10.892  1.00  0.00     0.000 C 
BRANCH  12  13
ATOM     13  C   UNL     1       0.528   5.860 -10.570  1.00  0.00    -0.000 C 
BRANCH  13  14
ATOM     14  C   UNL     1       0.810   7.279 -10.063  1.00  0.00    -0.000 C 
BRANCH  14  15
ATOM     15  C   UNL     1       1.757   7.254  -8.857  1.00  0.00    -0.000 C 
BRANCH  15  16
ATOM     16  C   UNL     1       1.116   7.942  -7.642  1.00  0.00    -0.000 C 
BRANCH  16  17
ATOM     17  C   UNL     1      -0.339   7.503  -7.408  1.00  0.00    -0.000 C 
BRANCH  17  18
ATOM     18  C   UNL     1      -0.446   6.288  -6.470  1.00  0.00    -0.000 C 
BRANCH  18  19
ATOM     19  C   UNL     1      -0.859   5.007  -7.212  1.00  0.00    -0.003 C 
ATOM     20  C   UNL     1       0.275   3.988  -7.311  1.00  0.00     0.004 C 
ENDBRANCH  18  19
ENDBRANCH  17  18
ENDBRANCH  16  17
ENDBRANCH  15  16
ENDBRANCH  14  15
ENDBRANCH  13  14
ENDBRANCH  12  13
ENDBRANCH   1  12
TORSDOF 16
ENDMDL
MODEL 3
REMARK VINA RESULT:    -2.095      1.644      3.464
REMARK INTER + INTRA:          -7.001
REMARK INTER:                  -4.642
REMARK INTRA:                  -2.360
REMARK UNBOUND:                -2.947
REMARK SMILES CCCCCCCCCCCCCCCCCC(=O)[O-]
REMARK SMILES IDX 10 1 11 2 12 3 13 4 14 5 15 6 16 7 17 8 18 9 19 10 20 11
REMARK SMILES IDX 9 12 8 13 7 14 6 15 5 16 4 17 3 18 2 19 1 20
REMARK H PARENT
REMARK Flexibility Score: inf
ROOT
ATOM      1  C   UNL     1       0.869  14.984  -2.092  1.00  0.00     0.000 C 
ENDROOT
BRANCH   1   2
ATOM      2  C   UNL     1       0.847  13.675  -2.900  1.00  0.00     0.000 C 
BRANCH   2   3
ATOM      3  C   UNL     1      -0.438  13.429  -3.716  1.00  0.00     0.000 C 
BRANCH   3   4
ATOM      4  C   UNL     1      -0.232  13.242  -5.231  1.00  0.00     0.000 C 
BRANCH   4   5
ATOM      5  C   UNL     1       0.805  14.214  -5.817  1.00  0.00     0.000 C 
BRANCH   5   6
ATOM      6  C   UNL     1       1.899  13.504  -6.636  1.00  0.00     0.000 C 
BRANCH   6   7
ATOM      7  C   UNL     1       1.543  12.085  -7.116  1.00  0.00     0.006 C 
BRANCH   7   8
ATOM      8  C   UNL     1       1.031  12.051  -8.561  1.00  0.00     0.053 C 
BRANCH   8   9
ATOM      9  C   UNL     1      -0.461  11.947  -8.586  1.00  0.00     0.041 C 
ATOM     10  O   UNL     1      -1.019  10.819  -8.556  1.00  0.00    -0.550 OA
ATOM     11  O   UNL     1      -1.235  13.097  -8.686  1.00  0.00    -0.550 OA
ENDBRANCH   8   9
ENDBRANCH   7   8
ENDBRANCH   6   7
ENDBRANCH   5   6
ENDBRANCH   4   5
ENDBRANCH   3   4
ENDBRANCH   2   3
ENDBRANCH   1   2
BRANCH   1  12
ATOM     12  C   UNL     1      -0.375  15.852  -2.330  1.00  0.00     0.000 C 
BRANCH  12  13
ATOM     13  C   UNL     1      -1.084  16.170  -1.007  1.00  0.00    -0.000 C 
BRANCH  13  14
ATOM     14  C   UNL     1      -2.608  16.106  -1.170  1.00  0.00    -0.000 C 
BRANCH  14  15
ATOM     15  C   UNL     1      -3.079  14.662  -1.377  1.00  0.00    -0.000 C 
BRANCH  15  16
ATOM     16  C   UNL     1      -3.738  14.111  -0.103  1.00  0.00    -0.000 C 
BRANCH  16  17
ATOM     17  C   UNL     1      -2.982  12.907   0.484  1.00  0.00    -0.000 C 
BRANCH  17  18
ATOM     18  C   UNL     1      -1.777  12.489  -0.377  1.00  0.00    -0.000 C 
BRANCH  18  19
ATOM     19  C   UNL     1      -0.455  12.528   0.405  1.00  0.00    -0.003 C 
ATOM     20  C   UNL     1       0.505  11.409   0.002  1.00  0.00     0.004 C 
ENDBRANCH  18  19
ENDBRANCH  17  18
ENDBRANCH  16  17
ENDBRANCH  15  16
ENDBRANCH  14  15
ENDBRANCH  13  14
ENDBRANCH  12  13
ENDBRANCH   1  12
TORSDOF 16
ENDMDL
MODEL 4
REMARK VINA RESULT:    -2.076      2.328      3.851
REMARK INTER + INTRA:          -6.964
REMARK INTER:                  -4.071
REMARK INTRA:                  -2.893
REMARK UNBOUND:                -2.947
REMARK SMILES CCCCCCCCCCCCCCCCCC(=O)[O-]
REMARK SMILES IDX 10 1 11 2 12 3 13 4 14 5 15 6 16 7 17 8 18 9 19 10 20 11
REMARK SMILES IDX 9 12 8 13 7 14 6 15 5 16 4 17 3 18 2 19 1 20
REMARK H PARENT
REMARK Flexibility Score: inf
ROOT
ATOM      1  C   UNL     1      -1.567  13.251  -2.425  1.00  0.00     0.000 C 
ENDROOT
BRANCH   1   2
ATOM      2  C   UNL     1      -0.538  14.091  -3.202  1.00  0.00     0.000 C 
BRANCH   2   3
ATOM      3  C   UNL     1      -0.176  13.554  -4.602  1.00  0.00     0.000 C 
BRANCH   3   4
ATOM      4  C   UNL     1       0.880  14.372  -5.368  1.00  0.00     0.000 C 
BRANCH   4   5
ATOM      5  C   UNL     1       1.591  15.409  -4.483  1.00  0.00     0.000 C 
BRANCH   5   6
ATOM      6  C   UNL     1       3.032  15.003  -4.122  1.00  0.00     0.000 C 
BRANCH   6   7
ATOM      7  C   UNL     1       3.207  14.376  -2.727  1.00  0.00     0.006 C 
BRANCH   7   8
ATOM      8  C   UNL     1       3.823  12.972  -2.773  1.00  0.00     0.053 C 
BRANCH   8   9
ATOM      9  C   UNL     1       2.766  11.945  -3.031  1.00  0.00     0.041 C 
ATOM     10  O   UNL     1       2.733  11.330  -4.128  1.00  0.00    -0.550 OA
ATOM     11  O   UNL     1       1.790  11.699  -2.073  1.00  0.00    -0.550 OA
ENDBRANCH   8   9
ENDBRANCH   7   8
ENDBRANCH   6   7
ENDBRANCH   5   6
ENDBRANCH   4   5
ENDBRANCH   3   4
ENDBRANCH   2   3
ENDBRANCH   1   2
BRANCH   1  12
ATOM     12  C   UNL     1      -1.493  13.474  -0.908  1.00  0.00     0.000 C 
BRANCH  12  13
ATOM     13  C   UNL     1      -2.897  13.608  -0.304  1.00  0.00    -0.000 C 
BRANCH  13  14
ATOM     14  C   UNL     1      -3.618  14.844  -0.855  1.00  0.00    -0.000 C 
BRANCH  14  15
ATOM     15  C   UNL     1      -2.899  16.133  -0.435  1.00  0.00    -0.000 C 
BRANCH  15  16
ATOM     16  C   UNL     1      -2.644  17.040  -1.649  1.00  0.00    -0.000 C 
BRANCH  16  17
ATOM     17  C   UNL     1      -1.218  17.614  -1.673  1.00  0.00    -0.000 C 
BRANCH  17  18
ATOM     18  C   UNL     1      -0.398  17.210  -0.436  1.00  0.00    -0.000 C 
BRANCH  18  19
ATOM     19  C   UNL     1       0.856  16.399  -0.802  1.00  0.00    -0.003 C 
ATOM     20  C   UNL     1       1.345  15.515   0.344  1.00  0.00     0.004 C 
ENDBRANCH  18  19
ENDBRANCH  17  18
ENDBRANCH  16  17
ENDBRANCH  15  16
ENDBRANCH  14  15
ENDBRANCH  13  14
ENDBRANCH  12  13
ENDBRANCH   1  12
TORSDOF 16
ENDMDL
MODEL 5
REMARK VINA RESULT:    -2.073      2.853      4.787
REMARK INTER + INTRA:          -6.959
REMARK INTER:                  -3.938
REMARK INTRA:                  -3.022
REMARK UNBOUND:                -2.947
REMARK SMILES CCCCCCCCCCCCCCCCCC(=O)[O-]
REMARK SMILES IDX 10 1 11 2 12 3 13 4 14 5 15 6 16 7 17 8 18 9 19 10 20 11
REMARK SMILES IDX 9 12 8 13 7 14 6 15 5 16 4 17 3 18 2 19 1 20
REMARK H PARENT
REMARK Flexibility Score: inf
ROOT
ATOM      1  C   UNL     1      -0.320  15.572  -1.086  1.00  0.00     0.000 C 
ENDROOT
BRANCH   1   2
ATOM      2  C   UNL     1       0.825  16.291  -1.819  1.00  0.00     0.000 C 
BRANCH   2   3
ATOM      3  C   UNL     1       0.635  16.444  -3.342  1.00  0.00     0.000 C 
BRANCH   3   4
ATOM      4  C   UNL     1       1.515  15.525  -4.211  1.00  0.00     0.000 C 
BRANCH   4   5
ATOM      5  C   UNL     1       0.792  14.239  -4.643  1.00  0.00     0.000 C 
BRANCH   5   6
ATOM      6  C   UNL     1       1.342  12.979  -3.951  1.00  0.00     0.000 C 
BRANCH   6   7
ATOM      7  C   UNL     1       2.497  13.225  -2.962  1.00  0.00     0.006 C 
BRANCH   7   8
ATOM      8  C   UNL     1       2.156  12.811  -1.526  1.00  0.00     0.053 C 
BRANCH   8   9
ATOM      9  C   UNL     1       2.128  11.321  -1.402  1.00  0.00     0.041 C 
ATOM     10  O   UNL     1       1.223  10.756  -0.734  1.00  0.00    -0.550 OA
ATOM     11  O   UNL     1       3.128  10.557  -1.992  1.00  0.00    -0.550 OA
ENDBRANCH   8   9
ENDBRANCH   7   8
ENDBRANCH   6   7
ENDBRANCH   5   6
ENDBRANCH   4   5
ENDBRANCH   3   4
ENDBRANCH   2   3
ENDBRANCH   1   2
BRANCH   1  12
ATOM     12  C   UNL     1      -1.500  15.234  -2.009  1.00  0.00     0.000 C 
BRANCH  12  13
ATOM     13  C   UNL     1      -1.775  13.725  -2.020  1.00  0.00    -0.000 C 
BRANCH  13  14
ATOM     14  C   UNL     1      -1.464  13.099  -0.655  1.00  0.00    -0.000 C 
BRANCH  14  15
ATOM     15  C   UNL     1      -2.744  12.907   0.167  1.00  0.00    -0.000 C 
BRANCH  15  16
ATOM     16  C   UNL     1      -2.876  13.997   1.242  1.00  0.00    -0.000 C 
BRANCH  16  17
ATOM     17  C   UNL     1      -3.892  15.087   0.862  1.00  0.00    -0.000 C 
BRANCH  17  18
ATOM     18  C   UNL     1      -4.978  14.573  -0.099  1.00  0.00    -0.000 C 
BRANCH  18  19
ATOM     19  C   UNL     1      -5.228  15.535  -1.272  1.00  0.00    -0.003 C 
ATOM     20  C   UNL     1      -4.580  16.903  -1.064  1.00  0.00     0.004 C 
ENDBRANCH  18  19
ENDBRANCH  17  18
ENDBRANCH  16  17
ENDBRANCH  15  16
ENDBRANCH  14  15
ENDBRANCH  13  14
ENDBRANCH  12  13
ENDBRANCH   1  12
TORSDOF 16
ENDMDL
MODEL 6
REMARK VINA RESULT:    -2.035      1.431      3.692
REMARK INTER + INTRA:          -6.884
REMARK INTER:                  -4.260
REMARK INTRA:                  -2.625
REMARK UNBOUND:                -2.947
REMARK SMILES CCCCCCCCCCCCCCCCCC(=O)[O-]
REMARK SMILES IDX 10 1 11 2 12 3 13 4 14 5 15 6 16 7 17 8 18 9 19 10 20 11
REMARK SMILES IDX 9 12 8 13 7 14 6 15 5 16 4 17 3 18 2 19 1 20
REMARK H PARENT
REMARK Flexibility Score: inf
ROOT
ATOM      1  C   UNL     1      -2.872  16.382   0.023  1.00  0.00     0.000 C 
ENDROOT
BRANCH   1   2
ATOM      2  C   UNL     1      -1.420  16.460  -0.480  1.00  0.00     0.000 C 
BRANCH   2   3
ATOM      3  C   UNL     1      -1.247  16.347  -2.008  1.00  0.00     0.000 C 
BRANCH   3   4
ATOM      4  C   UNL     1      -0.302  15.228  -2.484  1.00  0.00     0.000 C 
BRANCH   4   5
ATOM      5  C   UNL     1      -1.037  13.912  -2.785  1.00  0.00     0.000 C 
BRANCH   5   6
ATOM      6  C   UNL     1      -0.530  13.219  -4.063  1.00  0.00     0.000 C 
BRANCH   6   7
ATOM      7  C   UNL     1       0.853  13.682  -4.556  1.00  0.00     0.006 C 
BRANCH   7   8
ATOM      8  C   UNL     1       0.840  14.170  -6.010  1.00  0.00     0.053 C 
BRANCH   8   9
ATOM      9  C   UNL     1       0.421  13.066  -6.928  1.00  0.00     0.041 C 
ATOM     10  O   UNL     1       1.185  12.087  -7.134  1.00  0.00    -0.550 OA
ATOM     11  O   UNL     1      -0.799  13.139  -7.590  1.00  0.00    -0.550 OA
ENDBRANCH   8   9
ENDBRANCH   7   8
ENDBRANCH   6   7
ENDBRANCH   5   6
ENDBRANCH   4   5
ENDBRANCH   3   4
ENDBRANCH   2   3
ENDBRANCH   1   2
BRANCH   1  12
ATOM     12  C   UNL     1      -3.708  15.337  -0.731  1.00  0.00     0.000 C 
BRANCH  12  13
ATOM     13  C   UNL     1      -3.517  13.941  -0.123  1.00  0.00    -0.000 C 
BRANCH  13  14
ATOM     14  C   UNL     1      -3.258  14.028   1.386  1.00  0.00    -0.000 C 
BRANCH  14  15
ATOM     15  C   UNL     1      -2.013  13.224   1.777  1.00  0.00    -0.000 C 
BRANCH  15  16
ATOM     16  C   UNL     1      -1.452  12.456   0.570  1.00  0.00    -0.000 C 
BRANCH  16  17
ATOM     17  C   UNL     1       0.076  12.573   0.448  1.00  0.00    -0.000 C 
BRANCH  17  18
ATOM     18  C   UNL     1       0.675  11.523  -0.503  1.00  0.00    -0.000 C 
BRANCH  18  19
ATOM     19  C   UNL     1       1.948  12.023  -1.204  1.00  0.00    -0.003 C 
ATOM     20  C   UNL     1       2.318  13.452  -0.810  1.00  0.00     0.004 C 
ENDBRANCH  18  19
ENDBRANCH  17  18
ENDBRANCH  16  17
ENDBRANCH  15  16
ENDBRANCH  14  15
ENDBRANCH  13  14
ENDBRANCH  12  13
ENDBRANCH   1  12
TORSDOF 16
ENDMDL
MODEL 7
REMARK VINA RESULT:    -2.021      6.535      9.966
REMARK INTER + INTRA:          -6.859
REMARK INTER:                  -3.708
REMARK INTRA:                  -3.151
REMARK UNBOUND:                -2.947
REMARK SMILES CCCCCCCCCCCCCCCCCC(=O)[O-]
REMARK SMILES IDX 10 1 11 2 12 3 13 4 14 5 15 6 16 7 17 8 18 9 19 10 20 11
REMARK SMILES IDX 9 12 8 13 7 14 6 15 5 16 4 17 3 18 2 19 1 20
REMARK H PARENT
REMARK Flexibility Score: inf
ROOT
ATOM      1  C   UNL     1      -2.003   8.511 -12.367  1.00  0.00     0.000 C 
ENDROOT
BRANCH   1   2
ATOM      2  C   UNL     1      -3.321   9.241 -12.680  1.00  0.00     0.000 C 
BRANCH   2   3
ATOM      3  C   UNL     1      -3.184  10.752 -12.957  1.00  0.00     0.000 C 
BRANCH   3   4
ATOM      4  C   UNL     1      -3.915  11.673 -11.963  1.00  0.00     0.000 C 
BRANCH   4   5
ATOM      5  C   UNL     1      -3.629  13.164 -12.208  1.00  0.00     0.000 C 
BRANCH   5   6
ATOM      6  C   UNL     1      -2.268  13.615 -11.647  1.00  0.00     0.000 C 
BRANCH   6   7
ATOM      7  C   UNL     1      -1.908  13.047 -10.262  1.00  0.00     0.006 C 
BRANCH   7   8
ATOM      8  C   UNL     1      -0.422  12.693 -10.126  1.00  0.00     0.053 C 
BRANCH   8   9
ATOM      9  C   UNL     1      -0.021  12.665  -8.686  1.00  0.00     0.041 C 
ATOM     10  O   UNL     1      -0.818  13.062  -7.796  1.00  0.00    -0.550 OA
ATOM     11  O   UNL     1       1.253  12.240  -8.328  1.00  0.00    -0.550 OA
ENDBRANCH   8   9
ENDBRANCH   7   8
ENDBRANCH   6   7
ENDBRANCH   5   6
ENDBRANCH   4   5
ENDBRANCH   3   4
ENDBRANCH   2   3
ENDBRANCH   1   2
BRANCH   1  12
ATOM     12  C   UNL     1      -0.854   9.473 -12.032  1.00  0.00     0.000 C 
BRANCH  12  13
ATOM     13  C   UNL     1       0.243   8.760 -11.232  1.00  0.00    -0.000 C 
BRANCH  13  14
ATOM     14  C   UNL     1      -0.345   8.038 -10.014  1.00  0.00    -0.000 C 
BRANCH  14  15
ATOM     15  C   UNL     1      -0.287   8.927  -8.766  1.00  0.00    -0.000 C 
BRANCH  15  16
ATOM     16  C   UNL     1      -1.654   8.983  -8.066  1.00  0.00    -0.000 C 
BRANCH  16  17
ATOM     17  C   UNL     1      -2.641   9.932  -8.766  1.00  0.00    -0.000 C 
BRANCH  17  18
ATOM     18  C   UNL     1      -4.002   9.269  -9.042  1.00  0.00    -0.000 C 
BRANCH  18  19
ATOM     19  C   UNL     1      -4.006   7.772  -8.698  1.00  0.00    -0.003 C 
ATOM     20  C   UNL     1      -4.235   6.883  -9.920  1.00  0.00     0.004 C 
ENDBRANCH  18  19
ENDBRANCH  17  18
ENDBRANCH  16  17
ENDBRANCH  15  16
ENDBRANCH  14  15
ENDBRANCH  13  14
ENDBRANCH  12  13
ENDBRANCH   1  12
TORSDOF 16
ENDMDL
MODEL 8
REMARK VINA RESULT:    -2.019      7.495      9.896
REMARK INTER + INTRA:          -6.855
REMARK INTER:                  -3.567
REMARK INTRA:                  -3.289
REMARK UNBOUND:                -2.947
REMARK SMILES CCCCCCCCCCCCCCCCCC(=O)[O-]
REMARK SMILES IDX 10 1 11 2 12 3 13 4 14 5 15 6 16 7 17 8 18 9 19 10 20 11
REMARK SMILES IDX 9 12 8 13 7 14 6 15 5 16 4 17 3 18 2 19 1 20
REMARK H PARENT
REMARK Flexibility Score: inf
ROOT
ATOM      1  C   UNL     1       0.138   9.799 -11.441  1.00  0.00     0.000 C 
ENDROOT
BRANCH   1   2
ATOM      2  C   UNL     1       0.100   8.330 -10.983  1.00  0.00     0.000 C 
BRANCH   2   3
ATOM      3  C   UNL     1      -1.082   7.504 -11.528  1.00  0.00     0.000 C 
BRANCH   3   4
ATOM      4  C   UNL     1      -1.832   6.657 -10.483  1.00  0.00     0.000 C 
BRANCH   4   5
ATOM      5  C   UNL     1      -0.969   6.324  -9.254  1.00  0.00     0.000 C 
BRANCH   5   6
ATOM      6  C   UNL     1      -1.734   6.468  -7.926  1.00  0.00     0.000 C 
BRANCH   6   7
ATOM      7  C   UNL     1      -0.867   6.819  -6.703  1.00  0.00     0.006 C 
BRANCH   7   8
ATOM      8  C   UNL     1       0.560   7.238  -7.080  1.00  0.00     0.053 C 
BRANCH   8   9
ATOM      9  C   UNL     1       1.558   6.518  -6.231  1.00  0.00     0.041 C 
ATOM     10  O   UNL     1       1.473   6.561  -4.976  1.00  0.00    -0.550 OA
ATOM     11  O   UNL     1       2.611   5.832  -6.827  1.00  0.00    -0.550 OA
ENDBRANCH   8   9
ENDBRANCH   7   8
ENDBRANCH   6   7
ENDBRANCH   5   6
ENDBRANCH   4   5
ENDBRANCH   3   4
ENDBRANCH   2   3
ENDBRANCH   1   2
BRANCH   1  12
ATOM     12  C   UNL     1      -0.520  10.754 -10.434  1.00  0.00     0.000 C 
BRANCH  12  13
ATOM     13  C   UNL     1      -0.238  10.310  -8.992  1.00  0.00    -0.000 C 
BRANCH  13  14
ATOM     14  C   UNL     1      -1.539  10.185  -8.191  1.00  0.00    -0.000 C 
BRANCH  14  15
ATOM     15  C   UNL     1      -2.763  10.395  -9.091  1.00  0.00    -0.000 C 
BRANCH  15  16
ATOM     16  C   UNL     1      -3.820   9.308  -8.844  1.00  0.00    -0.000 C 
BRANCH  16  17
ATOM     17  C   UNL     1      -4.778   9.129 -10.033  1.00  0.00    -0.000 C 
BRANCH  17  18
ATOM     18  C   UNL     1      -4.482  10.108 -11.183  1.00  0.00    -0.000 C 
BRANCH  18  19
ATOM     19  C   UNL     1      -4.008   9.391 -12.457  1.00  0.00    -0.003 C 
ATOM     20  C   UNL     1      -4.750   8.079 -12.710  1.00  0.00     0.004 C 
ENDBRANCH  18  19
ENDBRANCH  17  18
ENDBRANCH  16  17
ENDBRANCH  15  16
ENDBRANCH  14  15
ENDBRANCH  13  14
ENDBRANCH  12  13
ENDBRANCH   1  12
TORSDOF 16
ENDMDL
MODEL 9
REMARK VINA RESULT:    -2.015      6.592      9.707
REMARK INTER + INTRA:          -6.846
REMARK INTER:                  -3.632
REMARK INTRA:                  -3.214
REMARK UNBOUND:                -2.947
REMARK SMILES CCCCCCCCCCCCCCCCCC(=O)[O-]
REMARK SMILES IDX 10 1 11 2 12 3 13 4 14 5 15 6 16 7 17 8 18 9 19 10 20 11
REMARK SMILES IDX 9 12 8 13 7 14 6 15 5 16 4 17 3 18 2 19 1 20
REMARK H PARENT
REMARK Flexibility Score: inf
ROOT
ATOM      1  C   UNL     1      -0.867   7.232  -6.916  1.00  0.00     0.000 C 
ENDROOT
BRANCH   1   2
ATOM      2  C   UNL     1      -1.877   6.348  -7.668  1.00  0.00     0.000 C 
BRANCH   2   3
ATOM      3  C   UNL     1      -1.956   6.589  -9.189  1.00  0.00     0.000 C 
BRANCH   3   4
ATOM      4  C   UNL     1      -3.082   7.533  -9.649  1.00  0.00     0.000 C 
BRANCH   4   5
ATOM      5  C   UNL     1      -2.597   8.973  -9.882  1.00  0.00     0.000 C 
BRANCH   5   6
ATOM      6  C   UNL     1      -1.114   9.049 -10.289  1.00  0.00     0.000 C 
BRANCH   6   7
ATOM      7  C   UNL     1      -0.326  10.227  -9.685  1.00  0.00     0.006 C 
BRANCH   7   8
ATOM      8  C   UNL     1      -0.944  10.758  -8.386  1.00  0.00     0.053 C 
BRANCH   8   9
ATOM      9  C   UNL     1      -1.104  12.244  -8.452  1.00  0.00     0.041 C 
ATOM     10  O   UNL     1      -0.722  12.966  -7.494  1.00  0.00    -0.550 OA
ATOM     11  O   UNL     1      -1.715  12.828  -9.555  1.00  0.00    -0.550 OA
ENDBRANCH   8   9
ENDBRANCH   7   8
ENDBRANCH   6   7
ENDBRANCH   5   6
ENDBRANCH   4   5
ENDBRANCH   3   4
ENDBRANCH   2   3
ENDBRANCH   1   2
BRANCH   1  12
ATOM     12  C   UNL     1       0.178   6.416  -6.142  1.00  0.00     0.000 C 
BRANCH  12  13
ATOM     13  C   UNL     1       1.601   6.869  -6.495  1.00  0.00    -0.000 C 
BRANCH  13  14
ATOM     14  C   UNL     1       1.576   8.027  -7.500  1.00  0.00    -0.000 C 
BRANCH  14  15
ATOM     15  C   UNL     1       2.370   7.675  -8.764  1.00  0.00    -0.000 C 
BRANCH  15  16
ATOM     16  C   UNL     1       1.712   6.510  -9.520  1.00  0.00    -0.000 C 
BRANCH  16  17
ATOM     17  C   UNL     1       2.651   5.304  -9.687  1.00  0.00    -0.000 C 
BRANCH  17  18
ATOM     18  C   UNL     1       2.171   4.068  -8.907  1.00  0.00    -0.000 C 
BRANCH  18  19
ATOM     19  C   UNL     1       0.645   3.890  -8.971  1.00  0.00    -0.003 C 
ATOM     20  C   UNL     1       0.086   3.135  -7.765  1.00  0.00     0.004 C 
ENDBRANCH  18  19
ENDBRANCH  17  18
ENDBRANCH  16  17
ENDBRANCH  15  16
ENDBRANCH  14  15
ENDBRANCH  13  14
ENDBRANCH  12  13
ENDBRANCH   1  12
TORSDOF 16
ENDMDL
