MODEL 1
REMARK VINA RESULT:    -3.789      0.000      0.000
REMARK INTER + INTRA:          -3.900
REMARK INTER:                  -3.900
REMARK INTRA:                   0.000
REMARK UNBOUND:                 0.000
REMARK SMILES CC1(C)[C@@H]2CC[C@@](C)(C2)[C@@H]1O
REMARK SMILES IDX 1 1 2 2 4 3 5 4 6 5 7 6 9 7 10 8 8 9 3 10 11 11
REMARK H PARENT 11 12
REMARK Flexibility Score: inf
ROOT
ATOM      1  C   UNL     1     116.904 116.693 115.226  1.00  0.00     0.014 C 
ATOM      2  C   UNL     1     116.771 116.848 116.762  1.00  0.00    -0.006 C 
ATOM      3  C   UNL     1     116.323 115.488 117.403  1.00  0.00    -0.002 C 
ATOM      4  C   UNL     1     115.928 115.673 118.883  1.00  0.00     0.005 C 
ATOM      5  C   UNL     1     117.270 116.001 119.556  1.00  0.00     0.010 C 
ATOM      6  C   UNL     1     118.279 115.855 118.393  1.00  0.00    -0.006 C 
ATOM      7  C   UNL     1     117.642 114.754 117.575  1.00  0.00     0.013 C 
ATOM      8  C   UNL     1     118.170 117.066 117.427  1.00  0.00     0.126 C 
ATOM      9  C   UNL     1     119.709 115.540 118.847  1.00  0.00     0.014 C 
ATOM     10  C   UNL     1     115.773 118.008 117.021  1.00  0.00     0.014 C 
ENDROOT
BRANCH   8  11
ATOM     11  O   UNL     1     118.268 118.294 118.106  1.00  0.00    -0.392 OA
ATOM     12  H   UNL     1     119.089 118.740 117.771  1.00  0.00     0.211 HD
ENDBRANCH   8  11
TORSDOF 1
ENDMDL
MODEL 2
REMARK VINA RESULT:    -3.785      1.622      2.451
REMARK INTER + INTRA:          -3.896
REMARK INTER:                  -3.896
REMARK INTRA:                   0.000
REMARK UNBOUND:                 0.000
REMARK SMILES CC1(C)[C@@H]2CC[C@@](C)(C2)[C@@H]1O
REMARK SMILES IDX 1 1 2 2 4 3 5 4 6 5 7 6 9 7 10 8 8 9 3 10 11 11
REMARK H PARENT 11 12
REMARK Flexibility Score: inf
ROOT
ATOM      1  C   UNL     1     116.501 116.894 115.222  1.00  0.00     0.014 C 
ATOM      2  C   UNL     1     116.351 116.759 116.758  1.00  0.00    -0.006 C 
ATOM      3  C   UNL     1     117.712 116.308 117.394  1.00  0.00    -0.002 C 
ATOM      4  C   UNL     1     117.533 115.911 118.874  1.00  0.00     0.005 C 
ATOM      5  C   UNL     1     117.209 117.252 119.550  1.00  0.00     0.010 C 
ATOM      6  C   UNL     1     117.352 118.264 118.388  1.00  0.00    -0.006 C 
ATOM      7  C   UNL     1     118.449 117.626 117.565  1.00  0.00     0.013 C 
ATOM      8  C   UNL     1     116.138 118.157 117.426  1.00  0.00     0.126 C 
ATOM      9  C   UNL     1     117.670 119.692 118.844  1.00  0.00     0.014 C 
ATOM     10  C   UNL     1     115.191 115.763 117.021  1.00  0.00     0.014 C 
ENDROOT
BRANCH   8  11
ATOM     11  O   UNL     1     114.912 118.256 118.110  1.00  0.00    -0.392 OA
ATOM     12  H   UNL     1     114.209 117.951 117.479  1.00  0.00     0.211 HD
ENDBRANCH   8  11
TORSDOF 1
ENDMDL
MODEL 3
REMARK VINA RESULT:    -3.781      2.015      3.473
REMARK INTER + INTRA:          -3.891
REMARK INTER:                  -3.891
REMARK INTRA:                   0.000
REMARK UNBOUND:                 0.000
REMARK SMILES CC1(C)[C@@H]2CC[C@@](C)(C2)[C@@H]1O
REMARK SMILES IDX 1 1 2 2 4 3 5 4 6 5 7 6 9 7 10 8 8 9 3 10 11 11
REMARK H PARENT 11 12
REMARK Flexibility Score: inf
ROOT
ATOM      1  C   UNL     1     116.322 116.505 115.223  1.00  0.00     0.014 C 
ATOM      2  C   UNL     1     116.449 116.351 116.759  1.00  0.00    -0.006 C 
ATOM      3  C   UNL     1     116.890 117.711 117.402  1.00  0.00    -0.002 C 
ATOM      4  C   UNL     1     117.279 117.528 118.884  1.00  0.00     0.005 C 
ATOM      5  C   UNL     1     115.936 117.196 119.551  1.00  0.00     0.010 C 
ATOM      6  C   UNL     1     114.931 117.339 118.384  1.00  0.00    -0.006 C 
ATOM      7  C   UNL     1     115.569 118.442 117.569  1.00  0.00     0.013 C 
ATOM      8  C   UNL     1     115.048 116.128 117.418  1.00  0.00     0.126 C 
ATOM      9  C   UNL     1     113.498 117.649 118.832  1.00  0.00     0.014 C 
ATOM     10  C   UNL     1     117.449 115.194 117.023  1.00  0.00     0.014 C 
ENDROOT
BRANCH   8  11
ATOM     11  O   UNL     1     114.951 114.900 118.097  1.00  0.00    -0.392 OA
ATOM     12  H   UNL     1     114.400 114.303 117.527  1.00  0.00     0.211 HD
ENDBRANCH   8  11
TORSDOF 1
ENDMDL
MODEL 4
REMARK VINA RESULT:    -3.771      1.604      2.432
REMARK INTER + INTRA:          -3.882
REMARK INTER:                  -3.882
REMARK INTRA:                   0.000
REMARK UNBOUND:                 0.000
REMARK SMILES CC1(C)[C@@H]2CC[C@@](C)(C2)[C@@H]1O
REMARK SMILES IDX 1 1 2 2 4 3 5 4 6 5 7 6 9 7 10 8 8 9 3 10 11 11
REMARK H PARENT 11 12
REMARK Flexibility Score: inf
ROOT
ATOM      1  C   UNL     1     116.717 116.340 115.211  1.00  0.00     0.014 C 
ATOM      2  C   UNL     1     116.892 116.473 116.744  1.00  0.00    -0.006 C 
ATOM      3  C   UNL     1     115.544 116.930 117.402  1.00  0.00    -0.002 C 
ATOM      4  C   UNL     1     115.749 117.324 118.880  1.00  0.00     0.005 C 
ATOM      5  C   UNL     1     116.077 115.980 119.549  1.00  0.00     0.010 C 
ATOM      6  C   UNL     1     115.909 114.971 118.388  1.00  0.00    -0.006 C 
ATOM      7  C   UNL     1     114.802 115.617 117.584  1.00  0.00     0.013 C 
ATOM      8  C   UNL     1     117.108 115.072 117.407  1.00  0.00     0.126 C 
ATOM      9  C   UNL     1     115.590 113.544 118.847  1.00  0.00     0.014 C 
ATOM     10  C   UNL     1     118.062 117.462 116.989  1.00  0.00     0.014 C 
ENDROOT
BRANCH   8  11
ATOM     11  O   UNL     1     118.344 114.966 118.071  1.00  0.00    -0.392 OA
ATOM     12  H   UNL     1     118.449 115.792 118.610  1.00  0.00     0.211 HD
ENDBRANCH   8  11
TORSDOF 1
ENDMDL
MODEL 5
REMARK VINA RESULT:    -3.663      1.287      3.023
REMARK INTER + INTRA:          -3.770
REMARK INTER:                  -3.770
REMARK INTRA:                   0.000
REMARK UNBOUND:                 0.000
REMARK SMILES CC1(C)[C@@H]2CC[C@@](C)(C2)[C@@H]1O
REMARK SMILES IDX 1 1 2 2 4 3 5 4 6 5 7 6 9 7 10 8 8 9 3 10 11 11
REMARK H PARENT 11 12
REMARK Flexibility Score: inf
ROOT
ATOM      1  C   UNL     1     114.789 115.460 119.113  1.00  0.00     0.014 C 
ATOM      2  C   UNL     1     115.909 116.460 118.730  1.00  0.00    -0.006 C 
ATOM      3  C   UNL     1     117.249 115.691 118.460  1.00  0.00    -0.002 C 
ATOM      4  C   UNL     1     118.437 116.667 118.337  1.00  0.00     0.005 C 
ATOM      5  C   UNL     1     118.137 117.406 117.024  1.00  0.00     0.010 C 
ATOM      6  C   UNL     1     116.871 116.682 116.506  1.00  0.00    -0.006 C 
ATOM      7  C   UNL     1     117.103 115.273 117.007  1.00  0.00     0.013 C 
ATOM      8  C   UNL     1     115.629 117.108 117.334  1.00  0.00     0.126 C 
ATOM      9  C   UNL     1     116.679 116.775 114.989  1.00  0.00     0.014 C 
ATOM     10  C   UNL     1     116.014 117.493 119.883  1.00  0.00     0.014 C 
ENDROOT
BRANCH   8  11
ATOM     11  O   UNL     1     115.491 118.506 117.397  1.00  0.00    -0.392 OA
ATOM     12  H   UNL     1     115.005 118.782 116.576  1.00  0.00     0.211 HD
ENDBRANCH   8  11
TORSDOF 1
ENDMDL
MODEL 6
REMARK VINA RESULT:    -3.655      1.620      3.257
REMARK INTER + INTRA:          -3.762
REMARK INTER:                  -3.762
REMARK INTRA:                   0.000
REMARK UNBOUND:                 0.000
REMARK SMILES CC1(C)[C@@H]2CC[C@@](C)(C2)[C@@H]1O
REMARK SMILES IDX 1 1 2 2 4 3 5 4 6 5 7 6 9 7 10 8 8 9 3 10 11 11
REMARK H PARENT 11 12
REMARK Flexibility Score: inf
ROOT
ATOM      1  C   UNL     1     118.221 118.158 119.090  1.00  0.00     0.014 C 
ATOM      2  C   UNL     1     117.223 117.020 118.763  1.00  0.00    -0.006 C 
ATOM      3  C   UNL     1     115.800 117.616 118.481  1.00  0.00    -0.002 C 
ATOM      4  C   UNL     1     114.733 116.503 118.413  1.00  0.00     0.005 C 
ATOM      5  C   UNL     1     115.106 115.751 117.126  1.00  0.00     0.010 C 
ATOM      6  C   UNL     1     116.274 116.595 116.564  1.00  0.00    -0.006 C 
ATOM      7  C   UNL     1     115.884 117.987 117.010  1.00  0.00     0.013 C 
ATOM      8  C   UNL     1     117.565 116.351 117.391  1.00  0.00     0.126 C 
ATOM      9  C   UNL     1     116.463 116.461 115.049  1.00  0.00     0.014 C 
ATOM     10  C   UNL     1     117.248 116.030 119.959  1.00  0.00     0.014 C 
ENDROOT
BRANCH   8  11
ATOM     11  O   UNL     1     117.866 114.982 117.509  1.00  0.00    -0.392 OA
ATOM     12  H   UNL     1     118.105 114.824 118.459  1.00  0.00     0.211 HD
ENDBRANCH   8  11
TORSDOF 1
ENDMDL
MODEL 7
REMARK VINA RESULT:    -3.653      1.752      3.472
REMARK INTER + INTRA:          -3.759
REMARK INTER:                  -3.759
REMARK INTRA:                   0.000
REMARK UNBOUND:                 0.000
REMARK SMILES CC1(C)[C@@H]2CC[C@@](C)(C2)[C@@H]1O
REMARK SMILES IDX 1 1 2 2 4 3 5 4 6 5 7 6 9 7 10 8 8 9 3 10 11 11
REMARK H PARENT 11 12
REMARK Flexibility Score: inf
ROOT
ATOM      1  C   UNL     1     117.646 114.703 119.085  1.00  0.00     0.014 C 
ATOM      2  C   UNL     1     116.668 115.855 118.741  1.00  0.00    -0.006 C 
ATOM      3  C   UNL     1     117.465 117.182 118.492  1.00  0.00    -0.002 C 
ATOM      4  C   UNL     1     116.516 118.396 118.409  1.00  0.00     0.005 C 
ATOM      5  C   UNL     1     115.754 118.144 117.100  1.00  0.00     0.010 C 
ATOM      6  C   UNL     1     116.440 116.874 116.544  1.00  0.00    -0.006 C 
ATOM      7  C   UNL     1     117.860 117.060 117.031  1.00  0.00     0.013 C 
ATOM      8  C   UNL     1     115.995 115.623 117.348  1.00  0.00     0.126 C 
ATOM      9  C   UNL     1     116.323 116.719 115.023  1.00  0.00     0.014 C 
ATOM     10  C   UNL     1     115.652 115.958 119.910  1.00  0.00     0.014 C 
ENDROOT
BRANCH   8  11
ATOM     11  O   UNL     1     114.595 115.516 117.427  1.00  0.00    -0.392 OA
ATOM     12  H   UNL     1     114.236 116.440 117.373  1.00  0.00     0.211 HD
ENDBRANCH   8  11
TORSDOF 1
ENDMDL
MODEL 8
REMARK VINA RESULT:    -3.529      1.783      2.987
REMARK INTER + INTRA:          -3.632
REMARK INTER:                  -3.632
REMARK INTRA:                   0.000
REMARK UNBOUND:                 0.000
REMARK SMILES CC1(C)[C@@H]2CC[C@@](C)(C2)[C@@H]1O
REMARK SMILES IDX 1 1 2 2 4 3 5 4 6 5 7 6 9 7 10 8 8 9 3 10 11 11
REMARK H PARENT 11 12
REMARK Flexibility Score: inf
ROOT
ATOM      1  C   UNL     1     117.557 118.845 119.111  1.00  0.00     0.014 C 
ATOM      2  C   UNL     1     116.552 118.159 118.152  1.00  0.00    -0.006 C 
ATOM      3  C   UNL     1     117.318 117.485 116.961  1.00  0.00    -0.002 C 
ATOM      4  C   UNL     1     116.342 117.025 115.858  1.00  0.00     0.005 C 
ATOM      5  C   UNL     1     115.580 115.876 116.534  1.00  0.00     0.010 C 
ATOM      6  C   UNL     1     116.292 115.753 117.903  1.00  0.00    -0.006 C 
ATOM      7  C   UNL     1     117.710 116.137 117.541  1.00  0.00     0.013 C 
ATOM      8  C   UNL     1     115.878 116.923 118.835  1.00  0.00     0.126 C 
ATOM      9  C   UNL     1     116.171 114.365 118.543  1.00  0.00     0.014 C 
ATOM     10  C   UNL     1     115.540 119.243 117.696  1.00  0.00     0.014 C 
ENDROOT
BRANCH   8  11
ATOM     11  O   UNL     1     114.481 117.048 118.937  1.00  0.00    -0.392 OA
ATOM     12  H   UNL     1     114.162 117.394 118.064  1.00  0.00     0.211 HD
ENDBRANCH   8  11
TORSDOF 1
ENDMDL
MODEL 9
REMARK VINA RESULT:    -3.524      1.281      3.208
REMARK INTER + INTRA:          -3.627
REMARK INTER:                  -3.627
REMARK INTRA:                   0.000
REMARK UNBOUND:                 0.000
REMARK SMILES CC1(C)[C@@H]2CC[C@@](C)(C2)[C@@H]1O
REMARK SMILES IDX 1 1 2 2 4 3 5 4 6 5 7 6 9 7 10 8 8 9 3 10 11 11
REMARK H PARENT 11 12
REMARK Flexibility Score: inf
ROOT
ATOM      1  C   UNL     1     118.711 115.765 119.301  1.00  0.00     0.014 C 
ATOM      2  C   UNL     1     118.055 116.694 118.250  1.00  0.00    -0.006 C 
ATOM      3  C   UNL     1     117.398 115.838 117.111  1.00  0.00    -0.002 C 
ATOM      4  C   UNL     1     116.970 116.725 115.923  1.00  0.00     0.005 C 
ATOM      5  C   UNL     1     115.814 117.549 116.511  1.00  0.00     0.010 C 
ATOM      6  C   UNL     1     115.656 116.950 117.929  1.00  0.00    -0.006 C 
ATOM      7  C   UNL     1     116.035 115.505 117.692  1.00  0.00     0.013 C 
ATOM      8  C   UNL     1     116.811 117.429 118.850  1.00  0.00     0.126 C 
ATOM      9  C   UNL     1     114.257 117.133 118.528  1.00  0.00     0.014 C 
ATOM     10  C   UNL     1     119.157 117.658 117.737  1.00  0.00     0.014 C 
ENDROOT
BRANCH   8  11
ATOM     11  O   UNL     1     116.947 118.829 118.842  1.00  0.00    -0.392 OA
ATOM     12  H   UNL     1     116.517 119.152 118.008  1.00  0.00     0.211 HD
ENDBRANCH   8  11
TORSDOF 1
ENDMDL
