MODEL 1
REMARK VINA RESULT:    -4.012      0.000      0.000
REMARK INTER + INTRA:         -13.113
REMARK INTER:                  -9.172
REMARK INTRA:                  -3.942
REMARK UNBOUND:                -3.942
REMARK SMILES CCCCCCCCCCCCCCCCCCCCCCCC(=O)[O-]
REMARK SMILES IDX 13 1 14 2 15 3 16 4 17 5 18 6 19 7 20 8 21 9 22 10 23 11
REMARK SMILES IDX 24 12 25 13 26 14 12 15 11 16 10 17 9 18 8 19 7 20 6 21 5 22
REMARK SMILES IDX 4 23 3 24 2 25 1 26
REMARK H PARENT
REMARK Flexibility Score: inf
ROOT
ATOM      1  C   UNL     1     -20.386 -26.355 -18.540  1.00  0.00     0.000 C 
ENDROOT
BRANCH   1   2
ATOM      2  C   UNL     1     -20.376 -24.860 -18.906  1.00  0.00     0.000 C 
BRANCH   2   3
ATOM      3  C   UNL     1     -19.805 -23.970 -17.786  1.00  0.00     0.000 C 
BRANCH   3   4
ATOM      4  C   UNL     1     -20.769 -22.895 -17.253  1.00  0.00     0.000 C 
BRANCH   4   5
ATOM      5  C   UNL     1     -21.101 -23.072 -15.761  1.00  0.00     0.000 C 
BRANCH   5   6
ATOM      6  C   UNL     1     -20.579 -24.402 -15.194  1.00  0.00     0.000 C 
BRANCH   6   7
ATOM      7  C   UNL     1     -21.707 -25.416 -14.941  1.00  0.00     0.000 C 
BRANCH   7   8
ATOM      8  C   UNL     1     -23.054 -24.975 -15.539  1.00  0.00     0.000 C 
BRANCH   8   9
ATOM      9  C   UNL     1     -23.471 -25.717 -16.822  1.00  0.00     0.000 C 
BRANCH   9  10
ATOM     10  C   UNL     1     -24.064 -24.782 -17.887  1.00  0.00     0.006 C 
BRANCH  10  11
ATOM     11  C   UNL     1     -25.368 -25.353 -18.452  1.00  0.00     0.053 C 
BRANCH  11  12
ATOM     12  C   UNL     1     -26.548 -24.638 -17.872  1.00  0.00     0.041 C 
ATOM     13  O   UNL     1     -26.378 -23.706 -17.044  1.00  0.00    -0.550 OA
ATOM     14  O   UNL     1     -27.832 -24.961 -18.291  1.00  0.00    -0.550 OA
ENDBRANCH  11  12
ENDBRANCH  10  11
ENDBRANCH   9  10
ENDBRANCH   8   9
ENDBRANCH   7   8
ENDBRANCH   6   7
ENDBRANCH   5   6
ENDBRANCH   4   5
ENDBRANCH   3   4
ENDBRANCH   2   3
ENDBRANCH   1   2
BRANCH   1  15
ATOM     15  C   UNL     1     -19.135 -27.108 -19.033  1.00  0.00     0.000 C 
BRANCH  15  16
ATOM     16  C   UNL     1     -18.256 -27.722 -17.927  1.00  0.00     0.000 C 
BRANCH  16  17
ATOM     17  C   UNL     1     -18.650 -27.255 -16.520  1.00  0.00     0.000 C 
BRANCH  17  18
ATOM     18  C   UNL     1     -17.429 -26.748 -15.745  1.00  0.00    -0.000 C 
BRANCH  18  19
ATOM     19  C   UNL     1     -16.720 -25.632 -16.526  1.00  0.00    -0.000 C 
BRANCH  19  20
ATOM     20  C   UNL     1     -15.225 -25.917 -16.748  1.00  0.00    -0.000 C 
BRANCH  20  21
ATOM     21  C   UNL     1     -14.875 -26.474 -18.143  1.00  0.00    -0.000 C 
BRANCH  21  22
ATOM     22  C   UNL     1     -13.889 -27.661 -18.106  1.00  0.00    -0.000 C 
BRANCH  22  23
ATOM     23  C   UNL     1     -13.515 -28.059 -16.665  1.00  0.00    -0.000 C 
BRANCH  23  24
ATOM     24  C   UNL     1     -13.909 -29.511 -16.339  1.00  0.00    -0.000 C 
BRANCH  24  25
ATOM     25  C   UNL     1     -15.409 -29.798 -16.536  1.00  0.00    -0.003 C 
ATOM     26  C   UNL     1     -16.105 -30.199 -15.233  1.00  0.00     0.004 C 
ENDBRANCH  24  25
ENDBRANCH  23  24
ENDBRANCH  22  23
ENDBRANCH  21  22
ENDBRANCH  20  21
ENDBRANCH  19  20
ENDBRANCH  18  19
ENDBRANCH  17  18
ENDBRANCH  16  17
ENDBRANCH  15  16
ENDBRANCH   1  15
TORSDOF 22
ENDMDL
MODEL 2
REMARK VINA RESULT:    -3.995     14.570     16.814
REMARK INTER + INTRA:         -13.075
REMARK INTER:                  -9.869
REMARK INTRA:                  -3.206
REMARK UNBOUND:                -3.942
REMARK SMILES CCCCCCCCCCCCCCCCCCCCCCCC(=O)[O-]
REMARK SMILES IDX 13 1 14 2 15 3 16 4 17 5 18 6 19 7 20 8 21 9 22 10 23 11
REMARK SMILES IDX 24 12 25 13 26 14 12 15 11 16 10 17 9 18 8 19 7 20 6 21 5 22
REMARK SMILES IDX 4 23 3 24 2 25 1 26
REMARK H PARENT
REMARK Flexibility Score: inf
ROOT
ATOM      1  C   UNL     1     -26.519 -23.126 -31.217  1.00  0.00     0.000 C 
ENDROOT
BRANCH   1   2
ATOM      2  C   UNL     1     -27.830 -22.336 -31.379  1.00  0.00     0.000 C 
BRANCH   2   3
ATOM      3  C   UNL     1     -28.659 -22.787 -32.596  1.00  0.00     0.000 C 
BRANCH   3   4
ATOM      4  C   UNL     1     -28.777 -21.748 -33.725  1.00  0.00     0.000 C 
BRANCH   4   5
ATOM      5  C   UNL     1     -27.477 -21.589 -34.534  1.00  0.00     0.000 C 
BRANCH   5   6
ATOM      6  C   UNL     1     -26.746 -20.273 -34.223  1.00  0.00     0.000 C 
BRANCH   6   7
ATOM      7  C   UNL     1     -27.671 -19.225 -33.581  1.00  0.00     0.000 C 
BRANCH   7   8
ATOM      8  C   UNL     1     -27.283 -18.892 -32.131  1.00  0.00     0.000 C 
BRANCH   8   9
ATOM      9  C   UNL     1     -28.457 -18.849 -31.136  1.00  0.00     0.000 C 
BRANCH   9  10
ATOM     10  C   UNL     1     -28.017 -18.494 -29.708  1.00  0.00     0.006 C 
BRANCH  10  11
ATOM     11  C   UNL     1     -26.767 -19.283 -29.308  1.00  0.00     0.053 C 
BRANCH  11  12
ATOM     12  C   UNL     1     -27.021 -20.073 -28.064  1.00  0.00     0.041 C 
ATOM     13  O   UNL     1     -26.708 -21.291 -28.012  1.00  0.00    -0.550 OA
ATOM     14  O   UNL     1     -27.550 -19.451 -26.940  1.00  0.00    -0.550 OA
ENDBRANCH  11  12
ENDBRANCH  10  11
ENDBRANCH   9  10
ENDBRANCH   8   9
ENDBRANCH   7   8
ENDBRANCH   6   7
ENDBRANCH   5   6
ENDBRANCH   4   5
ENDBRANCH   3   4
ENDBRANCH   2   3
ENDBRANCH   1   2
BRANCH   1  15
ATOM     15  C   UNL     1     -25.282 -22.221 -31.056  1.00  0.00     0.000 C 
BRANCH  15  16
ATOM     16  C   UNL     1     -24.284 -22.253 -32.228  1.00  0.00     0.000 C 
BRANCH  16  17
ATOM     17  C   UNL     1     -24.597 -23.353 -33.252  1.00  0.00     0.000 C 
BRANCH  17  18
ATOM     18  C   UNL     1     -23.539 -23.392 -34.360  1.00  0.00    -0.000 C 
BRANCH  18  19
ATOM     19  C   UNL     1     -22.167 -22.974 -33.812  1.00  0.00    -0.000 C 
BRANCH  19  20
ATOM     20  C   UNL     1     -21.001 -23.685 -34.518  1.00  0.00    -0.000 C 
BRANCH  20  21
ATOM     21  C   UNL     1     -20.101 -24.525 -33.590  1.00  0.00    -0.000 C 
BRANCH  21  22
ATOM     22  C   UNL     1     -20.888 -25.388 -32.581  1.00  0.00    -0.000 C 
BRANCH  22  23
ATOM     23  C   UNL     1     -21.673 -26.519 -33.273  1.00  0.00    -0.000 C 
BRANCH  23  24
ATOM     24  C   UNL     1     -21.409 -27.892 -32.632  1.00  0.00    -0.000 C 
BRANCH  24  25
ATOM     25  C   UNL     1     -20.624 -28.854 -33.543  1.00  0.00    -0.003 C 
ATOM     26  C   UNL     1     -19.204 -29.114 -33.037  1.00  0.00     0.004 C 
ENDBRANCH  24  25
ENDBRANCH  23  24
ENDBRANCH  22  23
ENDBRANCH  21  22
ENDBRANCH  20  21
ENDBRANCH  19  20
ENDBRANCH  18  19
ENDBRANCH  17  18
ENDBRANCH  16  17
ENDBRANCH  15  16
ENDBRANCH   1  15
TORSDOF 22
ENDMDL
MODEL 3
REMARK VINA RESULT:    -3.981      4.558      9.466
REMARK INTER + INTRA:         -13.044
REMARK INTER:                  -9.813
REMARK INTRA:                  -3.231
REMARK UNBOUND:                -3.942
REMARK SMILES CCCCCCCCCCCCCCCCCCCCCCCC(=O)[O-]
REMARK SMILES IDX 13 1 14 2 15 3 16 4 17 5 18 6 19 7 20 8 21 9 22 10 23 11
REMARK SMILES IDX 24 12 25 13 26 14 12 15 11 16 10 17 9 18 8 19 7 20 6 21 5 22
REMARK SMILES IDX 4 23 3 24 2 25 1 26
REMARK H PARENT
REMARK Flexibility Score: inf
ROOT
ATOM      1  C   UNL     1     -19.554 -25.129 -18.531  1.00  0.00     0.000 C 
ENDROOT
BRANCH   1   2
ATOM      2  C   UNL     1     -18.335 -26.061 -18.413  1.00  0.00     0.000 C 
BRANCH   2   3
ATOM      3  C   UNL     1     -18.718 -27.512 -18.066  1.00  0.00     0.000 C 
BRANCH   3   4
ATOM      4  C   UNL     1     -18.810 -27.820 -16.561  1.00  0.00     0.000 C 
BRANCH   4   5
ATOM      5  C   UNL     1     -17.511 -28.415 -15.989  1.00  0.00     0.000 C 
BRANCH   5   6
ATOM      6  C   UNL     1     -16.721 -27.402 -15.144  1.00  0.00     0.000 C 
BRANCH   6   7
ATOM      7  C   UNL     1     -15.277 -27.219 -15.643  1.00  0.00     0.000 C 
BRANCH   7   8
ATOM      8  C   UNL     1     -15.140 -26.085 -16.672  1.00  0.00     0.000 C 
BRANCH   8   9
ATOM      9  C   UNL     1     -14.983 -26.545 -18.132  1.00  0.00     0.000 C 
BRANCH   9  10
ATOM     10  C   UNL     1     -13.712 -27.374 -18.365  1.00  0.00     0.006 C 
BRANCH  10  11
ATOM     11  C   UNL     1     -12.457 -26.510 -18.204  1.00  0.00     0.053 C 
BRANCH  11  12
ATOM     12  C   UNL     1     -11.475 -27.177 -17.295  1.00  0.00     0.041 C 
ATOM     13  O   UNL     1     -11.865 -28.036 -16.461  1.00  0.00    -0.550 OA
ATOM     14  O   UNL     1     -10.119 -26.895 -17.408  1.00  0.00    -0.550 OA
ENDBRANCH  11  12
ENDBRANCH  10  11
ENDBRANCH   9  10
ENDBRANCH   8   9
ENDBRANCH   7   8
ENDBRANCH   6   7
ENDBRANCH   5   6
ENDBRANCH   4   5
ENDBRANCH   3   4
ENDBRANCH   2   3
ENDBRANCH   1   2
BRANCH   1  15
ATOM     15  C   UNL     1     -19.543 -23.984 -17.499  1.00  0.00     0.000 C 
BRANCH  15  16
ATOM     16  C   UNL     1     -18.502 -24.121 -16.372  1.00  0.00     0.000 C 
BRANCH  16  17
ATOM     17  C   UNL     1     -19.109 -24.616 -15.053  1.00  0.00     0.000 C 
BRANCH  17  18
ATOM     18  C   UNL     1     -20.629 -24.424 -15.038  1.00  0.00    -0.000 C 
BRANCH  18  19
ATOM     19  C   UNL     1     -21.344 -25.782 -15.022  1.00  0.00    -0.000 C 
BRANCH  19  20
ATOM     20  C   UNL     1     -22.775 -25.711 -15.581  1.00  0.00    -0.000 C 
BRANCH  20  21
ATOM     21  C   UNL     1     -22.861 -25.558 -17.113  1.00  0.00    -0.000 C 
BRANCH  21  22
ATOM     22  C   UNL     1     -23.259 -24.138 -17.572  1.00  0.00    -0.000 C 
BRANCH  22  23
ATOM     23  C   UNL     1     -24.658 -23.736 -17.066  1.00  0.00    -0.000 C 
BRANCH  23  24
ATOM     24  C   UNL     1     -25.771 -24.616 -17.663  1.00  0.00    -0.000 C 
BRANCH  24  25
ATOM     25  C   UNL     1     -27.189 -24.087 -17.379  1.00  0.00    -0.003 C 
ATOM     26  C   UNL     1     -28.280 -25.028 -17.896  1.00  0.00     0.004 C 
ENDBRANCH  24  25
ENDBRANCH  23  24
ENDBRANCH  22  23
ENDBRANCH  21  22
ENDBRANCH  20  21
ENDBRANCH  19  20
ENDBRANCH  18  19
ENDBRANCH  17  18
ENDBRANCH  16  17
ENDBRANCH  15  16
ENDBRANCH   1  15
TORSDOF 22
ENDMDL
MODEL 4
REMARK VINA RESULT:    -3.972      1.673      2.596
REMARK INTER + INTRA:         -13.023
REMARK INTER:                 -10.211
REMARK INTRA:                  -2.812
REMARK UNBOUND:                -3.942
REMARK SMILES CCCCCCCCCCCCCCCCCCCCCCCC(=O)[O-]
REMARK SMILES IDX 13 1 14 2 15 3 16 4 17 5 18 6 19 7 20 8 21 9 22 10 23 11
REMARK SMILES IDX 24 12 25 13 26 14 12 15 11 16 10 17 9 18 8 19 7 20 6 21 5 22
REMARK SMILES IDX 4 23 3 24 2 25 1 26
REMARK H PARENT
REMARK Flexibility Score: inf
ROOT
ATOM      1  C   UNL     1     -18.104 -26.189 -18.875  1.00  0.00     0.000 C 
ENDROOT
BRANCH   1   2
ATOM      2  C   UNL     1     -19.311 -25.769 -19.734  1.00  0.00     0.000 C 
BRANCH   2   3
ATOM      3  C   UNL     1     -20.598 -26.535 -19.379  1.00  0.00     0.000 C 
BRANCH   3   4
ATOM      4  C   UNL     1     -21.798 -25.651 -18.994  1.00  0.00     0.000 C 
BRANCH   4   5
ATOM      5  C   UNL     1     -21.713 -25.117 -17.553  1.00  0.00     0.000 C 
BRANCH   5   6
ATOM      6  C   UNL     1     -22.682 -25.835 -16.600  1.00  0.00     0.000 C 
BRANCH   6   7
ATOM      7  C   UNL     1     -23.327 -24.876 -15.586  1.00  0.00     0.000 C 
BRANCH   7   8
ATOM      8  C   UNL     1     -23.319 -23.412 -16.058  1.00  0.00     0.000 C 
BRANCH   8   9
ATOM      9  C   UNL     1     -24.401 -23.055 -17.093  1.00  0.00     0.000 C 
BRANCH   9  10
ATOM     10  C   UNL     1     -25.733 -23.775 -16.838  1.00  0.00     0.006 C 
BRANCH  10  11
ATOM     11  C   UNL     1     -26.212 -24.501 -18.098  1.00  0.00     0.053 C 
BRANCH  11  12
ATOM     12  C   UNL     1     -27.677 -24.791 -18.011  1.00  0.00     0.041 C 
ATOM     13  O   UNL     1     -28.232 -25.515 -18.878  1.00  0.00    -0.550 OA
ATOM     14  O   UNL     1     -28.419 -24.310 -16.939  1.00  0.00    -0.550 OA
ENDBRANCH  11  12
ENDBRANCH  10  11
ENDBRANCH   9  10
ENDBRANCH   8   9
ENDBRANCH   7   8
ENDBRANCH   6   7
ENDBRANCH   5   6
ENDBRANCH   4   5
ENDBRANCH   3   4
ENDBRANCH   2   3
ENDBRANCH   1   2
BRANCH   1  15
ATOM     15  C   UNL     1     -18.228 -27.619 -18.315  1.00  0.00     0.000 C 
BRANCH  15  16
ATOM     16  C   UNL     1     -18.203 -27.732 -16.779  1.00  0.00     0.000 C 
BRANCH  16  17
ATOM     17  C   UNL     1     -18.965 -26.597 -16.082  1.00  0.00     0.000 C 
BRANCH  17  18
ATOM     18  C   UNL     1     -18.089 -25.909 -15.030  1.00  0.00    -0.000 C 
BRANCH  18  19
ATOM     19  C   UNL     1     -17.615 -24.539 -15.534  1.00  0.00    -0.000 C 
BRANCH  19  20
ATOM     20  C   UNL     1     -16.083 -24.415 -15.577  1.00  0.00    -0.000 C 
BRANCH  20  21
ATOM     21  C   UNL     1     -15.327 -25.758 -15.535  1.00  0.00    -0.000 C 
BRANCH  21  22
ATOM     22  C   UNL     1     -14.865 -26.253 -16.922  1.00  0.00    -0.000 C 
BRANCH  22  23
ATOM     23  C   UNL     1     -14.436 -27.732 -16.897  1.00  0.00    -0.000 C 
BRANCH  23  24
ATOM     24  C   UNL     1     -13.163 -27.987 -17.723  1.00  0.00    -0.000 C 
BRANCH  24  25
ATOM     25  C   UNL     1     -12.307 -26.724 -17.935  1.00  0.00    -0.003 C 
ATOM     26  C   UNL     1     -10.843 -26.936 -17.544  1.00  0.00     0.004 C 
ENDBRANCH  24  25
ENDBRANCH  23  24
ENDBRANCH  22  23
ENDBRANCH  21  22
ENDBRANCH  20  21
ENDBRANCH  19  20
ENDBRANCH  18  19
ENDBRANCH  17  18
ENDBRANCH  16  17
ENDBRANCH  15  16
ENDBRANCH   1  15
TORSDOF 22
ENDMDL
MODEL 5
REMARK VINA RESULT:    -3.748      4.223      9.502
REMARK INTER + INTRA:         -12.510
REMARK INTER:                  -9.766
REMARK INTRA:                  -2.744
REMARK UNBOUND:                -3.942
REMARK SMILES CCCCCCCCCCCCCCCCCCCCCCCC(=O)[O-]
REMARK SMILES IDX 13 1 14 2 15 3 16 4 17 5 18 6 19 7 20 8 21 9 22 10 23 11
REMARK SMILES IDX 24 12 25 13 26 14 12 15 11 16 10 17 9 18 8 19 7 20 6 21 5 22
REMARK SMILES IDX 4 23 3 24 2 25 1 26
REMARK H PARENT
REMARK Flexibility Score: inf
ROOT
ATOM      1  C   UNL     1     -18.607 -25.814 -19.684  1.00  0.00     0.000 C 
ENDROOT
BRANCH   1   2
ATOM      2  C   UNL     1     -17.856 -26.852 -18.831  1.00  0.00     0.000 C 
BRANCH   2   3
ATOM      3  C   UNL     1     -16.393 -26.458 -18.554  1.00  0.00     0.000 C 
BRANCH   3   4
ATOM      4  C   UNL     1     -16.151 -25.761 -17.202  1.00  0.00     0.000 C 
BRANCH   4   5
ATOM      5  C   UNL     1     -16.913 -26.423 -16.040  1.00  0.00     0.000 C 
BRANCH   5   6
ATOM      6  C   UNL     1     -15.972 -27.069 -15.011  1.00  0.00     0.000 C 
BRANCH   6   7
ATOM      7  C   UNL     1     -16.152 -28.595 -14.927  1.00  0.00     0.000 C 
BRANCH   7   8
ATOM      8  C   UNL     1     -15.654 -29.326 -16.185  1.00  0.00     0.000 C 
BRANCH   8   9
ATOM      9  C   UNL     1     -14.423 -30.226 -15.972  1.00  0.00     0.000 C 
BRANCH   9  10
ATOM     10  C   UNL     1     -13.166 -29.695 -16.676  1.00  0.00     0.006 C 
BRANCH  10  11
ATOM     11  C   UNL     1     -13.520 -28.573 -17.657  1.00  0.00     0.053 C 
BRANCH  11  12
ATOM     12  C   UNL     1     -12.561 -27.434 -17.518  1.00  0.00     0.041 C 
ATOM     13  O   UNL     1     -12.745 -26.369 -18.163  1.00  0.00    -0.550 OA
ATOM     14  O   UNL     1     -11.496 -27.525 -16.630  1.00  0.00    -0.550 OA
ENDBRANCH  11  12
ENDBRANCH  10  11
ENDBRANCH   9  10
ENDBRANCH   8   9
ENDBRANCH   7   8
ENDBRANCH   6   7
ENDBRANCH   5   6
ENDBRANCH   4   5
ENDBRANCH   3   4
ENDBRANCH   2   3
ENDBRANCH   1   2
BRANCH   1  15
ATOM     15  C   UNL     1     -19.951 -25.381 -19.066  1.00  0.00     0.000 C 
BRANCH  15  16
ATOM     16  C   UNL     1     -19.853 -24.684 -17.696  1.00  0.00     0.000 C 
BRANCH  16  17
ATOM     17  C   UNL     1     -20.437 -25.524 -16.553  1.00  0.00     0.000 C 
BRANCH  17  18
ATOM     18  C   UNL     1     -20.440 -24.739 -15.237  1.00  0.00    -0.000 C 
BRANCH  18  19
ATOM     19  C   UNL     1     -21.677 -23.834 -15.152  1.00  0.00    -0.000 C 
BRANCH  19  20
ATOM     20  C   UNL     1     -22.995 -24.607 -15.324  1.00  0.00    -0.000 C 
BRANCH  20  21
ATOM     21  C   UNL     1     -23.880 -24.121 -16.490  1.00  0.00    -0.000 C 
BRANCH  21  22
ATOM     22  C   UNL     1     -24.129 -25.197 -17.569  1.00  0.00    -0.000 C 
BRANCH  22  23
ATOM     23  C   UNL     1     -25.475 -24.993 -18.290  1.00  0.00    -0.000 C 
BRANCH  23  24
ATOM     24  C   UNL     1     -26.253 -23.781 -17.747  1.00  0.00    -0.000 C 
BRANCH  24  25
ATOM     25  C   UNL     1     -27.703 -24.112 -17.348  1.00  0.00    -0.003 C 
ATOM     26  C   UNL     1     -28.331 -25.177 -18.250  1.00  0.00     0.004 C 
ENDBRANCH  24  25
ENDBRANCH  23  24
ENDBRANCH  22  23
ENDBRANCH  21  22
ENDBRANCH  20  21
ENDBRANCH  19  20
ENDBRANCH  18  19
ENDBRANCH  17  18
ENDBRANCH  16  17
ENDBRANCH  15  16
ENDBRANCH   1  15
TORSDOF 22
ENDMDL
MODEL 6
REMARK VINA RESULT:    -3.716      1.499      3.020
REMARK INTER + INTRA:         -12.436
REMARK INTER:                  -9.620
REMARK INTRA:                  -2.816
REMARK UNBOUND:                -3.942
REMARK SMILES CCCCCCCCCCCCCCCCCCCCCCCC(=O)[O-]
REMARK SMILES IDX 13 1 14 2 15 3 16 4 17 5 18 6 19 7 20 8 21 9 22 10 23 11
REMARK SMILES IDX 24 12 25 13 26 14 12 15 11 16 10 17 9 18 8 19 7 20 6 21 5 22
REMARK SMILES IDX 4 23 3 24 2 25 1 26
REMARK H PARENT
REMARK Flexibility Score: inf
ROOT
ATOM      1  C   UNL     1     -17.047 -26.427 -19.338  1.00  0.00     0.000 C 
ENDROOT
BRANCH   1   2
ATOM      2  C   UNL     1     -18.390 -25.743 -19.652  1.00  0.00     0.000 C 
BRANCH   2   3
ATOM      3  C   UNL     1     -19.568 -26.732 -19.721  1.00  0.00     0.000 C 
BRANCH   3   4
ATOM      4  C   UNL     1     -20.850 -26.270 -19.005  1.00  0.00     0.000 C 
BRANCH   4   5
ATOM      5  C   UNL     1     -20.808 -26.509 -17.485  1.00  0.00     0.000 C 
BRANCH   5   6
ATOM      6  C   UNL     1     -20.786 -25.198 -16.683  1.00  0.00     0.000 C 
BRANCH   6   7
ATOM      7  C   UNL     1     -21.536 -25.314 -15.345  1.00  0.00     0.000 C 
BRANCH   7   8
ATOM      8  C   UNL     1     -23.065 -25.329 -15.517  1.00  0.00     0.000 C 
BRANCH   8   9
ATOM      9  C   UNL     1     -23.704 -23.955 -15.785  1.00  0.00     0.000 C 
BRANCH   9  10
ATOM     10  C   UNL     1     -24.201 -23.799 -17.230  1.00  0.00     0.006 C 
BRANCH  10  11
ATOM     11  C   UNL     1     -25.719 -23.985 -17.310  1.00  0.00     0.053 C 
BRANCH  11  12
ATOM     12  C   UNL     1     -26.061 -25.118 -18.224  1.00  0.00     0.041 C 
ATOM     13  O   UNL     1     -27.262 -25.452 -18.398  1.00  0.00    -0.550 OA
ATOM     14  O   UNL     1     -25.057 -25.768 -18.932  1.00  0.00    -0.550 OA
ENDBRANCH  11  12
ENDBRANCH  10  11
ENDBRANCH   9  10
ENDBRANCH   8   9
ENDBRANCH   7   8
ENDBRANCH   6   7
ENDBRANCH   5   6
ENDBRANCH   4   5
ENDBRANCH   3   4
ENDBRANCH   2   3
ENDBRANCH   1   2
BRANCH   1  15
ATOM     15  C   UNL     1     -17.017 -27.092 -17.948  1.00  0.00     0.000 C 
BRANCH  15  16
ATOM     16  C   UNL     1     -16.824 -26.131 -16.761  1.00  0.00     0.000 C 
BRANCH  16  17
ATOM     17  C   UNL     1     -17.675 -26.506 -15.541  1.00  0.00     0.000 C 
BRANCH  17  18
ATOM     18  C   UNL     1     -17.754 -28.027 -15.370  1.00  0.00    -0.000 C 
BRANCH  18  19
ATOM     19  C   UNL     1     -16.412 -28.584 -14.875  1.00  0.00    -0.000 C 
BRANCH  19  20
ATOM     20  C   UNL     1     -15.994 -29.870 -15.607  1.00  0.00    -0.000 C 
BRANCH  20  21
ATOM     21  C   UNL     1     -14.571 -29.839 -16.202  1.00  0.00    -0.000 C 
BRANCH  21  22
ATOM     22  C   UNL     1     -13.979 -28.418 -16.317  1.00  0.00    -0.000 C 
BRANCH  22  23
ATOM     23  C   UNL     1     -13.262 -28.197 -17.662  1.00  0.00    -0.000 C 
BRANCH  23  24
ATOM     24  C   UNL     1     -12.752 -26.753 -17.823  1.00  0.00    -0.000 C 
BRANCH  24  25
ATOM     25  C   UNL     1     -11.247 -26.666 -18.139  1.00  0.00    -0.003 C 
ATOM     26  C   UNL     1     -10.374 -26.944 -16.913  1.00  0.00     0.004 C 
ENDBRANCH  24  25
ENDBRANCH  23  24
ENDBRANCH  22  23
ENDBRANCH  21  22
ENDBRANCH  20  21
ENDBRANCH  19  20
ENDBRANCH  18  19
ENDBRANCH  17  18
ENDBRANCH  16  17
ENDBRANCH  15  16
ENDBRANCH   1  15
TORSDOF 22
ENDMDL
MODEL 7
REMARK VINA RESULT:    -3.682     15.087     17.892
REMARK INTER + INTRA:         -12.360
REMARK INTER:                  -8.965
REMARK INTRA:                  -3.395
REMARK UNBOUND:                -3.942
REMARK SMILES CCCCCCCCCCCCCCCCCCCCCCCC(=O)[O-]
REMARK SMILES IDX 13 1 14 2 15 3 16 4 17 5 18 6 19 7 20 8 21 9 22 10 23 11
REMARK SMILES IDX 24 12 25 13 26 14 12 15 11 16 10 17 9 18 8 19 7 20 6 21 5 22
REMARK SMILES IDX 4 23 3 24 2 25 1 26
REMARK H PARENT
REMARK Flexibility Score: inf
ROOT
ATOM      1  C   UNL     1     -14.135 -34.919 -27.268  1.00  0.00     0.000 C 
ENDROOT
BRANCH   1   2
ATOM      2  C   UNL     1     -14.346 -35.697 -28.579  1.00  0.00     0.000 C 
BRANCH   2   3
ATOM      3  C   UNL     1     -14.146 -37.215 -28.417  1.00  0.00     0.000 C 
BRANCH   3   4
ATOM      4  C   UNL     1     -12.981 -37.810 -29.230  1.00  0.00     0.000 C 
BRANCH   4   5
ATOM      5  C   UNL     1     -12.514 -36.888 -30.371  1.00  0.00     0.000 C 
BRANCH   5   6
ATOM      6  C   UNL     1     -12.715 -37.519 -31.758  1.00  0.00     0.000 C 
BRANCH   6   7
ATOM      7  C   UNL     1     -13.994 -37.018 -32.452  1.00  0.00     0.000 C 
BRANCH   7   8
ATOM      8  C   UNL     1     -15.270 -37.676 -31.902  1.00  0.00     0.000 C 
BRANCH   8   9
ATOM      9  C   UNL     1     -16.432 -36.708 -31.615  1.00  0.00     0.000 C 
BRANCH   9  10
ATOM     10  C   UNL     1     -17.723 -37.088 -32.354  1.00  0.00     0.006 C 
BRANCH  10  11
ATOM     11  C   UNL     1     -17.928 -36.204 -33.588  1.00  0.00     0.053 C 
BRANCH  11  12
ATOM     12  C   UNL     1     -19.375 -36.155 -33.963  1.00  0.00     0.041 C 
ATOM     13  O   UNL     1     -19.868 -35.104 -34.449  1.00  0.00    -0.550 OA
ATOM     14  O   UNL     1     -20.167 -37.289 -33.833  1.00  0.00    -0.550 OA
ENDBRANCH  11  12
ENDBRANCH  10  11
ENDBRANCH   9  10
ENDBRANCH   8   9
ENDBRANCH   7   8
ENDBRANCH   6   7
ENDBRANCH   5   6
ENDBRANCH   4   5
ENDBRANCH   3   4
ENDBRANCH   2   3
ENDBRANCH   1   2
BRANCH   1  15
ATOM     15  C   UNL     1     -12.904 -33.993 -27.304  1.00  0.00     0.000 C 
BRANCH  15  16
ATOM     16  C   UNL     1     -11.655 -34.582 -27.985  1.00  0.00     0.000 C 
BRANCH  16  17
ATOM     17  C   UNL     1     -11.132 -33.711 -29.135  1.00  0.00     0.000 C 
BRANCH  17  18
ATOM     18  C   UNL     1      -9.970 -34.396 -29.862  1.00  0.00    -0.000 C 
BRANCH  18  19
ATOM     19  C   UNL     1      -9.181 -35.291 -28.895  1.00  0.00    -0.000 C 
BRANCH  19  20
ATOM     20  C   UNL     1      -8.889 -36.685 -29.476  1.00  0.00    -0.000 C 
BRANCH  20  21
ATOM     21  C   UNL     1      -9.236 -37.859 -28.538  1.00  0.00    -0.000 C 
BRANCH  21  22
ATOM     22  C   UNL     1      -9.350 -37.453 -27.053  1.00  0.00    -0.000 C 
BRANCH  22  23
ATOM     23  C   UNL     1     -10.579 -38.085 -26.372  1.00  0.00    -0.000 C 
BRANCH  23  24
ATOM     24  C   UNL     1     -10.752 -37.609 -24.919  1.00  0.00    -0.000 C 
BRANCH  24  25
ATOM     25  C   UNL     1     -11.646 -36.362 -24.784  1.00  0.00    -0.003 C 
ATOM     26  C   UNL     1     -11.548 -35.717 -23.400  1.00  0.00     0.004 C 
ENDBRANCH  24  25
ENDBRANCH  23  24
ENDBRANCH  22  23
ENDBRANCH  21  22
ENDBRANCH  20  21
ENDBRANCH  19  20
ENDBRANCH  18  19
ENDBRANCH  17  18
ENDBRANCH  16  17
ENDBRANCH  15  16
ENDBRANCH   1  15
TORSDOF 22
ENDMDL
MODEL 8
REMARK VINA RESULT:    -3.634      2.298      3.777
REMARK INTER + INTRA:         -12.250
REMARK INTER:                  -8.100
REMARK INTRA:                  -4.151
REMARK UNBOUND:                -3.942
REMARK SMILES CCCCCCCCCCCCCCCCCCCCCCCC(=O)[O-]
REMARK SMILES IDX 13 1 14 2 15 3 16 4 17 5 18 6 19 7 20 8 21 9 22 10 23 11
REMARK SMILES IDX 24 12 25 13 26 14 12 15 11 16 10 17 9 18 8 19 7 20 6 21 5 22
REMARK SMILES IDX 4 23 3 24 2 25 1 26
REMARK H PARENT
REMARK Flexibility Score: inf
ROOT
ATOM      1  C   UNL     1     -18.482 -26.879 -18.083  1.00  0.00     0.000 C 
ENDROOT
BRANCH   1   2
ATOM      2  C   UNL     1     -19.523 -26.520 -19.159  1.00  0.00     0.000 C 
BRANCH   2   3
ATOM      3  C   UNL     1     -19.894 -25.025 -19.162  1.00  0.00     0.000 C 
BRANCH   3   4
ATOM      4  C   UNL     1     -21.404 -24.729 -19.184  1.00  0.00     0.000 C 
BRANCH   4   5
ATOM      5  C   UNL     1     -22.231 -25.764 -18.402  1.00  0.00     0.000 C 
BRANCH   5   6
ATOM      6  C   UNL     1     -23.745 -25.584 -18.604  1.00  0.00     0.000 C 
BRANCH   6   7
ATOM      7  C   UNL     1     -24.397 -24.776 -17.469  1.00  0.00     0.000 C 
BRANCH   7   8
ATOM      8  C   UNL     1     -23.581 -24.808 -16.166  1.00  0.00     0.000 C 
BRANCH   8   9
ATOM      9  C   UNL     1     -23.123 -23.431 -15.651  1.00  0.00     0.000 C 
BRANCH   9  10
ATOM     10  C   UNL     1     -23.079 -22.364 -16.754  1.00  0.00     0.006 C 
BRANCH  10  11
ATOM     11  C   UNL     1     -21.640 -21.911 -17.022  1.00  0.00     0.053 C 
BRANCH  11  12
ATOM     12  C   UNL     1     -21.610 -20.469 -17.418  1.00  0.00     0.041 C 
ATOM     13  O   UNL     1     -20.512 -19.862 -17.515  1.00  0.00    -0.550 OA
ATOM     14  O   UNL     1     -22.791 -19.811 -17.739  1.00  0.00    -0.550 OA
ENDBRANCH  11  12
ENDBRANCH  10  11
ENDBRANCH   9  10
ENDBRANCH   8   9
ENDBRANCH   7   8
ENDBRANCH   6   7
ENDBRANCH   5   6
ENDBRANCH   4   5
ENDBRANCH   3   4
ENDBRANCH   2   3
ENDBRANCH   1   2
BRANCH   1  15
ATOM     15  C   UNL     1     -19.089 -27.619 -16.875  1.00  0.00     0.000 C 
BRANCH  15  16
ATOM     16  C   UNL     1     -19.078 -26.838 -15.548  1.00  0.00     0.000 C 
BRANCH  16  17
ATOM     17  C   UNL     1     -20.089 -25.685 -15.523  1.00  0.00     0.000 C 
BRANCH  17  18
ATOM     18  C   UNL     1     -19.449 -24.401 -14.984  1.00  0.00    -0.000 C 
BRANCH  18  19
ATOM     19  C   UNL     1     -18.472 -23.814 -16.012  1.00  0.00    -0.000 C 
BRANCH  19  20
ATOM     20  C   UNL     1     -17.034 -23.708 -15.477  1.00  0.00    -0.000 C 
BRANCH  20  21
ATOM     21  C   UNL     1     -16.020 -24.643 -16.165  1.00  0.00    -0.000 C 
BRANCH  21  22
ATOM     22  C   UNL     1     -15.620 -25.862 -15.307  1.00  0.00    -0.000 C 
BRANCH  22  23
ATOM     23  C   UNL     1     -15.339 -27.110 -16.166  1.00  0.00    -0.000 C 
BRANCH  23  24
ATOM     24  C   UNL     1     -13.853 -27.237 -16.545  1.00  0.00    -0.000 C 
BRANCH  24  25
ATOM     25  C   UNL     1     -13.605 -27.240 -18.065  1.00  0.00    -0.003 C 
ATOM     26  C   UNL     1     -14.892 -27.038 -18.868  1.00  0.00     0.004 C 
ENDBRANCH  24  25
ENDBRANCH  23  24
ENDBRANCH  22  23
ENDBRANCH  21  22
ENDBRANCH  20  21
ENDBRANCH  19  20
ENDBRANCH  18  19
ENDBRANCH  17  18
ENDBRANCH  16  17
ENDBRANCH  15  16
ENDBRANCH   1  15
TORSDOF 22
ENDMDL
MODEL 9
REMARK VINA RESULT:    -3.581      4.744      9.175
REMARK INTER + INTRA:         -12.128
REMARK INTER:                  -9.141
REMARK INTRA:                  -2.987
REMARK UNBOUND:                -3.942
REMARK SMILES CCCCCCCCCCCCCCCCCCCCCCCC(=O)[O-]
REMARK SMILES IDX 13 1 14 2 15 3 16 4 17 5 18 6 19 7 20 8 21 9 22 10 23 11
REMARK SMILES IDX 24 12 25 13 26 14 12 15 11 16 10 17 9 18 8 19 7 20 6 21 5 22
REMARK SMILES IDX 4 23 3 24 2 25 1 26
REMARK H PARENT
REMARK Flexibility Score: inf
ROOT
ATOM      1  C   UNL     1     -21.932 -26.077 -18.537  1.00  0.00     0.000 C 
ENDROOT
BRANCH   1   2
ATOM      2  C   UNL     1     -20.699 -25.351 -19.106  1.00  0.00     0.000 C 
BRANCH   2   3
ATOM      3  C   UNL     1     -19.625 -26.317 -19.638  1.00  0.00     0.000 C 
BRANCH   3   4
ATOM      4  C   UNL     1     -18.195 -26.040 -19.138  1.00  0.00     0.000 C 
BRANCH   4   5
ATOM      5  C   UNL     1     -17.558 -27.254 -18.438  1.00  0.00     0.000 C 
BRANCH   5   6
ATOM      6  C   UNL     1     -17.574 -27.126 -16.906  1.00  0.00     0.000 C 
BRANCH   6   7
ATOM      7  C   UNL     1     -16.642 -26.012 -16.400  1.00  0.00     0.000 C 
BRANCH   7   8
ATOM      8  C   UNL     1     -15.168 -26.448 -16.336  1.00  0.00     0.000 C 
BRANCH   8   9
ATOM      9  C   UNL     1     -14.345 -26.153 -17.602  1.00  0.00     0.000 C 
BRANCH   9  10
ATOM     10  C   UNL     1     -13.707 -27.413 -18.207  1.00  0.00     0.006 C 
BRANCH  10  11
ATOM     11  C   UNL     1     -12.728 -28.058 -17.221  1.00  0.00     0.053 C 
BRANCH  11  12
ATOM     12  C   UNL     1     -11.438 -27.302 -17.193  1.00  0.00     0.041 C 
ATOM     13  O   UNL     1     -11.054 -26.668 -18.210  1.00  0.00    -0.550 OA
ATOM     14  O   UNL     1     -10.688 -27.249 -16.025  1.00  0.00    -0.550 OA
ENDBRANCH  11  12
ENDBRANCH  10  11
ENDBRANCH   9  10
ENDBRANCH   8   9
ENDBRANCH   7   8
ENDBRANCH   6   7
ENDBRANCH   5   6
ENDBRANCH   4   5
ENDBRANCH   3   4
ENDBRANCH   2   3
ENDBRANCH   1   2
BRANCH   1  15
ATOM     15  C   UNL     1     -22.280 -25.642 -17.100  1.00  0.00     0.000 C 
BRANCH  15  16
ATOM     16  C   UNL     1     -21.623 -26.473 -15.982  1.00  0.00     0.000 C 
BRANCH  16  17
ATOM     17  C   UNL     1     -20.398 -25.785 -15.365  1.00  0.00     0.000 C 
BRANCH  17  18
ATOM     18  C   UNL     1     -20.590 -24.266 -15.306  1.00  0.00    -0.000 C 
BRANCH  18  19
ATOM     19  C   UNL     1     -19.537 -23.556 -16.170  1.00  0.00    -0.000 C 
BRANCH  19  20
ATOM     20  C   UNL     1     -20.118 -22.379 -16.971  1.00  0.00    -0.000 C 
BRANCH  20  21
ATOM     21  C   UNL     1     -21.492 -21.882 -16.481  1.00  0.00    -0.000 C 
BRANCH  21  22
ATOM     22  C   UNL     1     -22.644 -22.176 -17.466  1.00  0.00    -0.000 C 
BRANCH  22  23
ATOM     23  C   UNL     1     -24.019 -22.163 -16.770  1.00  0.00    -0.000 C 
BRANCH  23  24
ATOM     24  C   UNL     1     -24.598 -23.578 -16.591  1.00  0.00    -0.000 C 
BRANCH  24  25
ATOM     25  C   UNL     1     -25.942 -23.786 -17.313  1.00  0.00    -0.003 C 
ATOM     26  C   UNL     1     -25.871 -24.882 -18.379  1.00  0.00     0.004 C 
ENDBRANCH  24  25
ENDBRANCH  23  24
ENDBRANCH  22  23
ENDBRANCH  21  22
ENDBRANCH  20  21
ENDBRANCH  19  20
ENDBRANCH  18  19
ENDBRANCH  17  18
ENDBRANCH  16  17
ENDBRANCH  15  16
ENDBRANCH   1  15
TORSDOF 22
ENDMDL
