MODEL 1
REMARK VINA RESULT:    -4.461      0.000      0.000
REMARK INTER + INTRA:         -11.531
REMARK INTER:                  -9.677
REMARK INTRA:                  -1.854
REMARK UNBOUND:                -1.854
REMARK SMILES CCCCCCCCCCCCCCCCCCCCCC(=O)[O-]
REMARK SMILES IDX 12 1 11 2 10 3 9 4 8 5 7 6 6 7 5 8 4 9 3 10 2 11 1 12 13 13
REMARK SMILES IDX 14 14 15 15 16 16 17 17 18 18 19 19 20 20 21 21 22 22 23 23
REMARK SMILES IDX 24 24
REMARK H PARENT
REMARK Flexibility Score: inf
ROOT
ATOM      1  C   UNL     1      11.937  21.791 -21.784  1.00  0.00     0.000 C 
ENDROOT
BRANCH   1   2
ATOM      2  C   UNL     1      13.253  22.262 -21.147  1.00  0.00     0.000 C 
BRANCH   2   3
ATOM      3  C   UNL     1      13.120  22.618 -19.653  1.00  0.00     0.000 C 
BRANCH   3   4
ATOM      4  C   UNL     1      13.425  21.474 -18.662  1.00  0.00    -0.000 C 
BRANCH   4   5
ATOM      5  C   UNL     1      14.043  20.210 -19.300  1.00  0.00    -0.000 C 
BRANCH   5   6
ATOM      6  C   UNL     1      15.546  20.037 -19.019  1.00  0.00    -0.000 C 
BRANCH   6   7
ATOM      7  C   UNL     1      16.012  20.787 -17.759  1.00  0.00    -0.000 C 
BRANCH   7   8
ATOM      8  C   UNL     1      17.521  21.123 -17.784  1.00  0.00    -0.000 C 
BRANCH   8   9
ATOM      9  C   UNL     1      18.366  20.240 -16.846  1.00  0.00    -0.000 C 
BRANCH   9  10
ATOM     10  C   UNL     1      17.590  19.089 -16.180  1.00  0.00    -0.000 C 
BRANCH  10  11
ATOM     11  C   UNL     1      17.953  17.693 -16.738  1.00  0.00    -0.003 C 
ATOM     12  C   UNL     1      16.772  17.004 -17.419  1.00  0.00     0.004 C 
ENDBRANCH  10  11
ENDBRANCH   9  10
ENDBRANCH   8   9
ENDBRANCH   7   8
ENDBRANCH   6   7
ENDBRANCH   5   6
ENDBRANCH   4   5
ENDBRANCH   3   4
ENDBRANCH   2   3
ENDBRANCH   1   2
BRANCH   1  13
ATOM     13  C   UNL     1      11.875  22.195 -23.264  1.00  0.00     0.000 C 
BRANCH  13  14
ATOM     14  C   UNL     1      12.609  23.511 -23.557  1.00  0.00     0.000 C 
BRANCH  14  15
ATOM     15  C   UNL     1      12.989  23.659 -25.039  1.00  0.00     0.000 C 
BRANCH  15  16
ATOM     16  C   UNL     1      13.351  22.316 -25.696  1.00  0.00     0.000 C 
BRANCH  16  17
ATOM     17  C   UNL     1      13.077  22.282 -27.218  1.00  0.00     0.000 C 
BRANCH  17  18
ATOM     18  C   UNL     1      12.720  20.867 -27.712  1.00  0.00     0.000 C 
BRANCH  18  19
ATOM     19  C   UNL     1      12.063  20.001 -26.613  1.00  0.00     0.000 C 
BRANCH  19  20
ATOM     20  C   UNL     1      12.615  18.565 -26.540  1.00  0.00     0.006 C 
BRANCH  20  21
ATOM     21  C   UNL     1      12.148  17.771 -25.312  1.00  0.00     0.053 C 
BRANCH  21  22
ATOM     22  C   UNL     1      13.141  17.833 -24.191  1.00  0.00     0.041 C 
ATOM     23  O   UNL     1      13.686  16.778 -23.771  1.00  0.00    -0.550 OA
ATOM     24  O   UNL     1      13.443  19.049 -23.587  1.00  0.00    -0.550 OA
ENDBRANCH  21  22
ENDBRANCH  20  21
ENDBRANCH  19  20
ENDBRANCH  18  19
ENDBRANCH  17  18
ENDBRANCH  16  17
ENDBRANCH  15  16
ENDBRANCH  14  15
ENDBRANCH  13  14
ENDBRANCH   1  13
TORSDOF 20
ENDMDL
MODEL 2
REMARK VINA RESULT:    -4.446      2.598      7.211
REMARK INTER + INTRA:         -11.498
REMARK INTER:                  -8.776
REMARK INTRA:                  -2.722
REMARK UNBOUND:                -1.854
REMARK SMILES CCCCCCCCCCCCCCCCCCCCCC(=O)[O-]
REMARK SMILES IDX 12 1 11 2 10 3 9 4 8 5 7 6 6 7 5 8 4 9 3 10 2 11 1 12 13 13
REMARK SMILES IDX 14 14 15 15 16 16 17 17 18 18 19 19 20 20 21 21 22 22 23 23
REMARK SMILES IDX 24 24
REMARK H PARENT
REMARK Flexibility Score: inf
ROOT
ATOM      1  C   UNL     1      13.207  22.572 -22.593  1.00  0.00     0.000 C 
ENDROOT
BRANCH   1   2
ATOM      2  C   UNL     1      12.718  23.074 -23.960  1.00  0.00     0.000 C 
BRANCH   2   3
ATOM      3  C   UNL     1      13.611  22.628 -25.134  1.00  0.00     0.000 C 
BRANCH   3   4
ATOM      4  C   UNL     1      12.870  22.052 -26.359  1.00  0.00    -0.000 C 
BRANCH   4   5
ATOM      5  C   UNL     1      11.963  20.837 -26.057  1.00  0.00    -0.000 C 
BRANCH   5   6
ATOM      6  C   UNL     1      12.626  19.477 -26.330  1.00  0.00    -0.000 C 
BRANCH   6   7
ATOM      7  C   UNL     1      12.680  18.574 -25.085  1.00  0.00    -0.000 C 
BRANCH   7   8
ATOM      8  C   UNL     1      11.997  19.210 -23.852  1.00  0.00    -0.000 C 
BRANCH   8   9
ATOM      9  C   UNL     1      12.638  18.804 -22.513  1.00  0.00    -0.000 C 
BRANCH   9  10
ATOM     10  C   UNL     1      14.126  19.179 -22.376  1.00  0.00    -0.000 C 
BRANCH  10  11
ATOM     11  C   UNL     1      14.961  18.127 -21.611  1.00  0.00    -0.003 C 
ATOM     12  C   UNL     1      14.807  16.719 -22.183  1.00  0.00     0.004 C 
ENDBRANCH  10  11
ENDBRANCH   9  10
ENDBRANCH   8   9
ENDBRANCH   7   8
ENDBRANCH   6   7
ENDBRANCH   5   6
ENDBRANCH   4   5
ENDBRANCH   3   4
ENDBRANCH   2   3
ENDBRANCH   1   2
BRANCH   1  13
ATOM     13  C   UNL     1      12.021  22.324 -21.650  1.00  0.00     0.000 C 
BRANCH  13  14
ATOM     14  C   UNL     1      12.251  22.883 -20.238  1.00  0.00     0.000 C 
BRANCH  14  15
ATOM     15  C   UNL     1      11.896  21.872 -19.136  1.00  0.00     0.000 C 
BRANCH  15  16
ATOM     16  C   UNL     1      13.104  21.500 -18.259  1.00  0.00     0.000 C 
BRANCH  16  17
ATOM     17  C   UNL     1      14.313  20.974 -19.068  1.00  0.00     0.000 C 
BRANCH  17  18
ATOM     18  C   UNL     1      15.637  21.622 -18.621  1.00  0.00     0.000 C 
BRANCH  18  19
ATOM     19  C   UNL     1      16.557  20.636 -17.865  1.00  0.00     0.000 C 
BRANCH  19  20
ATOM     20  C   UNL     1      16.449  19.182 -18.360  1.00  0.00     0.006 C 
BRANCH  20  21
ATOM     21  C   UNL     1      16.741  18.126 -17.285  1.00  0.00     0.053 C 
BRANCH  21  22
ATOM     22  C   UNL     1      17.755  17.121 -17.744  1.00  0.00     0.041 C 
ATOM     23  O   UNL     1      17.447  16.265 -18.614  1.00  0.00    -0.550 OA
ATOM     24  O   UNL     1      19.030  17.109 -17.189  1.00  0.00    -0.550 OA
ENDBRANCH  21  22
ENDBRANCH  20  21
ENDBRANCH  19  20
ENDBRANCH  18  19
ENDBRANCH  17  18
ENDBRANCH  16  17
ENDBRANCH  15  16
ENDBRANCH  14  15
ENDBRANCH  13  14
ENDBRANCH   1  13
TORSDOF 20
ENDMDL
MODEL 3
REMARK VINA RESULT:    -4.363      3.587      8.174
REMARK INTER + INTRA:         -11.317
REMARK INTER:                  -8.093
REMARK INTRA:                  -3.225
REMARK UNBOUND:                -1.854
REMARK SMILES CCCCCCCCCCCCCCCCCCCCCC(=O)[O-]
REMARK SMILES IDX 12 1 11 2 10 3 9 4 8 5 7 6 6 7 5 8 4 9 3 10 2 11 1 12 13 13
REMARK SMILES IDX 14 14 15 15 16 16 17 17 18 18 19 19 20 20 21 21 22 22 23 23
REMARK SMILES IDX 24 24
REMARK H PARENT
REMARK Flexibility Score: inf
ROOT
ATOM      1  C   UNL     1      14.595  20.981 -18.178  1.00  0.00     0.000 C 
ENDROOT
BRANCH   1   2
ATOM      2  C   UNL     1      13.454  21.656 -18.955  1.00  0.00     0.000 C 
BRANCH   2   3
ATOM      3  C   UNL     1      13.944  22.667 -20.009  1.00  0.00     0.000 C 
BRANCH   3   4
ATOM      4  C   UNL     1      12.850  23.281 -20.909  1.00  0.00    -0.000 C 
BRANCH   4   5
ATOM      5  C   UNL     1      12.283  22.327 -21.985  1.00  0.00    -0.000 C 
BRANCH   5   6
ATOM      6  C   UNL     1      13.314  21.888 -23.038  1.00  0.00    -0.000 C 
BRANCH   6   7
ATOM      7  C   UNL     1      13.614  20.379 -22.992  1.00  0.00    -0.000 C 
BRANCH   7   8
ATOM      8  C   UNL     1      12.619  19.596 -22.104  1.00  0.00    -0.000 C 
BRANCH   8   9
ATOM      9  C   UNL     1      13.301  18.678 -21.074  1.00  0.00    -0.000 C 
BRANCH   9  10
ATOM     10  C   UNL     1      14.840  18.740 -21.081  1.00  0.00    -0.000 C 
BRANCH  10  11
ATOM     11  C   UNL     1      15.506  17.711 -20.138  1.00  0.00    -0.003 C 
ATOM     12  C   UNL     1      14.492  16.808 -19.440  1.00  0.00     0.004 C 
ENDBRANCH  10  11
ENDBRANCH   9  10
ENDBRANCH   8   9
ENDBRANCH   7   8
ENDBRANCH   6   7
ENDBRANCH   5   6
ENDBRANCH   4   5
ENDBRANCH   3   4
ENDBRANCH   2   3
ENDBRANCH   1   2
BRANCH   1  13
ATOM     13  C   UNL     1      15.949  21.594 -18.558  1.00  0.00     0.000 C 
BRANCH  13  14
ATOM     14  C   UNL     1      17.129  20.946 -17.819  1.00  0.00     0.000 C 
BRANCH  14  15
ATOM     15  C   UNL     1      16.774  19.573 -17.228  1.00  0.00     0.000 C 
BRANCH  15  16
ATOM     16  C   UNL     1      17.811  19.083 -16.201  1.00  0.00     0.000 C 
BRANCH  16  17
ATOM     17  C   UNL     1      17.432  17.738 -15.539  1.00  0.00     0.000 C 
BRANCH  17  18
ATOM     18  C   UNL     1      16.419  16.940 -16.381  1.00  0.00     0.000 C 
BRANCH  18  19
ATOM     19  C   UNL     1      16.968  15.566 -16.829  1.00  0.00     0.000 C 
BRANCH  19  20
ATOM     20  C   UNL     1      18.187  15.659 -17.765  1.00  0.00     0.006 C 
BRANCH  20  21
ATOM     21  C   UNL     1      19.453  14.981 -17.223  1.00  0.00     0.053 C 
BRANCH  21  22
ATOM     22  C   UNL     1      20.663  15.857 -17.359  1.00  0.00     0.041 C 
ATOM     23  O   UNL     1      20.535  17.109 -17.388  1.00  0.00    -0.550 OA
ATOM     24  O   UNL     1      21.927  15.292 -17.487  1.00  0.00    -0.550 OA
ENDBRANCH  21  22
ENDBRANCH  20  21
ENDBRANCH  19  20
ENDBRANCH  18  19
ENDBRANCH  17  18
ENDBRANCH  16  17
ENDBRANCH  15  16
ENDBRANCH  14  15
ENDBRANCH  13  14
ENDBRANCH   1  13
TORSDOF 20
ENDMDL
MODEL 4
REMARK VINA RESULT:    -4.361      4.332      9.391
REMARK INTER + INTRA:         -11.312
REMARK INTER:                  -8.719
REMARK INTRA:                  -2.594
REMARK UNBOUND:                -1.854
REMARK SMILES CCCCCCCCCCCCCCCCCCCCCC(=O)[O-]
REMARK SMILES IDX 12 1 11 2 10 3 9 4 8 5 7 6 6 7 5 8 4 9 3 10 2 11 1 12 13 13
REMARK SMILES IDX 14 14 15 15 16 16 17 17 18 18 19 19 20 20 21 21 22 22 23 23
REMARK SMILES IDX 24 24
REMARK H PARENT
REMARK Flexibility Score: inf
ROOT
ATOM      1  C   UNL     1      15.196  20.752 -17.865  1.00  0.00     0.000 C 
ENDROOT
BRANCH   1   2
ATOM      2  C   UNL     1      14.454  21.591 -18.917  1.00  0.00     0.000 C 
BRANCH   2   3
ATOM      3  C   UNL     1      12.969  21.824 -18.580  1.00  0.00     0.000 C 
BRANCH   3   4
ATOM      4  C   UNL     1      12.155  22.602 -19.636  1.00  0.00    -0.000 C 
BRANCH   4   5
ATOM      5  C   UNL     1      12.980  23.124 -20.835  1.00  0.00    -0.000 C 
BRANCH   5   6
ATOM      6  C   UNL     1      12.494  22.609 -22.201  1.00  0.00    -0.000 C 
BRANCH   6   7
ATOM      7  C   UNL     1      12.002  21.153 -22.154  1.00  0.00    -0.000 C 
BRANCH   7   8
ATOM      8  C   UNL     1      13.148  20.125 -22.301  1.00  0.00    -0.000 C 
BRANCH   8   9
ATOM      9  C   UNL     1      13.199  19.089 -21.163  1.00  0.00    -0.000 C 
BRANCH   9  10
ATOM     10  C   UNL     1      14.591  18.479 -20.915  1.00  0.00    -0.000 C 
BRANCH  10  11
ATOM     11  C   UNL     1      14.612  17.427 -19.782  1.00  0.00    -0.003 C 
ATOM     12  C   UNL     1      16.024  16.957 -19.439  1.00  0.00     0.004 C 
ENDBRANCH  10  11
ENDBRANCH   9  10
ENDBRANCH   8   9
ENDBRANCH   7   8
ENDBRANCH   6   7
ENDBRANCH   5   6
ENDBRANCH   4   5
ENDBRANCH   3   4
ENDBRANCH   2   3
ENDBRANCH   1   2
BRANCH   1  13
ATOM     13  C   UNL     1      16.600  20.377 -18.361  1.00  0.00     0.000 C 
BRANCH  13  14
ATOM     14  C   UNL     1      17.709  21.214 -17.710  1.00  0.00     0.000 C 
BRANCH  14  15
ATOM     15  C   UNL     1      18.630  20.377 -16.807  1.00  0.00     0.000 C 
BRANCH  15  16
ATOM     16  C   UNL     1      18.057  18.980 -16.507  1.00  0.00     0.000 C 
BRANCH  16  17
ATOM     17  C   UNL     1      18.974  17.826 -16.974  1.00  0.00     0.000 C 
BRANCH  17  18
ATOM     18  C   UNL     1      19.753  17.195 -15.805  1.00  0.00     0.000 C 
BRANCH  18  19
ATOM     19  C   UNL     1      20.964  18.050 -15.365  1.00  0.00     0.000 C 
BRANCH  19  20
ATOM     20  C   UNL     1      21.300  17.927 -13.868  1.00  0.00     0.006 C 
BRANCH  20  21
ATOM     21  C   UNL     1      21.319  19.264 -13.114  1.00  0.00     0.053 C 
BRANCH  21  22
ATOM     22  C   UNL     1      20.083  20.074 -13.372  1.00  0.00     0.041 C 
ATOM     23  O   UNL     1      20.178  21.233 -13.855  1.00  0.00    -0.550 OA
ATOM     24  O   UNL     1      18.831  19.563 -13.051  1.00  0.00    -0.550 OA
ENDBRANCH  21  22
ENDBRANCH  20  21
ENDBRANCH  19  20
ENDBRANCH  18  19
ENDBRANCH  17  18
ENDBRANCH  16  17
ENDBRANCH  15  16
ENDBRANCH  14  15
ENDBRANCH  13  14
ENDBRANCH   1  13
TORSDOF 20
ENDMDL
MODEL 5
REMARK VINA RESULT:    -4.329      3.712      9.213
REMARK INTER + INTRA:         -11.243
REMARK INTER:                  -9.315
REMARK INTRA:                  -1.929
REMARK UNBOUND:                -1.854
REMARK SMILES CCCCCCCCCCCCCCCCCCCCCC(=O)[O-]
REMARK SMILES IDX 12 1 11 2 10 3 9 4 8 5 7 6 6 7 5 8 4 9 3 10 2 11 1 12 13 13
REMARK SMILES IDX 14 14 15 15 16 16 17 17 18 18 19 19 20 20 21 21 22 22 23 23
REMARK SMILES IDX 24 24
REMARK H PARENT
REMARK Flexibility Score: inf
ROOT
ATOM      1  C   UNL     1      11.875  22.226 -21.249  1.00  0.00     0.000 C 
ENDROOT
BRANCH   1   2
ATOM      2  C   UNL     1      13.045  22.710 -22.119  1.00  0.00     0.000 C 
BRANCH   2   3
ATOM      3  C   UNL     1      12.656  22.959 -23.589  1.00  0.00     0.000 C 
BRANCH   3   4
ATOM      4  C   UNL     1      13.753  22.656 -24.633  1.00  0.00    -0.000 C 
BRANCH   4   5
ATOM      5  C   UNL     1      13.233  22.406 -26.066  1.00  0.00    -0.000 C 
BRANCH   5   6
ATOM      6  C   UNL     1      12.182  21.287 -26.166  1.00  0.00    -0.000 C 
BRANCH   6   7
ATOM      7  C   UNL     1      12.480  20.282 -27.292  1.00  0.00    -0.000 C 
BRANCH   7   8
ATOM      8  C   UNL     1      12.195  18.818 -26.882  1.00  0.00    -0.000 C 
BRANCH   8   9
ATOM      9  C   UNL     1      12.991  18.356 -25.648  1.00  0.00    -0.000 C 
BRANCH   9  10
ATOM     10  C   UNL     1      12.129  18.033 -24.414  1.00  0.00    -0.000 C 
BRANCH  10  11
ATOM     11  C   UNL     1      12.250  19.081 -23.283  1.00  0.00    -0.003 C 
ATOM     12  C   UNL     1      13.698  19.351 -22.880  1.00  0.00     0.004 C 
ENDBRANCH  10  11
ENDBRANCH   9  10
ENDBRANCH   8   9
ENDBRANCH   7   8
ENDBRANCH   6   7
ENDBRANCH   5   6
ENDBRANCH   4   5
ENDBRANCH   3   4
ENDBRANCH   2   3
ENDBRANCH   1   2
BRANCH   1  13
ATOM     13  C   UNL     1      12.390  21.444 -20.032  1.00  0.00     0.000 C 
BRANCH  13  14
ATOM     14  C   UNL     1      13.837  21.796 -19.662  1.00  0.00     0.000 C 
BRANCH  14  15
ATOM     15  C   UNL     1      14.286  21.147 -18.343  1.00  0.00     0.000 C 
BRANCH  15  16
ATOM     16  C   UNL     1      15.565  20.306 -18.501  1.00  0.00     0.000 C 
BRANCH  16  17
ATOM     17  C   UNL     1      16.291  20.034 -17.163  1.00  0.00     0.000 C 
BRANCH  17  18
ATOM     18  C   UNL     1      17.478  19.067 -17.332  1.00  0.00     0.000 C 
BRANCH  18  19
ATOM     19  C   UNL     1      18.790  19.625 -16.736  1.00  0.00     0.000 C 
BRANCH  19  20
ATOM     20  C   UNL     1      19.745  18.538 -16.209  1.00  0.00     0.006 C 
BRANCH  20  21
ATOM     21  C   UNL     1      20.656  19.000 -15.063  1.00  0.00     0.053 C 
BRANCH  21  22
ATOM     22  C   UNL     1      19.882  19.660 -13.961  1.00  0.00     0.041 C 
ATOM     23  O   UNL     1      19.051  18.996 -13.287  1.00  0.00    -0.550 OA
ATOM     24  O   UNL     1      20.053  21.015 -13.698  1.00  0.00    -0.550 OA
ENDBRANCH  21  22
ENDBRANCH  20  21
ENDBRANCH  19  20
ENDBRANCH  18  19
ENDBRANCH  17  18
ENDBRANCH  16  17
ENDBRANCH  15  16
ENDBRANCH  14  15
ENDBRANCH  13  14
ENDBRANCH   1  13
TORSDOF 20
ENDMDL
MODEL 6
REMARK VINA RESULT:    -4.325      1.538      2.464
REMARK INTER + INTRA:         -11.234
REMARK INTER:                  -9.766
REMARK INTRA:                  -1.468
REMARK UNBOUND:                -1.854
REMARK SMILES CCCCCCCCCCCCCCCCCCCCCC(=O)[O-]
REMARK SMILES IDX 12 1 11 2 10 3 9 4 8 5 7 6 6 7 5 8 4 9 3 10 2 11 1 12 13 13
REMARK SMILES IDX 14 14 15 15 16 16 17 17 18 18 19 19 20 20 21 21 22 22 23 23
REMARK SMILES IDX 24 24
REMARK H PARENT
REMARK Flexibility Score: inf
ROOT
ATOM      1  C   UNL     1      13.247  22.135 -20.821  1.00  0.00     0.000 C 
ENDROOT
BRANCH   1   2
ATOM      2  C   UNL     1      13.489  20.877 -19.974  1.00  0.00     0.000 C 
BRANCH   2   3
ATOM      3  C   UNL     1      14.138  21.170 -18.607  1.00  0.00     0.000 C 
BRANCH   3   4
ATOM      4  C   UNL     1      15.642  21.514 -18.639  1.00  0.00    -0.000 C 
BRANCH   4   5
ATOM      5  C   UNL     1      16.494  20.801 -17.564  1.00  0.00    -0.000 C 
BRANCH   5   6
ATOM      6  C   UNL     1      16.361  19.269 -17.574  1.00  0.00    -0.000 C 
BRANCH   6   7
ATOM      7  C   UNL     1      17.633  18.552 -17.089  1.00  0.00    -0.000 C 
BRANCH   7   8
ATOM      8  C   UNL     1      18.749  19.534 -16.659  1.00  0.00    -0.000 C 
BRANCH   8   9
ATOM      9  C   UNL     1      20.063  18.838 -16.261  1.00  0.00    -0.000 C 
BRANCH   9  10
ATOM     10  C   UNL     1      20.395  18.907 -14.759  1.00  0.00    -0.000 C 
BRANCH  10  11
ATOM     11  C   UNL     1      19.957  20.229 -14.089  1.00  0.00    -0.003 C 
ATOM     12  C   UNL     1      19.386  20.021 -12.688  1.00  0.00     0.004 C 
ENDBRANCH  10  11
ENDBRANCH   9  10
ENDBRANCH   8   9
ENDBRANCH   7   8
ENDBRANCH   6   7
ENDBRANCH   5   6
ENDBRANCH   4   5
ENDBRANCH   3   4
ENDBRANCH   2   3
ENDBRANCH   1   2
BRANCH   1  13
ATOM     13  C   UNL     1      11.938  22.013 -21.614  1.00  0.00     0.000 C 
BRANCH  13  14
ATOM     14  C   UNL     1      12.138  22.171 -23.128  1.00  0.00     0.000 C 
BRANCH  14  15
ATOM     15  C   UNL     1      13.622  22.237 -23.525  1.00  0.00     0.000 C 
BRANCH  15  16
ATOM     16  C   UNL     1      13.841  22.907 -24.893  1.00  0.00     0.000 C 
BRANCH  16  17
ATOM     17  C   UNL     1      12.652  22.723 -25.865  1.00  0.00     0.000 C 
BRANCH  17  18
ATOM     18  C   UNL     1      13.110  22.253 -27.259  1.00  0.00     0.000 C 
BRANCH  18  19
ATOM     19  C   UNL     1      12.615  20.828 -27.599  1.00  0.00     0.000 C 
BRANCH  19  20
ATOM     20  C   UNL     1      12.174  20.014 -26.369  1.00  0.00     0.006 C 
BRANCH  20  21
ATOM     21  C   UNL     1      12.749  18.591 -26.314  1.00  0.00     0.053 C 
BRANCH  21  22
ATOM     22  C   UNL     1      12.928  18.111 -24.905  1.00  0.00     0.041 C 
ATOM     23  O   UNL     1      12.460  18.779 -23.946  1.00  0.00    -0.550 OA
ATOM     24  O   UNL     1      13.639  16.944 -24.647  1.00  0.00    -0.550 OA
ENDBRANCH  21  22
ENDBRANCH  20  21
ENDBRANCH  19  20
ENDBRANCH  18  19
ENDBRANCH  17  18
ENDBRANCH  16  17
ENDBRANCH  15  16
ENDBRANCH  14  15
ENDBRANCH  13  14
ENDBRANCH   1  13
TORSDOF 20
ENDMDL
MODEL 7
REMARK VINA RESULT:    -4.320      3.650      7.924
REMARK INTER + INTRA:         -11.224
REMARK INTER:                  -8.547
REMARK INTRA:                  -2.678
REMARK UNBOUND:                -1.854
REMARK SMILES CCCCCCCCCCCCCCCCCCCCCC(=O)[O-]
REMARK SMILES IDX 12 1 11 2 10 3 9 4 8 5 7 6 6 7 5 8 4 9 3 10 2 11 1 12 13 13
REMARK SMILES IDX 14 14 15 15 16 16 17 17 18 18 19 19 20 20 21 21 22 22 23 23
REMARK SMILES IDX 24 24
REMARK H PARENT
REMARK Flexibility Score: inf
ROOT
ATOM      1  C   UNL     1      12.874  22.669 -21.613  1.00  0.00     0.000 C 
ENDROOT
BRANCH   1   2
ATOM      2  C   UNL     1      12.393  22.768 -23.068  1.00  0.00     0.000 C 
BRANCH   2   3
ATOM      3  C   UNL     1      13.517  22.563 -24.102  1.00  0.00     0.000 C 
BRANCH   3   4
ATOM      4  C   UNL     1      13.114  21.820 -25.394  1.00  0.00    -0.000 C 
BRANCH   4   5
ATOM      5  C   UNL     1      12.123  20.652 -25.188  1.00  0.00    -0.000 C 
BRANCH   5   6
ATOM      6  C   UNL     1      12.649  19.291 -25.677  1.00  0.00    -0.000 C 
BRANCH   6   7
ATOM      7  C   UNL     1      12.981  18.327 -24.525  1.00  0.00    -0.000 C 
BRANCH   7   8
ATOM      8  C   UNL     1      12.806  18.973 -23.131  1.00  0.00    -0.000 C 
BRANCH   8   9
ATOM      9  C   UNL     1      14.137  19.276 -22.419  1.00  0.00    -0.000 C 
BRANCH   9  10
ATOM     10  C   UNL     1      14.331  18.536 -21.082  1.00  0.00    -0.000 C 
BRANCH  10  11
ATOM     11  C   UNL     1      15.650  17.733 -21.006  1.00  0.00    -0.003 C 
ATOM     12  C   UNL     1      15.654  16.515 -21.927  1.00  0.00     0.004 C 
ENDBRANCH  10  11
ENDBRANCH   9  10
ENDBRANCH   8   9
ENDBRANCH   7   8
ENDBRANCH   6   7
ENDBRANCH   5   6
ENDBRANCH   4   5
ENDBRANCH   3   4
ENDBRANCH   2   3
ENDBRANCH   1   2
BRANCH   1  13
ATOM     13  C   UNL     1      11.973  21.724 -20.805  1.00  0.00     0.000 C 
BRANCH  13  14
ATOM     14  C   UNL     1      12.547  21.386 -19.422  1.00  0.00     0.000 C 
BRANCH  14  15
ATOM     15  C   UNL     1      14.013  21.822 -19.267  1.00  0.00     0.000 C 
BRANCH  15  16
ATOM     16  C   UNL     1      14.754  21.032 -18.174  1.00  0.00     0.000 C 
BRANCH  16  17
ATOM     17  C   UNL     1      16.090  20.421 -18.655  1.00  0.00     0.000 C 
BRANCH  17  18
ATOM     18  C   UNL     1      16.964  19.938 -17.483  1.00  0.00     0.000 C 
BRANCH  18  19
ATOM     19  C   UNL     1      17.003  18.396 -17.366  1.00  0.00     0.000 C 
BRANCH  19  20
ATOM     20  C   UNL     1      18.234  17.862 -16.612  1.00  0.00     0.006 C 
BRANCH  20  21
ATOM     21  C   UNL     1      19.377  18.877 -16.470  1.00  0.00     0.053 C 
BRANCH  21  22
ATOM     22  C   UNL     1      19.806  19.045 -15.043  1.00  0.00     0.041 C 
ATOM     23  O   UNL     1      20.320  18.078 -14.420  1.00  0.00    -0.550 OA
ATOM     24  O   UNL     1      19.608  20.256 -14.389  1.00  0.00    -0.550 OA
ENDBRANCH  21  22
ENDBRANCH  20  21
ENDBRANCH  19  20
ENDBRANCH  18  19
ENDBRANCH  17  18
ENDBRANCH  16  17
ENDBRANCH  15  16
ENDBRANCH  14  15
ENDBRANCH  13  14
ENDBRANCH   1  13
TORSDOF 20
ENDMDL
MODEL 8
REMARK VINA RESULT:    -4.313      1.672      7.803
REMARK INTER + INTRA:         -11.209
REMARK INTER:                  -9.473
REMARK INTRA:                  -1.735
REMARK UNBOUND:                -1.854
REMARK SMILES CCCCCCCCCCCCCCCCCCCCCC(=O)[O-]
REMARK SMILES IDX 12 1 11 2 10 3 9 4 8 5 7 6 6 7 5 8 4 9 3 10 2 11 1 12 13 13
REMARK SMILES IDX 14 14 15 15 16 16 17 17 18 18 19 19 20 20 21 21 22 22 23 23
REMARK SMILES IDX 24 24
REMARK H PARENT
REMARK Flexibility Score: inf
ROOT
ATOM      1  C   UNL     1      13.952  22.684 -20.115  1.00  0.00     0.000 C 
ENDROOT
BRANCH   1   2
ATOM      2  C   UNL     1      12.622  23.120 -20.747  1.00  0.00     0.000 C 
BRANCH   2   3
ATOM      3  C   UNL     1      11.899  21.987 -21.501  1.00  0.00     0.000 C 
BRANCH   3   4
ATOM      4  C   UNL     1      11.896  22.101 -23.040  1.00  0.00    -0.000 C 
BRANCH   4   5
ATOM      5  C   UNL     1      12.640  23.334 -23.602  1.00  0.00    -0.000 C 
BRANCH   5   6
ATOM      6  C   UNL     1      13.341  23.083 -24.948  1.00  0.00    -0.000 C 
BRANCH   6   7
ATOM      7  C   UNL     1      12.357  22.783 -26.092  1.00  0.00    -0.000 C 
BRANCH   7   8
ATOM      8  C   UNL     1      13.025  22.063 -27.286  1.00  0.00    -0.000 C 
BRANCH   8   9
ATOM      9  C   UNL     1      12.497  20.636 -27.521  1.00  0.00    -0.000 C 
BRANCH   9  10
ATOM     10  C   UNL     1      12.189  19.848 -26.235  1.00  0.00    -0.000 C 
BRANCH  10  11
ATOM     11  C   UNL     1      12.930  18.494 -26.147  1.00  0.00    -0.003 C 
ATOM     12  C   UNL     1      12.950  17.922 -24.731  1.00  0.00     0.004 C 
ENDBRANCH  10  11
ENDBRANCH   9  10
ENDBRANCH   8   9
ENDBRANCH   7   8
ENDBRANCH   6   7
ENDBRANCH   5   6
ENDBRANCH   4   5
ENDBRANCH   3   4
ENDBRANCH   2   3
ENDBRANCH   1   2
BRANCH   1  13
ATOM     13  C   UNL     1      13.843  21.263 -19.544  1.00  0.00     0.000 C 
BRANCH  13  14
ATOM     14  C   UNL     1      14.681  21.062 -18.274  1.00  0.00     0.000 C 
BRANCH  14  15
ATOM     15  C   UNL     1      15.832  20.063 -18.476  1.00  0.00     0.000 C 
BRANCH  15  16
ATOM     16  C   UNL     1      16.614  19.789 -17.179  1.00  0.00     0.000 C 
BRANCH  16  17
ATOM     17  C   UNL     1      16.956  18.296 -16.971  1.00  0.00     0.000 C 
BRANCH  17  18
ATOM     18  C   UNL     1      16.896  17.497 -18.287  1.00  0.00     0.000 C 
BRANCH  18  19
ATOM     19  C   UNL     1      15.706  16.512 -18.332  1.00  0.00     0.000 C 
BRANCH  19  20
ATOM     20  C   UNL     1      14.665  16.844 -19.416  1.00  0.00     0.006 C 
BRANCH  20  21
ATOM     21  C   UNL     1      14.786  15.994 -20.689  1.00  0.00     0.053 C 
BRANCH  21  22
ATOM     22  C   UNL     1      15.484  16.731 -21.793  1.00  0.00     0.041 C 
ATOM     23  O   UNL     1      15.833  17.930 -21.630  1.00  0.00    -0.550 OA
ATOM     24  O   UNL     1      15.720  16.107 -23.013  1.00  0.00    -0.550 OA
ENDBRANCH  21  22
ENDBRANCH  20  21
ENDBRANCH  19  20
ENDBRANCH  18  19
ENDBRANCH  17  18
ENDBRANCH  16  17
ENDBRANCH  15  16
ENDBRANCH  14  15
ENDBRANCH  13  14
ENDBRANCH   1  13
TORSDOF 20
ENDMDL
MODEL 9
REMARK VINA RESULT:    -4.312      3.727      8.491
REMARK INTER + INTRA:         -11.208
REMARK INTER:                  -8.610
REMARK INTRA:                  -2.597
REMARK UNBOUND:                -1.854
REMARK SMILES CCCCCCCCCCCCCCCCCCCCCC(=O)[O-]
REMARK SMILES IDX 12 1 11 2 10 3 9 4 8 5 7 6 6 7 5 8 4 9 3 10 2 11 1 12 13 13
REMARK SMILES IDX 14 14 15 15 16 16 17 17 18 18 19 19 20 20 21 21 22 22 23 23
REMARK SMILES IDX 24 24
REMARK H PARENT
REMARK Flexibility Score: inf
ROOT
ATOM      1  C   UNL     1      12.682  21.654 -19.153  1.00  0.00     0.000 C 
ENDROOT
BRANCH   1   2
ATOM      2  C   UNL     1      11.965  22.428 -20.270  1.00  0.00     0.000 C 
BRANCH   2   3
ATOM      3  C   UNL     1      12.926  23.166 -21.221  1.00  0.00     0.000 C 
BRANCH   3   4
ATOM      4  C   UNL     1      12.618  23.027 -22.727  1.00  0.00    -0.000 C 
BRANCH   4   5
ATOM      5  C   UNL     1      13.654  22.209 -23.530  1.00  0.00    -0.000 C 
BRANCH   5   6
ATOM      6  C   UNL     1      13.035  21.150 -24.458  1.00  0.00    -0.000 C 
BRANCH   6   7
ATOM      7  C   UNL     1      12.914  19.767 -23.795  1.00  0.00    -0.000 C 
BRANCH   7   8
ATOM      8  C   UNL     1      13.848  19.603 -22.573  1.00  0.00    -0.000 C 
BRANCH   8   9
ATOM      9  C   UNL     1      13.179  18.907 -21.374  1.00  0.00    -0.000 C 
BRANCH   9  10
ATOM     10  C   UNL     1      14.092  17.931 -20.609  1.00  0.00    -0.000 C 
BRANCH  10  11
ATOM     11  C   UNL     1      15.598  18.144 -20.889  1.00  0.00    -0.003 C 
ATOM     12  C   UNL     1      16.482  17.129 -20.168  1.00  0.00     0.004 C 
ENDBRANCH  10  11
ENDBRANCH   9  10
ENDBRANCH   8   9
ENDBRANCH   7   8
ENDBRANCH   6   7
ENDBRANCH   5   6
ENDBRANCH   4   5
ENDBRANCH   3   4
ENDBRANCH   2   3
ENDBRANCH   1   2
BRANCH   1  13
ATOM     13  C   UNL     1      14.205  21.768 -19.304  1.00  0.00     0.000 C 
BRANCH  13  14
ATOM     14  C   UNL     1      14.973  21.066 -18.175  1.00  0.00     0.000 C 
BRANCH  14  15
ATOM     15  C   UNL     1      16.444  20.801 -18.536  1.00  0.00     0.000 C 
BRANCH  15  16
ATOM     16  C   UNL     1      17.251  20.233 -17.355  1.00  0.00     0.000 C 
BRANCH  16  17
ATOM     17  C   UNL     1      16.761  18.843 -16.887  1.00  0.00     0.000 C 
BRANCH  17  18
ATOM     18  C   UNL     1      17.413  18.414 -15.559  1.00  0.00     0.000 C 
BRANCH  18  19
ATOM     19  C   UNL     1      18.694  19.218 -15.239  1.00  0.00     0.000 C 
BRANCH  19  20
ATOM     20  C   UNL     1      19.889  18.341 -14.819  1.00  0.00     0.006 C 
BRANCH  20  21
ATOM     21  C   UNL     1      20.876  18.035 -15.954  1.00  0.00     0.053 C 
BRANCH  21  22
ATOM     22  C   UNL     1      21.260  16.586 -15.989  1.00  0.00     0.041 C 
ATOM     23  O   UNL     1      21.186  15.940 -17.068  1.00  0.00    -0.550 OA
ATOM     24  O   UNL     1      21.667  15.939 -14.828  1.00  0.00    -0.550 OA
ENDBRANCH  21  22
ENDBRANCH  20  21
ENDBRANCH  19  20
ENDBRANCH  18  19
ENDBRANCH  17  18
ENDBRANCH  16  17
ENDBRANCH  15  16
ENDBRANCH  14  15
ENDBRANCH  13  14
ENDBRANCH   1  13
TORSDOF 20
ENDMDL
