MODEL 1
REMARK VINA RESULT:    -5.905      0.000      0.000
REMARK INTER + INTRA:          -7.405
REMARK INTER:                  -7.113
REMARK INTRA:                  -0.292
REMARK UNBOUND:                -0.292
REMARK SMILES O=c1c(O)c(-c2ccc(O)c(O)c2)oc2cc(O)cc(O)c12
REMARK SMILES IDX 5 1 3 2 2 3 1 4 22 5 20 6 19 7 17 8 16 9 15 10 14 11 6 12
REMARK SMILES IDX 7 13 8 14 9 15 13 16 11 17 10 18 12 20 4 22 21 24 18 26
REMARK H PARENT 10 19 12 21 4 23 21 25 18 27
REMARK Flexibility Score: inf
ROOT
ATOM      1  C   UNL     1       4.367  -5.028  -8.979  1.00  0.00     0.180 A 
ATOM      2  C   UNL     1       4.334  -3.863  -9.765  1.00  0.00     0.208 A 
ATOM      3  C   UNL     1       3.625  -2.746  -9.299  1.00  0.00     0.238 A 
ATOM      4  O   UNL     1       3.554  -1.725 -10.031  1.00  0.00    -0.285 OA
ATOM      5  C   UNL     1       2.970  -2.800  -8.043  1.00  0.00     0.111 A 
ATOM      6  C   UNL     1       2.256  -1.715  -7.454  1.00  0.00     0.134 A 
ATOM      7  C   UNL     1       1.537  -1.922  -6.270  1.00  0.00     0.093 A 
ATOM      8  C   UNL     1       1.562  -3.159  -5.620  1.00  0.00     0.123 A 
ATOM      9  C   UNL     1       2.305  -4.208  -6.157  1.00  0.00     0.094 A 
ATOM     10  C   UNL     1       3.002  -4.042  -7.356  1.00  0.00     0.146 A 
ATOM     11  O   UNL     1       3.689  -5.070  -7.838  1.00  0.00    -0.452 OA
ENDROOT
BRANCH   1  12
ATOM     12  C   UNL     1       5.114  -6.237  -9.393  1.00  0.00     0.025 A 
ATOM     13  C   UNL     1       4.465  -7.330  -9.990  1.00  0.00     0.016 A 
ATOM     14  C   UNL     1       5.193  -8.450 -10.392  1.00  0.00     0.051 A 
ATOM     15  C   UNL     1       6.581  -8.499 -10.222  1.00  0.00     0.157 A 
ATOM     16  C   UNL     1       6.508  -6.275  -9.239  1.00  0.00     0.062 A 
ATOM     17  C   UNL     1       7.249  -7.395  -9.641  1.00  0.00     0.158 A 
BRANCH  15  18
ATOM     18  O   UNL     1       7.250  -9.650 -10.642  1.00  0.00    -0.504 OA
ATOM     19  H   UNL     1       7.868 -10.191 -10.054  1.00  0.00     0.293 HD
ENDBRANCH  15  18
BRANCH  17  20
ATOM     20  O   UNL     1       8.631  -7.367  -9.447  1.00  0.00    -0.504 OA
ATOM     21  H   UNL     1       9.275  -6.872 -10.046  1.00  0.00     0.293 HD
ENDBRANCH  17  20
ENDBRANCH   1  12
BRANCH   2  22
ATOM     22  O   UNL     1       4.969  -3.837 -11.010  1.00  0.00    -0.502 OA
ATOM     23  H   UNL     1       5.976  -3.892 -11.109  1.00  0.00     0.293 HD
ENDBRANCH   2  22
BRANCH   6  24
ATOM     24  O   UNL     1       2.243  -0.416  -7.972  1.00  0.00    -0.507 OA
ATOM     25  H   UNL     1       2.324  -0.187  -8.951  1.00  0.00     0.293 HD
ENDBRANCH   6  24
BRANCH   8  26
ATOM     26  O   UNL     1       0.857  -3.352  -4.434  1.00  0.00    -0.508 OA
ATOM     27  H   UNL     1       0.247  -2.636  -4.058  1.00  0.00     0.293 HD
ENDBRANCH   8  26
TORSDOF 6
ENDMDL
MODEL 2
REMARK VINA RESULT:    -5.816      2.524      6.942
REMARK INTER + INTRA:          -7.298
REMARK INTER:                  -6.982
REMARK INTRA:                  -0.315
REMARK UNBOUND:                -0.292
REMARK SMILES O=c1c(O)c(-c2ccc(O)c(O)c2)oc2cc(O)cc(O)c12
REMARK SMILES IDX 5 1 3 2 2 3 1 4 22 5 20 6 19 7 17 8 16 9 15 10 14 11 6 12
REMARK SMILES IDX 7 13 8 14 9 15 13 16 11 17 10 18 12 20 4 22 21 24 18 26
REMARK H PARENT 10 19 12 21 4 23 21 25 18 27
REMARK Flexibility Score: inf
ROOT
ATOM      1  C   UNL     1       3.433  -3.497  -9.304  1.00  0.00     0.180 A 
ATOM      2  C   UNL     1       4.349  -4.446  -8.821  1.00  0.00     0.208 A 
ATOM      3  C   UNL     1       4.439  -5.693  -9.459  1.00  0.00     0.238 A 
ATOM      4  O   UNL     1       5.222  -6.559  -8.990  1.00  0.00    -0.285 OA
ATOM      5  C   UNL     1       3.624  -5.968 -10.585  1.00  0.00     0.111 A 
ATOM      6  C   UNL     1       3.660  -7.182 -11.335  1.00  0.00     0.134 A 
ATOM      7  C   UNL     1       2.717  -7.396 -12.348  1.00  0.00     0.093 A 
ATOM      8  C   UNL     1       1.782  -6.414 -12.681  1.00  0.00     0.123 A 
ATOM      9  C   UNL     1       1.778  -5.202 -11.994  1.00  0.00     0.094 A 
ATOM     10  C   UNL     1       2.681  -4.973 -10.955  1.00  0.00     0.146 A 
ATOM     11  O   UNL     1       2.636  -3.808 -10.319  1.00  0.00    -0.452 OA
ENDROOT
BRANCH   1  12
ATOM     12  C   UNL     1       3.298  -2.152  -8.698  1.00  0.00     0.025 A 
ATOM     13  C   UNL     1       2.341  -1.890  -7.704  1.00  0.00     0.016 A 
ATOM     14  C   UNL     1       2.248  -0.621  -7.131  1.00  0.00     0.051 A 
ATOM     15  C   UNL     1       3.113   0.406  -7.525  1.00  0.00     0.157 A 
ATOM     16  C   UNL     1       4.180  -1.129  -9.080  1.00  0.00     0.062 A 
ATOM     17  C   UNL     1       4.095   0.148  -8.510  1.00  0.00     0.158 A 
BRANCH  15  18
ATOM     18  O   UNL     1       2.964   1.654  -6.916  1.00  0.00    -0.504 OA
ATOM     19  H   UNL     1       2.945   2.529  -7.419  1.00  0.00     0.293 HD
ENDBRANCH  15  18
BRANCH  17  20
ATOM     20  O   UNL     1       4.998   1.118  -8.947  1.00  0.00    -0.504 OA
ATOM     21  H   UNL     1       5.105   1.396  -9.912  1.00  0.00     0.293 HD
ENDBRANCH  17  20
ENDBRANCH   1  12
BRANCH   2  22
ATOM     22  O   UNL     1       5.129  -4.162  -7.695  1.00  0.00    -0.502 OA
ATOM     23  H   UNL     1       6.128  -4.007  -7.751  1.00  0.00     0.293 HD
ENDBRANCH   2  22
BRANCH   6  24
ATOM     24  O   UNL     1       4.612  -8.189 -11.144  1.00  0.00    -0.507 OA
ATOM     25  H   UNL     1       5.574  -8.133 -11.440  1.00  0.00     0.293 HD
ENDBRANCH   6  24
BRANCH   8  26
ATOM     26  O   UNL     1       0.858  -6.629 -13.701  1.00  0.00    -0.508 OA
ATOM     27  H   UNL     1       0.990  -6.235 -14.626  1.00  0.00     0.293 HD
ENDBRANCH   8  26
TORSDOF 6
ENDMDL
MODEL 3
REMARK VINA RESULT:    -5.807      4.279      5.204
REMARK INTER + INTRA:          -7.287
REMARK INTER:                  -6.967
REMARK INTRA:                  -0.320
REMARK UNBOUND:                -0.292
REMARK SMILES O=c1c(O)c(-c2ccc(O)c(O)c2)oc2cc(O)cc(O)c12
REMARK SMILES IDX 5 1 3 2 2 3 1 4 22 5 20 6 19 7 17 8 16 9 15 10 14 11 6 12
REMARK SMILES IDX 7 13 8 14 9 15 13 16 11 17 10 18 12 20 4 22 21 24 18 26
REMARK H PARENT 10 19 12 21 4 23 21 25 18 27
REMARK Flexibility Score: inf
ROOT
ATOM      1  C   UNL     1       2.650  -7.749  -9.897  1.00  0.00     0.180 A 
ATOM      2  C   UNL     1       1.879  -7.259 -10.965  1.00  0.00     0.208 A 
ATOM      3  C   UNL     1       0.486  -7.421 -10.930  1.00  0.00     0.238 A 
ATOM      4  O   UNL     1      -0.194  -7.029 -11.913  1.00  0.00    -0.285 OA
ATOM      5  C   UNL     1      -0.122  -8.057  -9.819  1.00  0.00     0.111 A 
ATOM      6  C   UNL     1      -1.528  -8.239  -9.658  1.00  0.00     0.134 A 
ATOM      7  C   UNL     1      -2.008  -8.997  -8.583  1.00  0.00     0.093 A 
ATOM      8  C   UNL     1      -1.137  -9.523  -7.627  1.00  0.00     0.123 A 
ATOM      9  C   UNL     1       0.233  -9.300  -7.743  1.00  0.00     0.094 A 
ATOM     10  C   UNL     1       0.746  -8.579  -8.824  1.00  0.00     0.146 A 
ATOM     11  O   UNL     1       2.058  -8.398  -8.901  1.00  0.00    -0.452 OA
ENDROOT
BRANCH   1  12
ATOM     12  C   UNL     1       4.123  -7.594  -9.851  1.00  0.00     0.025 A 
ATOM     13  C   UNL     1       4.979  -8.582 -10.363  1.00  0.00     0.016 A 
ATOM     14  C   UNL     1       6.362  -8.403 -10.330  1.00  0.00     0.051 A 
ATOM     15  C   UNL     1       6.919  -7.234  -9.800  1.00  0.00     0.157 A 
ATOM     16  C   UNL     1       4.678  -6.411  -9.339  1.00  0.00     0.062 A 
ATOM     17  C   UNL     1       6.066  -6.222  -9.302  1.00  0.00     0.158 A 
BRANCH  15  18
ATOM     18  O   UNL     1       8.311  -7.119  -9.793  1.00  0.00    -0.504 OA
ATOM     19  H   UNL     1       8.809  -6.271 -10.023  1.00  0.00     0.293 HD
ENDBRANCH  15  18
BRANCH  17  20
ATOM     20  O   UNL     1       6.547  -5.026  -8.767  1.00  0.00    -0.504 OA
ATOM     21  H   UNL     1       6.502  -4.787  -7.787  1.00  0.00     0.293 HD
ENDBRANCH  17  20
ENDBRANCH   1  12
BRANCH   2  22
ATOM     22  O   UNL     1       2.501  -6.654 -12.062  1.00  0.00    -0.502 OA
ATOM     23  H   UNL     1       3.462  -6.336 -12.035  1.00  0.00     0.293 HD
ENDBRANCH   2  22
BRANCH   6  24
ATOM     24  O   UNL     1      -2.489  -7.678 -10.506  1.00  0.00    -0.507 OA
ATOM     25  H   UNL     1      -3.235  -7.069 -10.205  1.00  0.00     0.293 HD
ENDBRANCH   6  24
BRANCH   8  26
ATOM     26  O   UNL     1      -1.624 -10.262  -6.551  1.00  0.00    -0.508 OA
ATOM     27  H   UNL     1      -2.053 -11.171  -6.684  1.00  0.00     0.293 HD
ENDBRANCH   8  26
TORSDOF 6
ENDMDL
MODEL 4
REMARK VINA RESULT:    -5.703      2.542      4.362
REMARK INTER + INTRA:          -7.162
REMARK INTER:                  -6.863
REMARK INTRA:                  -0.299
REMARK UNBOUND:                -0.292
REMARK SMILES O=c1c(O)c(-c2ccc(O)c(O)c2)oc2cc(O)cc(O)c12
REMARK SMILES IDX 5 1 3 2 2 3 1 4 22 5 20 6 19 7 17 8 16 9 15 10 14 11 6 12
REMARK SMILES IDX 7 13 8 14 9 15 13 16 11 17 10 18 12 20 4 22 21 24 18 26
REMARK H PARENT 10 19 12 21 4 23 21 25 18 27
REMARK Flexibility Score: inf
ROOT
ATOM      1  C   UNL     1       2.453  -1.789  -7.637  1.00  0.00     0.180 A 
ATOM      2  C   UNL     1       2.650  -0.399  -7.595  1.00  0.00     0.208 A 
ATOM      3  C   UNL     1       1.597   0.427  -7.173  1.00  0.00     0.238 A 
ATOM      4  O   UNL     1       1.762   1.674  -7.189  1.00  0.00    -0.285 OA
ATOM      5  C   UNL     1       0.364  -0.149  -6.780  1.00  0.00     0.111 A 
ATOM      6  C   UNL     1      -0.758   0.588  -6.297  1.00  0.00     0.134 A 
ATOM      7  C   UNL     1      -1.970  -0.073  -6.062  1.00  0.00     0.093 A 
ATOM      8  C   UNL     1      -2.081  -1.455  -6.231  1.00  0.00     0.123 A 
ATOM      9  C   UNL     1      -0.974  -2.192  -6.646  1.00  0.00     0.094 A 
ATOM     10  C   UNL     1       0.238  -1.556  -6.923  1.00  0.00     0.146 A 
ATOM     11  O   UNL     1       1.264  -2.295  -7.326  1.00  0.00    -0.452 OA
ENDROOT
BRANCH   1  12
ATOM     12  C   UNL     1       3.524  -2.726  -8.048  1.00  0.00     0.025 A 
ATOM     13  C   UNL     1       4.273  -3.441  -7.099  1.00  0.00     0.016 A 
ATOM     14  C   UNL     1       5.262  -4.335  -7.511  1.00  0.00     0.051 A 
ATOM     15  C   UNL     1       5.514  -4.547  -8.871  1.00  0.00     0.157 A 
ATOM     16  C   UNL     1       3.760  -2.952  -9.412  1.00  0.00     0.062 A 
ATOM     17  C   UNL     1       4.749  -3.849  -9.835  1.00  0.00     0.158 A 
BRANCH  15  18
ATOM     18  O   UNL     1       6.519  -5.452  -9.216  1.00  0.00    -0.504 OA
ATOM     19  H   UNL     1       6.977  -6.065  -8.557  1.00  0.00     0.293 HD
ENDBRANCH  15  18
BRANCH  17  20
ATOM     20  O   UNL     1       4.936  -4.014 -11.209  1.00  0.00    -0.504 OA
ATOM     21  H   UNL     1       5.800  -4.326 -11.628  1.00  0.00     0.293 HD
ENDBRANCH  17  20
ENDBRANCH   1  12
BRANCH   2  22
ATOM     22  O   UNL     1       3.868   0.151  -8.007  1.00  0.00    -0.502 OA
ATOM     23  H   UNL     1       4.335   0.887  -7.491  1.00  0.00     0.293 HD
ENDBRANCH   2  22
BRANCH   6  24
ATOM     24  O   UNL     1      -0.727   1.956  -6.007  1.00  0.00    -0.507 OA
ATOM     25  H   UNL     1       0.098   2.465  -5.728  1.00  0.00     0.293 HD
ENDBRANCH   6  24
BRANCH   8  26
ATOM     26  O   UNL     1      -3.286  -2.107  -5.980  1.00  0.00    -0.508 OA
ATOM     27  H   UNL     1      -4.007  -2.180  -6.689  1.00  0.00     0.293 HD
ENDBRANCH   8  26
TORSDOF 6
ENDMDL
MODEL 5
REMARK VINA RESULT:    -5.687      2.442      7.174
REMARK INTER + INTRA:          -7.142
REMARK INTER:                  -6.873
REMARK INTRA:                  -0.269
REMARK UNBOUND:                -0.292
REMARK SMILES O=c1c(O)c(-c2ccc(O)c(O)c2)oc2cc(O)cc(O)c12
REMARK SMILES IDX 5 1 3 2 2 3 1 4 22 5 20 6 19 7 17 8 16 9 15 10 14 11 6 12
REMARK SMILES IDX 7 13 8 14 9 15 13 16 11 17 10 18 12 20 4 22 21 24 18 26
REMARK H PARENT 10 19 12 21 4 23 21 25 18 27
REMARK Flexibility Score: inf
ROOT
ATOM      1  C   UNL     1       3.135  -3.586  -9.088  1.00  0.00     0.180 A 
ATOM      2  C   UNL     1       4.098  -4.500  -8.629  1.00  0.00     0.208 A 
ATOM      3  C   UNL     1       4.288  -5.700  -9.333  1.00  0.00     0.238 A 
ATOM      4  O   UNL     1       5.113  -6.539  -8.887  1.00  0.00    -0.285 OA
ATOM      5  C   UNL     1       3.524  -5.963 -10.497  1.00  0.00     0.111 A 
ATOM      6  C   UNL     1       3.662  -7.127 -11.310  1.00  0.00     0.134 A 
ATOM      7  C   UNL     1       2.764  -7.344 -12.363  1.00  0.00     0.093 A 
ATOM      8  C   UNL     1       1.776  -6.406 -12.671  1.00  0.00     0.123 A 
ATOM      9  C   UNL     1       1.672  -5.238 -11.919  1.00  0.00     0.094 A 
ATOM     10  C   UNL     1       2.529  -5.011 -10.841  1.00  0.00     0.146 A 
ATOM     11  O   UNL     1       2.389  -3.890 -10.144  1.00  0.00    -0.452 OA
ENDROOT
BRANCH   1  12
ATOM     12  C   UNL     1       2.895  -2.289  -8.414  1.00  0.00     0.025 A 
ATOM     13  C   UNL     1       3.813  -1.231  -8.516  1.00  0.00     0.016 A 
ATOM     14  C   UNL     1       3.554  -0.010  -7.891  1.00  0.00     0.051 A 
ATOM     15  C   UNL     1       2.374   0.186  -7.166  1.00  0.00     0.157 A 
ATOM     16  C   UNL     1       1.701  -2.088  -7.705  1.00  0.00     0.062 A 
ATOM     17  C   UNL     1       1.432  -0.866  -7.075  1.00  0.00     0.158 A 
BRANCH  15  18
ATOM     18  O   UNL     1       2.177   1.429  -6.562  1.00  0.00    -0.504 OA
ATOM     19  H   UNL     1       2.708   2.257  -6.789  1.00  0.00     0.293 HD
ENDBRANCH  15  18
BRANCH  17  20
ATOM     20  O   UNL     1       0.228  -0.743  -6.378  1.00  0.00    -0.504 OA
ATOM     21  H   UNL     1      -0.111   0.124  -5.986  1.00  0.00     0.293 HD
ENDBRANCH  17  20
ENDBRANCH   1  12
BRANCH   2  22
ATOM     22  O   UNL     1       4.826  -4.231  -7.466  1.00  0.00    -0.502 OA
ATOM     23  H   UNL     1       5.756  -4.599  -7.310  1.00  0.00     0.293 HD
ENDBRANCH   2  22
BRANCH   6  24
ATOM     24  O   UNL     1       4.672  -8.080 -11.145  1.00  0.00    -0.507 OA
ATOM     25  H   UNL     1       5.346  -8.078 -10.395  1.00  0.00     0.293 HD
ENDBRANCH   6  24
BRANCH   8  26
ATOM     26  O   UNL     1       0.897  -6.622 -13.730  1.00  0.00    -0.508 OA
ATOM     27  H   UNL     1       0.797  -7.535 -14.158  1.00  0.00     0.293 HD
ENDBRANCH   8  26
TORSDOF 6
ENDMDL
MODEL 6
REMARK VINA RESULT:    -5.682      4.907      6.798
REMARK INTER + INTRA:          -7.136
REMARK INTER:                  -6.819
REMARK INTRA:                  -0.317
REMARK UNBOUND:                -0.292
REMARK SMILES O=c1c(O)c(-c2ccc(O)c(O)c2)oc2cc(O)cc(O)c12
REMARK SMILES IDX 5 1 3 2 2 3 1 4 22 5 20 6 19 7 17 8 16 9 15 10 14 11 6 12
REMARK SMILES IDX 7 13 8 14 9 15 13 16 11 17 10 18 12 20 4 22 21 24 18 26
REMARK H PARENT 10 19 12 21 4 23 21 25 18 27
REMARK Flexibility Score: inf
ROOT
ATOM      1  C   UNL     1       1.500  -5.474 -12.229  1.00  0.00     0.180 A 
ATOM      2  C   UNL     1       2.410  -6.537 -12.356  1.00  0.00     0.208 A 
ATOM      3  C   UNL     1       3.454  -6.656 -11.426  1.00  0.00     0.238 A 
ATOM      4  O   UNL     1       4.297  -7.578 -11.576  1.00  0.00    -0.285 OA
ATOM      5  C   UNL     1       3.566  -5.719 -10.369  1.00  0.00     0.111 A 
ATOM      6  C   UNL     1       4.560  -5.765  -9.347  1.00  0.00     0.134 A 
ATOM      7  C   UNL     1       4.656  -4.713  -8.428  1.00  0.00     0.093 A 
ATOM      8  C   UNL     1       3.752  -3.649  -8.456  1.00  0.00     0.123 A 
ATOM      9  C   UNL     1       2.741  -3.625  -9.413  1.00  0.00     0.094 A 
ATOM     10  C   UNL     1       2.642  -4.641 -10.366  1.00  0.00     0.146 A 
ATOM     11  O   UNL     1       1.670  -4.574 -11.267  1.00  0.00    -0.452 OA
ENDROOT
BRANCH   1  12
ATOM     12  C   UNL     1       0.359  -5.297 -13.157  1.00  0.00     0.025 A 
ATOM     13  C   UNL     1      -0.922  -5.777 -12.840  1.00  0.00     0.016 A 
ATOM     14  C   UNL     1      -1.987  -5.578 -13.719  1.00  0.00     0.051 A 
ATOM     15  C   UNL     1      -1.802  -4.887 -14.921  1.00  0.00     0.157 A 
ATOM     16  C   UNL     1       0.543  -4.586 -14.352  1.00  0.00     0.062 A 
ATOM     17  C   UNL     1      -0.521  -4.380 -15.241  1.00  0.00     0.158 A 
BRANCH  15  18
ATOM     18  O   UNL     1      -2.908  -4.726 -15.759  1.00  0.00    -0.504 OA
ATOM     19  H   UNL     1      -3.031  -5.216 -16.633  1.00  0.00     0.293 HD
ENDBRANCH  15  18
BRANCH  17  20
ATOM     20  O   UNL     1      -0.261  -3.673 -16.416  1.00  0.00    -0.504 OA
ATOM     21  H   UNL     1      -0.508  -2.705 -16.559  1.00  0.00     0.293 HD
ENDBRANCH  17  20
ENDBRANCH   1  12
BRANCH   2  22
ATOM     22  O   UNL     1       2.294  -7.439 -13.419  1.00  0.00    -0.502 OA
ATOM     23  H   UNL     1       2.689  -7.256 -14.333  1.00  0.00     0.293 HD
ENDBRANCH   2  22
BRANCH   6  24
ATOM     24  O   UNL     1       5.453  -6.828  -9.174  1.00  0.00    -0.507 OA
ATOM     25  H   UNL     1       6.293  -6.788  -8.618  1.00  0.00     0.293 HD
ENDBRANCH   6  24
BRANCH   8  26
ATOM     26  O   UNL     1       3.844  -2.614  -7.527  1.00  0.00    -0.508 OA
ATOM     27  H   UNL     1       3.258  -1.789  -7.594  1.00  0.00     0.293 HD
ENDBRANCH   8  26
TORSDOF 6
ENDMDL
MODEL 7
REMARK VINA RESULT:    -5.636      2.204      7.282
REMARK INTER + INTRA:          -7.081
REMARK INTER:                  -6.746
REMARK INTRA:                  -0.334
REMARK UNBOUND:                -0.292
REMARK SMILES O=c1c(O)c(-c2ccc(O)c(O)c2)oc2cc(O)cc(O)c12
REMARK SMILES IDX 5 1 3 2 2 3 1 4 22 5 20 6 19 7 17 8 16 9 15 10 14 11 6 12
REMARK SMILES IDX 7 13 8 14 9 15 13 16 11 17 10 18 12 20 4 22 21 24 18 26
REMARK H PARENT 10 19 12 21 4 23 21 25 18 27
REMARK Flexibility Score: inf
ROOT
ATOM      1  C   UNL     1       2.353  -3.987  -8.155  1.00  0.00     0.180 A 
ATOM      2  C   UNL     1       3.663  -4.197  -7.693  1.00  0.00     0.208 A 
ATOM      3  C   UNL     1       4.494  -5.092  -8.384  1.00  0.00     0.238 A 
ATOM      4  O   UNL     1       5.648  -5.317  -7.935  1.00  0.00    -0.285 OA
ATOM      5  C   UNL     1       4.010  -5.754  -9.540  1.00  0.00     0.111 A 
ATOM      6  C   UNL     1       4.778  -6.651 -10.341  1.00  0.00     0.134 A 
ATOM      7  C   UNL     1       4.158  -7.349 -11.385  1.00  0.00     0.093 A 
ATOM      8  C   UNL     1       2.813  -7.133 -11.696  1.00  0.00     0.123 A 
ATOM      9  C   UNL     1       2.071  -6.215 -10.957  1.00  0.00     0.094 A 
ATOM     10  C   UNL     1       2.652  -5.530  -9.887  1.00  0.00     0.146 A 
ATOM     11  O   UNL     1       1.907  -4.672  -9.202  1.00  0.00    -0.452 OA
ENDROOT
BRANCH   1  12
ATOM     12  C   UNL     1       1.425  -3.041  -7.494  1.00  0.00     0.025 A 
ATOM     13  C   UNL     1       1.394  -1.682  -7.846  1.00  0.00     0.016 A 
ATOM     14  C   UNL     1       0.496  -0.813  -7.225  1.00  0.00     0.051 A 
ATOM     15  C   UNL     1      -0.397  -1.281  -6.255  1.00  0.00     0.157 A 
ATOM     16  C   UNL     1       0.517  -3.517  -6.536  1.00  0.00     0.062 A 
ATOM     17  C   UNL     1      -0.389  -2.652  -5.908  1.00  0.00     0.158 A 
BRANCH  15  18
ATOM     18  O   UNL     1      -1.267  -0.359  -5.669  1.00  0.00    -0.504 OA
ATOM     19  H   UNL     1      -2.059  -0.614  -5.099  1.00  0.00     0.293 HD
ENDBRANCH  15  18
BRANCH  17  20
ATOM     20  O   UNL     1      -1.254  -3.194  -4.956  1.00  0.00    -0.504 OA
ATOM     21  H   UNL     1      -2.099  -3.700  -5.184  1.00  0.00     0.293 HD
ENDBRANCH  17  20
ENDBRANCH   1  12
BRANCH   2  22
ATOM     22  O   UNL     1       4.114  -3.550  -6.539  1.00  0.00    -0.502 OA
ATOM     23  H   UNL     1       4.865  -3.917  -5.968  1.00  0.00     0.293 HD
ENDBRANCH   2  22
BRANCH   6  24
ATOM     24  O   UNL     1       6.150  -6.869 -10.173  1.00  0.00    -0.507 OA
ATOM     25  H   UNL     1       6.816  -6.160  -9.906  1.00  0.00     0.293 HD
ENDBRANCH   6  24
BRANCH   8  26
ATOM     26  O   UNL     1       2.208  -7.819 -12.746  1.00  0.00    -0.508 OA
ATOM     27  H   UNL     1       1.982  -7.357 -13.620  1.00  0.00     0.293 HD
ENDBRANCH   8  26
TORSDOF 6
ENDMDL
MODEL 8
REMARK VINA RESULT:    -5.631      2.709      7.145
REMARK INTER + INTRA:          -7.075
REMARK INTER:                  -6.877
REMARK INTRA:                  -0.198
REMARK UNBOUND:                -0.292
REMARK SMILES O=c1c(O)c(-c2ccc(O)c(O)c2)oc2cc(O)cc(O)c12
REMARK SMILES IDX 5 1 3 2 2 3 1 4 22 5 20 6 19 7 17 8 16 9 15 10 14 11 6 12
REMARK SMILES IDX 7 13 8 14 9 15 13 16 11 17 10 18 12 20 4 22 21 24 18 26
REMARK H PARENT 10 19 12 21 4 23 21 25 18 27
REMARK Flexibility Score: inf
ROOT
ATOM      1  C   UNL     1       1.681  -3.862  -7.500  1.00  0.00     0.180 A 
ATOM      2  C   UNL     1       2.336  -5.097  -7.647  1.00  0.00     0.208 A 
ATOM      3  C   UNL     1       3.549  -5.145  -8.351  1.00  0.00     0.238 A 
ATOM      4  O   UNL     1       4.103  -6.262  -8.526  1.00  0.00    -0.285 OA
ATOM      5  C   UNL     1       4.102  -3.955  -8.885  1.00  0.00     0.111 A 
ATOM      6  C   UNL     1       5.345  -3.880  -9.581  1.00  0.00     0.134 A 
ATOM      7  C   UNL     1       5.731  -2.674 -10.179  1.00  0.00     0.093 A 
ATOM      8  C   UNL     1       4.948  -1.525 -10.050  1.00  0.00     0.123 A 
ATOM      9  C   UNL     1       3.762  -1.573  -9.322  1.00  0.00     0.094 A 
ATOM     10  C   UNL     1       3.333  -2.770  -8.745  1.00  0.00     0.146 A 
ATOM     11  O   UNL     1       2.191  -2.775  -8.069  1.00  0.00    -0.452 OA
ENDROOT
BRANCH   1  12
ATOM     12  C   UNL     1       0.411  -3.727  -6.750  1.00  0.00     0.025 A 
ATOM     13  C   UNL     1       0.348  -3.019  -5.539  1.00  0.00     0.016 A 
ATOM     14  C   UNL     1      -0.864  -2.886  -4.862  1.00  0.00     0.051 A 
ATOM     15  C   UNL     1      -2.038  -3.440  -5.383  1.00  0.00     0.157 A 
ATOM     16  C   UNL     1      -0.769  -4.267  -7.285  1.00  0.00     0.062 A 
ATOM     17  C   UNL     1      -1.991  -4.137  -6.613  1.00  0.00     0.158 A 
BRANCH  15  18
ATOM     18  O   UNL     1      -3.218  -3.274  -4.654  1.00  0.00    -0.504 OA
ATOM     19  H   UNL     1      -3.865  -4.022  -4.448  1.00  0.00     0.293 HD
ENDBRANCH  15  18
BRANCH  17  20
ATOM     20  O   UNL     1      -3.122  -4.710  -7.199  1.00  0.00    -0.504 OA
ATOM     21  H   UNL     1      -3.655  -5.459  -6.784  1.00  0.00     0.293 HD
ENDBRANCH  17  20
ENDBRANCH   1  12
BRANCH   2  22
ATOM     22  O   UNL     1       1.762  -6.263  -7.131  1.00  0.00    -0.502 OA
ATOM     23  H   UNL     1       1.171  -6.870  -7.685  1.00  0.00     0.293 HD
ENDBRANCH   2  22
BRANCH   6  24
ATOM     24  O   UNL     1       6.245  -4.946  -9.689  1.00  0.00    -0.507 OA
ATOM     25  H   UNL     1       6.035  -5.834 -10.120  1.00  0.00     0.293 HD
ENDBRANCH   6  24
BRANCH   8  26
ATOM     26  O   UNL     1       5.347  -0.324 -10.635  1.00  0.00    -0.508 OA
ATOM     27  H   UNL     1       5.959   0.322 -10.151  1.00  0.00     0.293 HD
ENDBRANCH   8  26
TORSDOF 6
ENDMDL
MODEL 9
REMARK VINA RESULT:    -5.629      2.649      4.884
REMARK INTER + INTRA:          -7.072
REMARK INTER:                  -6.751
REMARK INTRA:                  -0.322
REMARK UNBOUND:                -0.292
REMARK SMILES O=c1c(O)c(-c2ccc(O)c(O)c2)oc2cc(O)cc(O)c12
REMARK SMILES IDX 5 1 3 2 2 3 1 4 22 5 20 6 19 7 17 8 16 9 15 10 14 11 6 12
REMARK SMILES IDX 7 13 8 14 9 15 13 16 11 17 10 18 12 20 4 22 21 24 18 26
REMARK H PARENT 10 19 12 21 4 23 21 25 18 27
REMARK Flexibility Score: inf
ROOT
ATOM      1  C   UNL     1       2.343  -1.926  -7.580  1.00  0.00     0.180 A 
ATOM      2  C   UNL     1       1.050  -2.408  -7.315  1.00  0.00     0.208 A 
ATOM      3  C   UNL     1       0.060  -1.507  -6.892  1.00  0.00     0.238 A 
ATOM      4  O   UNL     1      -1.080  -1.952  -6.603  1.00  0.00    -0.285 OA
ATOM      5  C   UNL     1       0.371  -0.131  -6.756  1.00  0.00     0.111 A 
ATOM      6  C   UNL     1      -0.563   0.877  -6.374  1.00  0.00     0.134 A 
ATOM      7  C   UNL     1      -0.114   2.184  -6.145  1.00  0.00     0.093 A 
ATOM      8  C   UNL     1       1.223   2.531  -6.348  1.00  0.00     0.123 A 
ATOM      9  C   UNL     1       2.131   1.567  -6.779  1.00  0.00     0.094 A 
ATOM     10  C   UNL     1       1.721   0.247  -6.981  1.00  0.00     0.146 A 
ATOM     11  O   UNL     1       2.621  -0.642  -7.381  1.00  0.00    -0.452 OA
ENDROOT
BRANCH   1  12
ATOM     12  C   UNL     1       3.432  -2.810  -8.054  1.00  0.00     0.025 A 
ATOM     13  C   UNL     1       4.246  -3.515  -7.151  1.00  0.00     0.016 A 
ATOM     14  C   UNL     1       5.252  -4.360  -7.621  1.00  0.00     0.051 A 
ATOM     15  C   UNL     1       5.458  -4.533  -8.994  1.00  0.00     0.157 A 
ATOM     16  C   UNL     1       3.623  -2.998  -9.431  1.00  0.00     0.062 A 
ATOM     17  C   UNL     1       4.630  -3.845  -9.912  1.00  0.00     0.158 A 
BRANCH  15  18
ATOM     18  O   UNL     1       6.483  -5.390  -9.398  1.00  0.00    -0.504 OA
ATOM     19  H   UNL     1       6.437  -5.979 -10.217  1.00  0.00     0.293 HD
ENDBRANCH  15  18
BRANCH  17  20
ATOM     20  O   UNL     1       4.768  -3.973 -11.295  1.00  0.00    -0.504 OA
ATOM     21  H   UNL     1       4.269  -4.652 -11.852  1.00  0.00     0.293 HD
ENDBRANCH  17  20
ENDBRANCH   1  12
BRANCH   2  22
ATOM     22  O   UNL     1       0.770  -3.773  -7.434  1.00  0.00    -0.502 OA
ATOM     23  H   UNL     1       0.858  -4.416  -6.657  1.00  0.00     0.293 HD
ENDBRANCH   2  22
BRANCH   6  24
ATOM     24  O   UNL     1      -1.937   0.655  -6.234  1.00  0.00    -0.507 OA
ATOM     25  H   UNL     1      -2.653   1.337  -6.433  1.00  0.00     0.293 HD
ENDBRANCH   6  24
BRANCH   8  26
ATOM     26  O   UNL     1       1.658   3.838  -6.134  1.00  0.00    -0.508 OA
ATOM     27  H   UNL     1       1.262   4.618  -6.645  1.00  0.00     0.293 HD
ENDBRANCH   8  26
TORSDOF 6
ENDMDL
