MODEL 1
REMARK VINA RESULT:    -6.138      0.000      0.000
REMARK INTER + INTRA:          -6.318
REMARK INTER:                  -6.318
REMARK INTRA:                   0.000
REMARK UNBOUND:                 0.000
REMARK SMILES O=c1ccc2ccc(O)cc2o1
REMARK SMILES IDX 6 1 7 2 8 3 10 4 11 5 5 6 4 7 3 8 2 9 1 10 12 11 9 12
REMARK H PARENT 9 13
REMARK Flexibility Score: inf
ROOT
ATOM      1  C   UNL     1       3.219  47.674   8.437  1.00  0.00     0.016 A 
ATOM      2  C   UNL     1       4.378  48.371   8.083  1.00  0.00     0.047 A 
ATOM      3  C   UNL     1       5.571  48.166   8.786  1.00  0.00     0.119 A 
ATOM      4  C   UNL     1       5.606  47.257   9.854  1.00  0.00     0.094 A 
ATOM      5  C   UNL     1       4.451  46.555  10.217  1.00  0.00     0.142 A 
ATOM      6  C   UNL     1       3.249  46.764   9.503  1.00  0.00     0.018 A 
ATOM      7  C   UNL     1       2.112  46.048   9.889  1.00  0.00     0.019 A 
ATOM      8  C   UNL     1       2.195  45.155  10.957  1.00  0.00     0.094 A 
ATOM      9  C   UNL     1       3.418  44.999  11.618  1.00  0.00     0.336 A 
ATOM     10  O   UNL     1       3.513  44.198  12.584  1.00  0.00    -0.246 OA
ATOM     11  O   UNL     1       4.486  45.693  11.230  1.00  0.00    -0.423 OA
ENDROOT
BRANCH   3  12
ATOM     12  O   UNL     1       6.715  48.870   8.417  1.00  0.00    -0.508 OA
ATOM     13  H   UNL     1       7.625  48.638   8.798  1.00  0.00     0.293 HD
ENDBRANCH   3  12
TORSDOF 1
ENDMDL
MODEL 2
REMARK VINA RESULT:    -6.076      1.478      4.162
REMARK INTER + INTRA:          -6.253
REMARK INTER:                  -6.253
REMARK INTRA:                   0.000
REMARK UNBOUND:                 0.000
REMARK SMILES O=c1ccc2ccc(O)cc2o1
REMARK SMILES IDX 6 1 7 2 8 3 10 4 11 5 5 6 4 7 3 8 2 9 1 10 12 11 9 12
REMARK H PARENT 9 13
REMARK Flexibility Score: inf
ROOT
ATOM      1  C   UNL     1       1.816  45.265  10.661  1.00  0.00     0.016 A 
ATOM      2  C   UNL     1       2.647  44.757  11.664  1.00  0.00     0.047 A 
ATOM      3  C   UNL     1       3.973  45.193  11.773  1.00  0.00     0.119 A 
ATOM      4  C   UNL     1       4.473  46.144  10.871  1.00  0.00     0.094 A 
ATOM      5  C   UNL     1       3.649  46.658   9.864  1.00  0.00     0.142 A 
ATOM      6  C   UNL     1       2.311  46.217   9.758  1.00  0.00     0.018 A 
ATOM      7  C   UNL     1       1.511  46.748   8.741  1.00  0.00     0.019 A 
ATOM      8  C   UNL     1       2.053  47.692   7.869  1.00  0.00     0.094 A 
ATOM      9  C   UNL     1       3.385  48.083   8.033  1.00  0.00     0.336 A 
ATOM     10  O   UNL     1       3.891  48.933   7.255  1.00  0.00    -0.246 OA
ATOM     11  O   UNL     1       4.125  47.561   9.010  1.00  0.00    -0.423 OA
ENDROOT
BRANCH   3  12
ATOM     12  O   UNL     1       4.786  44.675  12.779  1.00  0.00    -0.508 OA
ATOM     13  H   UNL     1       5.614  44.131  12.563  1.00  0.00     0.293 HD
ENDBRANCH   3  12
TORSDOF 1
ENDMDL
MODEL 3
REMARK VINA RESULT:    -6.052      1.671      4.799
REMARK INTER + INTRA:          -6.229
REMARK INTER:                  -6.229
REMARK INTRA:                   0.000
REMARK UNBOUND:                 0.000
REMARK SMILES O=c1ccc2ccc(O)cc2o1
REMARK SMILES IDX 6 1 7 2 8 3 10 4 11 5 5 6 4 7 3 8 2 9 1 10 12 11 9 12
REMARK H PARENT 9 13
REMARK Flexibility Score: inf
ROOT
ATOM      1  C   UNL     1       4.492  45.410  11.559  1.00  0.00     0.016 A 
ATOM      2  C   UNL     1       3.455  44.644  12.098  1.00  0.00     0.047 A 
ATOM      3  C   UNL     1       2.173  44.692  11.536  1.00  0.00     0.119 A 
ATOM      4  C   UNL     1       1.925  45.514  10.427  1.00  0.00     0.094 A 
ATOM      5  C   UNL     1       2.957  46.285   9.880  1.00  0.00     0.142 A 
ATOM      6  C   UNL     1       4.250  46.233  10.449  1.00  0.00     0.018 A 
ATOM      7  C   UNL     1       5.261  47.014   9.881  1.00  0.00     0.019 A 
ATOM      8  C   UNL     1       4.967  47.816   8.778  1.00  0.00     0.094 A 
ATOM      9  C   UNL     1       3.665  47.817   8.267  1.00  0.00     0.336 A 
ATOM     10  O   UNL     1       3.381  48.534   7.273  1.00  0.00    -0.246 OA
ATOM     11  O   UNL     1       2.721  47.063   8.827  1.00  0.00    -0.423 OA
ENDROOT
BRANCH   3  12
ATOM     12  O   UNL     1       1.152  43.921  12.089  1.00  0.00    -0.508 OA
ATOM     13  H   UNL     1       0.725  44.164  12.975  1.00  0.00     0.293 HD
ENDBRANCH   3  12
TORSDOF 1
ENDMDL
MODEL 4
REMARK VINA RESULT:    -5.931      1.504      2.268
REMARK INTER + INTRA:          -6.104
REMARK INTER:                  -6.104
REMARK INTRA:                   0.000
REMARK UNBOUND:                 0.000
REMARK SMILES O=c1ccc2ccc(O)cc2o1
REMARK SMILES IDX 6 1 7 2 8 3 10 4 11 5 5 6 4 7 3 8 2 9 1 10 12 11 9 12
REMARK H PARENT 9 13
REMARK Flexibility Score: inf
ROOT
ATOM      1  C   UNL     1       5.406  46.877  10.123  1.00  0.00     0.016 A 
ATOM      2  C   UNL     1       5.365  47.758   9.038  1.00  0.00     0.047 A 
ATOM      3  C   UNL     1       4.166  47.977   8.348  1.00  0.00     0.119 A 
ATOM      4  C   UNL     1       2.998  47.309   8.745  1.00  0.00     0.094 A 
ATOM      5  C   UNL     1       3.030  46.424   9.829  1.00  0.00     0.142 A 
ATOM      6  C   UNL     1       4.241  46.208  10.523  1.00  0.00     0.018 A 
ATOM      7  C   UNL     1       4.241  45.318  11.602  1.00  0.00     0.019 A 
ATOM      8  C   UNL     1       3.055  44.677  11.960  1.00  0.00     0.094 A 
ATOM      9  C   UNL     1       1.893  44.940  11.228  1.00  0.00     0.336 A 
ATOM     10  O   UNL     1       0.814  44.371  11.535  1.00  0.00    -0.246 OA
ATOM     11  O   UNL     1       1.921  45.792  10.204  1.00  0.00    -0.423 OA
ENDROOT
BRANCH   3  12
ATOM     12  O   UNL     1       4.146  48.859   7.270  1.00  0.00    -0.508 OA
ATOM     13  H   UNL     1       4.954  49.424   7.032  1.00  0.00     0.293 HD
ENDBRANCH   3  12
TORSDOF 1
ENDMDL
MODEL 5
REMARK VINA RESULT:    -5.900      0.965      4.269
REMARK INTER + INTRA:          -6.073
REMARK INTER:                  -6.073
REMARK INTRA:                   0.000
REMARK UNBOUND:                 0.000
REMARK SMILES O=c1ccc2ccc(O)cc2o1
REMARK SMILES IDX 6 1 7 2 8 3 10 4 11 5 5 6 4 7 3 8 2 9 1 10 12 11 9 12
REMARK H PARENT 9 13
REMARK Flexibility Score: inf
ROOT
ATOM      1  C   UNL     1       1.573  45.988   9.692  1.00  0.00     0.016 A 
ATOM      2  C   UNL     1       1.230  45.048  10.668  1.00  0.00     0.047 A 
ATOM      3  C   UNL     1       2.190  44.588  11.577  1.00  0.00     0.119 A 
ATOM      4  C   UNL     1       3.506  45.070  11.509  1.00  0.00     0.094 A 
ATOM      5  C   UNL     1       3.859  46.011  10.536  1.00  0.00     0.142 A 
ATOM      6  C   UNL     1       2.887  46.474   9.621  1.00  0.00     0.018 A 
ATOM      7  C   UNL     1       3.270  47.414   8.659  1.00  0.00     0.019 A 
ATOM      8  C   UNL     1       4.590  47.864   8.631  1.00  0.00     0.094 A 
ATOM      9  C   UNL     1       5.498  47.362   9.568  1.00  0.00     0.336 A 
ATOM     10  O   UNL     1       6.693  47.757   9.558  1.00  0.00    -0.246 OA
ATOM     11  O   UNL     1       5.107  46.468  10.473  1.00  0.00    -0.423 OA
ENDROOT
BRANCH   3  12
ATOM     12  O   UNL     1       1.828  43.650  12.543  1.00  0.00    -0.508 OA
ATOM     13  H   UNL     1       0.864  43.536  12.834  1.00  0.00     0.293 HD
ENDBRANCH   3  12
TORSDOF 1
ENDMDL
MODEL 6
REMARK VINA RESULT:    -5.744      2.398      3.257
REMARK INTER + INTRA:          -5.912
REMARK INTER:                  -5.912
REMARK INTRA:                   0.000
REMARK UNBOUND:                 0.000
REMARK SMILES O=c1ccc2ccc(O)cc2o1
REMARK SMILES IDX 6 1 7 2 8 3 10 4 11 5 5 6 4 7 3 8 2 9 1 10 12 11 9 12
REMARK H PARENT 9 13
REMARK Flexibility Score: inf
ROOT
ATOM      1  C   UNL     1       4.480  46.538  10.219  1.00  0.00     0.016 A 
ATOM      2  C   UNL     1       5.642  47.238   9.878  1.00  0.00     0.047 A 
ATOM      3  C   UNL     1       5.641  48.130   8.800  1.00  0.00     0.119 A 
ATOM      4  C   UNL     1       4.469  48.325   8.053  1.00  0.00     0.094 A 
ATOM      5  C   UNL     1       3.302  47.629   8.386  1.00  0.00     0.142 A 
ATOM      6  C   UNL     1       3.307  46.730   9.476  1.00  0.00     0.018 A 
ATOM      7  C   UNL     1       2.125  46.049   9.784  1.00  0.00     0.019 A 
ATOM      8  C   UNL     1       0.984  46.275   9.013  1.00  0.00     0.094 A 
ATOM      9  C   UNL     1       1.053  47.180   7.949  1.00  0.00     0.336 A 
ATOM     10  O   UNL     1       0.034  47.396   7.242  1.00  0.00    -0.246 OA
ATOM     11  O   UNL     1       2.191  47.815   7.677  1.00  0.00    -0.423 OA
ENDROOT
BRANCH   3  12
ATOM     12  O   UNL     1       6.809  48.818   8.477  1.00  0.00    -0.508 OA
ATOM     13  H   UNL     1       7.337  49.324   9.178  1.00  0.00     0.293 HD
ENDBRANCH   3  12
TORSDOF 1
ENDMDL
MODEL 7
REMARK VINA RESULT:    -5.732      2.122      2.994
REMARK INTER + INTRA:          -5.900
REMARK INTER:                  -5.900
REMARK INTRA:                   0.000
REMARK UNBOUND:                 0.000
REMARK SMILES O=c1ccc2ccc(O)cc2o1
REMARK SMILES IDX 6 1 7 2 8 3 10 4 11 5 5 6 4 7 3 8 2 9 1 10 12 11 9 12
REMARK H PARENT 9 13
REMARK Flexibility Score: inf
ROOT
ATOM      1  C   UNL     1       3.801  47.771   8.452  1.00  0.00     0.016 A 
ATOM      2  C   UNL     1       2.706  48.163   7.678  1.00  0.00     0.047 A 
ATOM      3  C   UNL     1       1.432  47.644   7.938  1.00  0.00     0.119 A 
ATOM      4  C   UNL     1       1.251  46.723   8.981  1.00  0.00     0.094 A 
ATOM      5  C   UNL     1       2.341  46.323   9.761  1.00  0.00     0.142 A 
ATOM      6  C   UNL     1       3.625  46.851   9.496  1.00  0.00     0.018 A 
ATOM      7  C   UNL     1       4.696  46.432  10.293  1.00  0.00     0.019 A 
ATOM      8  C   UNL     1       4.467  45.515  11.318  1.00  0.00     0.094 A 
ATOM      9  C   UNL     1       3.169  45.035  11.523  1.00  0.00     0.336 A 
ATOM     10  O   UNL     1       2.944  44.207  12.443  1.00  0.00    -0.246 OA
ATOM     11  O   UNL     1       2.168  45.450  10.750  1.00  0.00    -0.423 OA
ENDROOT
BRANCH   3  12
ATOM     12  O   UNL     1       0.352  48.048   7.155  1.00  0.00    -0.508 OA
ATOM     13  H   UNL     1       0.240  49.014   6.866  1.00  0.00     0.293 HD
ENDBRANCH   3  12
TORSDOF 1
ENDMDL
MODEL 8
REMARK VINA RESULT:    -5.602      2.339      3.938
REMARK INTER + INTRA:          -5.766
REMARK INTER:                  -5.766
REMARK INTRA:                   0.000
REMARK UNBOUND:                 0.000
REMARK SMILES O=c1ccc2ccc(O)cc2o1
REMARK SMILES IDX 6 1 7 2 8 3 10 4 11 5 5 6 4 7 3 8 2 9 1 10 12 11 9 12
REMARK H PARENT 9 13
REMARK Flexibility Score: inf
ROOT
ATOM      1  C   UNL     1       4.618  47.074   9.488  1.00  0.00     0.016 A 
ATOM      2  C   UNL     1       5.062  46.377  10.616  1.00  0.00     0.047 A 
ATOM      3  C   UNL     1       4.156  45.664  11.409  1.00  0.00     0.119 A 
ATOM      4  C   UNL     1       2.794  45.646  11.074  1.00  0.00     0.094 A 
ATOM      5  C   UNL     1       2.340  46.341   9.947  1.00  0.00     0.142 A 
ATOM      6  C   UNL     1       3.258  47.059   9.148  1.00  0.00     0.018 A 
ATOM      7  C   UNL     1       2.775  47.743   8.028  1.00  0.00     0.019 A 
ATOM      8  C   UNL     1       1.412  47.697   7.734  1.00  0.00     0.094 A 
ATOM      9  C   UNL     1       0.562  46.965   8.569  1.00  0.00     0.336 A 
ATOM     10  O   UNL     1      -0.671  46.912   8.320  1.00  0.00    -0.246 OA
ATOM     11  O   UNL     1       1.048  46.323   9.629  1.00  0.00    -0.423 OA
ENDROOT
BRANCH   3  12
ATOM     12  O   UNL     1       4.619  44.976  12.529  1.00  0.00    -0.508 OA
ATOM     13  H   UNL     1       5.243  44.182  12.443  1.00  0.00     0.293 HD
ENDBRANCH   3  12
TORSDOF 1
ENDMDL
MODEL 9
REMARK VINA RESULT:    -5.568      2.403      3.995
REMARK INTER + INTRA:          -5.731
REMARK INTER:                  -5.731
REMARK INTRA:                   0.000
REMARK UNBOUND:                 0.000
REMARK SMILES O=c1ccc2ccc(O)cc2o1
REMARK SMILES IDX 6 1 7 2 8 3 10 4 11 5 5 6 4 7 3 8 2 9 1 10 12 11 9 12
REMARK H PARENT 9 13
REMARK Flexibility Score: inf
ROOT
ATOM      1  C   UNL     1       1.293  46.052   9.854  1.00  0.00     0.016 A 
ATOM      2  C   UNL     1       0.376  46.506   8.901  1.00  0.00     0.047 A 
ATOM      3  C   UNL     1       0.788  47.360   7.872  1.00  0.00     0.119 A 
ATOM      4  C   UNL     1       2.128  47.766   7.794  1.00  0.00     0.094 A 
ATOM      5  C   UNL     1       3.054  47.318   8.743  1.00  0.00     0.142 A 
ATOM      6  C   UNL     1       2.634  46.454   9.779  1.00  0.00     0.018 A 
ATOM      7  C   UNL     1       3.581  46.023  10.713  1.00  0.00     0.019 A 
ATOM      8  C   UNL     1       4.903  46.453  10.595  1.00  0.00     0.094 A 
ATOM      9  C   UNL     1       5.247  47.307   9.542  1.00  0.00     0.336 A 
ATOM     10  O   UNL     1       6.435  47.706   9.419  1.00  0.00    -0.246 OA
ATOM     11  O   UNL     1       4.325  47.703   8.667  1.00  0.00    -0.423 OA
ENDROOT
BRANCH   3  12
ATOM     12  O   UNL     1      -0.142  47.801   6.932  1.00  0.00    -0.508 OA
ATOM     13  H   UNL     1      -0.937  47.232   6.666  1.00  0.00     0.293 HD
ENDBRANCH   3  12
TORSDOF 1
ENDMDL
