MODEL 1
REMARK VINA RESULT:    -4.097      0.000      0.000
REMARK INTER + INTRA:          -7.060
REMARK INTER:                  -6.491
REMARK INTRA:                  -0.569
REMARK UNBOUND:                -0.569
REMARK SMILES CCCCCCCCCCCC(=O)[O-]
REMARK SMILES IDX 7 1 8 2 9 3 10 4 11 5 12 6 13 7 14 8 6 9 5 10 4 11 3 12 2 13
REMARK SMILES IDX 1 14
REMARK H PARENT
REMARK Flexibility Score: inf
ROOT
ATOM      1  C   UNL     1      -0.441   9.000   0.602  1.00  0.00     0.000 C 
ENDROOT
BRANCH   1   2
ATOM      2  C   UNL     1       0.538   7.818   0.652  1.00  0.00     0.000 C 
BRANCH   2   3
ATOM      3  C   UNL     1       0.723   7.260   2.072  1.00  0.00     0.000 C 
BRANCH   3   4
ATOM      4  C   UNL     1       0.611   5.729   2.126  1.00  0.00     0.006 C 
BRANCH   4   5
ATOM      5  C   UNL     1      -0.359   5.289   3.227  1.00  0.00     0.053 C 
BRANCH   5   6
ATOM      6  C   UNL     1      -0.419   3.796   3.306  1.00  0.00     0.041 C 
ATOM      7  O   UNL     1      -0.781   3.123   2.306  1.00  0.00    -0.550 OA
ATOM      8  O   UNL     1      -0.124   3.152   4.500  1.00  0.00    -0.550 OA
ENDBRANCH   5   6
ENDBRANCH   4   5
ENDBRANCH   3   4
ENDBRANCH   2   3
ENDBRANCH   1   2
BRANCH   1   9
ATOM      9  C   UNL     1      -1.162   9.058  -0.752  1.00  0.00     0.000 C 
BRANCH   9  10
ATOM     10  C   UNL     1      -0.366   8.389  -1.886  1.00  0.00    -0.000 C 
BRANCH  10  11
ATOM     11  C   UNL     1       0.527   9.339  -2.705  1.00  0.00    -0.000 C 
BRANCH  11  12
ATOM     12  C   UNL     1       1.487   8.596  -3.645  1.00  0.00    -0.000 C 
BRANCH  12  13
ATOM     13  C   UNL     1       1.546   7.103  -3.300  1.00  0.00    -0.003 C 
ATOM     14  C   UNL     1       2.750   6.433  -3.956  1.00  0.00     0.004 C 
ENDBRANCH  12  13
ENDBRANCH  11  12
ENDBRANCH  10  11
ENDBRANCH   9  10
ENDBRANCH   1   9
TORSDOF 10
ENDMDL
MODEL 2
REMARK VINA RESULT:    -4.071      2.021      3.187
REMARK INTER + INTRA:          -7.020
REMARK INTER:                  -5.746
REMARK INTRA:                  -1.274
REMARK UNBOUND:                -0.569
REMARK SMILES CCCCCCCCCCCC(=O)[O-]
REMARK SMILES IDX 7 1 8 2 9 3 10 4 11 5 12 6 13 7 14 8 6 9 5 10 4 11 3 12 2 13
REMARK SMILES IDX 1 14
REMARK H PARENT
REMARK Flexibility Score: inf
ROOT
ATOM      1  C   UNL     1       0.653   7.526  -2.362  1.00  0.00     0.000 C 
ENDROOT
BRANCH   1   2
ATOM      2  C   UNL     1       0.848   7.940  -0.896  1.00  0.00     0.000 C 
BRANCH   2   3
ATOM      3  C   UNL     1       1.110   6.741   0.029  1.00  0.00     0.000 C 
BRANCH   3   4
ATOM      4  C   UNL     1       1.773   7.149   1.353  1.00  0.00     0.006 C 
BRANCH   4   5
ATOM      5  C   UNL     1       1.807   5.973   2.335  1.00  0.00     0.053 C 
BRANCH   5   6
ATOM      6  C   UNL     1       0.422   5.483   2.615  1.00  0.00     0.041 C 
ATOM      7  O   UNL     1      -0.412   6.235   3.184  1.00  0.00    -0.550 OA
ATOM      8  O   UNL     1       0.067   4.180   2.292  1.00  0.00    -0.550 OA
ENDBRANCH   5   6
ENDBRANCH   4   5
ENDBRANCH   3   4
ENDBRANCH   2   3
ENDBRANCH   1   2
BRANCH   1   9
ATOM      9  C   UNL     1       1.436   6.242  -2.678  1.00  0.00     0.000 C 
BRANCH   9  10
ATOM     10  C   UNL     1       2.439   6.419  -3.832  1.00  0.00    -0.000 C 
BRANCH  10  11
ATOM     11  C   UNL     1       3.918   6.477  -3.406  1.00  0.00    -0.000 C 
BRANCH  11  12
ATOM     12  C   UNL     1       4.244   7.705  -2.543  1.00  0.00    -0.000 C 
BRANCH  12  13
ATOM     13  C   UNL     1       4.809   7.284  -1.181  1.00  0.00    -0.003 C 
ATOM     14  C   UNL     1       4.997   5.772  -1.107  1.00  0.00     0.004 C 
ENDBRANCH  12  13
ENDBRANCH  11  12
ENDBRANCH  10  11
ENDBRANCH   9  10
ENDBRANCH   1   9
TORSDOF 10
ENDMDL
MODEL 3
REMARK VINA RESULT:    -4.039      1.605      2.607
REMARK INTER + INTRA:          -6.969
REMARK INTER:                  -6.070
REMARK INTRA:                  -0.899
REMARK UNBOUND:                -0.569
REMARK SMILES CCCCCCCCCCCC(=O)[O-]
REMARK SMILES IDX 7 1 8 2 9 3 10 4 11 5 12 6 13 7 14 8 6 9 5 10 4 11 3 12 2 13
REMARK SMILES IDX 1 14
REMARK H PARENT
REMARK Flexibility Score: inf
ROOT
ATOM      1  C   UNL     1       0.333   7.481  -1.580  1.00  0.00     0.000 C 
ENDROOT
BRANCH   1   2
ATOM      2  C   UNL     1       0.876   7.810  -0.182  1.00  0.00     0.000 C 
BRANCH   2   3
ATOM      3  C   UNL     1       0.964   6.573   0.726  1.00  0.00     0.000 C 
BRANCH   3   4
ATOM      4  C   UNL     1       0.925   6.930   2.219  1.00  0.00     0.006 C 
BRANCH   4   5
ATOM      5  C   UNL     1      -0.039   6.013   2.978  1.00  0.00     0.053 C 
BRANCH   5   6
ATOM      6  C   UNL     1       0.401   4.587   2.871  1.00  0.00     0.041 C 
ATOM      7  O   UNL     1       1.565   4.256   3.217  1.00  0.00    -0.550 OA
ATOM      8  O   UNL     1      -0.458   3.633   2.343  1.00  0.00    -0.550 OA
ENDBRANCH   5   6
ENDBRANCH   4   5
ENDBRANCH   3   4
ENDBRANCH   2   3
ENDBRANCH   1   2
BRANCH   1   9
ATOM      9  C   UNL     1       1.045   8.317  -2.654  1.00  0.00     0.000 C 
BRANCH   9  10
ATOM     10  C   UNL     1       1.706   7.455  -3.745  1.00  0.00    -0.000 C 
BRANCH  10  11
ATOM     11  C   UNL     1       2.534   6.266  -3.223  1.00  0.00    -0.000 C 
BRANCH  11  12
ATOM     12  C   UNL     1       4.047   6.469  -3.394  1.00  0.00    -0.000 C 
BRANCH  12  13
ATOM     13  C   UNL     1       4.816   5.881  -2.204  1.00  0.00    -0.003 C 
ATOM     14  C   UNL     1       4.403   6.550  -0.897  1.00  0.00     0.004 C 
ENDBRANCH  12  13
ENDBRANCH  11  12
ENDBRANCH  10  11
ENDBRANCH   9  10
ENDBRANCH   1   9
TORSDOF 10
ENDMDL
MODEL 4
REMARK VINA RESULT:    -3.986      3.455      6.206
REMARK INTER + INTRA:          -6.885
REMARK INTER:                  -6.114
REMARK INTRA:                  -0.771
REMARK UNBOUND:                -0.569
REMARK SMILES CCCCCCCCCCCC(=O)[O-]
REMARK SMILES IDX 7 1 8 2 9 3 10 4 11 5 12 6 13 7 14 8 6 9 5 10 4 11 3 12 2 13
REMARK SMILES IDX 1 14
REMARK H PARENT
REMARK Flexibility Score: inf
ROOT
ATOM      1  C   UNL     1      -0.168   9.430   0.613  1.00  0.00     0.000 C 
ENDROOT
BRANCH   1   2
ATOM      2  C   UNL     1      -1.235   8.944  -0.378  1.00  0.00     0.000 C 
BRANCH   2   3
ATOM      3  C   UNL     1      -0.641   8.529  -1.734  1.00  0.00     0.000 C 
BRANCH   3   4
ATOM      4  C   UNL     1       0.839   8.133  -1.636  1.00  0.00     0.006 C 
BRANCH   4   5
ATOM      5  C   UNL     1       1.107   6.824  -2.385  1.00  0.00     0.053 C 
BRANCH   5   6
ATOM      6  C   UNL     1       1.798   7.095  -3.684  1.00  0.00     0.041 C 
ATOM      7  O   UNL     1       2.609   6.257  -4.157  1.00  0.00    -0.550 OA
ATOM      8  O   UNL     1       1.583   8.296  -4.347  1.00  0.00    -0.550 OA
ENDBRANCH   5   6
ENDBRANCH   4   5
ENDBRANCH   3   4
ENDBRANCH   2   3
ENDBRANCH   1   2
BRANCH   1   9
ATOM      9  C   UNL     1      -0.396   8.824   2.005  1.00  0.00     0.000 C 
BRANCH   9  10
ATOM     10  C   UNL     1       0.662   7.773   2.384  1.00  0.00    -0.000 C 
BRANCH  10  11
ATOM     11  C   UNL     1       0.543   6.430   1.639  1.00  0.00    -0.000 C 
BRANCH  11  12
ATOM     12  C   UNL     1       0.825   5.219   2.540  1.00  0.00    -0.000 C 
BRANCH  12  13
ATOM     13  C   UNL     1      -0.470   4.695   3.175  1.00  0.00    -0.003 C 
ATOM     14  C   UNL     1      -0.761   3.265   2.732  1.00  0.00     0.004 C 
ENDBRANCH  12  13
ENDBRANCH  11  12
ENDBRANCH  10  11
ENDBRANCH   9  10
ENDBRANCH   1   9
TORSDOF 10
ENDMDL
MODEL 5
REMARK VINA RESULT:    -3.957      1.829      3.124
REMARK INTER + INTRA:          -6.839
REMARK INTER:                  -5.972
REMARK INTRA:                  -0.867
REMARK UNBOUND:                -0.569
REMARK SMILES CCCCCCCCCCCC(=O)[O-]
REMARK SMILES IDX 7 1 8 2 9 3 10 4 11 5 12 6 13 7 14 8 6 9 5 10 4 11 3 12 2 13
REMARK SMILES IDX 1 14
REMARK H PARENT
REMARK Flexibility Score: inf
ROOT
ATOM      1  C   UNL     1       1.216   6.507   1.104  1.00  0.00     0.000 C 
ENDROOT
BRANCH   1   2
ATOM      2  C   UNL     1       0.552   7.264   2.264  1.00  0.00     0.000 C 
BRANCH   2   3
ATOM      3  C   UNL     1      -0.261   6.342   3.186  1.00  0.00     0.000 C 
BRANCH   3   4
ATOM      4  C   UNL     1      -0.188   4.868   2.764  1.00  0.00     0.006 C 
BRANCH   4   5
ATOM      5  C   UNL     1       0.267   3.985   3.931  1.00  0.00     0.053 C 
BRANCH   5   6
ATOM      6  C   UNL     1       1.716   4.211   4.225  1.00  0.00     0.041 C 
ATOM      7  O   UNL     1       2.075   4.616   5.362  1.00  0.00    -0.550 OA
ATOM      8  O   UNL     1       2.665   4.020   3.230  1.00  0.00    -0.550 OA
ENDBRANCH   5   6
ENDBRANCH   4   5
ENDBRANCH   3   4
ENDBRANCH   2   3
ENDBRANCH   1   2
BRANCH   1   9
ATOM      9  C   UNL     1       2.219   7.405   0.366  1.00  0.00     0.000 C 
BRANCH   9  10
ATOM     10  C   UNL     1       2.217   7.182  -1.157  1.00  0.00    -0.000 C 
BRANCH  10  11
ATOM     11  C   UNL     1       0.823   7.150  -1.809  1.00  0.00    -0.000 C 
BRANCH  11  12
ATOM     12  C   UNL     1       0.336   8.539  -2.248  1.00  0.00    -0.000 C 
BRANCH  12  13
ATOM     13  C   UNL     1      -0.575   9.162  -1.182  1.00  0.00    -0.003 C 
ATOM     14  C   UNL     1      -2.046   9.008  -1.556  1.00  0.00     0.004 C 
ENDBRANCH  12  13
ENDBRANCH  11  12
ENDBRANCH  10  11
ENDBRANCH   9  10
ENDBRANCH   1   9
TORSDOF 10
ENDMDL
MODEL 6
REMARK VINA RESULT:    -3.921      3.253      6.072
REMARK INTER + INTRA:          -6.782
REMARK INTER:                  -6.150
REMARK INTRA:                  -0.632
REMARK UNBOUND:                -0.569
REMARK SMILES CCCCCCCCCCCC(=O)[O-]
REMARK SMILES IDX 7 1 8 2 9 3 10 4 11 5 12 6 13 7 14 8 6 9 5 10 4 11 3 12 2 13
REMARK SMILES IDX 1 14
REMARK H PARENT
REMARK Flexibility Score: inf
ROOT
ATOM      1  C   UNL     1      -0.584   8.615  -1.407  1.00  0.00     0.000 C 
ENDROOT
BRANCH   1   2
ATOM      2  C   UNL     1       0.329   7.474  -1.879  1.00  0.00     0.000 C 
BRANCH   2   3
ATOM      3  C   UNL     1       1.159   7.852  -3.117  1.00  0.00     0.000 C 
BRANCH   3   4
ATOM      4  C   UNL     1       2.319   6.879  -3.372  1.00  0.00     0.006 C 
BRANCH   4   5
ATOM      5  C   UNL     1       3.306   6.883  -2.200  1.00  0.00     0.053 C 
BRANCH   5   6
ATOM      6  C   UNL     1       4.524   6.083  -2.538  1.00  0.00     0.041 C 
ATOM      7  O   UNL     1       4.906   5.985  -3.734  1.00  0.00    -0.550 OA
ATOM      8  O   UNL     1       5.209   5.406  -1.538  1.00  0.00    -0.550 OA
ENDBRANCH   5   6
ENDBRANCH   4   5
ENDBRANCH   3   4
ENDBRANCH   2   3
ENDBRANCH   1   2
BRANCH   1   9
ATOM      9  C   UNL     1      -0.504   8.787   0.117  1.00  0.00     0.000 C 
BRANCH   9  10
ATOM     10  C   UNL     1       0.486   7.812   0.780  1.00  0.00    -0.000 C 
BRANCH  10  11
ATOM     11  C   UNL     1       0.539   7.884   2.317  1.00  0.00    -0.000 C 
BRANCH  11  12
ATOM     12  C   UNL     1      -0.156   6.694   2.996  1.00  0.00    -0.000 C 
BRANCH  12  13
ATOM     13  C   UNL     1       0.316   5.366   2.393  1.00  0.00    -0.003 C 
ATOM     14  C   UNL     1      -0.495   4.194   2.938  1.00  0.00     0.004 C 
ENDBRANCH  12  13
ENDBRANCH  11  12
ENDBRANCH  10  11
ENDBRANCH   9  10
ENDBRANCH   1   9
TORSDOF 10
ENDMDL
MODEL 7
REMARK VINA RESULT:    -3.904      1.228      2.618
REMARK INTER + INTRA:          -6.755
REMARK INTER:                  -5.902
REMARK INTRA:                  -0.854
REMARK UNBOUND:                -0.569
REMARK SMILES CCCCCCCCCCCC(=O)[O-]
REMARK SMILES IDX 7 1 8 2 9 3 10 4 11 5 12 6 13 7 14 8 6 9 5 10 4 11 3 12 2 13
REMARK SMILES IDX 1 14
REMARK H PARENT
REMARK Flexibility Score: inf
ROOT
ATOM      1  C   UNL     1       2.377   6.974   0.943  1.00  0.00     0.000 C 
ENDROOT
BRANCH   1   2
ATOM      2  C   UNL     1       0.993   6.365   1.212  1.00  0.00     0.000 C 
BRANCH   2   3
ATOM      3  C   UNL     1       0.228   7.099   2.325  1.00  0.00     0.000 C 
BRANCH   3   4
ATOM      4  C   UNL     1      -0.215   6.161   3.457  1.00  0.00     0.006 C 
BRANCH   4   5
ATOM      5  C   UNL     1       0.669   4.912   3.512  1.00  0.00     0.053 C 
BRANCH   5   6
ATOM      6  C   UNL     1      -0.169   3.673   3.467  1.00  0.00     0.041 C 
ATOM      7  O   UNL     1      -0.766   3.352   2.406  1.00  0.00    -0.550 OA
ATOM      8  O   UNL     1      -0.330   2.901   4.610  1.00  0.00    -0.550 OA
ENDBRANCH   5   6
ENDBRANCH   4   5
ENDBRANCH   3   4
ENDBRANCH   2   3
ENDBRANCH   1   2
BRANCH   1   9
ATOM      9  C   UNL     1       2.522   7.373  -0.533  1.00  0.00     0.000 C 
BRANCH   9  10
ATOM     10  C   UNL     1       1.289   7.006  -1.379  1.00  0.00    -0.000 C 
BRANCH  10  11
ATOM     11  C   UNL     1       1.082   7.869  -2.637  1.00  0.00    -0.000 C 
BRANCH  11  12
ATOM     12  C   UNL     1       0.217   9.111  -2.375  1.00  0.00    -0.000 C 
BRANCH  12  13
ATOM     13  C   UNL     1      -0.703   8.893  -1.166  1.00  0.00    -0.003 C 
ATOM     14  C   UNL     1      -2.171   8.996  -1.566  1.00  0.00     0.004 C 
ENDBRANCH  12  13
ENDBRANCH  11  12
ENDBRANCH  10  11
ENDBRANCH   9  10
ENDBRANCH   1   9
TORSDOF 10
ENDMDL
MODEL 8
REMARK VINA RESULT:    -3.867      1.774      2.320
REMARK INTER + INTRA:          -6.697
REMARK INTER:                  -6.040
REMARK INTRA:                  -0.657
REMARK UNBOUND:                -0.569
REMARK SMILES CCCCCCCCCCCC(=O)[O-]
REMARK SMILES IDX 7 1 8 2 9 3 10 4 11 5 12 6 13 7 14 8 6 9 5 10 4 11 3 12 2 13
REMARK SMILES IDX 1 14
REMARK H PARENT
REMARK Flexibility Score: inf
ROOT
ATOM      1  C   UNL     1      -0.821   8.378   1.938  1.00  0.00     0.000 C 
ENDROOT
BRANCH   1   2
ATOM      2  C   UNL     1      -0.187   7.451   2.985  1.00  0.00     0.000 C 
BRANCH   2   3
ATOM      3  C   UNL     1       0.579   6.278   2.353  1.00  0.00     0.000 C 
BRANCH   3   4
ATOM      4  C   UNL     1       0.224   4.927   2.990  1.00  0.00     0.006 C 
BRANCH   4   5
ATOM      5  C   UNL     1       1.476   4.066   3.185  1.00  0.00     0.053 C 
BRANCH   5   6
ATOM      6  C   UNL     1       2.140   4.393   4.485  1.00  0.00     0.041 C 
ATOM      7  O   UNL     1       1.490   4.328   5.561  1.00  0.00    -0.550 OA
ATOM      8  O   UNL     1       3.462   4.816   4.502  1.00  0.00    -0.550 OA
ENDBRANCH   5   6
ENDBRANCH   4   5
ENDBRANCH   3   4
ENDBRANCH   2   3
ENDBRANCH   1   2
BRANCH   1   9
ATOM      9  C   UNL     1       0.112   8.563   0.732  1.00  0.00     0.000 C 
BRANCH   9  10
ATOM     10  C   UNL     1      -0.648   8.810  -0.584  1.00  0.00    -0.000 C 
BRANCH  10  11
ATOM     11  C   UNL     1      -0.203   7.932  -1.768  1.00  0.00    -0.000 C 
BRANCH  11  12
ATOM     12  C   UNL     1       1.093   7.157  -1.484  1.00  0.00    -0.000 C 
BRANCH  12  13
ATOM     13  C   UNL     1       1.422   6.201  -2.637  1.00  0.00    -0.003 C 
ATOM     14  C   UNL     1       2.082   6.941  -3.796  1.00  0.00     0.004 C 
ENDBRANCH  12  13
ENDBRANCH  11  12
ENDBRANCH  10  11
ENDBRANCH   9  10
ENDBRANCH   1   9
TORSDOF 10
ENDMDL
MODEL 9
REMARK VINA RESULT:    -3.808      2.890      6.800
REMARK INTER + INTRA:          -6.604
REMARK INTER:                  -6.124
REMARK INTRA:                  -0.479
REMARK UNBOUND:                -0.569
REMARK SMILES CCCCCCCCCCCC(=O)[O-]
REMARK SMILES IDX 7 1 8 2 9 3 10 4 11 5 12 6 13 7 14 8 6 9 5 10 4 11 3 12 2 13
REMARK SMILES IDX 1 14
REMARK H PARENT
REMARK Flexibility Score: inf
ROOT
ATOM      1  C   UNL     1      -0.260   8.476   2.306  1.00  0.00     0.000 C 
ENDROOT
BRANCH   1   2
ATOM      2  C   UNL     1       0.102   8.240   0.833  1.00  0.00     0.000 C 
BRANCH   2   3
ATOM      3  C   UNL     1      -0.791   9.035  -0.133  1.00  0.00     0.000 C 
BRANCH   3   4
ATOM      4  C   UNL     1      -0.814   8.437  -1.547  1.00  0.00     0.006 C 
BRANCH   4   5
ATOM      5  C   UNL     1       0.549   8.592  -2.230  1.00  0.00     0.053 C 
BRANCH   5   6
ATOM      6  C   UNL     1       1.050   7.266  -2.707  1.00  0.00     0.041 C 
ATOM      7  O   UNL     1       0.790   6.220  -2.057  1.00  0.00    -0.550 OA
ATOM      8  O   UNL     1       1.846   7.192  -3.842  1.00  0.00    -0.550 OA
ENDBRANCH   5   6
ENDBRANCH   4   5
ENDBRANCH   3   4
ENDBRANCH   2   3
ENDBRANCH   1   2
BRANCH   1   9
ATOM      9  C   UNL     1      -0.635   7.157   2.996  1.00  0.00     0.000 C 
BRANCH   9  10
ATOM     10  C   UNL     1       0.303   5.995   2.623  1.00  0.00    -0.000 C 
BRANCH  10  11
ATOM     11  C   UNL     1      -0.187   4.599   3.049  1.00  0.00    -0.000 C 
BRANCH  11  12
ATOM     12  C   UNL     1       0.686   3.965   4.142  1.00  0.00    -0.000 C 
BRANCH  12  13
ATOM     13  C   UNL     1      -0.141   3.023   5.026  1.00  0.00    -0.003 C 
ATOM     14  C   UNL     1      -0.164   3.504   6.473  1.00  0.00     0.004 C 
ENDBRANCH  12  13
ENDBRANCH  11  12
ENDBRANCH  10  11
ENDBRANCH   9  10
ENDBRANCH   1   9
TORSDOF 10
ENDMDL
