MODEL 1
REMARK VINA RESULT:    -3.812      0.000      0.000
REMARK INTER + INTRA:         -16.425
REMARK INTER:                 -10.053
REMARK INTRA:                  -6.372
REMARK UNBOUND:                -6.372
REMARK SMILES CCCCCCCCCCCCCCCCCCCCCCCCCCCCCC(=O)[O-]
REMARK SMILES IDX 16 1 17 2 18 3 19 4 20 5 21 6 22 7 23 8 24 9 25 10 26 11
REMARK SMILES IDX 27 12 28 13 29 14 30 15 31 16 32 17 15 18 14 19 13 20 12 21
REMARK SMILES IDX 11 22 10 23 9 24 8 25 7 26 6 27 5 28 4 29 3 30 2 31 1 32
REMARK H PARENT
REMARK Flexibility Score: inf
ROOT
ATOM      1  C   UNL     1      15.093 -27.218  38.120  1.00  0.00     0.000 C 
ENDROOT
BRANCH   1   2
ATOM      2  C   UNL     1      13.784 -26.703  37.487  1.00  0.00     0.000 C 
BRANCH   2   3
ATOM      3  C   UNL     1      12.754 -27.799  37.154  1.00  0.00     0.000 C 
BRANCH   3   4
ATOM      4  C   UNL     1      13.094 -29.203  37.696  1.00  0.00     0.000 C 
BRANCH   4   5
ATOM      5  C   UNL     1      11.892 -30.007  38.226  1.00  0.00     0.000 C 
BRANCH   5   6
ATOM      6  C   UNL     1      12.308 -31.186  39.118  1.00  0.00     0.000 C 
BRANCH   6   7
ATOM      7  C   UNL     1      13.663 -30.916  39.785  1.00  0.00     0.000 C 
BRANCH   7   8
ATOM      8  C   UNL     1      13.622 -31.268  41.277  1.00  0.00     0.000 C 
BRANCH   8   9
ATOM      9  C   UNL     1      12.837 -32.560  41.566  1.00  0.00     0.000 C 
BRANCH   9  10
ATOM     10  C   UNL     1      11.806 -32.415  42.706  1.00  0.00     0.000 C 
BRANCH  10  11
ATOM     11  C   UNL     1      10.461 -33.074  42.358  1.00  0.00     0.000 C 
BRANCH  11  12
ATOM     12  C   UNL     1       9.581 -32.190  41.459  1.00  0.00     0.000 C 
BRANCH  12  13
ATOM     13  C   UNL     1       9.614 -30.708  41.873  1.00  0.00     0.006 C 
BRANCH  13  14
ATOM     14  C   UNL     1       9.103 -29.783  40.760  1.00  0.00     0.053 C 
BRANCH  14  15
ATOM     15  C   UNL     1       8.408 -28.576  41.312  1.00  0.00     0.041 C 
ATOM     16  O   UNL     1       8.631 -28.201  42.493  1.00  0.00    -0.550 OA
ATOM     17  O   UNL     1       7.496 -27.877  40.529  1.00  0.00    -0.550 OA
ENDBRANCH  14  15
ENDBRANCH  13  14
ENDBRANCH  12  13
ENDBRANCH  11  12
ENDBRANCH  10  11
ENDBRANCH   9  10
ENDBRANCH   8   9
ENDBRANCH   7   8
ENDBRANCH   6   7
ENDBRANCH   5   6
ENDBRANCH   4   5
ENDBRANCH   3   4
ENDBRANCH   2   3
ENDBRANCH   1   2
BRANCH   1  18
ATOM     18  C   UNL     1      15.444 -26.590  39.483  1.00  0.00     0.000 C 
BRANCH  18  19
ATOM     19  C   UNL     1      14.243 -26.317  40.412  1.00  0.00     0.000 C 
BRANCH  19  20
ATOM     20  C   UNL     1      13.642 -27.561  41.092  1.00  0.00     0.000 C 
BRANCH  20  21
ATOM     21  C   UNL     1      12.110 -27.629  40.975  1.00  0.00     0.000 C 
BRANCH  21  22
ATOM     22  C   UNL     1      11.489 -26.291  40.546  1.00  0.00     0.000 C 
BRANCH  22  23
ATOM     23  C   UNL     1      10.497 -26.435  39.382  1.00  0.00     0.000 C 
BRANCH  23  24
ATOM     24  C   UNL     1       9.596 -25.196  39.277  1.00  0.00    -0.000 C 
BRANCH  24  25
ATOM     25  C   UNL     1       9.372 -24.501  40.632  1.00  0.00    -0.000 C 
BRANCH  25  26
ATOM     26  C   UNL     1       9.724 -23.000  40.664  1.00  0.00    -0.000 C 
BRANCH  26  27
ATOM     27  C   UNL     1      10.926 -22.628  41.551  1.00  0.00    -0.000 C 
BRANCH  27  28
ATOM     28  C   UNL     1      12.021 -21.870  40.786  1.00  0.00    -0.000 C 
BRANCH  28  29
ATOM     29  C   UNL     1      13.075 -22.840  40.232  1.00  0.00    -0.000 C 
BRANCH  29  30
ATOM     30  C   UNL     1      12.771 -23.297  38.793  1.00  0.00    -0.000 C 
BRANCH  30  31
ATOM     31  C   UNL     1      13.879 -22.987  37.770  1.00  0.00    -0.003 C 
ATOM     32  C   UNL     1      15.282 -23.044  38.372  1.00  0.00     0.004 C 
ENDBRANCH  30  31
ENDBRANCH  29  30
ENDBRANCH  28  29
ENDBRANCH  27  28
ENDBRANCH  26  27
ENDBRANCH  25  26
ENDBRANCH  24  25
ENDBRANCH  23  24
ENDBRANCH  22  23
ENDBRANCH  21  22
ENDBRANCH  20  21
ENDBRANCH  19  20
ENDBRANCH  18  19
ENDBRANCH   1  18
TORSDOF 28
ENDMDL
MODEL 2
REMARK VINA RESULT:    -3.790      2.753      7.715
REMARK INTER + INTRA:         -16.367
REMARK INTER:                 -10.842
REMARK INTRA:                  -5.525
REMARK UNBOUND:                -6.372
REMARK SMILES CCCCCCCCCCCCCCCCCCCCCCCCCCCCCC(=O)[O-]
REMARK SMILES IDX 16 1 17 2 18 3 19 4 20 5 21 6 22 7 23 8 24 9 25 10 26 11
REMARK SMILES IDX 27 12 28 13 29 14 30 15 31 16 32 17 15 18 14 19 13 20 12 21
REMARK SMILES IDX 11 22 10 23 9 24 8 25 7 26 6 27 5 28 4 29 3 30 2 31 1 32
REMARK H PARENT
REMARK Flexibility Score: inf
ROOT
ATOM      1  C   UNL     1      10.917 -29.212  40.878  1.00  0.00     0.000 C 
ENDROOT
BRANCH   1   2
ATOM      2  C   UNL     1      10.038 -28.963  42.120  1.00  0.00     0.000 C 
BRANCH   2   3
ATOM      3  C   UNL     1       9.069 -27.771  41.996  1.00  0.00     0.000 C 
BRANCH   3   4
ATOM      4  C   UNL     1       9.736 -26.416  41.686  1.00  0.00     0.000 C 
BRANCH   4   5
ATOM      5  C   UNL     1       9.137 -25.651  40.491  1.00  0.00     0.000 C 
BRANCH   5   6
ATOM      6  C   UNL     1       9.356 -24.134  40.581  1.00  0.00     0.000 C 
BRANCH   6   7
ATOM      7  C   UNL     1      10.743 -23.749  40.048  1.00  0.00     0.000 C 
BRANCH   7   8
ATOM      8  C   UNL     1      11.183 -22.385  40.595  1.00  0.00     0.000 C 
BRANCH   8   9
ATOM      9  C   UNL     1      11.494 -22.416  42.102  1.00  0.00     0.000 C 
BRANCH   9  10
ATOM     10  C   UNL     1      12.930 -21.966  42.446  1.00  0.00     0.000 C 
BRANCH  10  11
ATOM     11  C   UNL     1      13.981 -23.000  42.008  1.00  0.00     0.000 C 
BRANCH  11  12
ATOM     12  C   UNL     1      14.941 -22.455  40.938  1.00  0.00     0.000 C 
BRANCH  12  13
ATOM     13  C   UNL     1      14.741 -23.124  39.568  1.00  0.00     0.006 C 
BRANCH  13  14
ATOM     14  C   UNL     1      14.588 -22.097  38.437  1.00  0.00     0.053 C 
BRANCH  14  15
ATOM     15  C   UNL     1      14.058 -22.721  37.182  1.00  0.00     0.041 C 
ATOM     16  O   UNL     1      13.757 -23.943  37.161  1.00  0.00    -0.550 OA
ATOM     17  O   UNL     1      13.916 -21.957  36.029  1.00  0.00    -0.550 OA
ENDBRANCH  14  15
ENDBRANCH  13  14
ENDBRANCH  12  13
ENDBRANCH  11  12
ENDBRANCH  10  11
ENDBRANCH   9  10
ENDBRANCH   8   9
ENDBRANCH   7   8
ENDBRANCH   6   7
ENDBRANCH   5   6
ENDBRANCH   4   5
ENDBRANCH   3   4
ENDBRANCH   2   3
ENDBRANCH   1   2
BRANCH   1  18
ATOM     18  C   UNL     1      10.947 -30.672  40.387  1.00  0.00     0.000 C 
BRANCH  18  19
ATOM     19  C   UNL     1      11.974 -30.973  39.275  1.00  0.00     0.000 C 
BRANCH  19  20
ATOM     20  C   UNL     1      13.449 -30.933  39.716  1.00  0.00     0.000 C 
BRANCH  20  21
ATOM     21  C   UNL     1      14.283 -29.902  38.936  1.00  0.00     0.000 C 
BRANCH  21  22
ATOM     22  C   UNL     1      13.411 -28.897  38.166  1.00  0.00     0.000 C 
BRANCH  22  23
ATOM     23  C   UNL     1      13.915 -27.452  38.284  1.00  0.00     0.000 C 
BRANCH  23  24
ATOM     24  C   UNL     1      12.965 -26.613  39.151  1.00  0.00    -0.000 C 
BRANCH  24  25
ATOM     25  C   UNL     1      13.294 -26.693  40.652  1.00  0.00    -0.000 C 
BRANCH  25  26
ATOM     26  C   UNL     1      14.786 -26.531  41.005  1.00  0.00    -0.000 C 
BRANCH  26  27
ATOM     27  C   UNL     1      15.385 -27.665  41.856  1.00  0.00    -0.000 C 
BRANCH  27  28
ATOM     28  C   UNL     1      14.330 -28.674  42.335  1.00  0.00    -0.000 C 
BRANCH  28  29
ATOM     29  C   UNL     1      14.323 -28.775  43.868  1.00  0.00    -0.000 C 
BRANCH  29  30
ATOM     30  C   UNL     1      13.368 -29.864  44.392  1.00  0.00    -0.000 C 
BRANCH  30  31
ATOM     31  C   UNL     1      13.105 -31.019  43.409  1.00  0.00    -0.003 C 
ATOM     32  C   UNL     1      11.950 -31.921  43.841  1.00  0.00     0.004 C 
ENDBRANCH  30  31
ENDBRANCH  29  30
ENDBRANCH  28  29
ENDBRANCH  27  28
ENDBRANCH  26  27
ENDBRANCH  25  26
ENDBRANCH  24  25
ENDBRANCH  23  24
ENDBRANCH  22  23
ENDBRANCH  21  22
ENDBRANCH  20  21
ENDBRANCH  19  20
ENDBRANCH  18  19
ENDBRANCH   1  18
TORSDOF 28
ENDMDL
MODEL 3
REMARK VINA RESULT:    -3.710      2.563      6.584
REMARK INTER + INTRA:         -16.155
REMARK INTER:                 -10.387
REMARK INTRA:                  -5.768
REMARK UNBOUND:                -6.372
REMARK SMILES CCCCCCCCCCCCCCCCCCCCCCCCCCCCCC(=O)[O-]
REMARK SMILES IDX 16 1 17 2 18 3 19 4 20 5 21 6 22 7 23 8 24 9 25 10 26 11
REMARK SMILES IDX 27 12 28 13 29 14 30 15 31 16 32 17 15 18 14 19 13 20 12 21
REMARK SMILES IDX 11 22 10 23 9 24 8 25 7 26 6 27 5 28 4 29 3 30 2 31 1 32
REMARK H PARENT
REMARK Flexibility Score: inf
ROOT
ATOM      1  C   UNL     1      12.193 -31.889  39.638  1.00  0.00     0.000 C 
ENDROOT
BRANCH   1   2
ATOM      2  C   UNL     1      11.217 -30.863  40.247  1.00  0.00     0.000 C 
BRANCH   2   3
ATOM      3  C   UNL     1      10.036 -31.477  41.023  1.00  0.00     0.000 C 
BRANCH   3   4
ATOM      4  C   UNL     1       9.278 -30.497  41.941  1.00  0.00     0.000 C 
BRANCH   4   5
ATOM      5  C   UNL     1       9.544 -29.005  41.665  1.00  0.00     0.000 C 
BRANCH   5   6
ATOM      6  C   UNL     1       8.261 -28.160  41.655  1.00  0.00     0.000 C 
BRANCH   6   7
ATOM      7  C   UNL     1       8.549 -26.736  41.161  1.00  0.00     0.000 C 
BRANCH   7   8
ATOM      8  C   UNL     1       9.796 -26.159  41.842  1.00  0.00     0.000 C 
BRANCH   8   9
ATOM      9  C   UNL     1      10.764 -25.488  40.851  1.00  0.00     0.000 C 
BRANCH   9  10
ATOM     10  C   UNL     1      10.076 -24.485  39.900  1.00  0.00     0.000 C 
BRANCH  10  11
ATOM     11  C   UNL     1       9.776 -23.144  40.592  1.00  0.00     0.000 C 
BRANCH  11  12
ATOM     12  C   UNL     1      11.037 -22.295  40.816  1.00  0.00     0.000 C 
BRANCH  12  13
ATOM     13  C   UNL     1      11.540 -22.356  42.269  1.00  0.00     0.006 C 
BRANCH  13  14
ATOM     14  C   UNL     1      12.805 -21.514  42.482  1.00  0.00     0.053 C 
BRANCH  14  15
ATOM     15  C   UNL     1      13.629 -22.021  43.626  1.00  0.00     0.041 C 
ATOM     16  O   UNL     1      13.110 -22.170  44.764  1.00  0.00    -0.550 OA
ATOM     17  O   UNL     1      14.977 -22.306  43.443  1.00  0.00    -0.550 OA
ENDBRANCH  14  15
ENDBRANCH  13  14
ENDBRANCH  12  13
ENDBRANCH  11  12
ENDBRANCH  10  11
ENDBRANCH   9  10
ENDBRANCH   8   9
ENDBRANCH   7   8
ENDBRANCH   6   7
ENDBRANCH   5   6
ENDBRANCH   4   5
ENDBRANCH   3   4
ENDBRANCH   2   3
ENDBRANCH   1   2
BRANCH   1  18
ATOM     18  C   UNL     1      13.642 -31.792  40.155  1.00  0.00     0.000 C 
BRANCH  18  19
ATOM     19  C   UNL     1      13.930 -32.565  41.459  1.00  0.00     0.000 C 
BRANCH  19  20
ATOM     20  C   UNL     1      14.278 -31.689  42.677  1.00  0.00     0.000 C 
BRANCH  20  21
ATOM     21  C   UNL     1      13.043 -31.289  43.503  1.00  0.00     0.000 C 
BRANCH  21  22
ATOM     22  C   UNL     1      12.723 -29.790  43.399  1.00  0.00     0.000 C 
BRANCH  22  23
ATOM     23  C   UNL     1      13.885 -28.966  42.826  1.00  0.00     0.000 C 
BRANCH  23  24
ATOM     24  C   UNL     1      13.464 -28.259  41.530  1.00  0.00    -0.000 C 
BRANCH  24  25
ATOM     25  C   UNL     1      14.555 -28.297  40.445  1.00  0.00    -0.000 C 
BRANCH  25  26
ATOM     26  C   UNL     1      14.038 -28.441  39.000  1.00  0.00    -0.000 C 
BRANCH  26  27
ATOM     27  C   UNL     1      12.662 -27.806  38.731  1.00  0.00    -0.000 C 
BRANCH  27  28
ATOM     28  C   UNL     1      12.758 -26.463  37.990  1.00  0.00    -0.000 C 
BRANCH  28  29
ATOM     29  C   UNL     1      14.202 -26.181  37.549  1.00  0.00    -0.000 C 
BRANCH  29  30
ATOM     30  C   UNL     1      14.890 -25.103  38.405  1.00  0.00    -0.000 C 
BRANCH  30  31
ATOM     31  C   UNL     1      13.949 -24.323  39.339  1.00  0.00    -0.003 C 
ATOM     32  C   UNL     1      14.238 -24.567  40.820  1.00  0.00     0.004 C 
ENDBRANCH  30  31
ENDBRANCH  29  30
ENDBRANCH  28  29
ENDBRANCH  27  28
ENDBRANCH  26  27
ENDBRANCH  25  26
ENDBRANCH  24  25
ENDBRANCH  23  24
ENDBRANCH  22  23
ENDBRANCH  21  22
ENDBRANCH  20  21
ENDBRANCH  19  20
ENDBRANCH  18  19
ENDBRANCH   1  18
TORSDOF 28
ENDMDL
MODEL 4
REMARK VINA RESULT:    -3.698      2.074      5.739
REMARK INTER + INTRA:         -16.122
REMARK INTER:                 -10.068
REMARK INTRA:                  -6.054
REMARK UNBOUND:                -6.372
REMARK SMILES CCCCCCCCCCCCCCCCCCCCCCCCCCCCCC(=O)[O-]
REMARK SMILES IDX 16 1 17 2 18 3 19 4 20 5 21 6 22 7 23 8 24 9 25 10 26 11
REMARK SMILES IDX 27 12 28 13 29 14 30 15 31 16 32 17 15 18 14 19 13 20 12 21
REMARK SMILES IDX 11 22 10 23 9 24 8 25 7 26 6 27 5 28 4 29 3 30 2 31 1 32
REMARK H PARENT
REMARK Flexibility Score: inf
ROOT
ATOM      1  C   UNL     1      13.644 -23.814  41.015  1.00  0.00     0.000 C 
ENDROOT
BRANCH   1   2
ATOM      2  C   UNL     1      13.224 -25.091  40.261  1.00  0.00     0.000 C 
BRANCH   2   3
ATOM      3  C   UNL     1      12.943 -24.892  38.759  1.00  0.00     0.000 C 
BRANCH   3   4
ATOM      4  C   UNL     1      13.983 -25.520  37.810  1.00  0.00     0.000 C 
BRANCH   4   5
ATOM      5  C   UNL     1      15.371 -25.762  38.431  1.00  0.00     0.000 C 
BRANCH   5   6
ATOM      6  C   UNL     1      15.740 -27.250  38.513  1.00  0.00     0.000 C 
BRANCH   6   7
ATOM      7  C   UNL     1      15.417 -27.817  39.902  1.00  0.00     0.000 C 
BRANCH   7   8
ATOM      8  C   UNL     1      14.255 -28.816  39.831  1.00  0.00     0.000 C 
BRANCH   8   9
ATOM      9  C   UNL     1      13.990 -29.328  38.404  1.00  0.00     0.000 C 
BRANCH   9  10
ATOM     10  C   UNL     1      12.512 -29.686  38.141  1.00  0.00     0.000 C 
BRANCH  10  11
ATOM     11  C   UNL     1      11.816 -28.648  37.244  1.00  0.00     0.000 C 
BRANCH  11  12
ATOM     12  C   UNL     1      10.950 -27.660  38.042  1.00  0.00     0.000 C 
BRANCH  12  13
ATOM     13  C   UNL     1       9.458 -28.034  38.027  1.00  0.00     0.006 C 
BRANCH  13  14
ATOM     14  C   UNL     1       8.560 -26.833  37.702  1.00  0.00     0.053 C 
BRANCH  14  15
ATOM     15  C   UNL     1       8.122 -26.832  36.270  1.00  0.00     0.041 C 
ATOM     16  O   UNL     1       8.977 -26.847  35.345  1.00  0.00    -0.550 OA
ATOM     17  O   UNL     1       6.769 -26.791  35.954  1.00  0.00    -0.550 OA
ENDBRANCH  14  15
ENDBRANCH  13  14
ENDBRANCH  12  13
ENDBRANCH  11  12
ENDBRANCH  10  11
ENDBRANCH   9  10
ENDBRANCH   8   9
ENDBRANCH   7   8
ENDBRANCH   6   7
ENDBRANCH   5   6
ENDBRANCH   4   5
ENDBRANCH   3   4
ENDBRANCH   2   3
ENDBRANCH   1   2
BRANCH   1  18
ATOM     18  C   UNL     1      13.031 -22.508  40.471  1.00  0.00     0.000 C 
BRANCH  18  19
ATOM     19  C   UNL     1      12.020 -21.814  41.408  1.00  0.00     0.000 C 
BRANCH  19  20
ATOM     20  C   UNL     1      10.752 -22.629  41.723  1.00  0.00     0.000 C 
BRANCH  20  21
ATOM     21  C   UNL     1       9.788 -22.728  40.528  1.00  0.00     0.000 C 
BRANCH  21  22
ATOM     22  C   UNL     1       9.469 -24.181  40.144  1.00  0.00     0.000 C 
BRANCH  22  23
ATOM     23  C   UNL     1       9.787 -25.181  41.265  1.00  0.00     0.000 C 
BRANCH  23  24
ATOM     24  C   UNL     1       8.725 -26.289  41.326  1.00  0.00    -0.000 C 
BRANCH  24  25
ATOM     25  C   UNL     1       9.277 -27.619  41.868  1.00  0.00    -0.000 C 
BRANCH  25  26
ATOM     26  C   UNL     1      10.779 -27.859  41.612  1.00  0.00    -0.000 C 
BRANCH  26  27
ATOM     27  C   UNL     1      11.332 -29.187  42.159  1.00  0.00    -0.000 C 
BRANCH  27  28
ATOM     28  C   UNL     1      10.936 -30.399  41.302  1.00  0.00    -0.000 C 
BRANCH  28  29
ATOM     29  C   UNL     1      11.617 -31.678  41.811  1.00  0.00    -0.000 C 
BRANCH  29  30
ATOM     30  C   UNL     1      12.874 -32.050  41.004  1.00  0.00    -0.000 C 
BRANCH  30  31
ATOM     31  C   UNL     1      14.142 -32.268  41.848  1.00  0.00    -0.003 C 
ATOM     32  C   UNL     1      14.432 -31.110  42.802  1.00  0.00     0.004 C 
ENDBRANCH  30  31
ENDBRANCH  29  30
ENDBRANCH  28  29
ENDBRANCH  27  28
ENDBRANCH  26  27
ENDBRANCH  25  26
ENDBRANCH  24  25
ENDBRANCH  23  24
ENDBRANCH  22  23
ENDBRANCH  21  22
ENDBRANCH  20  21
ENDBRANCH  19  20
ENDBRANCH  18  19
ENDBRANCH   1  18
TORSDOF 28
ENDMDL
MODEL 5
REMARK VINA RESULT:    -3.689      2.126      6.594
REMARK INTER + INTRA:         -16.100
REMARK INTER:                 -10.153
REMARK INTRA:                  -5.947
REMARK UNBOUND:                -6.372
REMARK SMILES CCCCCCCCCCCCCCCCCCCCCCCCCCCCCC(=O)[O-]
REMARK SMILES IDX 16 1 17 2 18 3 19 4 20 5 21 6 22 7 23 8 24 9 25 10 26 11
REMARK SMILES IDX 27 12 28 13 29 14 30 15 31 16 32 17 15 18 14 19 13 20 12 21
REMARK SMILES IDX 11 22 10 23 9 24 8 25 7 26 6 27 5 28 4 29 3 30 2 31 1 32
REMARK H PARENT
REMARK Flexibility Score: inf
ROOT
ATOM      1  C   UNL     1      12.582 -25.995  38.906  1.00  0.00     0.000 C 
ENDROOT
BRANCH   1   2
ATOM      2  C   UNL     1      13.152 -25.624  40.290  1.00  0.00     0.000 C 
BRANCH   2   3
ATOM      3  C   UNL     1      13.203 -24.113  40.584  1.00  0.00     0.000 C 
BRANCH   3   4
ATOM      4  C   UNL     1      12.128 -23.271  39.867  1.00  0.00     0.000 C 
BRANCH   4   5
ATOM      5  C   UNL     1      11.257 -22.400  40.791  1.00  0.00     0.000 C 
BRANCH   5   6
ATOM      6  C   UNL     1       9.826 -22.936  40.945  1.00  0.00     0.000 C 
BRANCH   6   7
ATOM      7  C   UNL     1       9.605 -24.168  40.058  1.00  0.00     0.000 C 
BRANCH   7   8
ATOM      8  C   UNL     1       8.847 -25.264  40.818  1.00  0.00     0.000 C 
BRANCH   8   9
ATOM      9  C   UNL     1       9.774 -26.162  41.656  1.00  0.00     0.000 C 
BRANCH   9  10
ATOM     10  C   UNL     1       9.179 -27.555  41.955  1.00  0.00     0.000 C 
BRANCH  10  11
ATOM     11  C   UNL     1       9.037 -28.409  40.683  1.00  0.00     0.000 C 
BRANCH  11  12
ATOM     12  C   UNL     1      10.382 -28.663  39.984  1.00  0.00     0.000 C 
BRANCH  12  13
ATOM     13  C   UNL     1      10.212 -29.242  38.569  1.00  0.00     0.006 C 
BRANCH  13  14
ATOM     14  C   UNL     1       8.993 -28.655  37.843  1.00  0.00     0.053 C 
BRANCH  14  15
ATOM     15  C   UNL     1       9.343 -27.422  37.069  1.00  0.00     0.041 C 
ATOM     16  O   UNL     1       8.986 -26.288  37.487  1.00  0.00    -0.550 OA
ATOM     17  O   UNL     1      10.043 -27.524  35.873  1.00  0.00    -0.550 OA
ENDBRANCH  14  15
ENDBRANCH  13  14
ENDBRANCH  12  13
ENDBRANCH  11  12
ENDBRANCH  10  11
ENDBRANCH   9  10
ENDBRANCH   8   9
ENDBRANCH   7   8
ENDBRANCH   6   7
ENDBRANCH   5   6
ENDBRANCH   4   5
ENDBRANCH   3   4
ENDBRANCH   2   3
ENDBRANCH   1   2
BRANCH   1  18
ATOM     18  C   UNL     1      13.285 -27.175  38.210  1.00  0.00     0.000 C 
BRANCH  18  19
ATOM     19  C   UNL     1      14.388 -27.868  39.038  1.00  0.00     0.000 C 
BRANCH  19  20
ATOM     20  C   UNL     1      14.549 -29.378  38.783  1.00  0.00     0.000 C 
BRANCH  20  21
ATOM     21  C   UNL     1      13.583 -30.235  39.619  1.00  0.00     0.000 C 
BRANCH  21  22
ATOM     22  C   UNL     1      14.239 -31.521  40.147  1.00  0.00     0.000 C 
BRANCH  22  23
ATOM     23  C   UNL     1      13.217 -32.559  40.633  1.00  0.00     0.000 C 
BRANCH  23  24
ATOM     24  C   UNL     1      11.816 -32.239  40.091  1.00  0.00    -0.000 C 
BRANCH  24  25
ATOM     25  C   UNL     1      10.760 -32.103  41.203  1.00  0.00    -0.000 C 
BRANCH  25  26
ATOM     26  C   UNL     1      11.325 -31.862  42.618  1.00  0.00    -0.000 C 
BRANCH  26  27
ATOM     27  C   UNL     1      11.323 -30.394  43.081  1.00  0.00    -0.000 C 
BRANCH  27  28
ATOM     28  C   UNL     1      12.475 -30.069  44.044  1.00  0.00    -0.000 C 
BRANCH  28  29
ATOM     29  C   UNL     1      13.681 -29.498  43.284  1.00  0.00    -0.000 C 
BRANCH  29  30
ATOM     30  C   UNL     1      14.980 -30.283  43.544  1.00  0.00    -0.000 C 
BRANCH  30  31
ATOM     31  C   UNL     1      14.774 -31.728  44.031  1.00  0.00    -0.003 C 
ATOM     32  C   UNL     1      15.764 -32.715  43.415  1.00  0.00     0.004 C 
ENDBRANCH  30  31
ENDBRANCH  29  30
ENDBRANCH  28  29
ENDBRANCH  27  28
ENDBRANCH  26  27
ENDBRANCH  25  26
ENDBRANCH  24  25
ENDBRANCH  23  24
ENDBRANCH  22  23
ENDBRANCH  21  22
ENDBRANCH  20  21
ENDBRANCH  19  20
ENDBRANCH  18  19
ENDBRANCH   1  18
TORSDOF 28
ENDMDL
MODEL 6
REMARK VINA RESULT:    -3.663      2.519      4.888
REMARK INTER + INTRA:         -16.032
REMARK INTER:                 -10.678
REMARK INTRA:                  -5.354
REMARK UNBOUND:                -6.372
REMARK SMILES CCCCCCCCCCCCCCCCCCCCCCCCCCCCCC(=O)[O-]
REMARK SMILES IDX 16 1 17 2 18 3 19 4 20 5 21 6 22 7 23 8 24 9 25 10 26 11
REMARK SMILES IDX 27 12 28 13 29 14 30 15 31 16 32 17 15 18 14 19 13 20 12 21
REMARK SMILES IDX 11 22 10 23 9 24 8 25 7 26 6 27 5 28 4 29 3 30 2 31 1 32
REMARK H PARENT
REMARK Flexibility Score: inf
ROOT
ATOM      1  C   UNL     1      11.277 -31.553  40.098  1.00  0.00     0.000 C 
ENDROOT
BRANCH   1   2
ATOM      2  C   UNL     1      12.645 -31.145  39.515  1.00  0.00     0.000 C 
BRANCH   2   3
ATOM      3  C   UNL     1      13.863 -31.670  40.299  1.00  0.00     0.000 C 
BRANCH   3   4
ATOM      4  C   UNL     1      13.561 -32.814  41.288  1.00  0.00     0.000 C 
BRANCH   4   5
ATOM      5  C   UNL     1      14.280 -32.710  42.646  1.00  0.00     0.000 C 
BRANCH   5   6
ATOM      6  C   UNL     1      13.323 -32.831  43.841  1.00  0.00     0.000 C 
BRANCH   6   7
ATOM      7  C   UNL     1      12.112 -31.904  43.668  1.00  0.00     0.000 C 
BRANCH   7   8
ATOM      8  C   UNL     1      12.387 -30.522  44.275  1.00  0.00     0.000 C 
BRANCH   8   9
ATOM      9  C   UNL     1      12.614 -29.434  43.210  1.00  0.00     0.000 C 
BRANCH   9  10
ATOM     10  C   UNL     1      14.097 -29.044  43.032  1.00  0.00     0.000 C 
BRANCH  10  11
ATOM     11  C   UNL     1      14.331 -28.226  41.751  1.00  0.00     0.000 C 
BRANCH  11  12
ATOM     12  C   UNL     1      13.027 -27.919  40.995  1.00  0.00     0.000 C 
BRANCH  12  13
ATOM     13  C   UNL     1      13.280 -27.391  39.572  1.00  0.00     0.006 C 
BRANCH  13  14
ATOM     14  C   UNL     1      12.031 -27.493  38.685  1.00  0.00     0.053 C 
BRANCH  14  15
ATOM     15  C   UNL     1      12.382 -27.757  37.253  1.00  0.00     0.041 C 
ATOM     16  O   UNL     1      12.457 -28.940  36.827  1.00  0.00    -0.550 OA
ATOM     17  O   UNL     1      12.649 -26.698  36.393  1.00  0.00    -0.550 OA
ENDBRANCH  14  15
ENDBRANCH  13  14
ENDBRANCH  12  13
ENDBRANCH  11  12
ENDBRANCH  10  11
ENDBRANCH   9  10
ENDBRANCH   8   9
ENDBRANCH   7   8
ENDBRANCH   6   7
ENDBRANCH   5   6
ENDBRANCH   4   5
ENDBRANCH   3   4
ENDBRANCH   2   3
ENDBRANCH   1   2
BRANCH   1  18
ATOM     18  C   UNL     1      10.335 -30.378  40.425  1.00  0.00     0.000 C 
BRANCH  18  19
ATOM     19  C   UNL     1       9.315 -30.645  41.551  1.00  0.00     0.000 C 
BRANCH  19  20
ATOM     20  C   UNL     1       9.015 -29.441  42.463  1.00  0.00     0.000 C 
BRANCH  20  21
ATOM     21  C   UNL     1       9.400 -28.095  41.827  1.00  0.00     0.000 C 
BRANCH  21  22
ATOM     22  C   UNL     1       8.181 -27.310  41.317  1.00  0.00     0.000 C 
BRANCH  22  23
ATOM     23  C   UNL     1       8.551 -25.938  40.735  1.00  0.00     0.000 C 
BRANCH  23  24
ATOM     24  C   UNL     1       9.969 -25.531  41.160  1.00  0.00    -0.000 C 
BRANCH  24  25
ATOM     25  C   UNL     1      10.439 -24.221  40.503  1.00  0.00    -0.000 C 
BRANCH  25  26
ATOM     26  C   UNL     1      11.968 -24.051  40.399  1.00  0.00    -0.000 C 
BRANCH  26  27
ATOM     27  C   UNL     1      12.459 -22.596  40.291  1.00  0.00    -0.000 C 
BRANCH  27  28
ATOM     28  C   UNL     1      11.891 -21.690  41.394  1.00  0.00    -0.000 C 
BRANCH  28  29
ATOM     29  C   UNL     1      12.268 -22.218  42.787  1.00  0.00    -0.000 C 
BRANCH  29  30
ATOM     30  C   UNL     1      13.477 -21.486  43.398  1.00  0.00    -0.000 C 
BRANCH  30  31
ATOM     31  C   UNL     1      14.294 -22.318  44.402  1.00  0.00    -0.003 C 
ATOM     32  C   UNL     1      14.270 -21.740  45.817  1.00  0.00     0.004 C 
ENDBRANCH  30  31
ENDBRANCH  29  30
ENDBRANCH  28  29
ENDBRANCH  27  28
ENDBRANCH  26  27
ENDBRANCH  25  26
ENDBRANCH  24  25
ENDBRANCH  23  24
ENDBRANCH  22  23
ENDBRANCH  21  22
ENDBRANCH  20  21
ENDBRANCH  19  20
ENDBRANCH  18  19
ENDBRANCH   1  18
TORSDOF 28
ENDMDL
MODEL 7
REMARK VINA RESULT:    -3.653      1.926      5.400
REMARK INTER + INTRA:         -16.005
REMARK INTER:                 -10.402
REMARK INTRA:                  -5.603
REMARK UNBOUND:                -6.372
REMARK SMILES CCCCCCCCCCCCCCCCCCCCCCCCCCCCCC(=O)[O-]
REMARK SMILES IDX 16 1 17 2 18 3 19 4 20 5 21 6 22 7 23 8 24 9 25 10 26 11
REMARK SMILES IDX 27 12 28 13 29 14 30 15 31 16 32 17 15 18 14 19 13 20 12 21
REMARK SMILES IDX 11 22 10 23 9 24 8 25 7 26 6 27 5 28 4 29 3 30 2 31 1 32
REMARK H PARENT
REMARK Flexibility Score: inf
ROOT
ATOM      1  C   UNL     1       9.848 -23.012  40.600  1.00  0.00     0.000 C 
ENDROOT
BRANCH   1   2
ATOM      2  C   UNL     1       9.770 -24.469  40.103  1.00  0.00     0.000 C 
BRANCH   2   3
ATOM      3  C   UNL     1       8.988 -25.424  41.026  1.00  0.00     0.000 C 
BRANCH   3   4
ATOM      4  C   UNL     1       9.815 -26.580  41.623  1.00  0.00     0.000 C 
BRANCH   4   5
ATOM      5  C   UNL     1       9.015 -27.854  41.951  1.00  0.00     0.000 C 
BRANCH   5   6
ATOM      6  C   UNL     1       9.283 -29.000  40.965  1.00  0.00     0.000 C 
BRANCH   6   7
ATOM      7  C   UNL     1      10.769 -29.381  40.960  1.00  0.00     0.000 C 
BRANCH   7   8
ATOM      8  C   UNL     1      10.946 -30.905  41.008  1.00  0.00     0.000 C 
BRANCH   8   9
ATOM      9  C   UNL     1      11.374 -31.501  39.656  1.00  0.00     0.000 C 
BRANCH   9  10
ATOM     10  C   UNL     1      12.673 -32.331  39.730  1.00  0.00     0.000 C 
BRANCH  10  11
ATOM     11  C   UNL     1      13.741 -31.658  40.610  1.00  0.00     0.000 C 
BRANCH  11  12
ATOM     12  C   UNL     1      14.296 -32.596  41.693  1.00  0.00     0.000 C 
BRANCH  12  13
ATOM     13  C   UNL     1      14.409 -31.912  43.067  1.00  0.00     0.006 C 
BRANCH  13  14
ATOM     14  C   UNL     1      14.320 -30.383  42.964  1.00  0.00     0.053 C 
BRANCH  14  15
ATOM     15  C   UNL     1      13.482 -29.796  44.058  1.00  0.00     0.041 C 
ATOM     16  O   UNL     1      12.303 -30.198  44.237  1.00  0.00    -0.550 OA
ATOM     17  O   UNL     1      13.995 -28.787  44.865  1.00  0.00    -0.550 OA
ENDBRANCH  14  15
ENDBRANCH  13  14
ENDBRANCH  12  13
ENDBRANCH  11  12
ENDBRANCH  10  11
ENDBRANCH   9  10
ENDBRANCH   8   9
ENDBRANCH   7   8
ENDBRANCH   6   7
ENDBRANCH   5   6
ENDBRANCH   4   5
ENDBRANCH   3   4
ENDBRANCH   2   3
ENDBRANCH   1   2
BRANCH   1  18
ATOM     18  C   UNL     1      10.836 -22.773  41.758  1.00  0.00     0.000 C 
BRANCH  18  19
ATOM     19  C   UNL     1      12.188 -22.147  41.354  1.00  0.00     0.000 C 
BRANCH  19  20
ATOM     20  C   UNL     1      12.314 -21.763  39.868  1.00  0.00     0.000 C 
BRANCH  20  21
ATOM     21  C   UNL     1      13.679 -22.137  39.265  1.00  0.00     0.000 C 
BRANCH  21  22
ATOM     22  C   UNL     1      13.572 -23.237  38.196  1.00  0.00     0.000 C 
BRANCH  22  23
ATOM     23  C   UNL     1      13.019 -24.559  38.749  1.00  0.00     0.000 C 
BRANCH  23  24
ATOM     24  C   UNL     1      13.967 -25.146  39.805  1.00  0.00    -0.000 C 
BRANCH  24  25
ATOM     25  C   UNL     1      13.305 -26.238  40.664  1.00  0.00    -0.000 C 
BRANCH  25  26
ATOM     26  C   UNL     1      13.971 -27.627  40.588  1.00  0.00    -0.000 C 
BRANCH  26  27
ATOM     27  C   UNL     1      15.201 -27.713  39.666  1.00  0.00    -0.000 C 
BRANCH  27  28
ATOM     28  C   UNL     1      15.066 -28.799  38.589  1.00  0.00    -0.000 C 
BRANCH  28  29
ATOM     29  C   UNL     1      13.592 -29.036  38.229  1.00  0.00    -0.000 C 
BRANCH  29  30
ATOM     30  C   UNL     1      13.034 -27.979  37.258  1.00  0.00    -0.000 C 
BRANCH  30  31
ATOM     31  C   UNL     1      11.530 -28.108  36.960  1.00  0.00    -0.003 C 
ATOM     32  C   UNL     1      10.654 -27.362  37.965  1.00  0.00     0.004 C 
ENDBRANCH  30  31
ENDBRANCH  29  30
ENDBRANCH  28  29
ENDBRANCH  27  28
ENDBRANCH  26  27
ENDBRANCH  25  26
ENDBRANCH  24  25
ENDBRANCH  23  24
ENDBRANCH  22  23
ENDBRANCH  21  22
ENDBRANCH  20  21
ENDBRANCH  19  20
ENDBRANCH  18  19
ENDBRANCH   1  18
TORSDOF 28
ENDMDL
MODEL 8
REMARK VINA RESULT:    -3.650      2.544      6.493
REMARK INTER + INTRA:         -15.997
REMARK INTER:                 -10.035
REMARK INTRA:                  -5.962
REMARK UNBOUND:                -6.372
REMARK SMILES CCCCCCCCCCCCCCCCCCCCCCCCCCCCCC(=O)[O-]
REMARK SMILES IDX 16 1 17 2 18 3 19 4 20 5 21 6 22 7 23 8 24 9 25 10 26 11
REMARK SMILES IDX 27 12 28 13 29 14 30 15 31 16 32 17 15 18 14 19 13 20 12 21
REMARK SMILES IDX 11 22 10 23 9 24 8 25 7 26 6 27 5 28 4 29 3 30 2 31 1 32
REMARK H PARENT
REMARK Flexibility Score: inf
ROOT
ATOM      1  C   UNL     1      13.677 -32.803  41.305  1.00  0.00     0.000 C 
ENDROOT
BRANCH   1   2
ATOM      2  C   UNL     1      13.756 -31.678  40.254  1.00  0.00     0.000 C 
BRANCH   2   3
ATOM      3  C   UNL     1      12.437 -30.915  40.025  1.00  0.00     0.000 C 
BRANCH   3   4
ATOM      4  C   UNL     1      11.173 -31.618  40.563  1.00  0.00     0.000 C 
BRANCH   4   5
ATOM      5  C   UNL     1      10.147 -30.689  41.237  1.00  0.00     0.000 C 
BRANCH   5   6
ATOM      6  C   UNL     1      10.377 -29.206  40.911  1.00  0.00     0.000 C 
BRANCH   6   7
ATOM      7  C   UNL     1       9.623 -28.305  41.899  1.00  0.00     0.000 C 
BRANCH   7   8
ATOM      8  C   UNL     1      10.087 -26.848  41.778  1.00  0.00     0.000 C 
BRANCH   8   9
ATOM      9  C   UNL     1       9.025 -25.932  41.142  1.00  0.00     0.000 C 
BRANCH   9  10
ATOM     10  C   UNL     1       9.340 -25.544  39.682  1.00  0.00     0.000 C 
BRANCH  10  11
ATOM     11  C   UNL     1       9.866 -24.103  39.566  1.00  0.00     0.000 C 
BRANCH  11  12
ATOM     12  C   UNL     1       9.424 -23.213  40.740  1.00  0.00     0.000 C 
BRANCH  12  13
ATOM     13  C   UNL     1      10.588 -22.407  41.341  1.00  0.00     0.006 C 
BRANCH  13  14
ATOM     14  C   UNL     1      11.957 -22.974  40.939  1.00  0.00     0.053 C 
BRANCH  14  15
ATOM     15  C   UNL     1      13.059 -22.438  41.800  1.00  0.00     0.041 C 
ATOM     16  O   UNL     1      14.105 -23.115  41.984  1.00  0.00    -0.550 OA
ATOM     17  O   UNL     1      12.924 -21.200  42.418  1.00  0.00    -0.550 OA
ENDBRANCH  14  15
ENDBRANCH  13  14
ENDBRANCH  12  13
ENDBRANCH  11  12
ENDBRANCH  10  11
ENDBRANCH   9  10
ENDBRANCH   8   9
ENDBRANCH   7   8
ENDBRANCH   6   7
ENDBRANCH   5   6
ENDBRANCH   4   5
ENDBRANCH   3   4
ENDBRANCH   2   3
ENDBRANCH   1   2
BRANCH   1  18
ATOM     18  C   UNL     1      14.717 -32.707  42.438  1.00  0.00     0.000 C 
BRANCH  18  19
ATOM     19  C   UNL     1      14.150 -32.332  43.824  1.00  0.00     0.000 C 
BRANCH  19  20
ATOM     20  C   UNL     1      12.620 -32.170  43.884  1.00  0.00     0.000 C 
BRANCH  20  21
ATOM     21  C   UNL     1      12.182 -30.770  44.350  1.00  0.00     0.000 C 
BRANCH  21  22
ATOM     22  C   UNL     1      13.314 -29.735  44.257  1.00  0.00     0.000 C 
BRANCH  22  23
ATOM     23  C   UNL     1      13.302 -28.951  42.936  1.00  0.00     0.000 C 
BRANCH  23  24
ATOM     24  C   UNL     1      14.721 -28.828  42.363  1.00  0.00    -0.000 C 
BRANCH  24  25
ATOM     25  C   UNL     1      14.754 -28.141  40.986  1.00  0.00    -0.000 C 
BRANCH  25  26
ATOM     26  C   UNL     1      14.428 -26.634  40.997  1.00  0.00    -0.000 C 
BRANCH  26  27
ATOM     27  C   UNL     1      13.148 -26.236  40.240  1.00  0.00    -0.000 C 
BRANCH  27  28
ATOM     28  C   UNL     1      13.272 -26.415  38.719  1.00  0.00    -0.000 C 
BRANCH  28  29
ATOM     29  C   UNL     1      12.221 -27.404  38.195  1.00  0.00    -0.000 C 
BRANCH  29  30
ATOM     30  C   UNL     1      12.840 -28.579  37.415  1.00  0.00    -0.000 C 
BRANCH  30  31
ATOM     31  C   UNL     1      11.947 -29.157  36.304  1.00  0.00    -0.003 C 
ATOM     32  C   UNL     1      10.836 -30.060  36.839  1.00  0.00     0.004 C 
ENDBRANCH  30  31
ENDBRANCH  29  30
ENDBRANCH  28  29
ENDBRANCH  27  28
ENDBRANCH  26  27
ENDBRANCH  25  26
ENDBRANCH  24  25
ENDBRANCH  23  24
ENDBRANCH  22  23
ENDBRANCH  21  22
ENDBRANCH  20  21
ENDBRANCH  19  20
ENDBRANCH  18  19
ENDBRANCH   1  18
TORSDOF 28
ENDMDL
MODEL 9
REMARK VINA RESULT:    -3.595      2.172      6.738
REMARK INTER + INTRA:         -15.851
REMARK INTER:                  -9.379
REMARK INTRA:                  -6.472
REMARK UNBOUND:                -6.372
REMARK SMILES CCCCCCCCCCCCCCCCCCCCCCCCCCCCCC(=O)[O-]
REMARK SMILES IDX 16 1 17 2 18 3 19 4 20 5 21 6 22 7 23 8 24 9 25 10 26 11
REMARK SMILES IDX 27 12 28 13 29 14 30 15 31 16 32 17 15 18 14 19 13 20 12 21
REMARK SMILES IDX 11 22 10 23 9 24 8 25 7 26 6 27 5 28 4 29 3 30 2 31 1 32
REMARK H PARENT
REMARK Flexibility Score: inf
ROOT
ATOM      1  C   UNL     1      10.249 -25.077  40.102  1.00  0.00     0.000 C 
ENDROOT
BRANCH   1   2
ATOM      2  C   UNL     1       9.684 -23.932  40.966  1.00  0.00     0.000 C 
BRANCH   2   3
ATOM      3  C   UNL     1      10.489 -22.620  40.906  1.00  0.00     0.000 C 
BRANCH   3   4
ATOM      4  C   UNL     1      11.608 -22.490  41.959  1.00  0.00     0.000 C 
BRANCH   4   5
ATOM      5  C   UNL     1      13.030 -22.343  41.387  1.00  0.00     0.000 C 
BRANCH   5   6
ATOM      6  C   UNL     1      13.658 -23.688  40.992  1.00  0.00     0.000 C 
BRANCH   6   7
ATOM      7  C   UNL     1      14.371 -23.581  39.637  1.00  0.00     0.000 C 
BRANCH   7   8
ATOM      8  C   UNL     1      13.463 -24.067  38.499  1.00  0.00     0.000 C 
BRANCH   8   9
ATOM      9  C   UNL     1      13.527 -25.591  38.292  1.00  0.00     0.000 C 
BRANCH   9  10
ATOM     10  C   UNL     1      14.949 -26.116  38.004  1.00  0.00     0.000 C 
BRANCH  10  11
ATOM     11  C   UNL     1      15.276 -27.379  38.820  1.00  0.00     0.000 C 
BRANCH  11  12
ATOM     12  C   UNL     1      15.519 -27.079  40.308  1.00  0.00     0.000 C 
BRANCH  12  13
ATOM     13  C   UNL     1      14.489 -27.761  41.224  1.00  0.00     0.006 C 
BRANCH  13  14
ATOM     14  C   UNL     1      15.090 -28.157  42.580  1.00  0.00     0.053 C 
BRANCH  14  15
ATOM     15  C   UNL     1      14.272 -29.205  43.270  1.00  0.00     0.041 C 
ATOM     16  O   UNL     1      13.709 -28.949  44.367  1.00  0.00    -0.550 OA
ATOM     17  O   UNL     1      14.149 -30.473  42.714  1.00  0.00    -0.550 OA
ENDBRANCH  14  15
ENDBRANCH  13  14
ENDBRANCH  12  13
ENDBRANCH  11  12
ENDBRANCH  10  11
ENDBRANCH   9  10
ENDBRANCH   8   9
ENDBRANCH   7   8
ENDBRANCH   6   7
ENDBRANCH   5   6
ENDBRANCH   4   5
ENDBRANCH   3   4
ENDBRANCH   2   3
ENDBRANCH   1   2
BRANCH   1  18
ATOM     18  C   UNL     1      11.034 -26.150  40.881  1.00  0.00     0.000 C 
BRANCH  18  19
ATOM     19  C   UNL     1      10.169 -27.180  41.638  1.00  0.00     0.000 C 
BRANCH  19  20
ATOM     20  C   UNL     1      10.860 -28.524  41.936  1.00  0.00     0.000 C 
BRANCH  20  21
ATOM     21  C   UNL     1       9.949 -29.737  41.681  1.00  0.00     0.000 C 
BRANCH  21  22
ATOM     22  C   UNL     1       8.639 -29.356  40.972  1.00  0.00     0.000 C 
BRANCH  22  23
ATOM     23  C   UNL     1       8.648 -29.694  39.474  1.00  0.00     0.000 C 
BRANCH  23  24
ATOM     24  C   UNL     1       8.233 -28.474  38.638  1.00  0.00    -0.000 C 
BRANCH  24  25
ATOM     25  C   UNL     1       9.087 -28.299  37.369  1.00  0.00    -0.000 C 
BRANCH  25  26
ATOM     26  C   UNL     1      10.477 -27.670  37.595  1.00  0.00    -0.000 C 
BRANCH  26  27
ATOM     27  C   UNL     1      11.562 -28.103  36.593  1.00  0.00    -0.000 C 
BRANCH  27  28
ATOM     28  C   UNL     1      12.417 -29.272  37.105  1.00  0.00    -0.000 C 
BRANCH  28  29
ATOM     29  C   UNL     1      12.274 -29.433  38.626  1.00  0.00    -0.000 C 
BRANCH  29  30
ATOM     30  C   UNL     1      13.222 -30.497  39.208  1.00  0.00    -0.000 C 
BRANCH  30  31
ATOM     31  C   UNL     1      12.521 -31.738  39.787  1.00  0.00    -0.003 C 
ATOM     32  C   UNL     1      11.353 -32.220  38.929  1.00  0.00     0.004 C 
ENDBRANCH  30  31
ENDBRANCH  29  30
ENDBRANCH  28  29
ENDBRANCH  27  28
ENDBRANCH  26  27
ENDBRANCH  25  26
ENDBRANCH  24  25
ENDBRANCH  23  24
ENDBRANCH  22  23
ENDBRANCH  21  22
ENDBRANCH  20  21
ENDBRANCH  19  20
ENDBRANCH  18  19
ENDBRANCH   1  18
TORSDOF 28
ENDMDL
