MODEL 1
REMARK VINA RESULT:    -6.173      0.000      0.000
REMARK INTER + INTRA:          -7.520
REMARK INTER:                  -7.256
REMARK INTRA:                  -0.264
REMARK UNBOUND:                -0.264
REMARK SMILES O=c1cc(-c2ccc(O)c(O)c2)oc2cc(O)cc(O)c12
REMARK SMILES IDX 4 1 3 2 2 3 1 4 21 5 19 6 18 7 16 8 15 9 14 10 13 11 5 12
REMARK SMILES IDX 6 13 7 14 8 15 12 16 10 17 9 18 11 20 20 22 17 24
REMARK H PARENT 9 19 11 21 20 23 17 25
REMARK Flexibility Score: inf
ROOT
ATOM      1  C   UNL     1      71.374  38.233  19.896  1.00  0.00     0.138 A 
ATOM      2  C   UNL     1      71.560  37.070  19.130  1.00  0.00     0.100 A 
ATOM      3  C   UNL     1      70.448  36.349  18.696  1.00  0.00     0.197 A 
ATOM      4  O   UNL     1      70.625  35.307  18.008  1.00  0.00    -0.289 OA
ATOM      5  C   UNL     1      69.154  36.797  19.029  1.00  0.00     0.107 A 
ATOM      6  C   UNL     1      67.974  36.125  18.631  1.00  0.00     0.134 A 
ATOM      7  C   UNL     1      66.723  36.641  18.999  1.00  0.00     0.093 A 
ATOM      8  C   UNL     1      66.628  37.812  19.754  1.00  0.00     0.123 A 
ATOM      9  C   UNL     1      67.791  38.482  20.150  1.00  0.00     0.094 A 
ATOM     10  C   UNL     1      69.048  37.983  19.795  1.00  0.00     0.146 A 
ATOM     11  O   UNL     1      70.139  38.635  20.185  1.00  0.00    -0.456 OA
ENDROOT
BRANCH   1  12
ATOM     12  C   UNL     1      72.520  39.042  20.384  1.00  0.00     0.021 A 
ATOM     13  C   UNL     1      73.219  39.922  19.535  1.00  0.00     0.016 A 
ATOM     14  C   UNL     1      74.300  40.663  20.019  1.00  0.00     0.051 A 
ATOM     15  C   UNL     1      74.709  40.534  21.349  1.00  0.00     0.157 A 
ATOM     16  C   UNL     1      72.944  38.907  21.718  1.00  0.00     0.062 A 
ATOM     17  C   UNL     1      74.030  39.651  22.203  1.00  0.00     0.158 A 
BRANCH  15  18
ATOM     18  O   UNL     1      75.791  41.288  21.802  1.00  0.00    -0.504 OA
ATOM     19  H   UNL     1      76.613  40.859  22.207  1.00  0.00     0.293 HD
ENDBRANCH  15  18
BRANCH  17  20
ATOM     20  O   UNL     1      74.434  39.515  23.530  1.00  0.00    -0.504 OA
ATOM     21  H   UNL     1      73.792  39.666  24.299  1.00  0.00     0.293 HD
ENDBRANCH  17  20
ENDBRANCH   1  12
BRANCH   6  22
ATOM     22  O   UNL     1      68.036  34.953  17.876  1.00  0.00    -0.507 OA
ATOM     23  H   UNL     1      68.442  34.937  16.949  1.00  0.00     0.293 HD
ENDBRANCH   6  22
BRANCH   8  24
ATOM     24  O   UNL     1      65.373  38.304  20.106  1.00  0.00    -0.508 OA
ATOM     25  H   UNL     1      64.714  37.744  20.634  1.00  0.00     0.293 HD
ENDBRANCH   8  24
TORSDOF 5
ENDMDL
MODEL 2
REMARK VINA RESULT:    -5.780      1.125      1.453
REMARK INTER + INTRA:          -7.058
REMARK INTER:                  -6.792
REMARK INTRA:                  -0.266
REMARK UNBOUND:                -0.264
REMARK SMILES O=c1cc(-c2ccc(O)c(O)c2)oc2cc(O)cc(O)c12
REMARK SMILES IDX 4 1 3 2 2 3 1 4 21 5 19 6 18 7 16 8 15 9 14 10 13 11 5 12
REMARK SMILES IDX 6 13 7 14 8 15 12 16 10 17 9 18 11 20 20 22 17 24
REMARK H PARENT 9 19 11 21 20 23 17 25
REMARK Flexibility Score: inf
ROOT
ATOM      1  C   UNL     1      72.541  38.869  20.440  1.00  0.00     0.138 A 
ATOM      2  C   UNL     1      72.855  37.807  19.575  1.00  0.00     0.100 A 
ATOM      3  C   UNL     1      71.827  37.030  19.042  1.00  0.00     0.197 A 
ATOM      4  O   UNL     1      72.119  36.080  18.265  1.00  0.00    -0.289 OA
ATOM      5  C   UNL     1      70.489  37.322  19.374  1.00  0.00     0.107 A 
ATOM      6  C   UNL     1      69.389  36.584  18.879  1.00  0.00     0.134 A 
ATOM      7  C   UNL     1      68.085  36.943  19.254  1.00  0.00     0.093 A 
ATOM      8  C   UNL     1      67.863  38.023  20.111  1.00  0.00     0.123 A 
ATOM      9  C   UNL     1      68.947  38.757  20.604  1.00  0.00     0.094 A 
ATOM     10  C   UNL     1      70.254  38.414  20.244  1.00  0.00     0.146 A 
ATOM     11  O   UNL     1      71.268  39.125  20.726  1.00  0.00    -0.456 OA
ENDROOT
BRANCH   1  12
ATOM     12  C   UNL     1      73.594  39.730  21.036  1.00  0.00     0.021 A 
ATOM     13  C   UNL     1      74.166  40.802  20.322  1.00  0.00     0.016 A 
ATOM     14  C   UNL     1      75.162  41.589  20.906  1.00  0.00     0.051 A 
ATOM     15  C   UNL     1      75.610  41.320  22.202  1.00  0.00     0.157 A 
ATOM     16  C   UNL     1      74.059  39.457  22.335  1.00  0.00     0.062 A 
ATOM     17  C   UNL     1      75.059  40.247  22.920  1.00  0.00     0.158 A 
BRANCH  15  18
ATOM     18  O   UNL     1      76.605  42.125  22.756  1.00  0.00    -0.504 OA
ATOM     19  H   UNL     1      76.824  43.041  22.386  1.00  0.00     0.293 HD
ENDBRANCH  15  18
BRANCH  17  20
ATOM     20  O   UNL     1      75.503  39.971  24.212  1.00  0.00    -0.504 OA
ATOM     21  H   UNL     1      74.885  40.032  25.011  1.00  0.00     0.293 HD
ENDBRANCH  17  20
ENDBRANCH   1  12
BRANCH   6  22
ATOM     22  O   UNL     1      69.579  35.500  18.020  1.00  0.00    -0.507 OA
ATOM     23  H   UNL     1      68.927  34.726  17.985  1.00  0.00     0.293 HD
ENDBRANCH   6  22
BRANCH   8  24
ATOM     24  O   UNL     1      66.558  38.360  20.468  1.00  0.00    -0.508 OA
ATOM     25  H   UNL     1      65.781  37.737  20.283  1.00  0.00     0.293 HD
ENDBRANCH   8  24
TORSDOF 5
ENDMDL
MODEL 3
REMARK VINA RESULT:    -5.722      1.435      2.913
REMARK INTER + INTRA:          -6.990
REMARK INTER:                  -6.714
REMARK INTRA:                  -0.276
REMARK UNBOUND:                -0.264
REMARK SMILES O=c1cc(-c2ccc(O)c(O)c2)oc2cc(O)cc(O)c12
REMARK SMILES IDX 4 1 3 2 2 3 1 4 21 5 19 6 18 7 16 8 15 9 14 10 13 11 5 12
REMARK SMILES IDX 6 13 7 14 8 15 12 16 10 17 9 18 11 20 20 22 17 24
REMARK H PARENT 9 19 11 21 20 23 17 25
REMARK Flexibility Score: inf
ROOT
ATOM      1  C   UNL     1      70.329  39.873  20.344  1.00  0.00     0.138 A 
ATOM      2  C   UNL     1      69.313  40.843  20.298  1.00  0.00     0.100 A 
ATOM      3  C   UNL     1      68.028  40.474  19.902  1.00  0.00     0.197 A 
ATOM      4  O   UNL     1      67.124  41.352  19.865  1.00  0.00    -0.289 OA
ATOM      5  C   UNL     1      67.764  39.133  19.557  1.00  0.00     0.107 A 
ATOM      6  C   UNL     1      66.491  38.675  19.145  1.00  0.00     0.134 A 
ATOM      7  C   UNL     1      66.309  37.321  18.825  1.00  0.00     0.093 A 
ATOM      8  C   UNL     1      67.373  36.420  18.909  1.00  0.00     0.123 A 
ATOM      9  C   UNL     1      68.634  36.867  19.317  1.00  0.00     0.094 A 
ATOM     10  C   UNL     1      68.836  38.212  19.639  1.00  0.00     0.146 A 
ATOM     11  O   UNL     1      70.044  38.613  20.022  1.00  0.00    -0.456 OA
ENDROOT
BRANCH   1  12
ATOM     12  C   UNL     1      71.714  40.208  20.759  1.00  0.00     0.021 A 
ATOM     13  C   UNL     1      72.515  41.096  20.015  1.00  0.00     0.016 A 
ATOM     14  C   UNL     1      73.820  41.385  20.425  1.00  0.00     0.051 A 
ATOM     15  C   UNL     1      74.350  40.790  21.573  1.00  0.00     0.157 A 
ATOM     16  C   UNL     1      72.259  39.603  21.906  1.00  0.00     0.062 A 
ATOM     17  C   UNL     1      73.568  39.893  22.317  1.00  0.00     0.158 A 
BRANCH  15  18
ATOM     18  O   UNL     1      75.655  41.100  21.956  1.00  0.00    -0.504 OA
ATOM     19  H   UNL     1      76.059  40.754  22.817  1.00  0.00     0.293 HD
ENDBRANCH  15  18
BRANCH  17  20
ATOM     20  O   UNL     1      74.091  39.293  23.461  1.00  0.00    -0.504 OA
ATOM     21  H   UNL     1      74.865  38.642  23.413  1.00  0.00     0.293 HD
ENDBRANCH  17  20
ENDBRANCH   1  12
BRANCH   6  22
ATOM     22  O   UNL     1      65.408  39.551  19.051  1.00  0.00    -0.507 OA
ATOM     23  H   UNL     1      64.637  39.380  18.418  1.00  0.00     0.293 HD
ENDBRANCH   6  22
BRANCH   8  24
ATOM     24  O   UNL     1      67.165  35.081  18.586  1.00  0.00    -0.508 OA
ATOM     25  H   UNL     1      67.376  34.339  19.242  1.00  0.00     0.293 HD
ENDBRANCH   8  24
TORSDOF 5
ENDMDL
MODEL 4
REMARK VINA RESULT:    -5.256      2.239      3.325
REMARK INTER + INTRA:          -6.442
REMARK INTER:                  -6.147
REMARK INTRA:                  -0.296
REMARK UNBOUND:                -0.264
REMARK SMILES O=c1cc(-c2ccc(O)c(O)c2)oc2cc(O)cc(O)c12
REMARK SMILES IDX 4 1 3 2 2 3 1 4 21 5 19 6 18 7 16 8 15 9 14 10 13 11 5 12
REMARK SMILES IDX 6 13 7 14 8 15 12 16 10 17 9 18 11 20 20 22 17 24
REMARK H PARENT 9 19 11 21 20 23 17 25
REMARK Flexibility Score: inf
ROOT
ATOM      1  C   UNL     1      71.462  39.219  19.627  1.00  0.00     0.138 A 
ATOM      2  C   UNL     1      70.859  39.765  20.773  1.00  0.00     0.100 A 
ATOM      3  C   UNL     1      69.585  39.340  21.147  1.00  0.00     0.197 A 
ATOM      4  O   UNL     1      69.053  39.835  22.178  1.00  0.00    -0.289 OA
ATOM      5  C   UNL     1      68.921  38.366  20.374  1.00  0.00     0.107 A 
ATOM      6  C   UNL     1      67.628  37.881  20.682  1.00  0.00     0.134 A 
ATOM      7  C   UNL     1      67.039  36.905  19.864  1.00  0.00     0.093 A 
ATOM      8  C   UNL     1      67.715  36.408  18.748  1.00  0.00     0.123 A 
ATOM      9  C   UNL     1      68.994  36.883  18.438  1.00  0.00     0.094 A 
ATOM     10  C   UNL     1      69.598  37.856  19.240  1.00  0.00     0.146 A 
ATOM     11  O   UNL     1      70.812  38.294  18.925  1.00  0.00    -0.456 OA
ENDROOT
BRANCH   1  12
ATOM     12  C   UNL     1      72.816  39.633  19.182  1.00  0.00     0.021 A 
ATOM     13  C   UNL     1      73.208  40.986  19.162  1.00  0.00     0.016 A 
ATOM     14  C   UNL     1      74.487  41.346  18.728  1.00  0.00     0.051 A 
ATOM     15  C   UNL     1      75.392  40.371  18.301  1.00  0.00     0.157 A 
ATOM     16  C   UNL     1      73.727  38.657  18.738  1.00  0.00     0.062 A 
ATOM     17  C   UNL     1      75.011  39.019  18.303  1.00  0.00     0.158 A 
BRANCH  15  18
ATOM     18  O   UNL     1      76.660  40.763  17.875  1.00  0.00    -0.504 OA
ATOM     19  H   UNL     1      76.825  41.653  17.423  1.00  0.00     0.293 HD
ENDBRANCH  15  18
BRANCH  17  20
ATOM     20  O   UNL     1      75.906  38.041  17.875  1.00  0.00    -0.504 OA
ATOM     21  H   UNL     1      76.895  38.234  17.774  1.00  0.00     0.293 HD
ENDBRANCH  17  20
ENDBRANCH   1  12
BRANCH   6  22
ATOM     22  O   UNL     1      66.928  38.358  21.791  1.00  0.00    -0.507 OA
ATOM     23  H   UNL     1      66.038  37.963  22.070  1.00  0.00     0.293 HD
ENDBRANCH   6  22
BRANCH   8  24
ATOM     24  O   UNL     1      67.107  35.439  17.952  1.00  0.00    -0.508 OA
ATOM     25  H   UNL     1      67.450  34.487  17.921  1.00  0.00     0.293 HD
ENDBRANCH   8  24
TORSDOF 5
ENDMDL
MODEL 5
REMARK VINA RESULT:    -5.184      1.642      7.174
REMARK INTER + INTRA:          -6.357
REMARK INTER:                  -6.087
REMARK INTRA:                  -0.270
REMARK UNBOUND:                -0.264
REMARK SMILES O=c1cc(-c2ccc(O)c(O)c2)oc2cc(O)cc(O)c12
REMARK SMILES IDX 4 1 3 2 2 3 1 4 21 5 19 6 18 7 16 8 15 9 14 10 13 11 5 12
REMARK SMILES IDX 6 13 7 14 8 15 12 16 10 17 9 18 11 20 20 22 17 24
REMARK H PARENT 9 19 11 21 20 23 17 25
REMARK Flexibility Score: inf
ROOT
ATOM      1  C   UNL     1      71.646  39.120  19.816  1.00  0.00     0.138 A 
ATOM      2  C   UNL     1      72.171  39.826  18.720  1.00  0.00     0.100 A 
ATOM      3  C   UNL     1      73.330  40.584  18.883  1.00  0.00     0.197 A 
ATOM      4  O   UNL     1      73.794  41.212  17.893  1.00  0.00    -0.289 OA
ATOM      5  C   UNL     1      73.961  40.630  20.143  1.00  0.00     0.107 A 
ATOM      6  C   UNL     1      75.137  41.374  20.394  1.00  0.00     0.134 A 
ATOM      7  C   UNL     1      75.706  41.362  21.676  1.00  0.00     0.093 A 
ATOM      8  C   UNL     1      75.124  40.623  22.708  1.00  0.00     0.123 A 
ATOM      9  C   UNL     1      73.961  39.884  22.465  1.00  0.00     0.094 A 
ATOM     10  C   UNL     1      73.377  39.884  21.195  1.00  0.00     0.146 A 
ATOM     11  O   UNL     1      72.271  39.176  20.989  1.00  0.00    -0.456 OA
ENDROOT
BRANCH   1  12
ATOM     12  C   UNL     1      70.416  38.296  19.701  1.00  0.00     0.021 A 
ATOM     13  C   UNL     1      70.384  37.118  18.929  1.00  0.00     0.016 A 
ATOM     14  C   UNL     1      69.209  36.368  18.830  1.00  0.00     0.051 A 
ATOM     15  C   UNL     1      68.048  36.780  19.490  1.00  0.00     0.157 A 
ATOM     16  C   UNL     1      69.241  38.712  20.352  1.00  0.00     0.062 A 
ATOM     17  C   UNL     1      68.062  37.958  20.253  1.00  0.00     0.158 A 
BRANCH  15  18
ATOM     18  O   UNL     1      66.892  36.009  19.373  1.00  0.00    -0.504 OA
ATOM     19  H   UNL     1      66.415  35.630  20.181  1.00  0.00     0.293 HD
ENDBRANCH  15  18
BRANCH  17  20
ATOM     20  O   UNL     1      66.907  38.377  20.911  1.00  0.00    -0.504 OA
ATOM     21  H   UNL     1      66.250  37.715  21.306  1.00  0.00     0.293 HD
ENDBRANCH  17  20
ENDBRANCH   1  12
BRANCH   6  22
ATOM     22  O   UNL     1      75.743  42.122  19.383  1.00  0.00    -0.507 OA
ATOM     23  H   UNL     1      75.290  42.930  18.974  1.00  0.00     0.293 HD
ENDBRANCH   6  22
BRANCH   8  24
ATOM     24  O   UNL     1      75.710  40.628  23.972  1.00  0.00    -0.508 OA
ATOM     25  H   UNL     1      76.647  40.275  24.123  1.00  0.00     0.293 HD
ENDBRANCH   8  24
TORSDOF 5
ENDMDL
MODEL 6
REMARK VINA RESULT:    -5.159      1.941      6.861
REMARK INTER + INTRA:          -6.328
REMARK INTER:                  -6.037
REMARK INTRA:                  -0.291
REMARK UNBOUND:                -0.264
REMARK SMILES O=c1cc(-c2ccc(O)c(O)c2)oc2cc(O)cc(O)c12
REMARK SMILES IDX 4 1 3 2 2 3 1 4 21 5 19 6 18 7 16 8 15 9 14 10 13 11 5 12
REMARK SMILES IDX 6 13 7 14 8 15 12 16 10 17 9 18 11 20 20 22 17 24
REMARK H PARENT 9 19 11 21 20 23 17 25
REMARK Flexibility Score: inf
ROOT
ATOM      1  C   UNL     1      70.086  39.333  20.007  1.00  0.00     0.138 A 
ATOM      2  C   UNL     1      70.724  38.103  19.772  1.00  0.00     0.100 A 
ATOM      3  C   UNL     1      72.023  37.904  20.240  1.00  0.00     0.197 A 
ATOM      4  O   UNL     1      72.587  36.796  20.026  1.00  0.00    -0.289 OA
ATOM      5  C   UNL     1      72.675  38.935  20.945  1.00  0.00     0.107 A 
ATOM      6  C   UNL     1      73.990  38.816  21.452  1.00  0.00     0.134 A 
ATOM      7  C   UNL     1      74.566  39.889  22.149  1.00  0.00     0.093 A 
ATOM      8  C   UNL     1      73.854  41.075  22.347  1.00  0.00     0.123 A 
ATOM      9  C   UNL     1      72.553  41.198  21.848  1.00  0.00     0.094 A 
ATOM     10  C   UNL     1      71.962  40.141  21.150  1.00  0.00     0.146 A 
ATOM     11  O   UNL     1      70.725  40.282  20.684  1.00  0.00    -0.456 OA
ENDROOT
BRANCH   1  12
ATOM     12  C   UNL     1      68.704  39.600  19.534  1.00  0.00     0.021 A 
ATOM     13  C   UNL     1      68.190  40.909  19.453  1.00  0.00     0.016 A 
ATOM     14  C   UNL     1      66.882  41.130  19.014  1.00  0.00     0.051 A 
ATOM     15  C   UNL     1      66.063  40.055  18.655  1.00  0.00     0.157 A 
ATOM     16  C   UNL     1      67.871  38.522  19.184  1.00  0.00     0.062 A 
ATOM     17  C   UNL     1      66.558  38.744  18.743  1.00  0.00     0.158 A 
BRANCH  15  18
ATOM     18  O   UNL     1      64.763  40.309  18.220  1.00  0.00    -0.504 OA
ATOM     19  H   UNL     1      64.124  39.564  17.974  1.00  0.00     0.293 HD
ENDBRANCH  15  18
BRANCH  17  20
ATOM     20  O   UNL     1      65.747  37.667  18.391  1.00  0.00    -0.504 OA
ATOM     21  H   UNL     1      66.036  36.989  17.697  1.00  0.00     0.293 HD
ENDBRANCH  17  20
ENDBRANCH   1  12
BRANCH   6  22
ATOM     22  O   UNL     1      74.727  37.645  21.270  1.00  0.00    -0.507 OA
ATOM     23  H   UNL     1      74.366  36.740  21.547  1.00  0.00     0.293 HD
ENDBRANCH   6  22
BRANCH   8  24
ATOM     24  O   UNL     1      74.450  42.125  23.043  1.00  0.00    -0.508 OA
ATOM     25  H   UNL     1      75.392  42.433  22.833  1.00  0.00     0.293 HD
ENDBRANCH   8  24
TORSDOF 5
ENDMDL
MODEL 7
REMARK VINA RESULT:    -5.134      1.415      2.943
REMARK INTER + INTRA:          -6.299
REMARK INTER:                  -6.035
REMARK INTRA:                  -0.264
REMARK UNBOUND:                -0.264
REMARK SMILES O=c1cc(-c2ccc(O)c(O)c2)oc2cc(O)cc(O)c12
REMARK SMILES IDX 4 1 3 2 2 3 1 4 21 5 19 6 18 7 16 8 15 9 14 10 13 11 5 12
REMARK SMILES IDX 6 13 7 14 8 15 12 16 10 17 9 18 11 20 20 22 17 24
REMARK H PARENT 9 19 11 21 20 23 17 25
REMARK Flexibility Score: inf
ROOT
ATOM      1  C   UNL     1      71.520  39.656  21.016  1.00  0.00     0.138 A 
ATOM      2  C   UNL     1      70.309  40.181  21.501  1.00  0.00     0.100 A 
ATOM      3  C   UNL     1      69.107  39.564  21.157  1.00  0.00     0.197 A 
ATOM      4  O   UNL     1      68.027  40.041  21.599  1.00  0.00    -0.289 OA
ATOM      5  C   UNL     1      69.121  38.421  20.332  1.00  0.00     0.107 A 
ATOM      6  C   UNL     1      67.949  37.737  19.936  1.00  0.00     0.134 A 
ATOM      7  C   UNL     1      68.050  36.602  19.116  1.00  0.00     0.093 A 
ATOM      8  C   UNL     1      69.297  36.141  18.688  1.00  0.00     0.123 A 
ATOM      9  C   UNL     1      70.460  36.814  19.078  1.00  0.00     0.094 A 
ATOM     10  C   UNL     1      70.381  37.947  19.893  1.00  0.00     0.146 A 
ATOM     11  O   UNL     1      71.500  38.571  20.248  1.00  0.00    -0.456 OA
ENDROOT
BRANCH   1  12
ATOM     12  C   UNL     1      72.829  40.270  21.351  1.00  0.00     0.021 A 
ATOM     13  C   UNL     1      73.380  41.308  20.574  1.00  0.00     0.016 A 
ATOM     14  C   UNL     1      74.620  41.860  20.907  1.00  0.00     0.051 A 
ATOM     15  C   UNL     1      75.334  41.385  22.010  1.00  0.00     0.157 A 
ATOM     16  C   UNL     1      73.559  39.788  22.452  1.00  0.00     0.062 A 
ATOM     17  C   UNL     1      74.803  40.342  22.786  1.00  0.00     0.158 A 
BRANCH  15  18
ATOM     18  O   UNL     1      76.568  41.957  22.317  1.00  0.00    -0.504 OA
ATOM     19  H   UNL     1      77.072  41.727  23.165  1.00  0.00     0.293 HD
ENDBRANCH  15  18
BRANCH  17  20
ATOM     20  O   UNL     1      75.511  39.860  23.886  1.00  0.00    -0.504 OA
ATOM     21  H   UNL     1      75.316  40.181  24.826  1.00  0.00     0.293 HD
ENDBRANCH  17  20
ENDBRANCH   1  12
BRANCH   6  22
ATOM     22  O   UNL     1      66.689  38.173  20.347  1.00  0.00    -0.507 OA
ATOM     23  H   UNL     1      66.562  39.050  20.837  1.00  0.00     0.293 HD
ENDBRANCH   6  22
BRANCH   8  24
ATOM     24  O   UNL     1      69.370  35.012  17.875  1.00  0.00    -0.508 OA
ATOM     25  H   UNL     1      70.259  34.635  17.570  1.00  0.00     0.293 HD
ENDBRANCH   8  24
TORSDOF 5
ENDMDL
MODEL 8
REMARK VINA RESULT:    -4.804      2.315      7.111
REMARK INTER + INTRA:          -5.911
REMARK INTER:                  -5.638
REMARK INTRA:                  -0.273
REMARK UNBOUND:                -0.264
REMARK SMILES O=c1cc(-c2ccc(O)c(O)c2)oc2cc(O)cc(O)c12
REMARK SMILES IDX 4 1 3 2 2 3 1 4 21 5 19 6 18 7 16 8 15 9 14 10 13 11 5 12
REMARK SMILES IDX 6 13 7 14 8 15 12 16 10 17 9 18 11 20 20 22 17 24
REMARK H PARENT 9 19 11 21 20 23 17 25
REMARK Flexibility Score: inf
ROOT
ATOM      1  C   UNL     1      69.857  39.635  19.893  1.00  0.00     0.138 A 
ATOM      2  C   UNL     1      70.166  39.825  21.251  1.00  0.00     0.100 A 
ATOM      3  C   UNL     1      71.472  39.613  21.693  1.00  0.00     0.197 A 
ATOM      4  O   UNL     1      71.740  39.787  22.913  1.00  0.00    -0.289 OA
ATOM      5  C   UNL     1      72.463  39.215  20.773  1.00  0.00     0.107 A 
ATOM      6  C   UNL     1      73.809  38.978  21.138  1.00  0.00     0.134 A 
ATOM      7  C   UNL     1      74.736  38.590  20.160  1.00  0.00     0.093 A 
ATOM      8  C   UNL     1      74.345  38.436  18.828  1.00  0.00     0.123 A 
ATOM      9  C   UNL     1      73.015  38.670  18.461  1.00  0.00     0.094 A 
ATOM     10  C   UNL     1      72.075  39.055  19.421  1.00  0.00     0.146 A 
ATOM     11  O   UNL     1      70.818  39.269  19.049  1.00  0.00    -0.456 OA
ENDROOT
BRANCH   1  12
ATOM     12  C   UNL     1      68.485  39.847  19.365  1.00  0.00     0.021 A 
ATOM     13  C   UNL     1      67.877  41.118  19.376  1.00  0.00     0.016 A 
ATOM     14  C   UNL     1      66.580  41.285  18.882  1.00  0.00     0.051 A 
ATOM     15  C   UNL     1      65.867  40.194  18.378  1.00  0.00     0.157 A 
ATOM     16  C   UNL     1      67.757  38.751  18.869  1.00  0.00     0.062 A 
ATOM     17  C   UNL     1      66.456  38.920  18.373  1.00  0.00     0.158 A 
BRANCH  15  18
ATOM     18  O   UNL     1      64.576  40.395  17.891  1.00  0.00    -0.504 OA
ATOM     19  H   UNL     1      64.256  41.300  17.571  1.00  0.00     0.293 HD
ENDBRANCH  15  18
BRANCH  17  20
ATOM     20  O   UNL     1      65.749  37.826  17.876  1.00  0.00    -0.504 OA
ATOM     21  H   UNL     1      66.208  37.090  17.354  1.00  0.00     0.293 HD
ENDBRANCH  17  20
ENDBRANCH   1  12
BRANCH   6  22
ATOM     22  O   UNL     1      74.231  39.125  22.461  1.00  0.00    -0.507 OA
ATOM     23  H   UNL     1      75.168  39.432  22.691  1.00  0.00     0.293 HD
ENDBRANCH   6  22
BRANCH   8  24
ATOM     24  O   UNL     1      75.286  38.050  17.876  1.00  0.00    -0.508 OA
ATOM     25  H   UNL     1      75.635  37.100  17.830  1.00  0.00     0.293 HD
ENDBRANCH   8  24
TORSDOF 5
ENDMDL
