MODEL 1
REMARK VINA RESULT:    -6.283      0.000      0.000
REMARK INTER + INTRA:         -10.404
REMARK INTER:                  -9.037
REMARK INTRA:                  -1.367
REMARK UNBOUND:                -1.367
REMARK SMILES O=c1c(O[C@H]2O[C@@H](CO)[C@H](O)[C@H](O)[C@@H]2O)c(-c2ccc(O)cc2)oc2cc(O)cc(O)c12
REMARK SMILES IDX 4 1 3 2 16 3 24 4 2 5 25 6 1 7 32 8 26 9 30 10 27 11 29 12
REMARK SMILES IDX 17 13 18 14 19 15 20 16 23 17 22 18 21 19 31 21 28 23 5 25
REMARK SMILES IDX 14 26 6 27 12 28 7 29 10 30 15 31 13 33 8 35 9 36 11 38
REMARK H PARENT 21 20 31 22 28 24 15 32 13 34 9 37 11 39
REMARK Flexibility Score: inf
ROOT
ATOM      1  O   UNL     1      -6.227   6.998  14.342  1.00  0.00    -0.454 OA
ENDROOT
BRANCH   1   2
ATOM      2  C   UNL     1      -5.248   6.053  14.737  1.00  0.00     0.214 A 
ATOM      3  C   UNL     1      -3.957   6.169  14.180  1.00  0.00     0.180 A 
ATOM      4  O   UNL     1      -2.975   5.352  14.550  1.00  0.00    -0.452 OA
ATOM      5  C   UNL     1      -5.473   4.995  15.654  1.00  0.00     0.239 A 
ATOM      6  C   UNL     1      -3.131   4.392  15.449  1.00  0.00     0.146 A 
ATOM      7  O   UNL     1      -6.626   4.785  16.116  1.00  0.00    -0.285 OA
ATOM      8  C   UNL     1      -4.396   4.161  16.038  1.00  0.00     0.111 A 
ATOM      9  C   UNL     1      -2.026   3.615  15.812  1.00  0.00     0.094 A 
ATOM     10  C   UNL     1      -4.524   3.119  16.989  1.00  0.00     0.134 A 
ATOM     11  C   UNL     1      -2.154   2.607  16.767  1.00  0.00     0.123 A 
ATOM     12  C   UNL     1      -3.402   2.359  17.349  1.00  0.00     0.093 A 
BRANCH   3  13
ATOM     13  C   UNL     1      -3.647   7.209  13.193  1.00  0.00     0.021 A 
ATOM     14  C   UNL     1      -3.876   6.968  11.824  1.00  0.00     0.016 A 
ATOM     15  C   UNL     1      -3.534   7.939  10.876  1.00  0.00     0.047 A 
ATOM     16  C   UNL     1      -2.948   9.152  11.292  1.00  0.00     0.115 A 
ATOM     17  C   UNL     1      -3.061   8.417  13.606  1.00  0.00     0.016 A 
ATOM     18  C   UNL     1      -2.705   9.379  12.654  1.00  0.00     0.047 A 
BRANCH  16  19
ATOM     19  O   UNL     1      -2.596  10.125  10.358  1.00  0.00    -0.508 OA
ATOM     20  H   UNL     1      -1.635  10.245  10.050  1.00  0.00     0.293 HD
ENDBRANCH  16  19
ENDBRANCH   3  13
BRANCH  10  21
ATOM     21  O   UNL     1      -5.750   2.839  17.581  1.00  0.00    -0.507 OA
ATOM     22  H   UNL     1      -5.826   2.207  18.366  1.00  0.00     0.293 HD
ENDBRANCH  10  21
BRANCH  11  23
ATOM     23  O   UNL     1      -1.031   1.857  17.128  1.00  0.00    -0.508 OA
ATOM     24  H   UNL     1      -1.036   0.846  17.107  1.00  0.00     0.293 HD
ENDBRANCH  11  23
ENDBRANCH   1   2
BRANCH   1  25
ATOM     25  C   UNL     1      -7.588   6.728  13.967  1.00  0.00     0.339 C 
ATOM     26  C   UNL     1      -7.680   5.665  12.849  1.00  0.00     0.214 C 
ATOM     27  O   UNL     1      -8.266   7.928  13.621  1.00  0.00    -0.332 OA
ATOM     28  C   UNL     1      -7.127   6.228  11.537  1.00  0.00     0.180 C 
ATOM     29  C   UNL     1      -7.829   8.529  12.407  1.00  0.00     0.179 C 
ATOM     30  C   UNL     1      -7.801   7.567  11.188  1.00  0.00     0.177 C 
BRANCH  26  31
ATOM     31  O   UNL     1      -9.015   5.263  12.674  1.00  0.00    -0.384 OA
ATOM     32  H   UNL     1      -9.151   4.480  13.282  1.00  0.00     0.211 HD
ENDBRANCH  26  31
BRANCH  28  33
ATOM     33  O   UNL     1      -7.321   5.300  10.504  1.00  0.00    -0.387 OA
ATOM     34  H   UNL     1      -7.585   4.447  10.933  1.00  0.00     0.211 HD
ENDBRANCH  28  33
BRANCH  29  35
ATOM     35  C   UNL     1      -6.557   9.391  12.592  1.00  0.00     0.191 C 
BRANCH  35  36
ATOM     36  O   UNL     1      -6.500   9.968  13.868  1.00  0.00    -0.394 OA
ATOM     37  H   UNL     1      -6.267   9.242  14.497  1.00  0.00     0.210 HD
ENDBRANCH  35  36
ENDBRANCH  29  35
BRANCH  30  38
ATOM     38  O   UNL     1      -9.123   7.345  10.751  1.00  0.00    -0.387 OA
ATOM     39  H   UNL     1      -9.729   7.754  11.429  1.00  0.00     0.211 HD
ENDBRANCH  30  38
ENDBRANCH   1  25
TORSDOF 11
ENDMDL
MODEL 2
REMARK VINA RESULT:    -5.372      1.380      2.785
REMARK INTER + INTRA:          -9.094
REMARK INTER:                  -9.275
REMARK INTRA:                   0.181
REMARK UNBOUND:                -1.367
REMARK SMILES O=c1c(O[C@H]2O[C@@H](CO)[C@H](O)[C@H](O)[C@@H]2O)c(-c2ccc(O)cc2)oc2cc(O)cc(O)c12
REMARK SMILES IDX 4 1 3 2 16 3 24 4 2 5 25 6 1 7 32 8 26 9 30 10 27 11 29 12
REMARK SMILES IDX 17 13 18 14 19 15 20 16 23 17 22 18 21 19 31 21 28 23 5 25
REMARK SMILES IDX 14 26 6 27 12 28 7 29 10 30 15 31 13 33 8 35 9 36 11 38
REMARK H PARENT 21 20 31 22 28 24 15 32 13 34 9 37 11 39
REMARK Flexibility Score: inf
ROOT
ATOM      1  O   UNL     1      -5.951   6.086  13.400  1.00  0.00    -0.454 OA
ENDROOT
BRANCH   1   2
ATOM      2  C   UNL     1      -4.963   5.374  14.125  1.00  0.00     0.214 A 
ATOM      3  C   UNL     1      -3.627   5.819  14.031  1.00  0.00     0.180 A 
ATOM      4  O   UNL     1      -2.659   5.235  14.730  1.00  0.00    -0.452 OA
ATOM      5  C   UNL     1      -5.220   4.243  14.940  1.00  0.00     0.239 A 
ATOM      6  C   UNL     1      -2.871   4.216  15.549  1.00  0.00     0.146 A 
ATOM      7  O   UNL     1      -6.375   3.744  14.994  1.00  0.00    -0.285 OA
ATOM      8  C   UNL     1      -4.166   3.663  15.685  1.00  0.00     0.111 A 
ATOM      9  C   UNL     1      -1.797   3.698  16.282  1.00  0.00     0.094 A 
ATOM     10  C   UNL     1      -4.349   2.568  16.565  1.00  0.00     0.134 A 
ATOM     11  C   UNL     1      -1.990   2.636  17.164  1.00  0.00     0.123 A 
ATOM     12  C   UNL     1      -3.263   2.071  17.300  1.00  0.00     0.093 A 
BRANCH   3  13
ATOM     13  C   UNL     1      -3.265   6.958  13.179  1.00  0.00     0.021 A 
ATOM     14  C   UNL     1      -3.799   7.059  11.879  1.00  0.00     0.016 A 
ATOM     15  C   UNL     1      -3.416   8.116  11.046  1.00  0.00     0.047 A 
ATOM     16  C   UNL     1      -2.485   9.070  11.505  1.00  0.00     0.115 A 
ATOM     17  C   UNL     1      -2.336   7.908  13.634  1.00  0.00     0.016 A 
ATOM     18  C   UNL     1      -1.942   8.955  12.792  1.00  0.00     0.047 A 
BRANCH  16  19
ATOM     19  O   UNL     1      -2.089  10.124  10.682  1.00  0.00    -0.508 OA
ATOM     20  H   UNL     1      -1.962  11.065  11.045  1.00  0.00     0.293 HD
ENDBRANCH  16  19
ENDBRANCH   3  13
BRANCH  10  21
ATOM     21  O   UNL     1      -5.598   1.977  16.717  1.00  0.00    -0.507 OA
ATOM     22  H   UNL     1      -5.798   1.060  16.340  1.00  0.00     0.293 HD
ENDBRANCH  10  21
BRANCH  11  23
ATOM     23  O   UNL     1      -0.906   2.150  17.901  1.00  0.00    -0.508 OA
ATOM     24  H   UNL     1      -1.029   1.725  18.811  1.00  0.00     0.293 HD
ENDBRANCH  11  23
ENDBRANCH   1   2
BRANCH   1  25
ATOM     25  C   UNL     1      -6.557   7.337  13.765  1.00  0.00     0.339 C 
ATOM     26  C   UNL     1      -6.255   7.720  15.232  1.00  0.00     0.214 C 
ATOM     27  O   UNL     1      -7.952   7.322  13.492  1.00  0.00    -0.332 OA
ATOM     28  C   UNL     1      -6.973   6.764  16.186  1.00  0.00     0.180 C 
ATOM     29  C   UNL     1      -8.714   6.465  14.335  1.00  0.00     0.179 C 
ATOM     30  C   UNL     1      -8.474   6.681  15.855  1.00  0.00     0.177 C 
BRANCH  26  31
ATOM     31  O   UNL     1      -6.664   9.042  15.478  1.00  0.00    -0.384 OA
ATOM     32  H   UNL     1      -6.105   9.367  16.243  1.00  0.00     0.211 HD
ENDBRANCH  26  31
BRANCH  28  33
ATOM     33  O   UNL     1      -6.788   7.189  17.510  1.00  0.00    -0.387 OA
ATOM     34  H   UNL     1      -7.514   7.833  17.707  1.00  0.00     0.211 HD
ENDBRANCH  28  33
BRANCH  29  35
ATOM     35  C   UNL     1      -8.686   4.990  13.870  1.00  0.00     0.191 C 
BRANCH  35  36
ATOM     36  O   UNL     1      -8.295   4.875  12.528  1.00  0.00    -0.394 OA
ATOM     37  H   UNL     1      -8.727   5.620  12.042  1.00  0.00     0.210 HD
ENDBRANCH  35  36
ENDBRANCH  29  35
BRANCH  30  38
ATOM     38  O   UNL     1      -9.125   7.866  16.256  1.00  0.00    -0.387 OA
ATOM     39  H   UNL     1      -9.369   7.756  17.217  1.00  0.00     0.211 HD
ENDBRANCH  30  38
ENDBRANCH   1  25
TORSDOF 11
ENDMDL
MODEL 3
REMARK VINA RESULT:    -5.247     12.584     15.854
REMARK INTER + INTRA:          -8.914
REMARK INTER:                  -7.834
REMARK INTRA:                  -1.080
REMARK UNBOUND:                -1.367
REMARK SMILES O=c1c(O[C@H]2O[C@@H](CO)[C@H](O)[C@H](O)[C@@H]2O)c(-c2ccc(O)cc2)oc2cc(O)cc(O)c12
REMARK SMILES IDX 4 1 3 2 16 3 24 4 2 5 25 6 1 7 32 8 26 9 30 10 27 11 29 12
REMARK SMILES IDX 17 13 18 14 19 15 20 16 23 17 22 18 21 19 31 21 28 23 5 25
REMARK SMILES IDX 14 26 6 27 12 28 7 29 10 30 15 31 13 33 8 35 9 36 11 38
REMARK H PARENT 21 20 31 22 28 24 15 32 13 34 9 37 11 39
REMARK Flexibility Score: inf
ROOT
ATOM      1  O   UNL     1      -7.281  -6.063  22.433  1.00  0.00    -0.454 OA
ENDROOT
BRANCH   1   2
ATOM      2  C   UNL     1      -6.751  -6.836  23.495  1.00  0.00     0.214 A 
ATOM      3  C   UNL     1      -5.365  -7.103  23.489  1.00  0.00     0.180 A 
ATOM      4  O   UNL     1      -4.792  -7.772  24.485  1.00  0.00    -0.452 OA
ATOM      5  C   UNL     1      -7.514  -7.363  24.567  1.00  0.00     0.239 A 
ATOM      6  C   UNL     1      -5.462  -8.227  25.533  1.00  0.00     0.146 A 
ATOM      7  O   UNL     1      -8.768  -7.236  24.582  1.00  0.00    -0.285 OA
ATOM      8  C   UNL     1      -6.864  -8.052  25.618  1.00  0.00     0.111 A 
ATOM      9  C   UNL     1      -4.764  -8.876  26.557  1.00  0.00     0.094 A 
ATOM     10  C   UNL     1      -7.545  -8.559  26.751  1.00  0.00     0.134 A 
ATOM     11  C   UNL     1      -5.438  -9.352  27.680  1.00  0.00     0.123 A 
ATOM     12  C   UNL     1      -6.826  -9.197  27.773  1.00  0.00     0.093 A 
BRANCH   3  13
ATOM     13  C   UNL     1      -4.506  -6.630  22.398  1.00  0.00     0.021 A 
ATOM     14  C   UNL     1      -3.767  -7.555  21.635  1.00  0.00     0.016 A 
ATOM     15  C   UNL     1      -2.908  -7.103  20.627  1.00  0.00     0.047 A 
ATOM     16  C   UNL     1      -2.774  -5.720  20.386  1.00  0.00     0.115 A 
ATOM     17  C   UNL     1      -4.370  -5.252  22.158  1.00  0.00     0.016 A 
ATOM     18  C   UNL     1      -3.498  -4.802  21.160  1.00  0.00     0.047 A 
BRANCH  16  19
ATOM     19  O   UNL     1      -1.917  -5.256  19.390  1.00  0.00    -0.508 OA
ATOM     20  H   UNL     1      -1.679  -4.272  19.308  1.00  0.00     0.293 HD
ENDBRANCH  16  19
ENDBRANCH   3  13
BRANCH  10  21
ATOM     21  O   UNL     1      -8.924  -8.431  26.871  1.00  0.00    -0.507 OA
ATOM     22  H   UNL     1      -9.456  -9.015  27.503  1.00  0.00     0.293 HD
ENDBRANCH  10  21
BRANCH  11  23
ATOM     23  O   UNL     1      -4.717  -9.979  28.700  1.00  0.00    -0.508 OA
ATOM     24  H   UNL     1      -4.564  -9.534  29.596  1.00  0.00     0.293 HD
ENDBRANCH  11  23
ENDBRANCH   1   2
BRANCH   1  25
ATOM     25  C   UNL     1      -8.304  -6.457  21.503  1.00  0.00     0.339 C 
ATOM     26  C   UNL     1      -7.716  -7.167  20.263  1.00  0.00     0.214 C 
ATOM     27  O   UNL     1      -9.120  -5.348  21.148  1.00  0.00    -0.332 OA
ATOM     28  C   UNL     1      -6.922  -6.174  19.411  1.00  0.00     0.180 C 
ATOM     29  C   UNL     1      -8.473  -4.367  20.346  1.00  0.00     0.179 C 
ATOM     30  C   UNL     1      -7.770  -4.933  19.081  1.00  0.00     0.177 C 
BRANCH  26  31
ATOM     31  O   UNL     1      -8.750  -7.736  19.498  1.00  0.00    -0.384 OA
ATOM     32  H   UNL     1      -9.359  -6.982  19.250  1.00  0.00     0.211 HD
ENDBRANCH  26  31
BRANCH  28  33
ATOM     33  O   UNL     1      -6.492  -6.799  18.232  1.00  0.00    -0.387 OA
ATOM     34  H   UNL     1      -7.242  -6.739  17.588  1.00  0.00     0.211 HD
ENDBRANCH  28  33
BRANCH  29  35
ATOM     35  C   UNL     1      -7.625  -3.377  21.180  1.00  0.00     0.191 C 
BRANCH  35  36
ATOM     36  O   UNL     1      -6.556  -2.854  20.439  1.00  0.00    -0.394 OA
ATOM     37  H   UNL     1      -6.673  -1.872  20.427  1.00  0.00     0.210 HD
ENDBRANCH  35  36
ENDBRANCH  29  35
BRANCH  30  38
ATOM     38  O   UNL     1      -8.750  -5.257  18.121  1.00  0.00    -0.387 OA
ATOM     39  H   UNL     1      -8.286  -5.733  17.377  1.00  0.00     0.211 HD
ENDBRANCH  30  38
ENDBRANCH   1  25
TORSDOF 11
ENDMDL
MODEL 4
REMARK VINA RESULT:    -5.222     12.584     17.087
REMARK INTER + INTRA:          -8.878
REMARK INTER:                  -7.245
REMARK INTRA:                  -1.633
REMARK UNBOUND:                -1.367
REMARK SMILES O=c1c(O[C@H]2O[C@@H](CO)[C@H](O)[C@H](O)[C@@H]2O)c(-c2ccc(O)cc2)oc2cc(O)cc(O)c12
REMARK SMILES IDX 4 1 3 2 16 3 24 4 2 5 25 6 1 7 32 8 26 9 30 10 27 11 29 12
REMARK SMILES IDX 17 13 18 14 19 15 20 16 23 17 22 18 21 19 31 21 28 23 5 25
REMARK SMILES IDX 14 26 6 27 12 28 7 29 10 30 15 31 13 33 8 35 9 36 11 38
REMARK H PARENT 21 20 31 22 28 24 15 32 13 34 9 37 11 39
REMARK Flexibility Score: inf
ROOT
ATOM      1  O   UNL     1      -6.298  -7.967  23.538  1.00  0.00    -0.454 OA
ENDROOT
BRANCH   1   2
ATOM      2  C   UNL     1      -5.319  -7.473  24.434  1.00  0.00     0.214 A 
ATOM      3  C   UNL     1      -4.746  -6.214  24.157  1.00  0.00     0.180 A 
ATOM      4  O   UNL     1      -3.864  -5.664  24.986  1.00  0.00    -0.452 OA
ATOM      5  C   UNL     1      -4.871  -8.155  25.593  1.00  0.00     0.239 A 
ATOM      6  C   UNL     1      -3.467  -6.243  26.110  1.00  0.00     0.146 A 
ATOM      7  O   UNL     1      -5.278  -9.320  25.847  1.00  0.00    -0.285 OA
ATOM      8  C   UNL     1      -3.946  -7.527  26.462  1.00  0.00     0.111 A 
ATOM      9  C   UNL     1      -2.573  -5.565  26.945  1.00  0.00     0.094 A 
ATOM     10  C   UNL     1      -3.492  -8.115  27.668  1.00  0.00     0.134 A 
ATOM     11  C   UNL     1      -2.149  -6.140  28.142  1.00  0.00     0.123 A 
ATOM     12  C   UNL     1      -2.605  -7.415  28.498  1.00  0.00     0.093 A 
BRANCH   3  13
ATOM     13  C   UNL     1      -5.122  -5.457  22.957  1.00  0.00     0.021 A 
ATOM     14  C   UNL     1      -6.413  -4.905  22.851  1.00  0.00     0.016 A 
ATOM     15  C   UNL     1      -6.791  -4.227  21.687  1.00  0.00     0.047 A 
ATOM     16  C   UNL     1      -5.881  -4.109  20.616  1.00  0.00     0.115 A 
ATOM     17  C   UNL     1      -4.217  -5.341  21.888  1.00  0.00     0.016 A 
ATOM     18  C   UNL     1      -4.603  -4.677  20.719  1.00  0.00     0.047 A 
BRANCH  16  19
ATOM     19  O   UNL     1      -6.247  -3.443  19.447  1.00  0.00    -0.508 OA
ATOM     20  H   UNL     1      -6.397  -2.438  19.432  1.00  0.00     0.293 HD
ENDBRANCH  16  19
ENDBRANCH   3  13
BRANCH  10  21
ATOM     21  O   UNL     1      -3.918  -9.383  28.047  1.00  0.00    -0.507 OA
ATOM     22  H   UNL     1      -3.319 -10.192  27.951  1.00  0.00     0.293 HD
ENDBRANCH  10  21
BRANCH  11  23
ATOM     23  O   UNL     1      -1.272  -5.434  28.970  1.00  0.00    -0.508 OA
ATOM     24  H   UNL     1      -0.268  -5.540  28.895  1.00  0.00     0.293 HD
ENDBRANCH  11  23
ENDBRANCH   1   2
BRANCH   1  25
ATOM     25  C   UNL     1      -6.078  -8.813  22.397  1.00  0.00     0.339 C 
ATOM     26  C   UNL     1      -6.483  -8.120  21.076  1.00  0.00     0.214 C 
ATOM     27  O   UNL     1      -6.728 -10.067  22.563  1.00  0.00    -0.332 OA
ATOM     28  C   UNL     1      -8.001  -7.944  21.014  1.00  0.00     0.180 C 
ATOM     29  C   UNL     1      -8.149 -10.011  22.514  1.00  0.00     0.179 C 
ATOM     30  C   UNL     1      -8.720  -9.281  21.267  1.00  0.00     0.177 C 
BRANCH  26  31
ATOM     31  O   UNL     1      -6.042  -8.879  19.978  1.00  0.00    -0.384 OA
ATOM     32  H   UNL     1      -5.971  -8.241  19.210  1.00  0.00     0.211 HD
ENDBRANCH  26  31
BRANCH  28  33
ATOM     33  O   UNL     1      -8.367  -7.422  19.765  1.00  0.00    -0.387 OA
ATOM     34  H   UNL     1      -9.272  -7.771  19.564  1.00  0.00     0.211 HD
ENDBRANCH  28  33
BRANCH  29  35
ATOM     35  C   UNL     1      -8.778  -9.593  23.864  1.00  0.00     0.191 C 
BRANCH  35  36
ATOM     36  O   UNL     1      -7.962  -9.943  24.949  1.00  0.00    -0.394 OA
ATOM     37  H   UNL     1      -7.578  -9.101  25.297  1.00  0.00     0.210 HD
ENDBRANCH  35  36
ENDBRANCH  29  35
BRANCH  30  38
ATOM     38  O   UNL     1      -8.586 -10.123  20.143  1.00  0.00    -0.387 OA
ATOM     39  H   UNL     1      -7.930 -10.834  20.386  1.00  0.00     0.211 HD
ENDBRANCH  30  38
ENDBRANCH   1  25
TORSDOF 11
ENDMDL
MODEL 5
REMARK VINA RESULT:    -5.021      2.270      5.577
REMARK INTER + INTRA:          -8.588
REMARK INTER:                  -7.035
REMARK INTRA:                  -1.553
REMARK UNBOUND:                -1.367
REMARK SMILES O=c1c(O[C@H]2O[C@@H](CO)[C@H](O)[C@H](O)[C@@H]2O)c(-c2ccc(O)cc2)oc2cc(O)cc(O)c12
REMARK SMILES IDX 4 1 3 2 16 3 24 4 2 5 25 6 1 7 32 8 26 9 30 10 27 11 29 12
REMARK SMILES IDX 17 13 18 14 19 15 20 16 23 17 22 18 21 19 31 21 28 23 5 25
REMARK SMILES IDX 14 26 6 27 12 28 7 29 10 30 15 31 13 33 8 35 9 36 11 38
REMARK H PARENT 21 20 31 22 28 24 15 32 13 34 9 37 11 39
REMARK Flexibility Score: inf
ROOT
ATOM      1  O   UNL     1      -4.700   6.084  13.345  1.00  0.00    -0.454 OA
ENDROOT
BRANCH   1   2
ATOM      2  C   UNL     1      -3.553   6.709  13.896  1.00  0.00     0.214 A 
ATOM      3  C   UNL     1      -3.006   6.159  15.075  1.00  0.00     0.180 A 
ATOM      4  O   UNL     1      -1.898   6.658  15.613  1.00  0.00    -0.452 OA
ATOM      5  C   UNL     1      -2.915   7.850  13.349  1.00  0.00     0.239 A 
ATOM      6  C   UNL     1      -1.239   7.684  15.096  1.00  0.00     0.146 A 
ATOM      7  O   UNL     1      -3.407   8.439  12.350  1.00  0.00    -0.285 OA
ATOM      8  C   UNL     1      -1.726   8.338  13.940  1.00  0.00     0.111 A 
ATOM      9  C   UNL     1      -0.054   8.108  15.706  1.00  0.00     0.094 A 
ATOM     10  C   UNL     1      -0.997   9.437  13.422  1.00  0.00     0.134 A 
ATOM     11  C   UNL     1       0.671   9.175  15.177  1.00  0.00     0.123 A 
ATOM     12  C   UNL     1       0.196   9.839  14.040  1.00  0.00     0.093 A 
BRANCH   3  13
ATOM     13  C   UNL     1      -3.626   5.002  15.731  1.00  0.00     0.021 A 
ATOM     14  C   UNL     1      -4.800   5.172  16.491  1.00  0.00     0.016 A 
ATOM     15  C   UNL     1      -5.365   4.081  17.160  1.00  0.00     0.047 A 
ATOM     16  C   UNL     1      -4.749   2.815  17.083  1.00  0.00     0.115 A 
ATOM     17  C   UNL     1      -3.012   3.741  15.658  1.00  0.00     0.016 A 
ATOM     18  C   UNL     1      -3.570   2.654  16.342  1.00  0.00     0.047 A 
BRANCH  16  19
ATOM     19  O   UNL     1      -5.297   1.720  17.751  1.00  0.00    -0.508 OA
ATOM     20  H   UNL     1      -4.796   1.246  18.497  1.00  0.00     0.293 HD
ENDBRANCH  16  19
ENDBRANCH   3  13
BRANCH  10  21
ATOM     21  O   UNL     1      -1.444  10.125  12.300  1.00  0.00    -0.507 OA
ATOM     22  H   UNL     1      -1.806  11.067  12.367  1.00  0.00     0.293 HD
ENDBRANCH  10  21
BRANCH  11  23
ATOM     23  O   UNL     1       1.864   9.567  15.791  1.00  0.00    -0.508 OA
ATOM     24  H   UNL     1       2.173  10.530  15.788  1.00  0.00     0.293 HD
ENDBRANCH  11  23
ENDBRANCH   1   2
BRANCH   1  25
ATOM     25  C   UNL     1      -6.038   6.607  13.313  1.00  0.00     0.339 C 
ATOM     26  C   UNL     1      -7.077   5.567  13.791  1.00  0.00     0.214 C 
ATOM     27  O   UNL     1      -6.351   7.122  12.026  1.00  0.00    -0.332 OA
ATOM     28  C   UNL     1      -7.190   4.428  12.776  1.00  0.00     0.180 C 
ATOM     29  C   UNL     1      -6.485   6.137  11.008  1.00  0.00     0.179 C 
ATOM     30  C   UNL     1      -7.454   4.976  11.362  1.00  0.00     0.177 C 
BRANCH  26  31
ATOM     31  O   UNL     1      -8.329   6.181  13.966  1.00  0.00    -0.384 OA
ATOM     32  H   UNL     1      -8.549   6.090  14.938  1.00  0.00     0.211 HD
ENDBRANCH  26  31
BRANCH  28  33
ATOM     33  O   UNL     1      -8.215   3.551  13.160  1.00  0.00    -0.387 OA
ATOM     34  H   UNL     1      -8.174   2.777  12.543  1.00  0.00     0.211 HD
ENDBRANCH  28  33
BRANCH  29  35
ATOM     35  C   UNL     1      -5.124   5.699  10.417  1.00  0.00     0.191 C 
BRANCH  35  36
ATOM     36  O   UNL     1      -4.211   6.761  10.369  1.00  0.00    -0.394 OA
ATOM     37  H   UNL     1      -4.243   7.203  11.253  1.00  0.00     0.210 HD
ENDBRANCH  35  36
ENDBRANCH  29  35
BRANCH  30  38
ATOM     38  O   UNL     1      -8.782   5.442  11.264  1.00  0.00    -0.387 OA
ATOM     39  H   UNL     1      -8.878   6.192  11.915  1.00  0.00     0.211 HD
ENDBRANCH  30  38
ENDBRANCH   1  25
TORSDOF 11
ENDMDL
MODEL 6
REMARK VINA RESULT:    -5.000     10.847     16.431
REMARK INTER + INTRA:          -8.559
REMARK INTER:                  -7.454
REMARK INTRA:                  -1.105
REMARK UNBOUND:                -1.367
REMARK SMILES O=c1c(O[C@H]2O[C@@H](CO)[C@H](O)[C@H](O)[C@@H]2O)c(-c2ccc(O)cc2)oc2cc(O)cc(O)c12
REMARK SMILES IDX 4 1 3 2 16 3 24 4 2 5 25 6 1 7 32 8 26 9 30 10 27 11 29 12
REMARK SMILES IDX 17 13 18 14 19 15 20 16 23 17 22 18 21 19 31 21 28 23 5 25
REMARK SMILES IDX 14 26 6 27 12 28 7 29 10 30 15 31 13 33 8 35 9 36 11 38
REMARK H PARENT 21 20 31 22 28 24 15 32 13 34 9 37 11 39
REMARK Flexibility Score: inf
ROOT
ATOM      1  O   UNL     1      -7.145  -7.553  21.531  1.00  0.00    -0.454 OA
ENDROOT
BRANCH   1   2
ATOM      2  C   UNL     1      -7.597  -6.216  21.403  1.00  0.00     0.214 A 
ATOM      3  C   UNL     1      -8.069  -5.567  22.564  1.00  0.00     0.180 A 
ATOM      4  O   UNL     1      -8.454  -4.295  22.528  1.00  0.00    -0.452 OA
ATOM      5  C   UNL     1      -7.611  -5.482  20.191  1.00  0.00     0.239 A 
ATOM      6  C   UNL     1      -8.423  -3.558  21.428  1.00  0.00     0.146 A 
ATOM      7  O   UNL     1      -7.286  -6.034  19.106  1.00  0.00    -0.285 OA
ATOM      8  C   UNL     1      -8.008  -4.124  20.199  1.00  0.00     0.111 A 
ATOM      9  C   UNL     1      -8.801  -2.213  21.499  1.00  0.00     0.094 A 
ATOM     10  C   UNL     1      -7.996  -3.305  19.043  1.00  0.00     0.134 A 
ATOM     11  C   UNL     1      -8.763  -1.407  20.362  1.00  0.00     0.123 A 
ATOM     12  C   UNL     1      -8.366  -1.956  19.137  1.00  0.00     0.093 A 
BRANCH   3  13
ATOM     13  C   UNL     1      -8.128  -6.265  23.853  1.00  0.00     0.021 A 
ATOM     14  C   UNL     1      -7.157  -6.003  24.838  1.00  0.00     0.016 A 
ATOM     15  C   UNL     1      -7.181  -6.704  26.049  1.00  0.00     0.047 A 
ATOM     16  C   UNL     1      -8.171  -7.682  26.274  1.00  0.00     0.115 A 
ATOM     17  C   UNL     1      -9.113  -7.241  24.078  1.00  0.00     0.016 A 
ATOM     18  C   UNL     1      -9.125  -7.953  25.283  1.00  0.00     0.047 A 
BRANCH  16  19
ATOM     19  O   UNL     1      -8.202  -8.394  27.473  1.00  0.00    -0.508 OA
ATOM     20  H   UNL     1      -8.774  -8.092  28.257  1.00  0.00     0.293 HD
ENDBRANCH  16  19
ENDBRANCH   3  13
BRANCH  10  21
ATOM     21  O   UNL     1      -7.616  -3.819  17.809  1.00  0.00    -0.507 OA
ATOM     22  H   UNL     1      -7.081  -4.675  17.734  1.00  0.00     0.293 HD
ENDBRANCH  10  21
BRANCH  11  23
ATOM     23  O   UNL     1      -9.125  -0.061  20.462  1.00  0.00    -0.508 OA
ATOM     24  H   UNL     1      -9.068   0.566  19.670  1.00  0.00     0.293 HD
ENDBRANCH  11  23
ENDBRANCH   1   2
BRANCH   1  25
ATOM     25  C   UNL     1      -5.988  -8.009  22.251  1.00  0.00     0.339 C 
ATOM     26  C   UNL     1      -4.811  -7.011  22.147  1.00  0.00     0.214 C 
ATOM     27  O   UNL     1      -5.617  -9.318  21.839  1.00  0.00    -0.332 OA
ATOM     28  C   UNL     1      -4.266  -6.984  20.717  1.00  0.00     0.180 C 
ATOM     29  C   UNL     1      -5.089  -9.398  20.520  1.00  0.00     0.179 C 
ATOM     30  C   UNL     1      -3.930  -8.405  20.230  1.00  0.00     0.177 C 
BRANCH  26  31
ATOM     31  O   UNL     1      -3.790  -7.374  23.043  1.00  0.00    -0.384 OA
ATOM     32  H   UNL     1      -3.182  -7.986  22.536  1.00  0.00     0.211 HD
ENDBRANCH  26  31
BRANCH  28  33
ATOM     33  O   UNL     1      -3.129  -6.166  20.659  1.00  0.00    -0.387 OA
ATOM     34  H   UNL     1      -2.694  -6.344  19.787  1.00  0.00     0.211 HD
ENDBRANCH  28  33
BRANCH  29  35
ATOM     35  C   UNL     1      -6.193  -9.453  19.437  1.00  0.00     0.191 C 
BRANCH  35  36
ATOM     36  O   UNL     1      -6.095  -8.380  18.540  1.00  0.00    -0.394 OA
ATOM     37  H   UNL     1      -6.995  -7.973  18.485  1.00  0.00     0.210 HD
ENDBRANCH  35  36
ENDBRANCH  29  35
BRANCH  30  38
ATOM     38  O   UNL     1      -2.760  -8.870  20.864  1.00  0.00    -0.387 OA
ATOM     39  H   UNL     1      -2.948  -8.897  21.843  1.00  0.00     0.211 HD
ENDBRANCH  30  38
ENDBRANCH   1  25
TORSDOF 11
ENDMDL
MODEL 7
REMARK VINA RESULT:    -4.888     13.157     18.655
REMARK INTER + INTRA:          -8.397
REMARK INTER:                  -7.278
REMARK INTRA:                  -1.119
REMARK UNBOUND:                -1.367
REMARK SMILES O=c1c(O[C@H]2O[C@@H](CO)[C@H](O)[C@H](O)[C@@H]2O)c(-c2ccc(O)cc2)oc2cc(O)cc(O)c12
REMARK SMILES IDX 4 1 3 2 16 3 24 4 2 5 25 6 1 7 32 8 26 9 30 10 27 11 29 12
REMARK SMILES IDX 17 13 18 14 19 15 20 16 23 17 22 18 21 19 31 21 28 23 5 25
REMARK SMILES IDX 14 26 6 27 12 28 7 29 10 30 15 31 13 33 8 35 9 36 11 38
REMARK H PARENT 21 20 31 22 28 24 15 32 13 34 9 37 11 39
REMARK Flexibility Score: inf
ROOT
ATOM      1  O   UNL     1      -4.820  -6.903  24.988  1.00  0.00    -0.454 OA
ENDROOT
BRANCH   1   2
ATOM      2  C   UNL     1      -5.620  -6.669  23.842  1.00  0.00     0.214 A 
ATOM      3  C   UNL     1      -7.006  -6.911  23.946  1.00  0.00     0.180 A 
ATOM      4  O   UNL     1      -7.824  -6.658  22.929  1.00  0.00    -0.452 OA
ATOM      5  C   UNL     1      -5.127  -6.210  22.595  1.00  0.00     0.239 A 
ATOM      6  C   UNL     1      -7.409  -6.170  21.769  1.00  0.00     0.146 A 
ATOM      7  O   UNL     1      -3.889  -6.061  22.413  1.00  0.00    -0.285 OA
ATOM      8  C   UNL     1      -6.033  -5.932  21.543  1.00  0.00     0.111 A 
ATOM      9  C   UNL     1      -8.351  -5.888  20.774  1.00  0.00     0.094 A 
ATOM     10  C   UNL     1      -5.628  -5.417  20.288  1.00  0.00     0.134 A 
ATOM     11  C   UNL     1      -7.948  -5.358  19.549  1.00  0.00     0.123 A 
ATOM     12  C   UNL     1      -6.589  -5.129  19.307  1.00  0.00     0.093 A 
BRANCH   3  13
ATOM     13  C   UNL     1      -7.596  -7.426  25.187  1.00  0.00     0.021 A 
ATOM     14  C   UNL     1      -8.161  -6.534  26.119  1.00  0.00     0.016 A 
ATOM     15  C   UNL     1      -8.678  -7.017  27.326  1.00  0.00     0.047 A 
ATOM     16  C   UNL     1      -8.620  -8.397  27.612  1.00  0.00     0.115 A 
ATOM     17  C   UNL     1      -7.536  -8.800  25.475  1.00  0.00     0.016 A 
ATOM     18  C   UNL     1      -8.039  -9.278  26.690  1.00  0.00     0.047 A 
BRANCH  16  19
ATOM     19  O   UNL     1      -9.124  -8.891  28.814  1.00  0.00    -0.508 OA
ATOM     20  H   UNL     1      -8.651  -9.629  29.328  1.00  0.00     0.293 HD
ENDBRANCH  16  19
ENDBRANCH   3  13
BRANCH  10  21
ATOM     21  O   UNL     1      -4.286  -5.186  20.010  1.00  0.00    -0.507 OA
ATOM     22  H   UNL     1      -3.999  -4.597  19.239  1.00  0.00     0.293 HD
ENDBRANCH  10  21
BRANCH  11  23
ATOM     23  O   UNL     1      -8.910  -5.065  18.578  1.00  0.00    -0.508 OA
ATOM     24  H   UNL     1      -9.615  -5.738  18.307  1.00  0.00     0.293 HD
ENDBRANCH  11  23
ENDBRANCH   1   2
BRANCH   1  25
ATOM     25  C   UNL     1      -3.778  -7.882  25.129  1.00  0.00     0.339 C 
ATOM     26  C   UNL     1      -4.206  -9.055  26.040  1.00  0.00     0.214 C 
ATOM     27  O   UNL     1      -2.569  -7.276  25.571  1.00  0.00    -0.332 OA
ATOM     28  C   UNL     1      -4.349  -8.577  27.487  1.00  0.00     0.180 C 
ATOM     29  C   UNL     1      -2.597  -6.803  26.912  1.00  0.00     0.179 C 
ATOM     30  C   UNL     1      -3.074  -7.852  27.954  1.00  0.00     0.177 C 
BRANCH  26  31
ATOM     31  O   UNL     1      -3.260 -10.092  25.968  1.00  0.00    -0.384 OA
ATOM     32  H   UNL     1      -2.437  -9.748  26.421  1.00  0.00     0.211 HD
ENDBRANCH  26  31
BRANCH  28  33
ATOM     33  O   UNL     1      -4.624  -9.669  28.322  1.00  0.00    -0.387 OA
ATOM     34  H   UNL     1      -4.199  -9.475  29.195  1.00  0.00     0.211 HD
ENDBRANCH  28  33
BRANCH  29  35
ATOM     35  C   UNL     1      -3.253  -5.407  27.040  1.00  0.00     0.191 C 
BRANCH  35  36
ATOM     36  O   UNL     1      -3.130  -4.891  28.337  1.00  0.00    -0.394 OA
ATOM     37  H   UNL     1      -2.599  -5.546  28.854  1.00  0.00     0.210 HD
ENDBRANCH  35  36
ENDBRANCH  29  35
BRANCH  30  38
ATOM     38  O   UNL     1      -2.038  -8.785  28.169  1.00  0.00    -0.387 OA
ATOM     39  H   UNL     1      -1.224  -8.429  27.716  1.00  0.00     0.211 HD
ENDBRANCH  30  38
ENDBRANCH   1  25
TORSDOF 11
ENDMDL
MODEL 8
REMARK VINA RESULT:    -4.883      1.686      5.683
REMARK INTER + INTRA:          -8.391
REMARK INTER:                  -9.205
REMARK INTRA:                   0.814
REMARK UNBOUND:                -1.367
REMARK SMILES O=c1c(O[C@H]2O[C@@H](CO)[C@H](O)[C@H](O)[C@@H]2O)c(-c2ccc(O)cc2)oc2cc(O)cc(O)c12
REMARK SMILES IDX 4 1 3 2 16 3 24 4 2 5 25 6 1 7 32 8 26 9 30 10 27 11 29 12
REMARK SMILES IDX 17 13 18 14 19 15 20 16 23 17 22 18 21 19 31 21 28 23 5 25
REMARK SMILES IDX 14 26 6 27 12 28 7 29 10 30 15 31 13 33 8 35 9 36 11 38
REMARK H PARENT 21 20 31 22 28 24 15 32 13 34 9 37 11 39
REMARK Flexibility Score: inf
ROOT
ATOM      1  O   UNL     1      -5.284   5.721  15.401  1.00  0.00    -0.454 OA
ENDROOT
BRANCH   1   2
ATOM      2  C   UNL     1      -4.364   6.520  14.678  1.00  0.00     0.214 A 
ATOM      3  C   UNL     1      -2.999   6.167  14.732  1.00  0.00     0.180 A 
ATOM      4  O   UNL     1      -2.090   6.837  14.032  1.00  0.00    -0.452 OA
ATOM      5  C   UNL     1      -4.717   7.652  13.901  1.00  0.00     0.239 A 
ATOM      6  C   UNL     1      -2.389   7.861  13.247  1.00  0.00     0.146 A 
ATOM      7  O   UNL     1      -5.905   8.070  13.884  1.00  0.00    -0.285 OA
ATOM      8  C   UNL     1      -3.722   8.326  13.153  1.00  0.00     0.111 A 
ATOM      9  C   UNL     1      -1.369   8.473  12.509  1.00  0.00     0.094 A 
ATOM     10  C   UNL     1      -4.000   9.429  12.309  1.00  0.00     0.134 A 
ATOM     11  C   UNL     1      -1.655   9.543  11.662  1.00  0.00     0.123 A 
ATOM     12  C   UNL     1      -2.967  10.021  11.568  1.00  0.00     0.093 A 
BRANCH   3  13
ATOM     13  C   UNL     1      -2.541   5.034  15.544  1.00  0.00     0.021 A 
ATOM     14  C   UNL     1      -1.446   5.192  16.416  1.00  0.00     0.016 A 
ATOM     15  C   UNL     1      -0.975   4.100  17.153  1.00  0.00     0.047 A 
ATOM     16  C   UNL     1      -1.589   2.839  17.011  1.00  0.00     0.115 A 
ATOM     17  C   UNL     1      -3.150   3.776  15.401  1.00  0.00     0.016 A 
ATOM     18  C   UNL     1      -2.666   2.682  16.128  1.00  0.00     0.047 A 
BRANCH  16  19
ATOM     19  O   UNL     1      -1.125   1.740  17.734  1.00  0.00    -0.508 OA
ATOM     20  H   UNL     1      -0.233   1.761  18.221  1.00  0.00     0.293 HD
ENDBRANCH  16  19
ENDBRANCH   3  13
BRANCH  10  21
ATOM     21  O   UNL     1      -5.290   9.935  12.199  1.00  0.00    -0.507 OA
ATOM     22  H   UNL     1      -5.459  10.907  11.973  1.00  0.00     0.293 HD
ENDBRANCH  10  21
BRANCH  11  23
ATOM     23  O   UNL     1      -0.624  10.124  10.919  1.00  0.00    -0.508 OA
ATOM     24  H   UNL     1      -0.798  10.579  10.032  1.00  0.00     0.293 HD
ENDBRANCH  11  23
ENDBRANCH   1   2
BRANCH   1  25
ATOM     25  C   UNL     1      -6.031   4.599  14.904  1.00  0.00     0.339 C 
ATOM     26  C   UNL     1      -6.094   4.584  13.359  1.00  0.00     0.214 C 
ATOM     27  O   UNL     1      -7.325   4.550  15.491  1.00  0.00    -0.332 OA
ATOM     28  C   UNL     1      -6.951   5.746  12.853  1.00  0.00     0.180 C 
ATOM     29  C   UNL     1      -8.205   5.589  15.078  1.00  0.00     0.179 C 
ATOM     30  C   UNL     1      -8.330   5.750  13.538  1.00  0.00     0.177 C 
BRANCH  26  31
ATOM     31  O   UNL     1      -6.627   3.363  12.910  1.00  0.00    -0.384 OA
ATOM     32  H   UNL     1      -6.426   2.693  13.625  1.00  0.00     0.211 HD
ENDBRANCH  26  31
BRANCH  28  33
ATOM     33  O   UNL     1      -7.097   5.656  11.462  1.00  0.00    -0.387 OA
ATOM     34  H   UNL     1      -6.209   5.415  11.096  1.00  0.00     0.211 HD
ENDBRANCH  28  33
BRANCH  29  35
ATOM     35  C   UNL     1      -7.983   6.906  15.859  1.00  0.00     0.191 C 
BRANCH  35  36
ATOM     36  O   UNL     1      -7.384   6.678  17.105  1.00  0.00    -0.394 OA
ATOM     37  H   UNL     1      -6.843   5.855  17.014  1.00  0.00     0.210 HD
ENDBRANCH  35  36
ENDBRANCH  29  35
BRANCH  30  38
ATOM     38  O   UNL     1      -9.125   4.701  13.032  1.00  0.00    -0.387 OA
ATOM     39  H   UNL     1      -9.170   4.000  13.740  1.00  0.00     0.211 HD
ENDBRANCH  30  38
ENDBRANCH   1  25
TORSDOF 11
ENDMDL
MODEL 9
REMARK VINA RESULT:    -4.768      1.690      4.342
REMARK INTER + INTRA:          -8.225
REMARK INTER:                  -7.224
REMARK INTRA:                  -1.001
REMARK UNBOUND:                -1.367
REMARK SMILES O=c1c(O[C@H]2O[C@@H](CO)[C@H](O)[C@H](O)[C@@H]2O)c(-c2ccc(O)cc2)oc2cc(O)cc(O)c12
REMARK SMILES IDX 4 1 3 2 16 3 24 4 2 5 25 6 1 7 32 8 26 9 30 10 27 11 29 12
REMARK SMILES IDX 17 13 18 14 19 15 20 16 23 17 22 18 21 19 31 21 28 23 5 25
REMARK SMILES IDX 14 26 6 27 12 28 7 29 10 30 15 31 13 33 8 35 9 36 11 38
REMARK H PARENT 21 20 31 22 28 24 15 32 13 34 9 37 11 39
REMARK Flexibility Score: inf
ROOT
ATOM      1  O   UNL     1      -3.640   5.898  13.437  1.00  0.00    -0.454 OA
ENDROOT
BRANCH   1   2
ATOM      2  C   UNL     1      -3.861   4.945  14.462  1.00  0.00     0.214 A 
ATOM      3  C   UNL     1      -5.119   4.308  14.509  1.00  0.00     0.180 A 
ATOM      4  O   UNL     1      -5.375   3.362  15.407  1.00  0.00    -0.452 OA
ATOM      5  C   UNL     1      -2.908   4.585  15.447  1.00  0.00     0.239 A 
ATOM      6  C   UNL     1      -4.489   2.955  16.304  1.00  0.00     0.146 A 
ATOM      7  O   UNL     1      -1.800   5.182  15.512  1.00  0.00    -0.285 OA
ATOM      8  C   UNL     1      -3.211   3.558  16.372  1.00  0.00     0.111 A 
ATOM      9  C   UNL     1      -4.832   1.917  17.177  1.00  0.00     0.094 A 
ATOM     10  C   UNL     1      -2.294   3.101  17.350  1.00  0.00     0.134 A 
ATOM     11  C   UNL     1      -3.916   1.456  18.121  1.00  0.00     0.123 A 
ATOM     12  C   UNL     1      -2.652   2.051  18.209  1.00  0.00     0.093 A 
BRANCH   3  13
ATOM     13  C   UNL     1      -6.179   4.649  13.553  1.00  0.00     0.021 A 
ATOM     14  C   UNL     1      -6.100   4.190  12.224  1.00  0.00     0.016 A 
ATOM     15  C   UNL     1      -7.083   4.556  11.297  1.00  0.00     0.047 A 
ATOM     16  C   UNL     1      -8.143   5.397  11.693  1.00  0.00     0.115 A 
ATOM     17  C   UNL     1      -7.234   5.489  13.945  1.00  0.00     0.016 A 
ATOM     18  C   UNL     1      -8.207   5.867  13.012  1.00  0.00     0.047 A 
BRANCH  16  19
ATOM     19  O   UNL     1      -9.125   5.776  10.779  1.00  0.00    -0.508 OA
ATOM     20  H   UNL     1      -9.555   5.104  10.149  1.00  0.00     0.293 HD
ENDBRANCH  16  19
ENDBRANCH   3  13
BRANCH  10  21
ATOM     21  O   UNL     1      -1.034   3.675  17.471  1.00  0.00    -0.507 OA
ATOM     22  H   UNL     1      -0.196   3.169  17.217  1.00  0.00     0.293 HD
ENDBRANCH  10  21
BRANCH  11  23
ATOM     23  O   UNL     1      -4.275   0.404  18.968  1.00  0.00    -0.508 OA
ATOM     24  H   UNL     1      -5.197   0.342  19.379  1.00  0.00     0.293 HD
ENDBRANCH  11  23
ENDBRANCH   1   2
BRANCH   1  25
ATOM     25  C   UNL     1      -3.281   7.280  13.604  1.00  0.00     0.339 C 
ATOM     26  C   UNL     1      -4.468   8.128  14.116  1.00  0.00     0.214 C 
ATOM     27  O   UNL     1      -2.725   7.808  12.406  1.00  0.00    -0.332 OA
ATOM     28  C   UNL     1      -5.544   8.239  13.034  1.00  0.00     0.180 C 
ATOM     29  C   UNL     1      -3.651   7.958  11.337  1.00  0.00     0.179 C 
ATOM     30  C   UNL     1      -4.941   8.739  11.709  1.00  0.00     0.177 C 
BRANCH  26  31
ATOM     31  O   UNL     1      -4.022   9.409  14.484  1.00  0.00    -0.384 OA
ATOM     32  H   UNL     1      -3.030   9.336  14.594  1.00  0.00     0.211 HD
ENDBRANCH  26  31
BRANCH  28  33
ATOM     33  O   UNL     1      -6.561   9.104  13.464  1.00  0.00    -0.387 OA
ATOM     34  H   UNL     1      -6.313   9.405  14.375  1.00  0.00     0.211 HD
ENDBRANCH  28  33
BRANCH  29  35
ATOM     35  C   UNL     1      -3.883   6.642  10.557  1.00  0.00     0.191 C 
BRANCH  35  36
ATOM     36  O   UNL     1      -5.110   6.647   9.881  1.00  0.00    -0.394 OA
ATOM     37  H   UNL     1      -5.298   7.587   9.641  1.00  0.00     0.210 HD
ENDBRANCH  35  36
ENDBRANCH  29  35
BRANCH  30  38
ATOM     38  O   UNL     1      -4.633  10.112  11.804  1.00  0.00    -0.387 OA
ATOM     39  H   UNL     1      -4.645  10.348  12.773  1.00  0.00     0.211 HD
ENDBRANCH  30  38
ENDBRANCH   1  25
TORSDOF 11
ENDMDL
