MODEL 1
REMARK VINA RESULT:    -4.687      0.000      0.000
REMARK INTER + INTRA:          -5.953
REMARK INTER:                  -5.646
REMARK INTRA:                  -0.307
REMARK UNBOUND:                -0.307
REMARK SMILES O=c1c(O)c(-c2ccc(O)cc2O)oc2cc(O)cc(O)c12
REMARK SMILES IDX 5 1 3 2 2 3 1 4 22 5 20 6 19 7 17 8 16 9 15 10 14 11 6 12
REMARK SMILES IDX 8 13 7 14 9 15 11 16 12 17 10 18 13 20 4 22 21 24 18 26
REMARK H PARENT 10 19 13 21 4 23 21 25 18 27
REMARK Flexibility Score: inf
ROOT
ATOM      1  C   UNL     1       3.644   9.368  -0.188  1.00  0.00     0.184 A 
ATOM      2  C   UNL     1       4.929   9.529  -0.726  1.00  0.00     0.208 A 
ATOM      3  C   UNL     1       5.068   9.738  -2.107  1.00  0.00     0.238 A 
ATOM      4  O   UNL     1       6.219   9.936  -2.577  1.00  0.00    -0.285 OA
ATOM      5  C   UNL     1       3.917   9.766  -2.933  1.00  0.00     0.111 A 
ATOM      6  C   UNL     1       3.942   9.931  -4.351  1.00  0.00     0.134 A 
ATOM      7  C   UNL     1       2.737  10.074  -5.050  1.00  0.00     0.093 A 
ATOM      8  C   UNL     1       1.510   9.994  -4.394  1.00  0.00     0.123 A 
ATOM      9  C   UNL     1       1.472   9.774  -3.016  1.00  0.00     0.094 A 
ATOM     10  C   UNL     1       2.658   9.664  -2.286  1.00  0.00     0.146 A 
ATOM     11  O   UNL     1       2.580   9.465  -0.975  1.00  0.00    -0.451 OA
ENDROOT
BRANCH   1  12
ATOM     12  C   UNL     1       3.430   9.128   1.255  1.00  0.00     0.063 A 
ATOM     13  C   UNL     1       2.589   9.929   3.391  1.00  0.00     0.047 A 
ATOM     14  C   UNL     1       2.810  10.125   2.026  1.00  0.00     0.020 A 
ATOM     15  C   UNL     1       2.970   8.727   4.000  1.00  0.00     0.119 A 
ATOM     16  C   UNL     1       3.567   7.720   3.236  1.00  0.00     0.093 A 
ATOM     17  C   UNL     1       3.788   7.907   1.863  1.00  0.00     0.130 A 
BRANCH  15  18
ATOM     18  O   UNL     1       2.758   8.522   5.362  1.00  0.00    -0.508 OA
ATOM     19  H   UNL     1       2.099   9.087   5.886  1.00  0.00     0.293 HD
ENDBRANCH  15  18
BRANCH  17  20
ATOM     20  O   UNL     1       4.339   6.875   1.102  1.00  0.00    -0.507 OA
ATOM     21  H   UNL     1       4.354   5.919   1.435  1.00  0.00     0.293 HD
ENDBRANCH  17  20
ENDBRANCH   1  12
BRANCH   2  22
ATOM     22  O   UNL     1       6.047   9.514   0.114  1.00  0.00    -0.502 OA
ATOM     23  H   UNL     1       6.672  10.306   0.199  1.00  0.00     0.293 HD
ENDBRANCH   2  22
BRANCH   6  24
ATOM     24  O   UNL     1       5.111   9.932  -5.116  1.00  0.00    -0.507 OA
ATOM     25  H   UNL     1       5.160   9.689  -6.094  1.00  0.00     0.293 HD
ENDBRANCH   6  24
BRANCH   8  26
ATOM     26  O   UNL     1       0.330  10.125  -5.124  1.00  0.00    -0.508 OA
ATOM     27  H   UNL     1      -0.551  10.344  -4.673  1.00  0.00     0.293 HD
ENDBRANCH   8  26
TORSDOF 6
ENDMDL
MODEL 2
REMARK VINA RESULT:    -4.674      1.807      7.047
REMARK INTER + INTRA:          -5.938
REMARK INTER:                  -5.899
REMARK INTRA:                  -0.038
REMARK UNBOUND:                -0.307
REMARK SMILES O=c1c(O)c(-c2ccc(O)cc2O)oc2cc(O)cc(O)c12
REMARK SMILES IDX 5 1 3 2 2 3 1 4 22 5 20 6 19 7 17 8 16 9 15 10 14 11 6 12
REMARK SMILES IDX 8 13 7 14 9 15 11 16 12 17 10 18 13 20 4 22 21 24 18 26
REMARK H PARENT 10 19 13 21 4 23 21 25 18 27
REMARK Flexibility Score: inf
ROOT
ATOM      1  C   UNL     1       3.741   9.090  -2.122  1.00  0.00     0.184 A 
ATOM      2  C   UNL     1       2.493   9.451  -1.592  1.00  0.00     0.208 A 
ATOM      3  C   UNL     1       2.212   9.155  -0.249  1.00  0.00     0.238 A 
ATOM      4  O   UNL     1       1.112   9.529   0.235  1.00  0.00    -0.285 OA
ATOM      5  C   UNL     1       3.179   8.488   0.541  1.00  0.00     0.111 A 
ATOM      6  C   UNL     1       2.987   8.102   1.902  1.00  0.00     0.134 A 
ATOM      7  C   UNL     1       4.059   7.563   2.625  1.00  0.00     0.093 A 
ATOM      8  C   UNL     1       5.294   7.336   2.019  1.00  0.00     0.123 A 
ATOM      9  C   UNL     1       5.475   7.655   0.673  1.00  0.00     0.094 A 
ATOM     10  C   UNL     1       4.436   8.227  -0.064  1.00  0.00     0.146 A 
ATOM     11  O   UNL     1       4.653   8.525  -1.340  1.00  0.00    -0.451 OA
ENDROOT
BRANCH   1  12
ATOM     12  C   UNL     1       4.093   9.357  -3.533  1.00  0.00     0.063 A 
ATOM     13  C   UNL     1       3.417   9.413  -5.867  1.00  0.00     0.047 A 
ATOM     14  C   UNL     1       3.119   9.164  -4.525  1.00  0.00     0.020 A 
ATOM     15  C   UNL     1       4.688   9.873  -6.232  1.00  0.00     0.119 A 
ATOM     16  C   UNL     1       5.657  10.090  -5.248  1.00  0.00     0.093 A 
ATOM     17  C   UNL     1       5.364   9.847  -3.897  1.00  0.00     0.130 A 
BRANCH  15  18
ATOM     18  O   UNL     1       4.998  10.121  -7.568  1.00  0.00    -0.508 OA
ATOM     19  H   UNL     1       4.422   9.759  -8.320  1.00  0.00     0.293 HD
ENDBRANCH  15  18
BRANCH  17  20
ATOM     20  O   UNL     1       6.324  10.116  -2.921  1.00  0.00    -0.507 OA
ATOM     21  H   UNL     1       7.315  10.058  -3.120  1.00  0.00     0.293 HD
ENDBRANCH  17  20
ENDBRANCH   1  12
BRANCH   2  22
ATOM     22  O   UNL     1       1.563  10.125  -2.390  1.00  0.00    -0.502 OA
ATOM     23  H   UNL     1       1.835  10.837  -3.056  1.00  0.00     0.293 HD
ENDBRANCH   2  22
BRANCH   6  24
ATOM     24  O   UNL     1       1.766   8.201   2.576  1.00  0.00    -0.507 OA
ATOM     25  H   UNL     1       1.657   8.534   3.522  1.00  0.00     0.293 HD
ENDBRANCH   6  24
BRANCH   8  26
ATOM     26  O   UNL     1       6.333   6.784   2.765  1.00  0.00    -0.508 OA
ATOM     27  H   UNL     1       7.105   6.299   2.321  1.00  0.00     0.293 HD
ENDBRANCH   8  26
TORSDOF 6
ENDMDL
MODEL 3
REMARK VINA RESULT:    -4.492      1.241      1.305
REMARK INTER + INTRA:          -5.718
REMARK INTER:                  -5.744
REMARK INTRA:                   0.026
REMARK UNBOUND:                -0.307
REMARK SMILES O=c1c(O)c(-c2ccc(O)cc2O)oc2cc(O)cc(O)c12
REMARK SMILES IDX 5 1 3 2 2 3 1 4 22 5 20 6 19 7 17 8 16 9 15 10 14 11 6 12
REMARK SMILES IDX 8 13 7 14 9 15 11 16 12 17 10 18 13 20 4 22 21 24 18 26
REMARK H PARENT 10 19 13 21 4 23 21 25 18 27
REMARK Flexibility Score: inf
ROOT
ATOM      1  C   UNL     1       4.017   9.451   0.474  1.00  0.00     0.184 A 
ATOM      2  C   UNL     1       5.301   9.302  -0.072  1.00  0.00     0.208 A 
ATOM      3  C   UNL     1       5.451   9.294  -1.467  1.00  0.00     0.238 A 
ATOM      4  O   UNL     1       6.610   9.214  -1.951  1.00  0.00    -0.285 OA
ATOM      5  C   UNL     1       4.310   9.419  -2.297  1.00  0.00     0.111 A 
ATOM      6  C   UNL     1       4.340   9.384  -3.724  1.00  0.00     0.134 A 
ATOM      7  C   UNL     1       3.168   9.648  -4.446  1.00  0.00     0.093 A 
ATOM      8  C   UNL     1       1.959   9.881  -3.794  1.00  0.00     0.123 A 
ATOM      9  C   UNL     1       1.906   9.860  -2.399  1.00  0.00     0.094 A 
ATOM     10  C   UNL     1       3.065   9.635  -1.652  1.00  0.00     0.146 A 
ATOM     11  O   UNL     1       2.974   9.633  -0.327  1.00  0.00    -0.451 OA
ENDROOT
BRANCH   1  12
ATOM     12  C   UNL     1       3.789   9.451   1.935  1.00  0.00     0.063 A 
ATOM     13  C   UNL     1       4.526  10.125   4.152  1.00  0.00     0.047 A 
ATOM     14  C   UNL     1       4.714  10.101   2.767  1.00  0.00     0.020 A 
ATOM     15  C   UNL     1       3.402   9.512   4.719  1.00  0.00     0.119 A 
ATOM     16  C   UNL     1       2.464   8.883   3.896  1.00  0.00     0.093 A 
ATOM     17  C   UNL     1       2.642   8.859   2.504  1.00  0.00     0.130 A 
BRANCH  15  18
ATOM     18  O   UNL     1       3.206   9.526   6.099  1.00  0.00    -0.508 OA
ATOM     19  H   UNL     1       2.596  10.206   6.540  1.00  0.00     0.293 HD
ENDBRANCH  15  18
BRANCH  17  20
ATOM     20  O   UNL     1       1.673   8.271   1.691  1.00  0.00    -0.507 OA
ATOM     21  H   UNL     1       1.740   8.296   0.680  1.00  0.00     0.293 HD
ENDBRANCH  17  20
ENDBRANCH   1  12
BRANCH   2  22
ATOM     22  O   UNL     1       6.412   9.198   0.772  1.00  0.00    -0.502 OA
ATOM     23  H   UNL     1       7.135   9.906   0.806  1.00  0.00     0.293 HD
ENDBRANCH   2  22
BRANCH   6  24
ATOM     24  O   UNL     1       5.477   9.069  -4.474  1.00  0.00    -0.507 OA
ATOM     25  H   UNL     1       6.129   8.333  -4.249  1.00  0.00     0.293 HD
ENDBRANCH   6  24
BRANCH   8  26
ATOM     26  O   UNL     1       0.809  10.125  -4.544  1.00  0.00    -0.508 OA
ATOM     27  H   UNL     1       0.755  10.903  -5.191  1.00  0.00     0.293 HD
ENDBRANCH   8  26
TORSDOF 6
ENDMDL
MODEL 4
REMARK VINA RESULT:    -4.269      1.211      2.836
REMARK INTER + INTRA:          -5.450
REMARK INTER:                  -5.141
REMARK INTRA:                  -0.309
REMARK UNBOUND:                -0.307
REMARK SMILES O=c1c(O)c(-c2ccc(O)cc2O)oc2cc(O)cc(O)c12
REMARK SMILES IDX 5 1 3 2 2 3 1 4 22 5 20 6 19 7 17 8 16 9 15 10 14 11 6 12
REMARK SMILES IDX 8 13 7 14 9 15 11 16 12 17 10 18 13 20 4 22 21 24 18 26
REMARK H PARENT 10 19 13 21 4 23 21 25 18 27
REMARK Flexibility Score: inf
ROOT
ATOM      1  C   UNL     1       2.975   9.340  -0.605  1.00  0.00     0.184 A 
ATOM      2  C   UNL     1       1.683   9.372  -1.152  1.00  0.00     0.208 A 
ATOM      3  C   UNL     1       1.535   9.533  -2.538  1.00  0.00     0.238 A 
ATOM      4  O   UNL     1       0.376   9.506  -3.030  1.00  0.00    -0.285 OA
ATOM      5  C   UNL     1       2.682   9.675  -3.356  1.00  0.00     0.111 A 
ATOM      6  C   UNL     1       2.649   9.884  -4.768  1.00  0.00     0.134 A 
ATOM      7  C   UNL     1       3.847   9.882  -5.495  1.00  0.00     0.093 A 
ATOM      8  C   UNL     1       5.077   9.744  -4.854  1.00  0.00     0.123 A 
ATOM      9  C   UNL     1       5.124   9.598  -3.467  1.00  0.00     0.094 A 
ATOM     10  C   UNL     1       3.945   9.560  -2.720  1.00  0.00     0.146 A 
ATOM     11  O   UNL     1       4.033   9.410  -1.403  1.00  0.00    -0.451 OA
ENDROOT
BRANCH   1  12
ATOM     12  C   UNL     1       3.200   9.190   0.849  1.00  0.00     0.063 A 
ATOM     13  C   UNL     1       2.814  10.009   3.105  1.00  0.00     0.047 A 
ATOM     14  C   UNL     1       2.627  10.125   1.725  1.00  0.00     0.020 A 
ATOM     15  C   UNL     1       3.565   8.948   3.626  1.00  0.00     0.119 A 
ATOM     16  C   UNL     1       4.119   8.000   2.762  1.00  0.00     0.093 A 
ATOM     17  C   UNL     1       3.931   8.105   1.375  1.00  0.00     0.130 A 
BRANCH  15  18
ATOM     18  O   UNL     1       3.762   8.825   5.000  1.00  0.00    -0.508 OA
ATOM     19  H   UNL     1       3.407   8.028   5.516  1.00  0.00     0.293 HD
ENDBRANCH  15  18
BRANCH  17  20
ATOM     20  O   UNL     1       4.448   7.124   0.529  1.00  0.00    -0.507 OA
ATOM     21  H   UNL     1       5.429   6.873   0.543  1.00  0.00     0.293 HD
ENDBRANCH  17  20
ENDBRANCH   1  12
BRANCH   2  22
ATOM     22  O   UNL     1       0.568   9.210  -0.323  1.00  0.00    -0.502 OA
ATOM     23  H   UNL     1       0.304   8.312   0.061  1.00  0.00     0.293 HD
ENDBRANCH   2  22
BRANCH   6  24
ATOM     24  O   UNL     1       1.479  10.125  -5.494  1.00  0.00    -0.507 OA
ATOM     25  H   UNL     1       0.582  10.339  -5.086  1.00  0.00     0.293 HD
ENDBRANCH   6  24
BRANCH   8  26
ATOM     26  O   UNL     1       6.250   9.762  -5.607  1.00  0.00    -0.508 OA
ATOM     27  H   UNL     1       6.271   9.423  -6.562  1.00  0.00     0.293 HD
ENDBRANCH   8  26
TORSDOF 6
ENDMDL
