MODEL 1
REMARK VINA RESULT:    -6.938      0.000      0.000
REMARK INTER + INTRA:         -11.676
REMARK INTER:                 -10.182
REMARK INTRA:                  -1.494
REMARK UNBOUND:                -1.494
REMARK SMILES O=c1c(O[C@H]2O[C@H](CO)[C@H](O)[C@H](O)[C@@H]2O)c(-c2ccc(O)c(O)c2)oc2cc(O)cc(O)c12
REMARK SMILES IDX 4 1 3 2 16 3 25 4 2 5 26 6 1 7 33 8 27 9 31 10 28 11 30 12
REMARK SMILES IDX 17 13 18 14 19 15 20 16 24 17 22 18 21 19 23 21 32 23 29 25
REMARK SMILES IDX 5 27 14 28 6 29 12 30 7 31 10 32 15 33 13 35 8 37 9 38 11 40
REMARK H PARENT 21 20 23 22 32 24 29 26 15 34 13 36 9 39 11 41
REMARK Flexibility Score: inf
ROOT
ATOM      1  O   UNL     1      -0.001 -20.043  27.760  1.00  0.00    -0.454 OA
ENDROOT
BRANCH   1   2
ATOM      2  C   UNL     1      -0.224 -21.305  28.325  1.00  0.00     0.214 A 
ATOM      3  C   UNL     1       0.312 -22.477  27.759  1.00  0.00     0.180 A 
ATOM      4  O   UNL     1       0.104 -23.649  28.348  1.00  0.00    -0.452 OA
ATOM      5  C   UNL     1      -1.021 -21.409  29.469  1.00  0.00     0.239 A 
ATOM      6  C   UNL     1      -0.619 -23.792  29.452  1.00  0.00     0.146 A 
ATOM      7  O   UNL     1      -1.567 -20.365  29.910  1.00  0.00    -0.285 OA
ATOM      8  C   UNL     1      -1.209 -22.669  30.089  1.00  0.00     0.111 A 
ATOM      9  C   UNL     1      -0.806 -25.080  29.963  1.00  0.00     0.094 A 
ATOM     10  C   UNL     1      -1.961 -22.884  31.284  1.00  0.00     0.134 A 
ATOM     11  C   UNL     1      -1.591 -25.283  31.096  1.00  0.00     0.123 A 
ATOM     12  C   UNL     1      -2.162 -24.190  31.748  1.00  0.00     0.093 A 
BRANCH   3  13
ATOM     13  C   UNL     1       1.077 -22.461  26.496  1.00  0.00     0.025 A 
ATOM     14  C   UNL     1       2.464 -22.246  26.494  1.00  0.00     0.016 A 
ATOM     15  C   UNL     1       3.174 -22.228  25.291  1.00  0.00     0.051 A 
ATOM     16  C   UNL     1       2.507 -22.427  24.075  1.00  0.00     0.157 A 
ATOM     17  C   UNL     1       0.410 -22.656  25.274  1.00  0.00     0.062 A 
ATOM     18  C   UNL     1       1.119 -22.648  24.067  1.00  0.00     0.158 A 
BRANCH  16  19
ATOM     19  O   UNL     1       3.217 -22.403  22.875  1.00  0.00    -0.504 OA
ATOM     20  H   UNL     1       2.946 -21.794  22.110  1.00  0.00     0.293 HD
ENDBRANCH  16  19
BRANCH  18  21
ATOM     21  O   UNL     1       0.428 -22.866  22.875  1.00  0.00    -0.504 OA
ATOM     22  H   UNL     1      -0.137 -23.691  22.723  1.00  0.00     0.293 HD
ENDBRANCH  18  21
ENDBRANCH   3  13
BRANCH  10  23
ATOM     23  O   UNL     1      -2.513 -21.858  32.059  1.00  0.00    -0.507 OA
ATOM     24  H   UNL     1      -2.917 -21.977  32.973  1.00  0.00     0.293 HD
ENDBRANCH  10  23
BRANCH  11  25
ATOM     25  O   UNL     1      -1.808 -26.570  31.590  1.00  0.00    -0.508 OA
ATOM     26  H   UNL     1      -1.065 -27.101  32.031  1.00  0.00     0.293 HD
ENDBRANCH  11  25
ENDBRANCH   1   2
BRANCH   1  27
ATOM     27  C   UNL     1      -0.802 -19.505  26.700  1.00  0.00     0.339 C 
ATOM     28  C   UNL     1       0.081 -18.973  25.554  1.00  0.00     0.214 C 
ATOM     29  O   UNL     1      -1.683 -18.508  27.197  1.00  0.00    -0.332 OA
ATOM     30  C   UNL     1       0.815 -17.685  25.985  1.00  0.00     0.180 C 
ATOM     31  C   UNL     1      -0.973 -17.408  27.746  1.00  0.00     0.179 C 
ATOM     32  C   UNL     1      -0.150 -16.685  26.646  1.00  0.00     0.177 C 
BRANCH  28  33
ATOM     33  O   UNL     1      -0.723 -18.734  24.426  1.00  0.00    -0.384 OA
ATOM     34  H   UNL     1      -0.439 -17.862  24.043  1.00  0.00     0.211 HD
ENDBRANCH  28  33
BRANCH  30  35
ATOM     35  O   UNL     1       1.449 -17.080  24.887  1.00  0.00    -0.387 OA
ATOM     36  H   UNL     1       1.109 -16.149  24.838  1.00  0.00     0.211 HD
ENDBRANCH  30  35
BRANCH  31  37
ATOM     37  C   UNL     1      -1.978 -16.469  28.425  1.00  0.00     0.191 C 
BRANCH  37  38
ATOM     38  O   UNL     1      -3.188 -16.429  27.711  1.00  0.00    -0.394 OA
ATOM     39  H   UNL     1      -3.913 -16.310  28.379  1.00  0.00     0.210 HD
ENDBRANCH  37  38
ENDBRANCH  31  37
BRANCH  32  40
ATOM     40  O   UNL     1      -0.962 -16.053  25.682  1.00  0.00    -0.387 OA
ATOM     41  H   UNL     1      -0.784 -15.078  25.708  1.00  0.00     0.211 HD
ENDBRANCH  32  40
ENDBRANCH   1  27
TORSDOF 12
ENDMDL
MODEL 2
REMARK VINA RESULT:    -6.881      1.458      1.843
REMARK INTER + INTRA:         -11.592
REMARK INTER:                 -10.350
REMARK INTRA:                  -1.242
REMARK UNBOUND:                -1.494
REMARK SMILES O=c1c(O[C@H]2O[C@H](CO)[C@H](O)[C@H](O)[C@@H]2O)c(-c2ccc(O)c(O)c2)oc2cc(O)cc(O)c12
REMARK SMILES IDX 4 1 3 2 16 3 25 4 2 5 26 6 1 7 33 8 27 9 31 10 28 11 30 12
REMARK SMILES IDX 17 13 18 14 19 15 20 16 24 17 22 18 21 19 23 21 32 23 29 25
REMARK SMILES IDX 5 27 14 28 6 29 12 30 7 31 10 32 15 33 13 35 8 37 9 38 11 40
REMARK H PARENT 21 20 23 22 32 24 29 26 15 34 13 36 9 39 11 41
REMARK Flexibility Score: inf
ROOT
ATOM      1  O   UNL     1      -0.022 -21.037  28.567  1.00  0.00    -0.454 OA
ENDROOT
BRANCH   1   2
ATOM      2  C   UNL     1      -0.235 -22.362  28.966  1.00  0.00     0.214 A 
ATOM      3  C   UNL     1       0.385 -23.444  28.311  1.00  0.00     0.180 A 
ATOM      4  O   UNL     1       0.181 -24.682  28.746  1.00  0.00    -0.452 OA
ATOM      5  C   UNL     1      -1.107 -22.623  30.027  1.00  0.00     0.239 A 
ATOM      6  C   UNL     1      -0.613 -24.975  29.769  1.00  0.00     0.146 A 
ATOM      7  O   UNL     1      -1.724 -21.655  30.542  1.00  0.00    -0.285 OA
ATOM      8  C   UNL     1      -1.290 -23.952  30.484  1.00  0.00     0.111 A 
ATOM      9  C   UNL     1      -0.786 -26.318  30.114  1.00  0.00     0.094 A 
ATOM     10  C   UNL     1      -2.116 -24.328  31.586  1.00  0.00     0.134 A 
ATOM     11  C   UNL     1      -1.641 -26.676  31.154  1.00  0.00     0.123 A 
ATOM     12  C   UNL     1      -2.299 -25.684  31.881  1.00  0.00     0.093 A 
BRANCH   3  13
ATOM     13  C   UNL     1       1.237 -23.258  27.120  1.00  0.00     0.025 A 
ATOM     14  C   UNL     1       2.522 -22.703  27.230  1.00  0.00     0.016 A 
ATOM     15  C   UNL     1       3.314 -22.529  26.093  1.00  0.00     0.051 A 
ATOM     16  C   UNL     1       2.833 -22.906  24.832  1.00  0.00     0.157 A 
ATOM     17  C   UNL     1       0.756 -23.631  25.853  1.00  0.00     0.062 A 
ATOM     18  C   UNL     1       1.550 -23.466  24.713  1.00  0.00     0.158 A 
BRANCH  16  19
ATOM     19  O   UNL     1       3.624 -22.724  23.698  1.00  0.00    -0.504 OA
ATOM     20  H   UNL     1       3.505 -21.921  23.091  1.00  0.00     0.293 HD
ENDBRANCH  16  19
BRANCH  18  21
ATOM     21  O   UNL     1       1.048 -23.867  23.474  1.00  0.00    -0.504 OA
ATOM     22  H   UNL     1       0.059 -23.850  23.263  1.00  0.00     0.293 HD
ENDBRANCH  18  21
ENDBRANCH   3  13
BRANCH  10  23
ATOM     23  O   UNL     1      -2.762 -23.417  32.429  1.00  0.00    -0.507 OA
ATOM     24  H   UNL     1      -3.346 -23.665  33.210  1.00  0.00     0.293 HD
ENDBRANCH  10  23
BRANCH  11  25
ATOM     25  O   UNL     1      -1.843 -28.018  31.480  1.00  0.00    -0.508 OA
ATOM     26  H   UNL     1      -2.630 -28.541  31.112  1.00  0.00     0.293 HD
ENDBRANCH  11  25
ENDBRANCH   1   2
BRANCH   1  27
ATOM     27  C   UNL     1      -1.065 -20.189  28.072  1.00  0.00     0.339 C 
ATOM     28  C   UNL     1      -1.504 -20.619  26.657  1.00  0.00     0.214 C 
ATOM     29  O   UNL     1      -0.663 -18.827  28.111  1.00  0.00    -0.332 OA
ATOM     30  C   UNL     1      -0.407 -20.287  25.623  1.00  0.00     0.180 C 
ATOM     31  C   UNL     1       0.461 -18.589  27.278  1.00  0.00     0.179 C 
ATOM     32  C   UNL     1       0.102 -18.844  25.789  1.00  0.00     0.177 C 
BRANCH  28  33
ATOM     33  O   UNL     1      -2.708 -19.969  26.331  1.00  0.00    -0.384 OA
ATOM     34  H   UNL     1      -3.328 -20.661  25.981  1.00  0.00     0.211 HD
ENDBRANCH  28  33
BRANCH  30  35
ATOM     35  O   UNL     1      -0.880 -20.477  24.314  1.00  0.00    -0.387 OA
ATOM     36  H   UNL     1      -0.354 -19.872  23.729  1.00  0.00     0.211 HD
ENDBRANCH  30  35
BRANCH  31  37
ATOM     37  C   UNL     1       0.950 -17.154  27.515  1.00  0.00     0.191 C 
BRANCH  37  38
ATOM     38  O   UNL     1      -0.131 -16.256  27.542  1.00  0.00    -0.394 OA
ATOM     39  H   UNL     1       0.031 -15.633  28.299  1.00  0.00     0.210 HD
ENDBRANCH  37  38
ENDBRANCH  31  37
BRANCH  32  40
ATOM     40  O   UNL     1      -0.833 -17.917  25.285  1.00  0.00    -0.387 OA
ATOM     41  H   UNL     1      -1.744 -18.285  25.410  1.00  0.00     0.211 HD
ENDBRANCH  32  40
ENDBRANCH   1  27
TORSDOF 12
ENDMDL
MODEL 3
REMARK VINA RESULT:    -6.710      2.006      7.526
REMARK INTER + INTRA:         -11.342
REMARK INTER:                 -10.017
REMARK INTRA:                  -1.324
REMARK UNBOUND:                -1.494
REMARK SMILES O=c1c(O[C@H]2O[C@H](CO)[C@H](O)[C@H](O)[C@@H]2O)c(-c2ccc(O)c(O)c2)oc2cc(O)cc(O)c12
REMARK SMILES IDX 4 1 3 2 16 3 25 4 2 5 26 6 1 7 33 8 27 9 31 10 28 11 30 12
REMARK SMILES IDX 17 13 18 14 19 15 20 16 24 17 22 18 21 19 23 21 32 23 29 25
REMARK SMILES IDX 5 27 14 28 6 29 12 30 7 31 10 32 15 33 13 35 8 37 9 38 11 40
REMARK H PARENT 21 20 23 22 32 24 29 26 15 34 13 36 9 39 11 41
REMARK Flexibility Score: inf
ROOT
ATOM      1  O   UNL     1       1.161 -20.552  26.315  1.00  0.00    -0.454 OA
ENDROOT
BRANCH   1   2
ATOM      2  C   UNL     1       0.445 -19.364  26.504  1.00  0.00     0.214 A 
ATOM      3  C   UNL     1      -0.110 -19.022  27.753  1.00  0.00     0.180 A 
ATOM      4  O   UNL     1      -0.752 -17.868  27.895  1.00  0.00    -0.452 OA
ATOM      5  C   UNL     1       0.252 -18.502  25.420  1.00  0.00     0.239 A 
ATOM      6  C   UNL     1      -0.932 -17.005  26.902  1.00  0.00     0.146 A 
ATOM      7  O   UNL     1       0.675 -18.864  24.291  1.00  0.00    -0.285 OA
ATOM      8  C   UNL     1      -0.418 -17.268  25.605  1.00  0.00     0.111 A 
ATOM      9  C   UNL     1      -1.658 -15.839  27.158  1.00  0.00     0.094 A 
ATOM     10  C   UNL     1      -0.627 -16.293  24.583  1.00  0.00     0.134 A 
ATOM     11  C   UNL     1      -1.907 -14.924  26.137  1.00  0.00     0.123 A 
ATOM     12  C   UNL     1      -1.393 -15.155  24.861  1.00  0.00     0.093 A 
BRANCH   3  13
ATOM     13  C   UNL     1      -0.039 -19.925  28.918  1.00  0.00     0.025 A 
ATOM     14  C   UNL     1       1.128 -20.014  29.694  1.00  0.00     0.016 A 
ATOM     15  C   UNL     1       1.182 -20.877  30.790  1.00  0.00     0.051 A 
ATOM     16  C   UNL     1       0.072 -21.663  31.127  1.00  0.00     0.157 A 
ATOM     17  C   UNL     1      -1.150 -20.718  29.256  1.00  0.00     0.062 A 
ATOM     18  C   UNL     1      -1.102 -21.577  30.359  1.00  0.00     0.158 A 
BRANCH  16  19
ATOM     19  O   UNL     1       0.132 -22.528  32.218  1.00  0.00    -0.504 OA
ATOM     20  H   UNL     1       0.667 -22.299  33.048  1.00  0.00     0.293 HD
ENDBRANCH  16  19
BRANCH  18  21
ATOM     21  O   UNL     1      -2.231 -22.333  30.677  1.00  0.00    -0.504 OA
ATOM     22  H   UNL     1      -2.345 -22.777  31.580  1.00  0.00     0.293 HD
ENDBRANCH  18  21
ENDBRANCH   3  13
BRANCH  10  23
ATOM     23  O   UNL     1      -0.096 -16.384  23.292  1.00  0.00    -0.507 OA
ATOM     24  H   UNL     1       0.319 -17.211  22.894  1.00  0.00     0.293 HD
ENDBRANCH  10  23
BRANCH  11  25
ATOM     25  O   UNL     1      -2.661 -13.775  26.378  1.00  0.00    -0.508 OA
ATOM     26  H   UNL     1      -3.619 -13.691  26.057  1.00  0.00     0.293 HD
ENDBRANCH  11  25
ENDBRANCH   1   2
BRANCH   1  27
ATOM     27  C   UNL     1       0.560 -21.851  26.394  1.00  0.00     0.339 C 
ATOM     28  C   UNL     1       1.450 -22.824  27.194  1.00  0.00     0.214 C 
ATOM     29  O   UNL     1       0.269 -22.346  25.095  1.00  0.00    -0.332 OA
ATOM     30  C   UNL     1       2.717 -23.188  26.392  1.00  0.00     0.180 C 
ATOM     31  C   UNL     1       1.446 -22.507  24.319  1.00  0.00     0.179 C 
ATOM     32  C   UNL     1       2.371 -23.585  24.946  1.00  0.00     0.177 C 
BRANCH  28  33
ATOM     33  O   UNL     1       0.708 -23.978  27.502  1.00  0.00    -0.384 OA
ATOM     34  H   UNL     1       0.720 -24.558  26.696  1.00  0.00     0.211 HD
ENDBRANCH  28  33
BRANCH  30  35
ATOM     35  O   UNL     1       3.422 -24.230  27.015  1.00  0.00    -0.387 OA
ATOM     36  H   UNL     1       2.863 -24.539  27.775  1.00  0.00     0.211 HD
ENDBRANCH  30  35
BRANCH  31  37
ATOM     37  C   UNL     1       1.040 -22.861  22.883  1.00  0.00     0.191 C 
BRANCH  37  38
ATOM     38  O   UNL     1       0.015 -23.823  22.875  1.00  0.00    -0.394 OA
ATOM     39  H   UNL     1       0.165 -24.410  23.663  1.00  0.00     0.210 HD
ENDBRANCH  37  38
ENDBRANCH  31  37
BRANCH  32  40
ATOM     40  O   UNL     1       1.813 -24.880  24.897  1.00  0.00    -0.387 OA
ATOM     41  H   UNL     1       2.386 -25.450  24.324  1.00  0.00     0.211 HD
ENDBRANCH  32  40
ENDBRANCH   1  27
TORSDOF 12
ENDMDL
MODEL 4
REMARK VINA RESULT:    -6.689      1.406      2.409
REMARK INTER + INTRA:         -11.311
REMARK INTER:                  -9.637
REMARK INTRA:                  -1.674
REMARK UNBOUND:                -1.494
REMARK SMILES O=c1c(O[C@H]2O[C@H](CO)[C@H](O)[C@H](O)[C@@H]2O)c(-c2ccc(O)c(O)c2)oc2cc(O)cc(O)c12
REMARK SMILES IDX 4 1 3 2 16 3 25 4 2 5 26 6 1 7 33 8 27 9 31 10 28 11 30 12
REMARK SMILES IDX 17 13 18 14 19 15 20 16 24 17 22 18 21 19 23 21 32 23 29 25
REMARK SMILES IDX 5 27 14 28 6 29 12 30 7 31 10 32 15 33 13 35 8 37 9 38 11 40
REMARK H PARENT 21 20 23 22 32 24 29 26 15 34 13 36 9 39 11 41
REMARK Flexibility Score: inf
ROOT
ATOM      1  O   UNL     1      -0.955 -20.048  27.972  1.00  0.00    -0.454 OA
ENDROOT
BRANCH   1   2
ATOM      2  C   UNL     1      -0.707 -21.390  28.289  1.00  0.00     0.214 A 
ATOM      3  C   UNL     1       0.190 -22.176  27.540  1.00  0.00     0.180 A 
ATOM      4  O   UNL     1       0.421 -23.434  27.897  1.00  0.00    -0.452 OA
ATOM      5  C   UNL     1      -1.386 -21.975  29.362  1.00  0.00     0.239 A 
ATOM      6  C   UNL     1      -0.177 -24.022  28.927  1.00  0.00     0.146 A 
ATOM      7  O   UNL     1      -2.251 -21.287  29.963  1.00  0.00    -0.285 OA
ATOM      8  C   UNL     1      -1.105 -23.312  29.734  1.00  0.00     0.111 A 
ATOM      9  C   UNL     1       0.113 -25.364  29.186  1.00  0.00     0.094 A 
ATOM     10  C   UNL     1      -1.702 -23.993  30.838  1.00  0.00     0.134 A 
ATOM     11  C   UNL     1      -0.521 -26.034  30.231  1.00  0.00     0.123 A 
ATOM     12  C   UNL     1      -1.421 -25.348  31.047  1.00  0.00     0.093 A 
BRANCH   3  13
ATOM     13  C   UNL     1       0.867 -21.661  26.333  1.00  0.00     0.025 A 
ATOM     14  C   UNL     1       2.250 -21.418  26.328  1.00  0.00     0.016 A 
ATOM     15  C   UNL     1       2.876 -20.926  25.180  1.00  0.00     0.051 A 
ATOM     16  C   UNL     1       2.128 -20.672  24.023  1.00  0.00     0.157 A 
ATOM     17  C   UNL     1       0.120 -21.400  25.171  1.00  0.00     0.062 A 
ATOM     18  C   UNL     1       0.745 -20.916  24.017  1.00  0.00     0.158 A 
BRANCH  16  19
ATOM     19  O   UNL     1       2.755 -20.175  22.881  1.00  0.00    -0.504 OA
ATOM     20  H   UNL     1       2.247 -19.635  22.189  1.00  0.00     0.293 HD
ENDBRANCH  16  19
BRANCH  18  21
ATOM     21  O   UNL     1      -0.025 -20.689  22.875  1.00  0.00    -0.504 OA
ATOM     22  H   UNL     1      -0.608 -19.869  22.774  1.00  0.00     0.293 HD
ENDBRANCH  18  21
ENDBRANCH   3  13
BRANCH  10  23
ATOM     23  O   UNL     1      -2.557 -23.386  31.764  1.00  0.00    -0.507 OA
ATOM     24  H   UNL     1      -2.273 -22.723  32.466  1.00  0.00     0.293 HD
ENDBRANCH  10  23
BRANCH  11  25
ATOM     25  O   UNL     1      -0.261 -27.383  30.473  1.00  0.00    -0.508 OA
ATOM     26  H   UNL     1       0.412 -27.676  31.173  1.00  0.00     0.293 HD
ENDBRANCH  11  25
ENDBRANCH   1   2
BRANCH   1  27
ATOM     27  C   UNL     1      -0.245 -18.957  28.570  1.00  0.00     0.339 C 
ATOM     28  C   UNL     1      -1.221 -17.898  29.123  1.00  0.00     0.214 C 
ATOM     29  O   UNL     1       0.678 -18.397  27.648  1.00  0.00    -0.332 OA
ATOM     30  C   UNL     1      -1.911 -17.139  27.969  1.00  0.00     0.180 C 
ATOM     31  C   UNL     1       0.021 -17.858  26.511  1.00  0.00     0.179 C 
ATOM     32  C   UNL     1      -0.890 -16.668  26.918  1.00  0.00     0.177 C 
BRANCH  28  33
ATOM     33  O   UNL     1      -0.514 -17.008  29.951  1.00  0.00    -0.384 OA
ATOM     34  H   UNL     1      -1.111 -16.778  30.710  1.00  0.00     0.211 HD
ENDBRANCH  28  33
BRANCH  30  35
ATOM     35  O   UNL     1      -2.633 -16.038  28.457  1.00  0.00    -0.387 OA
ATOM     36  H   UNL     1      -2.582 -16.077  29.447  1.00  0.00     0.211 HD
ENDBRANCH  30  35
BRANCH  31  37
ATOM     37  C   UNL     1       1.083 -17.445  25.484  1.00  0.00     0.191 C 
BRANCH  37  38
ATOM     38  O   UNL     1       0.602 -16.419  24.652  1.00  0.00    -0.394 OA
ATOM     39  H   UNL     1       1.298 -16.259  23.961  1.00  0.00     0.210 HD
ENDBRANCH  37  38
ENDBRANCH  31  37
BRANCH  32  40
ATOM     40  O   UNL     1      -0.160 -15.555  27.385  1.00  0.00    -0.387 OA
ATOM     41  H   UNL     1       0.781 -15.646  27.088  1.00  0.00     0.211 HD
ENDBRANCH  32  40
ENDBRANCH   1  27
TORSDOF 12
ENDMDL
MODEL 5
REMARK VINA RESULT:    -6.688      2.749      8.177
REMARK INTER + INTRA:         -11.309
REMARK INTER:                 -10.198
REMARK INTRA:                  -1.111
REMARK UNBOUND:                -1.494
REMARK SMILES O=c1c(O[C@H]2O[C@H](CO)[C@H](O)[C@H](O)[C@@H]2O)c(-c2ccc(O)c(O)c2)oc2cc(O)cc(O)c12
REMARK SMILES IDX 4 1 3 2 16 3 25 4 2 5 26 6 1 7 33 8 27 9 31 10 28 11 30 12
REMARK SMILES IDX 17 13 18 14 19 15 20 16 24 17 22 18 21 19 23 21 32 23 29 25
REMARK SMILES IDX 5 27 14 28 6 29 12 30 7 31 10 32 15 33 13 35 8 37 9 38 11 40
REMARK H PARENT 21 20 23 22 32 24 29 26 15 34 13 36 9 39 11 41
REMARK Flexibility Score: inf
ROOT
ATOM      1  O   UNL     1       0.952 -24.507  27.635  1.00  0.00    -0.454 OA
ENDROOT
BRANCH   1   2
ATOM      2  C   UNL     1       0.580 -23.201  27.293  1.00  0.00     0.214 A 
ATOM      3  C   UNL     1      -0.136 -22.376  28.182  1.00  0.00     0.180 A 
ATOM      4  O   UNL     1      -0.438 -21.132  27.828  1.00  0.00    -0.452 OA
ATOM      5  C   UNL     1       0.905 -22.709  26.025  1.00  0.00     0.239 A 
ATOM      6  C   UNL     1      -0.122 -20.611  26.648  1.00  0.00     0.146 A 
ATOM      7  O   UNL     1       1.463 -23.488  25.210  1.00  0.00    -0.285 OA
ATOM      8  C   UNL     1       0.590 -21.371  25.682  1.00  0.00     0.111 A 
ATOM      9  C   UNL     1      -0.526 -19.303  26.369  1.00  0.00     0.094 A 
ATOM     10  C   UNL     1       0.916 -20.751  24.438  1.00  0.00     0.134 A 
ATOM     11  C   UNL     1      -0.253 -18.729  25.128  1.00  0.00     0.123 A 
ATOM     12  C   UNL     1       0.462 -19.453  24.174  1.00  0.00     0.093 A 
BRANCH   3  13
ATOM     13  C   UNL     1      -0.604 -22.857  29.497  1.00  0.00     0.025 A 
ATOM     14  C   UNL     1      -1.820 -23.547  29.623  1.00  0.00     0.016 A 
ATOM     15  C   UNL     1      -2.252 -23.992  30.874  1.00  0.00     0.051 A 
ATOM     16  C   UNL     1      -1.475 -23.753  32.016  1.00  0.00     0.157 A 
ATOM     17  C   UNL     1       0.171 -22.615  30.644  1.00  0.00     0.062 A 
ATOM     18  C   UNL     1      -0.254 -23.067  31.898  1.00  0.00     0.158 A 
BRANCH  16  19
ATOM     19  O   UNL     1      -1.912 -24.193  33.264  1.00  0.00    -0.504 OA
ATOM     20  H   UNL     1      -2.811 -23.911  33.641  1.00  0.00     0.293 HD
ENDBRANCH  16  19
BRANCH  18  21
ATOM     21  O   UNL     1       0.551 -22.828  33.013  1.00  0.00    -0.504 OA
ATOM     22  H   UNL     1       1.439 -22.348  32.942  1.00  0.00     0.293 HD
ENDBRANCH  18  21
ENDBRANCH   3  13
BRANCH  10  23
ATOM     23  O   UNL     1       1.691 -21.352  23.441  1.00  0.00    -0.507 OA
ATOM     24  H   UNL     1       1.597 -21.182  22.454  1.00  0.00     0.293 HD
ENDBRANCH  10  23
BRANCH  11  25
ATOM     25  O   UNL     1      -0.684 -17.436  24.832  1.00  0.00    -0.508 OA
ATOM     26  H   UNL     1      -1.002 -16.803  25.558  1.00  0.00     0.293 HD
ENDBRANCH  11  25
ENDBRANCH   1   2
BRANCH   1  27
ATOM     27  C   UNL     1       2.306 -24.975  27.590  1.00  0.00     0.339 C 
ATOM     28  C   UNL     1       2.364 -26.513  27.686  1.00  0.00     0.214 C 
ATOM     29  O   UNL     1       3.083 -24.351  28.601  1.00  0.00    -0.332 OA
ATOM     30  C   UNL     1       1.989 -26.984  29.107  1.00  0.00     0.180 C 
ATOM     31  C   UNL     1       2.604 -24.667  29.900  1.00  0.00     0.179 C 
ATOM     32  C   UNL     1       2.750 -26.187  30.181  1.00  0.00     0.177 C 
BRANCH  28  33
ATOM     33  O   UNL     1       3.657 -26.947  27.343  1.00  0.00    -0.384 OA
ATOM     34  H   UNL     1       4.115 -27.197  28.188  1.00  0.00     0.211 HD
ENDBRANCH  28  33
BRANCH  30  35
ATOM     35  O   UNL     1       2.244 -28.356  29.263  1.00  0.00    -0.387 OA
ATOM     36  H   UNL     1       3.230 -28.460  29.313  1.00  0.00     0.211 HD
ENDBRANCH  30  35
BRANCH  31  37
ATOM     37  C   UNL     1       3.368 -23.816  30.922  1.00  0.00     0.191 C 
BRANCH  37  38
ATOM     38  O   UNL     1       3.243 -24.355  32.215  1.00  0.00    -0.394 OA
ATOM     39  H   UNL     1       3.961 -23.947  32.768  1.00  0.00     0.210 HD
ENDBRANCH  37  38
ENDBRANCH  31  37
BRANCH  32  40
ATOM     40  O   UNL     1       4.096 -26.603  30.260  1.00  0.00    -0.387 OA
ATOM     41  H   UNL     1       4.560 -26.332  29.428  1.00  0.00     0.211 HD
ENDBRANCH  32  40
ENDBRANCH   1  27
TORSDOF 12
ENDMDL
MODEL 6
REMARK VINA RESULT:    -6.664      1.505      4.526
REMARK INTER + INTRA:         -11.274
REMARK INTER:                  -9.567
REMARK INTRA:                  -1.708
REMARK UNBOUND:                -1.494
REMARK SMILES O=c1c(O[C@H]2O[C@H](CO)[C@H](O)[C@H](O)[C@@H]2O)c(-c2ccc(O)c(O)c2)oc2cc(O)cc(O)c12
REMARK SMILES IDX 4 1 3 2 16 3 25 4 2 5 26 6 1 7 33 8 27 9 31 10 28 11 30 12
REMARK SMILES IDX 17 13 18 14 19 15 20 16 24 17 22 18 21 19 23 21 32 23 29 25
REMARK SMILES IDX 5 27 14 28 6 29 12 30 7 31 10 32 15 33 13 35 8 37 9 38 11 40
REMARK H PARENT 21 20 23 22 32 24 29 26 15 34 13 36 9 39 11 41
REMARK Flexibility Score: inf
ROOT
ATOM      1  O   UNL     1       0.774 -21.095  26.794  1.00  0.00    -0.454 OA
ENDROOT
BRANCH   1   2
ATOM      2  C   UNL     1       0.151 -21.733  27.875  1.00  0.00     0.214 A 
ATOM      3  C   UNL     1      -0.563 -21.012  28.852  1.00  0.00     0.180 A 
ATOM      4  O   UNL     1      -1.166 -21.661  29.841  1.00  0.00    -0.452 OA
ATOM      5  C   UNL     1       0.261 -23.121  28.004  1.00  0.00     0.239 A 
ATOM      6  C   UNL     1      -1.115 -22.980  29.986  1.00  0.00     0.146 A 
ATOM      7  O   UNL     1       0.977 -23.740  27.176  1.00  0.00    -0.285 OA
ATOM      8  C   UNL     1      -0.410 -23.790  29.057  1.00  0.00     0.111 A 
ATOM      9  C   UNL     1      -1.755 -23.553  31.088  1.00  0.00     0.094 A 
ATOM     10  C   UNL     1      -0.407 -25.204  29.256  1.00  0.00     0.134 A 
ATOM     11  C   UNL     1      -1.695 -24.928  31.304  1.00  0.00     0.123 A 
ATOM     12  C   UNL     1      -1.024 -25.743  30.391  1.00  0.00     0.093 A 
BRANCH   3  13
ATOM     13  C   UNL     1      -0.637 -19.537  28.842  1.00  0.00     0.025 A 
ATOM     14  C   UNL     1       0.401 -18.757  29.375  1.00  0.00     0.016 A 
ATOM     15  C   UNL     1       0.313 -17.363  29.363  1.00  0.00     0.051 A 
ATOM     16  C   UNL     1      -0.812 -16.731  28.818  1.00  0.00     0.157 A 
ATOM     17  C   UNL     1      -1.767 -18.900  28.300  1.00  0.00     0.062 A 
ATOM     18  C   UNL     1      -1.854 -17.503  28.278  1.00  0.00     0.158 A 
BRANCH  16  19
ATOM     19  O   UNL     1      -0.898 -15.339  28.813  1.00  0.00    -0.504 OA
ATOM     20  H   UNL     1      -0.629 -14.794  28.002  1.00  0.00     0.293 HD
ENDBRANCH  16  19
BRANCH  18  21
ATOM     21  O   UNL     1      -2.980 -16.904  27.713  1.00  0.00    -0.504 OA
ATOM     22  H   UNL     1      -2.972 -15.948  27.381  1.00  0.00     0.293 HD
ENDBRANCH  18  21
ENDBRANCH   3  13
BRANCH  10  23
ATOM     23  O   UNL     1       0.167 -26.119  28.368  1.00  0.00    -0.507 OA
ATOM     24  H   UNL     1      -0.292 -26.937  28.003  1.00  0.00     0.293 HD
ENDBRANCH  10  23
BRANCH  11  25
ATOM     25  O   UNL     1      -2.303 -25.501  32.421  1.00  0.00    -0.508 OA
ATOM     26  H   UNL     1      -2.647 -26.455  32.407  1.00  0.00     0.293 HD
ENDBRANCH  11  25
ENDBRANCH   1   2
BRANCH   1  27
ATOM     27  C   UNL     1       0.163 -20.961  25.505  1.00  0.00     0.339 C 
ATOM     28  C   UNL     1       1.117 -21.432  24.389  1.00  0.00     0.214 C 
ATOM     29  O   UNL     1      -0.278 -19.627  25.298  1.00  0.00    -0.332 OA
ATOM     30  C   UNL     1       2.283 -20.435  24.213  1.00  0.00     0.180 C 
ATOM     31  C   UNL     1       0.805 -18.709  25.314  1.00  0.00     0.179 C 
ATOM     32  C   UNL     1       1.774 -18.985  24.132  1.00  0.00     0.177 C 
BRANCH  28  33
ATOM     33  O   UNL     1       0.393 -21.566  23.191  1.00  0.00    -0.384 OA
ATOM     34  H   UNL     1       0.738 -22.375  22.730  1.00  0.00     0.211 HD
ENDBRANCH  28  33
BRANCH  30  35
ATOM     35  O   UNL     1       3.032 -20.740  23.065  1.00  0.00    -0.387 OA
ATOM     36  H   UNL     1       3.821 -20.138  23.069  1.00  0.00     0.211 HD
ENDBRANCH  30  35
BRANCH  31  37
ATOM     37  C   UNL     1       0.239 -17.284  25.274  1.00  0.00     0.191 C 
BRANCH  37  38
ATOM     38  O   UNL     1       1.177 -16.387  24.734  1.00  0.00    -0.394 OA
ATOM     39  H   UNL     1       1.901 -16.936  24.331  1.00  0.00     0.210 HD
ENDBRANCH  37  38
ENDBRANCH  31  37
BRANCH  32  40
ATOM     40  O   UNL     1       1.191 -18.723  22.875  1.00  0.00    -0.387 OA
ATOM     41  H   UNL     1       0.211 -18.634  22.993  1.00  0.00     0.211 HD
ENDBRANCH  32  40
ENDBRANCH   1  27
TORSDOF 12
ENDMDL
MODEL 7
REMARK VINA RESULT:    -6.561      1.612      6.627
REMARK INTER + INTRA:         -11.123
REMARK INTER:                  -9.422
REMARK INTRA:                  -1.701
REMARK UNBOUND:                -1.494
REMARK SMILES O=c1c(O[C@H]2O[C@H](CO)[C@H](O)[C@H](O)[C@@H]2O)c(-c2ccc(O)c(O)c2)oc2cc(O)cc(O)c12
REMARK SMILES IDX 4 1 3 2 16 3 25 4 2 5 26 6 1 7 33 8 27 9 31 10 28 11 30 12
REMARK SMILES IDX 17 13 18 14 19 15 20 16 24 17 22 18 21 19 23 21 32 23 29 25
REMARK SMILES IDX 5 27 14 28 6 29 12 30 7 31 10 32 15 33 13 35 8 37 9 38 11 40
REMARK H PARENT 21 20 23 22 32 24 29 26 15 34 13 36 9 39 11 41
REMARK Flexibility Score: inf
ROOT
ATOM      1  O   UNL     1      -0.309 -20.347  28.525  1.00  0.00    -0.454 OA
ENDROOT
BRANCH   1   2
ATOM      2  C   UNL     1      -0.557 -19.152  27.839  1.00  0.00     0.214 A 
ATOM      3  C   UNL     1      -0.090 -18.937  26.528  1.00  0.00     0.180 A 
ATOM      4  O   UNL     1      -0.379 -17.801  25.904  1.00  0.00    -0.452 OA
ATOM      5  C   UNL     1      -1.267 -18.132  28.480  1.00  0.00     0.239 A 
ATOM      6  C   UNL     1      -1.077 -16.818  26.461  1.00  0.00     0.146 A 
ATOM      7  O   UNL     1      -1.599 -18.303  29.682  1.00  0.00    -0.285 OA
ATOM      8  C   UNL     1      -1.580 -16.939  27.783  1.00  0.00     0.111 A 
ATOM      9  C   UNL     1      -1.286 -15.650  25.723  1.00  0.00     0.094 A 
ATOM     10  C   UNL     1      -2.338 -15.856  28.322  1.00  0.00     0.134 A 
ATOM     11  C   UNL     1      -1.977 -14.576  26.282  1.00  0.00     0.123 A 
ATOM     12  C   UNL     1      -2.497 -14.684  27.572  1.00  0.00     0.093 A 
BRANCH   3  13
ATOM     13  C   UNL     1       0.752 -19.922  25.823  1.00  0.00     0.025 A 
ATOM     14  C   UNL     1       2.113 -20.066  26.136  1.00  0.00     0.016 A 
ATOM     15  C   UNL     1       2.899 -21.000  25.456  1.00  0.00     0.051 A 
ATOM     16  C   UNL     1       2.335 -21.802  24.455  1.00  0.00     0.157 A 
ATOM     17  C   UNL     1       0.191 -20.725  24.814  1.00  0.00     0.062 A 
ATOM     18  C   UNL     1       0.973 -21.668  24.137  1.00  0.00     0.158 A 
BRANCH  16  19
ATOM     19  O   UNL     1       3.124 -22.728  23.774  1.00  0.00    -0.504 OA
ATOM     20  H   UNL     1       3.685 -23.413  24.269  1.00  0.00     0.293 HD
ENDBRANCH  16  19
BRANCH  18  21
ATOM     21  O   UNL     1       0.377 -22.462  23.157  1.00  0.00    -0.504 OA
ATOM     22  H   UNL     1       0.847 -22.691  22.291  1.00  0.00     0.293 HD
ENDBRANCH  18  21
ENDBRANCH   3  13
BRANCH  10  23
ATOM     23  O   UNL     1      -2.967 -15.884  29.571  1.00  0.00    -0.507 OA
ATOM     24  H   UNL     1      -2.978 -16.673  30.195  1.00  0.00     0.293 HD
ENDBRANCH  10  23
BRANCH  11  25
ATOM     25  O   UNL     1      -2.160 -13.395  25.562  1.00  0.00    -0.508 OA
ATOM     26  H   UNL     1      -2.654 -12.603  25.959  1.00  0.00     0.293 HD
ENDBRANCH  11  25
ENDBRANCH   1   2
BRANCH   1  27
ATOM     27  C   UNL     1      -1.147 -21.504  28.414  1.00  0.00     0.339 C 
ATOM     28  C   UNL     1      -1.593 -21.999  29.805  1.00  0.00     0.214 C 
ATOM     29  O   UNL     1      -0.494 -22.524  27.673  1.00  0.00    -0.332 OA
ATOM     30  C   UNL     1      -0.407 -22.628  30.566  1.00  0.00     0.180 C 
ATOM     31  C   UNL     1       0.692 -22.962  28.318  1.00  0.00     0.179 C 
ATOM     32  C   UNL     1       0.361 -23.627  29.682  1.00  0.00     0.177 C 
BRANCH  28  33
ATOM     33  O   UNL     1      -2.634 -22.932  29.649  1.00  0.00    -0.384 OA
ATOM     34  H   UNL     1      -3.489 -22.430  29.718  1.00  0.00     0.211 HD
ENDBRANCH  28  33
BRANCH  30  35
ATOM     35  O   UNL     1      -0.846 -23.269  31.735  1.00  0.00    -0.387 OA
ATOM     36  H   UNL     1      -0.176 -23.072  32.440  1.00  0.00     0.211 HD
ENDBRANCH  30  35
BRANCH  31  37
ATOM     37  C   UNL     1       1.434 -23.920  27.376  1.00  0.00     0.191 C 
BRANCH  37  38
ATOM     38  O   UNL     1       2.178 -24.864  28.106  1.00  0.00    -0.394 OA
ATOM     39  H   UNL     1       2.211 -25.691  27.557  1.00  0.00     0.210 HD
ENDBRANCH  37  38
ENDBRANCH  31  37
BRANCH  32  40
ATOM     40  O   UNL     1      -0.356 -24.834  29.542  1.00  0.00    -0.387 OA
ATOM     41  H   UNL     1       0.184 -25.568  29.931  1.00  0.00     0.211 HD
ENDBRANCH  32  40
ENDBRANCH   1  27
TORSDOF 12
ENDMDL
MODEL 8
REMARK VINA RESULT:    -6.538      1.855      7.296
REMARK INTER + INTRA:         -11.089
REMARK INTER:                  -9.684
REMARK INTRA:                  -1.405
REMARK UNBOUND:                -1.494
REMARK SMILES O=c1c(O[C@H]2O[C@H](CO)[C@H](O)[C@H](O)[C@@H]2O)c(-c2ccc(O)c(O)c2)oc2cc(O)cc(O)c12
REMARK SMILES IDX 4 1 3 2 16 3 25 4 2 5 26 6 1 7 33 8 27 9 31 10 28 11 30 12
REMARK SMILES IDX 17 13 18 14 19 15 20 16 24 17 22 18 21 19 23 21 32 23 29 25
REMARK SMILES IDX 5 27 14 28 6 29 12 30 7 31 10 32 15 33 13 35 8 37 9 38 11 40
REMARK H PARENT 21 20 23 22 32 24 29 26 15 34 13 36 9 39 11 41
REMARK Flexibility Score: inf
ROOT
ATOM      1  O   UNL     1       0.317 -20.642  25.988  1.00  0.00    -0.454 OA
ENDROOT
BRANCH   1   2
ATOM      2  C   UNL     1      -0.338 -19.488  26.437  1.00  0.00     0.214 A 
ATOM      3  C   UNL     1      -0.928 -19.418  27.714  1.00  0.00     0.180 A 
ATOM      4  O   UNL     1      -1.509 -18.292  28.111  1.00  0.00    -0.452 OA
ATOM      5  C   UNL     1      -0.430 -18.382  25.587  1.00  0.00     0.239 A 
ATOM      6  C   UNL     1      -1.593 -17.207  27.351  1.00  0.00     0.146 A 
ATOM      7  O   UNL     1       0.021 -18.491  24.418  1.00  0.00    -0.285 OA
ATOM      8  C   UNL     1      -1.037 -17.186  26.045  1.00  0.00     0.111 A 
ATOM      9  C   UNL     1      -2.263 -16.090  27.858  1.00  0.00     0.094 A 
ATOM     10  C   UNL     1      -1.143 -15.983  25.281  1.00  0.00     0.134 A 
ATOM     11  C   UNL     1      -2.412 -14.943  27.080  1.00  0.00     0.123 A 
ATOM     12  C   UNL     1      -1.855 -14.896  25.802  1.00  0.00     0.093 A 
BRANCH   3  13
ATOM     13  C   UNL     1      -0.962 -20.577  28.628  1.00  0.00     0.025 A 
ATOM     14  C   UNL     1      -1.809 -21.668  28.381  1.00  0.00     0.016 A 
ATOM     15  C   UNL     1      -1.833 -22.755  29.259  1.00  0.00     0.051 A 
ATOM     16  C   UNL     1      -1.011 -22.765  30.394  1.00  0.00     0.157 A 
ATOM     17  C   UNL     1      -0.142 -20.588  29.770  1.00  0.00     0.062 A 
ATOM     18  C   UNL     1      -0.157 -21.679  30.646  1.00  0.00     0.158 A 
BRANCH  16  19
ATOM     19  O   UNL     1      -1.043 -23.849  31.270  1.00  0.00    -0.504 OA
ATOM     20  H   UNL     1      -1.850 -24.035  31.855  1.00  0.00     0.293 HD
ENDBRANCH  16  19
BRANCH  18  21
ATOM     21  O   UNL     1       0.687 -21.666  31.758  1.00  0.00    -0.504 OA
ATOM     22  H   UNL     1       0.451 -22.144  32.618  1.00  0.00     0.293 HD
ENDBRANCH  18  21
ENDBRANCH   3  13
BRANCH  10  23
ATOM     23  O   UNL     1      -0.560 -15.799  24.024  1.00  0.00    -0.507 OA
ATOM     24  H   UNL     1       0.412 -15.590  23.862  1.00  0.00     0.293 HD
ENDBRANCH  10  23
BRANCH  11  25
ATOM     25  O   UNL     1      -3.109 -13.837  27.569  1.00  0.00    -0.508 OA
ATOM     26  H   UNL     1      -3.121 -12.955  27.070  1.00  0.00     0.293 HD
ENDBRANCH  11  25
ENDBRANCH   1   2
BRANCH   1  27
ATOM     27  C   UNL     1       1.642 -21.002  26.399  1.00  0.00     0.339 C 
ATOM     28  C   UNL     1       2.698 -20.408  25.445  1.00  0.00     0.214 C 
ATOM     29  O   UNL     1       1.763 -22.413  26.511  1.00  0.00    -0.332 OA
ATOM     30  C   UNL     1       2.661 -21.125  24.078  1.00  0.00     0.180 C 
ATOM     31  C   UNL     1       1.552 -23.057  25.265  1.00  0.00     0.179 C 
ATOM     32  C   UNL     1       2.653 -22.654  24.247  1.00  0.00     0.177 C 
BRANCH  28  33
ATOM     33  O   UNL     1       3.969 -20.527  26.035  1.00  0.00    -0.384 OA
ATOM     34  H   UNL     1       4.556 -19.853  25.602  1.00  0.00     0.211 HD
ENDBRANCH  28  33
BRANCH  30  35
ATOM     35  O   UNL     1       3.753 -20.740  23.283  1.00  0.00    -0.387 OA
ATOM     36  H   UNL     1       4.550 -21.207  23.645  1.00  0.00     0.211 HD
ENDBRANCH  30  35
BRANCH  31  37
ATOM     37  C   UNL     1       1.512 -24.573  25.500  1.00  0.00     0.191 C 
BRANCH  37  38
ATOM     38  O   UNL     1       2.564 -24.977  26.340  1.00  0.00    -0.394 OA
ATOM     39  H   UNL     1       3.004 -24.149  26.669  1.00  0.00     0.210 HD
ENDBRANCH  37  38
ENDBRANCH  31  37
BRANCH  32  40
ATOM     40  O   UNL     1       3.931 -23.130  24.606  1.00  0.00    -0.387 OA
ATOM     41  H   UNL     1       4.090 -23.992  24.143  1.00  0.00     0.211 HD
ENDBRANCH  32  40
ENDBRANCH   1  27
TORSDOF 12
ENDMDL
MODEL 9
REMARK VINA RESULT:    -6.505      2.586      7.503
REMARK INTER + INTRA:         -11.041
REMARK INTER:                  -9.423
REMARK INTRA:                  -1.618
REMARK UNBOUND:                -1.494
REMARK SMILES O=c1c(O[C@H]2O[C@H](CO)[C@H](O)[C@H](O)[C@@H]2O)c(-c2ccc(O)c(O)c2)oc2cc(O)cc(O)c12
REMARK SMILES IDX 4 1 3 2 16 3 25 4 2 5 26 6 1 7 33 8 27 9 31 10 28 11 30 12
REMARK SMILES IDX 17 13 18 14 19 15 20 16 24 17 22 18 21 19 23 21 32 23 29 25
REMARK SMILES IDX 5 27 14 28 6 29 12 30 7 31 10 32 15 33 13 35 8 37 9 38 11 40
REMARK H PARENT 21 20 23 22 32 24 29 26 15 34 13 36 9 39 11 41
REMARK Flexibility Score: inf
ROOT
ATOM      1  O   UNL     1      -0.511 -17.735  28.150  1.00  0.00    -0.454 OA
ENDROOT
BRANCH   1   2
ATOM      2  C   UNL     1      -0.541 -16.484  27.522  1.00  0.00     0.214 A 
ATOM      3  C   UNL     1      -0.125 -16.312  26.187  1.00  0.00     0.180 A 
ATOM      4  O   UNL     1      -0.202 -15.113  25.621  1.00  0.00    -0.452 OA
ATOM      5  C   UNL     1      -0.971 -15.367  28.245  1.00  0.00     0.239 A 
ATOM      6  C   UNL     1      -0.634 -14.032  26.259  1.00  0.00     0.146 A 
ATOM      7  O   UNL     1      -1.252 -15.519  29.462  1.00  0.00    -0.285 OA
ATOM      8  C   UNL     1      -1.064 -14.104  27.610  1.00  0.00     0.111 A 
ATOM      9  C   UNL     1      -0.635 -12.813  25.576  1.00  0.00     0.094 A 
ATOM     10  C   UNL     1      -1.534 -12.910  28.237  1.00  0.00     0.134 A 
ATOM     11  C   UNL     1      -1.040 -11.643  26.217  1.00  0.00     0.123 A 
ATOM     12  C   UNL     1      -1.484 -11.698  27.538  1.00  0.00     0.093 A 
BRANCH   3  13
ATOM     13  C   UNL     1       0.437 -17.421  25.391  1.00  0.00     0.025 A 
ATOM     14  C   UNL     1       1.790 -17.780  25.505  1.00  0.00     0.016 A 
ATOM     15  C   UNL     1       2.308 -18.828  24.741  1.00  0.00     0.051 A 
ATOM     16  C   UNL     1       1.483 -19.531  23.854  1.00  0.00     0.157 A 
ATOM     17  C   UNL     1      -0.387 -18.126  24.497  1.00  0.00     0.062 A 
ATOM     18  C   UNL     1       0.127 -19.182  23.737  1.00  0.00     0.158 A 
BRANCH  16  19
ATOM     19  O   UNL     1       2.005 -20.573  23.089  1.00  0.00    -0.504 OA
ATOM     20  H   UNL     1       1.470 -21.003  22.342  1.00  0.00     0.293 HD
ENDBRANCH  16  19
BRANCH  18  21
ATOM     21  O   UNL     1      -0.726 -19.874  22.875  1.00  0.00    -0.504 OA
ATOM     22  H   UNL     1      -1.640 -20.196  23.167  1.00  0.00     0.293 HD
ENDBRANCH  18  21
ENDBRANCH   3  13
BRANCH  10  23
ATOM     23  O   UNL     1      -2.071 -12.861  29.528  1.00  0.00    -0.507 OA
ATOM     24  H   UNL     1      -2.943 -13.278  29.807  1.00  0.00     0.293 HD
ENDBRANCH  10  23
BRANCH  11  25
ATOM     25  O   UNL     1      -1.010 -10.418  25.550  1.00  0.00    -0.508 OA
ATOM     26  H   UNL     1      -1.545 -10.263  24.703  1.00  0.00     0.293 HD
ENDBRANCH  11  25
ENDBRANCH   1   2
BRANCH   1  27
ATOM     27  C   UNL     1      -1.681 -18.536  28.359  1.00  0.00     0.339 C 
ATOM     28  C   UNL     1      -1.720 -19.096  29.795  1.00  0.00     0.214 C 
ATOM     29  O   UNL     1      -1.760 -19.567  27.385  1.00  0.00    -0.332 OA
ATOM     30  C   UNL     1      -0.641 -20.184  29.984  1.00  0.00     0.180 C 
ATOM     31  C   UNL     1      -0.658 -20.456  27.474  1.00  0.00     0.179 C 
ATOM     32  C   UNL     1      -0.668 -21.206  28.834  1.00  0.00     0.177 C 
BRANCH  28  33
ATOM     33  O   UNL     1      -3.001 -19.616  30.052  1.00  0.00    -0.384 OA
ATOM     34  H   UNL     1      -3.557 -18.868  30.393  1.00  0.00     0.211 HD
ENDBRANCH  28  33
BRANCH  30  35
ATOM     35  O   UNL     1      -0.808 -20.845  31.212  1.00  0.00    -0.387 OA
ATOM     36  H   UNL     1      -1.144 -21.755  31.004  1.00  0.00     0.211 HD
ENDBRANCH  30  35
BRANCH  31  37
ATOM     37  C   UNL     1      -0.713 -21.422  26.284  1.00  0.00     0.191 C 
BRANCH  37  38
ATOM     38  O   UNL     1      -1.841 -21.167  25.484  1.00  0.00    -0.394 OA
ATOM     39  H   UNL     1      -2.573 -20.895  26.098  1.00  0.00     0.210 HD
ENDBRANCH  37  38
ENDBRANCH  31  37
BRANCH  32  40
ATOM     40  O   UNL     1      -1.761 -22.087  28.966  1.00  0.00    -0.387 OA
ATOM     41  H   UNL     1      -1.521 -22.954  28.550  1.00  0.00     0.211 HD
ENDBRANCH  32  40
ENDBRANCH   1  27
TORSDOF 12
ENDMDL
