MODEL 1
REMARK VINA RESULT:    -5.145      0.000      0.000
REMARK INTER + INTRA:          -5.201
REMARK INTER:                  -5.597
REMARK INTRA:                   0.395
REMARK UNBOUND:                 0.395
REMARK SMILES C[C@H]1[C@@H](C)CC[C@]2(C(=O)[O-])CC[C@]3(C)C(=CC[C@H]4[C@]5(C)CC[C@H](O)C(C)(C)[C@H]5CC[C@@]43C)[C@@H]12
REMARK SMILES IDX 7 1 6 2 11 3 33 4 5 5 12 6 15 7 2 8 3 9 13 10 16 11 1 12
REMARK SMILES IDX 4 13 14 14 31 15 17 16 18 17 30 18 32 19 19 20 29 21 28 22
REMARK SMILES IDX 21 23 20 24 25 25 22 26 23 27 26 28 27 29 8 30 9 31 10 32
REMARK SMILES IDX 24 33
REMARK H PARENT 24 34
REMARK Flexibility Score: inf
ROOT
ATOM      1  C   UNL     1     -33.716  26.900  35.708  1.00  0.00     0.017 C 
ATOM      2  C   UNL     1     -34.694  26.477  36.853  1.00  0.00     0.014 C 
ATOM      3  C   UNL     1     -32.416  26.073  35.877  1.00  0.00     0.014 C 
ATOM      4  C   UNL     1     -33.412  28.428  35.872  1.00  0.00     0.030 C 
ATOM      5  C   UNL     1     -35.969  27.331  36.929  1.00  0.00     0.004 C 
ATOM      6  C   UNL     1     -31.227  26.574  35.029  1.00  0.00     0.013 C 
ATOM      7  C   UNL     1     -32.205  28.873  35.018  1.00  0.00    -0.063 C 
ATOM      8  C   UNL     1     -34.722  29.299  35.851  1.00  0.00    -0.003 C 
ATOM      9  C   UNL     1     -35.644  28.838  37.018  1.00  0.00    -0.011 C 
ATOM     10  C   UNL     1     -30.875  28.093  35.195  1.00  0.00    -0.006 C 
ATOM     11  C   UNL     1     -32.327  29.882  34.125  1.00  0.00    -0.027 C 
ATOM     12  C   UNL     1     -35.495  29.338  34.502  1.00  0.00     0.008 C 
ATOM     13  C   UNL     1     -36.932  29.670  37.126  1.00  0.00     0.008 C 
ATOM     14  C   UNL     1     -30.377  28.289  36.663  1.00  0.00     0.017 C 
ATOM     15  C   UNL     1     -29.716  28.582  34.155  1.00  0.00    -0.020 C 
ATOM     16  C   UNL     1     -31.383  30.131  32.992  1.00  0.00     0.032 C 
ATOM     17  C   UNL     1     -30.392  28.962  32.780  1.00  0.00     0.006 C 
ATOM     18  C   UNL     1     -28.644  27.458  33.926  1.00  0.00     0.008 C 
ATOM     19  C   UNL     1     -28.953  29.821  34.735  1.00  0.00     0.012 C 
ATOM     20  C   UNL     1     -29.441  29.128  31.501  1.00  0.00    -0.025 C 
ATOM     21  C   UNL     1     -27.692  27.716  32.754  1.00  0.00     0.005 C 
ATOM     22  C   UNL     1     -28.506  27.864  31.444  1.00  0.00     0.003 C 
ATOM     23  C   UNL     1     -30.335  29.115  30.216  1.00  0.00     0.010 C 
ATOM     24  C   UNL     1     -28.639  30.476  31.519  1.00  0.00     0.012 C 
ATOM     25  C   UNL     1     -27.683  27.654  30.110  1.00  0.00    -0.006 C 
ATOM     26  C   UNL     1     -29.551  28.957  28.901  1.00  0.00     0.033 C 
ATOM     27  C   UNL     1     -28.663  27.707  28.892  1.00  0.00     0.120 C 
ATOM     28  C   UNL     1     -27.007  26.253  30.113  1.00  0.00     0.014 C 
ATOM     29  C   UNL     1     -26.541  28.686  29.924  1.00  0.00     0.014 C 
ENDROOT
BRANCH   1  30
ATOM     30  C   UNL     1     -34.297  26.558  34.339  1.00  0.00     0.048 C 
ATOM     31  O   UNL     1     -35.351  25.875  34.235  1.00  0.00    -0.550 OA
ATOM     32  O   UNL     1     -33.621  26.911  33.176  1.00  0.00    -0.550 OA
ENDBRANCH   1  30
BRANCH  27  33
ATOM     33  O   UNL     1     -29.503  26.576  28.878  1.00  0.00    -0.393 OA
ATOM     34  H   UNL     1     -30.221  26.727  29.547  1.00  0.00     0.210 HD
ENDBRANCH  27  33
TORSDOF 2
ENDMDL
MODEL 2
REMARK VINA RESULT:    -5.048      1.483      7.751
REMARK INTER + INTRA:          -5.095
REMARK INTER:                  -5.513
REMARK INTRA:                   0.418
REMARK UNBOUND:                 0.395
REMARK SMILES C[C@H]1[C@@H](C)CC[C@]2(C(=O)[O-])CC[C@]3(C)C(=CC[C@H]4[C@]5(C)CC[C@H](O)C(C)(C)[C@H]5CC[C@@]43C)[C@@H]12
REMARK SMILES IDX 7 1 6 2 11 3 33 4 5 5 12 6 15 7 2 8 3 9 13 10 16 11 1 12
REMARK SMILES IDX 4 13 14 14 31 15 17 16 18 17 30 18 32 19 19 20 29 21 28 22
REMARK SMILES IDX 21 23 20 24 25 25 22 26 23 27 26 28 27 29 8 30 9 31 10 32
REMARK SMILES IDX 24 33
REMARK H PARENT 24 34
REMARK Flexibility Score: inf
ROOT
ATOM      1  C   UNL     1     -27.624  28.141  30.171  1.00  0.00     0.017 C 
ATOM      2  C   UNL     1     -26.429  28.283  29.173  1.00  0.00     0.014 C 
ATOM      3  C   UNL     1     -28.779  29.032  29.644  1.00  0.00     0.014 C 
ATOM      4  C   UNL     1     -27.146  28.647  31.574  1.00  0.00     0.030 C 
ATOM      5  C   UNL     1     -25.140  27.592  29.645  1.00  0.00     0.004 C 
ATOM      6  C   UNL     1     -29.922  29.259  30.656  1.00  0.00     0.013 C 
ATOM      7  C   UNL     1     -28.327  28.875  32.542  1.00  0.00    -0.063 C 
ATOM      8  C   UNL     1     -25.882  27.863  32.087  1.00  0.00    -0.003 C 
ATOM      9  C   UNL     1     -24.728  28.054  31.059  1.00  0.00    -0.011 C 
ATOM     10  C   UNL     1     -29.480  29.797  32.062  1.00  0.00    -0.006 C 
ATOM     11  C   UNL     1     -28.363  28.256  33.745  1.00  0.00    -0.027 C 
ATOM     12  C   UNL     1     -26.099  26.360  32.421  1.00  0.00     0.008 C 
ATOM     13  C   UNL     1     -23.420  27.376  31.498  1.00  0.00     0.008 C 
ATOM     14  C   UNL     1     -28.906  31.234  31.840  1.00  0.00     0.017 C 
ATOM     15  C   UNL     1     -30.719  29.861  33.123  1.00  0.00    -0.020 C 
ATOM     16  C   UNL     1     -29.596  28.080  34.572  1.00  0.00     0.032 C 
ATOM     17  C   UNL     1     -30.885  28.444  33.798  1.00  0.00     0.006 C 
ATOM     18  C   UNL     1     -32.057  30.272  32.414  1.00  0.00     0.008 C 
ATOM     19  C   UNL     1     -30.439  30.944  34.220  1.00  0.00     0.012 C 
ATOM     20  C   UNL     1     -32.241  28.155  34.602  1.00  0.00    -0.025 C 
ATOM     21  C   UNL     1     -33.314  30.073  33.265  1.00  0.00     0.005 C 
ATOM     22  C   UNL     1     -33.437  28.584  33.675  1.00  0.00     0.003 C 
ATOM     23  C   UNL     1     -32.355  26.612  34.840  1.00  0.00     0.010 C 
ATOM     24  C   UNL     1     -32.273  28.864  36.001  1.00  0.00     0.012 C 
ATOM     25  C   UNL     1     -34.881  28.124  34.127  1.00  0.00    -0.006 C 
ATOM     26  C   UNL     1     -33.739  26.146  35.325  1.00  0.00     0.033 C 
ATOM     27  C   UNL     1     -34.869  26.581  34.383  1.00  0.00     0.120 C 
ATOM     28  C   UNL     1     -35.912  28.409  32.998  1.00  0.00     0.014 C 
ATOM     29  C   UNL     1     -35.398  28.871  35.384  1.00  0.00     0.014 C 
ENDROOT
BRANCH   1  30
ATOM     30  C   UNL     1     -28.140  26.704  30.207  1.00  0.00     0.048 C 
ATOM     31  O   UNL     1     -27.822  25.881  29.308  1.00  0.00    -0.550 OA
ATOM     32  O   UNL     1     -29.050  26.304  31.180  1.00  0.00    -0.550 OA
ENDBRANCH   1  30
BRANCH  27  33
ATOM     33  O   UNL     1     -34.722  25.876  33.172  1.00  0.00    -0.393 OA
ATOM     34  H   UNL     1     -33.754  25.697  33.044  1.00  0.00     0.210 HD
ENDBRANCH  27  33
TORSDOF 2
ENDMDL
MODEL 3
REMARK VINA RESULT:    -4.996      1.850      2.829
REMARK INTER + INTRA:          -5.039
REMARK INTER:                  -5.434
REMARK INTRA:                   0.396
REMARK UNBOUND:                 0.395
REMARK SMILES C[C@H]1[C@@H](C)CC[C@]2(C(=O)[O-])CC[C@]3(C)C(=CC[C@H]4[C@]5(C)CC[C@H](O)C(C)(C)[C@H]5CC[C@@]43C)[C@@H]12
REMARK SMILES IDX 7 1 6 2 11 3 33 4 5 5 12 6 15 7 2 8 3 9 13 10 16 11 1 12
REMARK SMILES IDX 4 13 14 14 31 15 17 16 18 17 30 18 32 19 19 20 29 21 28 22
REMARK SMILES IDX 21 23 20 24 25 25 22 26 23 27 26 28 27 29 8 30 9 31 10 32
REMARK SMILES IDX 24 33
REMARK H PARENT 24 34
REMARK Flexibility Score: inf
ROOT
ATOM      1  C   UNL     1     -32.027  28.066  36.678  1.00  0.00     0.017 C 
ATOM      2  C   UNL     1     -32.786  28.248  38.033  1.00  0.00     0.014 C 
ATOM      3  C   UNL     1     -30.882  29.111  36.641  1.00  0.00     0.014 C 
ATOM      4  C   UNL     1     -33.044  28.334  35.515  1.00  0.00     0.030 C 
ATOM      5  C   UNL     1     -34.060  27.397  38.152  1.00  0.00     0.004 C 
ATOM      6  C   UNL     1     -30.225  29.286  35.256  1.00  0.00     0.013 C 
ATOM      7  C   UNL     1     -32.334  28.519  34.157  1.00  0.00    -0.063 C 
ATOM      8  C   UNL     1     -34.298  27.388  35.596  1.00  0.00    -0.003 C 
ATOM      9  C   UNL     1     -35.013  27.626  36.959  1.00  0.00    -0.011 C 
ATOM     10  C   UNL     1     -31.211  29.589  34.075  1.00  0.00    -0.006 C 
ATOM     11  C   UNL     1     -32.661  27.746  33.096  1.00  0.00    -0.027 C 
ATOM     12  C   UNL     1     -34.030  25.875  35.354  1.00  0.00     0.008 C 
ATOM     13  C   UNL     1     -36.294  26.791  37.114  1.00  0.00     0.008 C 
ATOM     14  C   UNL     1     -31.841  30.991  34.354  1.00  0.00     0.017 C 
ATOM     15  C   UNL     1     -30.463  29.605  32.624  1.00  0.00    -0.020 C 
ATOM     16  C   UNL     1     -31.802  27.556  31.887  1.00  0.00     0.032 C 
ATOM     17  C   UNL     1     -30.376  28.126  32.079  1.00  0.00     0.006 C 
ATOM     18  C   UNL     1     -29.020  30.215  32.733  1.00  0.00     0.008 C 
ATOM     19  C   UNL     1     -31.256  30.500  31.613  1.00  0.00     0.012 C 
ATOM     20  C   UNL     1     -29.381  27.838  30.856  1.00  0.00    -0.025 C 
ATOM     21  C   UNL     1     -28.145  30.002  31.495  1.00  0.00     0.005 C 
ATOM     22  C   UNL     1     -27.993  28.486  31.218  1.00  0.00     0.003 C 
ATOM     23  C   UNL     1     -29.169  26.291  30.746  1.00  0.00     0.010 C 
ATOM     24  C   UNL     1     -29.950  28.347  29.485  1.00  0.00     0.012 C 
ATOM     25  C   UNL     1     -26.768  28.085  30.302  1.00  0.00    -0.006 C 
ATOM     26  C   UNL     1     -28.008  25.875  29.824  1.00  0.00     0.033 C 
ATOM     27  C   UNL     1     -26.678  26.525  30.223  1.00  0.00     0.120 C 
ATOM     28  C   UNL     1     -25.441  28.604  30.927  1.00  0.00     0.014 C 
ATOM     29  C   UNL     1     -26.842  28.690  28.877  1.00  0.00     0.014 C 
ENDROOT
BRANCH   1  30
ATOM     30  C   UNL     1     -31.384  26.684  36.592  1.00  0.00     0.048 C 
ATOM     31  O   UNL     1     -31.337  25.929  37.599  1.00  0.00    -0.550 OA
ATOM     32  O   UNL     1     -30.750  26.271  35.425  1.00  0.00    -0.550 OA
ENDBRANCH   1  30
BRANCH  27  33
ATOM     33  O   UNL     1     -26.284  25.985  31.463  1.00  0.00    -0.393 OA
ATOM     34  H   UNL     1     -25.652  25.242  31.280  1.00  0.00     0.210 HD
ENDBRANCH  27  33
TORSDOF 2
ENDMDL
MODEL 4
REMARK VINA RESULT:    -4.852      1.277      7.650
REMARK INTER + INTRA:          -4.882
REMARK INTER:                  -5.329
REMARK INTRA:                   0.447
REMARK UNBOUND:                 0.395
REMARK SMILES C[C@H]1[C@@H](C)CC[C@]2(C(=O)[O-])CC[C@]3(C)C(=CC[C@H]4[C@]5(C)CC[C@H](O)C(C)(C)[C@H]5CC[C@@]43C)[C@@H]12
REMARK SMILES IDX 7 1 6 2 11 3 33 4 5 5 12 6 15 7 2 8 3 9 13 10 16 11 1 12
REMARK SMILES IDX 4 13 14 14 31 15 17 16 18 17 30 18 32 19 19 20 29 21 28 22
REMARK SMILES IDX 21 23 20 24 25 25 22 26 23 27 26 28 27 29 8 30 9 31 10 32
REMARK SMILES IDX 24 33
REMARK H PARENT 24 34
REMARK Flexibility Score: inf
ROOT
ATOM      1  C   UNL     1     -28.921  29.077  30.885  1.00  0.00     0.017 C 
ATOM      2  C   UNL     1     -27.907  29.521  29.781  1.00  0.00     0.014 C 
ATOM      3  C   UNL     1     -29.621  30.355  31.416  1.00  0.00     0.014 C 
ATOM      4  C   UNL     1     -28.112  28.384  32.034  1.00  0.00     0.030 C 
ATOM      5  C   UNL     1     -27.007  28.386  29.270  1.00  0.00     0.004 C 
ATOM      6  C   UNL     1     -30.424  30.148  32.717  1.00  0.00     0.013 C 
ATOM      7  C   UNL     1     -28.955  28.217  33.316  1.00  0.00    -0.063 C 
ATOM      8  C   UNL     1     -27.270  27.163  31.512  1.00  0.00    -0.003 C 
ATOM      9  C   UNL     1     -26.275  27.672  30.427  1.00  0.00    -0.011 C 
ATOM     10  C   UNL     1     -29.633  29.486  33.899  1.00  0.00    -0.006 C 
ATOM     11  C   UNL     1     -29.120  26.998  33.879  1.00  0.00    -0.027 C 
ATOM     12  C   UNL     1     -28.084  25.939  31.002  1.00  0.00     0.008 C 
ATOM     13  C   UNL     1     -25.356  26.563  29.892  1.00  0.00     0.008 C 
ATOM     14  C   UNL     1     -28.517  30.495  34.323  1.00  0.00     0.017 C 
ATOM     15  C   UNL     1     -30.588  29.156  35.182  1.00  0.00    -0.020 C 
ATOM     16  C   UNL     1     -30.201  26.651  34.852  1.00  0.00     0.032 C 
ATOM     17  C   UNL     1     -31.281  27.756  34.955  1.00  0.00     0.006 C 
ATOM     18  C   UNL     1     -31.683  30.264  35.378  1.00  0.00     0.008 C 
ATOM     19  C   UNL     1     -29.738  29.125  36.497  1.00  0.00     0.012 C 
ATOM     20  C   UNL     1     -32.523  27.377  35.893  1.00  0.00    -0.025 C 
ATOM     21  C   UNL     1     -32.794  29.892  36.364  1.00  0.00     0.005 C 
ATOM     22  C   UNL     1     -33.508  28.604  35.884  1.00  0.00     0.003 C 
ATOM     23  C   UNL     1     -33.274  26.162  35.252  1.00  0.00     0.010 C 
ATOM     24  C   UNL     1     -32.081  26.964  37.340  1.00  0.00     0.012 C 
ATOM     25  C   UNL     1     -34.945  28.360  36.498  1.00  0.00    -0.006 C 
ATOM     26  C   UNL     1     -34.657  25.877  35.864  1.00  0.00     0.033 C 
ATOM     27  C   UNL     1     -35.581  27.100  35.823  1.00  0.00     0.120 C 
ATOM     28  C   UNL     1     -35.869  29.575  36.197  1.00  0.00     0.014 C 
ATOM     29  C   UNL     1     -34.935  28.194  38.040  1.00  0.00     0.014 C 
ENDROOT
BRANCH   1  30
ATOM     30  C   UNL     1     -30.007  28.176  30.301  1.00  0.00     0.048 C 
ATOM     31  O   UNL     1     -30.225  28.148  29.061  1.00  0.00    -0.550 OA
ATOM     32  O   UNL     1     -30.840  27.440  31.137  1.00  0.00    -0.550 OA
ENDBRANCH   1  30
BRANCH  27  33
ATOM     33  O   UNL     1     -35.898  27.362  34.476  1.00  0.00    -0.393 OA
ATOM     34  H   UNL     1     -36.403  28.217  34.447  1.00  0.00     0.210 HD
ENDBRANCH  27  33
TORSDOF 2
ENDMDL
MODEL 5
REMARK VINA RESULT:    -4.829      4.181      7.560
REMARK INTER + INTRA:          -4.857
REMARK INTER:                  -5.276
REMARK INTRA:                   0.419
REMARK UNBOUND:                 0.395
REMARK SMILES C[C@H]1[C@@H](C)CC[C@]2(C(=O)[O-])CC[C@]3(C)C(=CC[C@H]4[C@]5(C)CC[C@H](O)C(C)(C)[C@H]5CC[C@@]43C)[C@@H]12
REMARK SMILES IDX 7 1 6 2 11 3 33 4 5 5 12 6 15 7 2 8 3 9 13 10 16 11 1 12
REMARK SMILES IDX 4 13 14 14 31 15 17 16 18 17 30 18 32 19 19 20 29 21 28 22
REMARK SMILES IDX 21 23 20 24 25 25 22 26 23 27 26 28 27 29 8 30 9 31 10 32
REMARK SMILES IDX 24 33
REMARK H PARENT 24 34
REMARK Flexibility Score: inf
ROOT
ATOM      1  C   UNL     1     -36.733  34.172  33.357  1.00  0.00     0.017 C 
ATOM      2  C   UNL     1     -37.323  35.598  33.106  1.00  0.00     0.014 C 
ATOM      3  C   UNL     1     -37.369  33.627  34.662  1.00  0.00     0.014 C 
ATOM      4  C   UNL     1     -35.182  34.315  33.529  1.00  0.00     0.030 C 
ATOM      5  C   UNL     1     -36.664  36.347  31.938  1.00  0.00     0.004 C 
ATOM      6  C   UNL     1     -36.679  32.369  35.231  1.00  0.00     0.013 C 
ATOM      7  C   UNL     1     -34.544  33.037  34.116  1.00  0.00    -0.063 C 
ATOM      8  C   UNL     1     -34.508  34.997  32.281  1.00  0.00    -0.003 C 
ATOM      9  C   UNL     1     -35.130  36.412  32.094  1.00  0.00    -0.011 C 
ATOM     10  C   UNL     1     -35.130  32.490  35.446  1.00  0.00    -0.006 C 
ATOM     11  C   UNL     1     -33.539  32.406  33.467  1.00  0.00    -0.027 C 
ATOM     12  C   UNL     1     -34.543  34.184  30.956  1.00  0.00     0.008 C 
ATOM     13  C   UNL     1     -34.494  37.194  30.933  1.00  0.00     0.008 C 
ATOM     14  C   UNL     1     -34.906  33.559  36.563  1.00  0.00     0.017 C 
ATOM     15  C   UNL     1     -34.451  31.076  35.898  1.00  0.00    -0.020 C 
ATOM     16  C   UNL     1     -33.126  30.991  33.714  1.00  0.00     0.032 C 
ATOM     17  C   UNL     1     -34.134  30.226  34.605  1.00  0.00     0.006 C 
ATOM     18  C   UNL     1     -35.402  30.263  36.846  1.00  0.00     0.008 C 
ATOM     19  C   UNL     1     -33.131  31.339  36.700  1.00  0.00     0.012 C 
ATOM     20  C   UNL     1     -33.797  28.672  34.798  1.00  0.00    -0.025 C 
ATOM     21  C   UNL     1     -34.977  28.811  37.080  1.00  0.00     0.005 C 
ATOM     22  C   UNL     1     -34.912  28.062  35.725  1.00  0.00     0.003 C 
ATOM     23  C   UNL     1     -33.902  27.968  33.403  1.00  0.00     0.010 C 
ATOM     24  C   UNL     1     -32.348  28.434  35.352  1.00  0.00     0.012 C 
ATOM     25  C   UNL     1     -34.963  26.484  35.822  1.00  0.00    -0.006 C 
ATOM     26  C   UNL     1     -33.909  26.430  33.469  1.00  0.00     0.033 C 
ATOM     27  C   UNL     1     -35.018  25.885  34.378  1.00  0.00     0.120 C 
ATOM     28  C   UNL     1     -36.252  26.036  36.569  1.00  0.00     0.014 C 
ATOM     29  C   UNL     1     -33.773  25.877  36.609  1.00  0.00     0.014 C 
ENDROOT
BRANCH   1  30
ATOM     30  C   UNL     1     -37.116  33.214  32.232  1.00  0.00     0.048 C 
ATOM     31  O   UNL     1     -37.858  33.593  31.286  1.00  0.00    -0.550 OA
ATOM     32  O   UNL     1     -36.734  31.878  32.279  1.00  0.00    -0.550 OA
ENDBRANCH   1  30
BRANCH  27  33
ATOM     33  O   UNL     1     -36.257  26.165  33.769  1.00  0.00    -0.393 OA
ATOM     34  H   UNL     1     -36.410  27.144  33.834  1.00  0.00     0.210 HD
ENDBRANCH  27  33
TORSDOF 2
ENDMDL
MODEL 6
REMARK VINA RESULT:    -4.762      4.295      7.828
REMARK INTER + INTRA:          -4.784
REMARK INTER:                  -5.184
REMARK INTRA:                   0.400
REMARK UNBOUND:                 0.395
REMARK SMILES C[C@H]1[C@@H](C)CC[C@]2(C(=O)[O-])CC[C@]3(C)C(=CC[C@H]4[C@]5(C)CC[C@H](O)C(C)(C)[C@H]5CC[C@@]43C)[C@@H]12
REMARK SMILES IDX 7 1 6 2 11 3 33 4 5 5 12 6 15 7 2 8 3 9 13 10 16 11 1 12
REMARK SMILES IDX 4 13 14 14 31 15 17 16 18 17 30 18 32 19 19 20 29 21 28 22
REMARK SMILES IDX 21 23 20 24 25 25 22 26 23 27 26 28 27 29 8 30 9 31 10 32
REMARK SMILES IDX 24 33
REMARK H PARENT 24 34
REMARK Flexibility Score: inf
ROOT
ATOM      1  C   UNL     1     -37.070  34.180  38.132  1.00  0.00     0.017 C 
ATOM      2  C   UNL     1     -37.808  35.402  38.769  1.00  0.00     0.014 C 
ATOM      3  C   UNL     1     -38.121  33.060  37.920  1.00  0.00     0.014 C 
ATOM      4  C   UNL     1     -35.965  33.704  39.137  1.00  0.00     0.030 C 
ATOM      5  C   UNL     1     -36.869  36.539  39.201  1.00  0.00     0.004 C 
ATOM      6  C   UNL     1     -37.520  31.677  37.589  1.00  0.00     0.013 C 
ATOM      7  C   UNL     1     -35.412  32.310  38.772  1.00  0.00    -0.063 C 
ATOM      8  C   UNL     1     -34.955  34.855  39.494  1.00  0.00    -0.003 C 
ATOM      9  C   UNL     1     -35.748  36.033  40.134  1.00  0.00    -0.011 C 
ATOM     10  C   UNL     1     -36.435  31.156  38.595  1.00  0.00    -0.006 C 
ATOM     11  C   UNL     1     -34.086  32.124  38.578  1.00  0.00    -0.027 C 
ATOM     12  C   UNL     1     -34.045  35.350  38.335  1.00  0.00     0.008 C 
ATOM     13  C   UNL     1     -34.842  37.191  40.579  1.00  0.00     0.008 C 
ATOM     14  C   UNL     1     -37.155  30.918  39.961  1.00  0.00     0.017 C 
ATOM     15  C   UNL     1     -35.736  29.767  38.095  1.00  0.00    -0.020 C 
ATOM     16  C   UNL     1     -33.489  30.961  37.852  1.00  0.00     0.032 C 
ATOM     17  C   UNL     1     -34.554  30.117  37.109  1.00  0.00     0.006 C 
ATOM     18  C   UNL     1     -36.772  28.836  37.370  1.00  0.00     0.008 C 
ATOM     19  C   UNL     1     -35.188  28.963  39.322  1.00  0.00     0.012 C 
ATOM     20  C   UNL     1     -33.950  28.931  36.218  1.00  0.00    -0.025 C 
ATOM     21  C   UNL     1     -36.149  27.657  36.618  1.00  0.00     0.005 C 
ATOM     22  C   UNL     1     -35.162  28.185  35.547  1.00  0.00     0.003 C 
ATOM     23  C   UNL     1     -33.090  29.563  35.072  1.00  0.00     0.010 C 
ATOM     24  C   UNL     1     -33.025  27.969  37.042  1.00  0.00     0.012 C 
ATOM     25  C   UNL     1     -34.810  27.165  34.391  1.00  0.00    -0.006 C 
ATOM     26  C   UNL     1     -32.697  28.578  33.957  1.00  0.00     0.033 C 
ATOM     27  C   UNL     1     -33.913  27.884  33.330  1.00  0.00     0.120 C 
ATOM     28  C   UNL     1     -36.110  26.700  33.674  1.00  0.00     0.014 C 
ATOM     29  C   UNL     1     -34.112  25.877  34.899  1.00  0.00     0.014 C 
ENDROOT
BRANCH   1  30
ATOM     30  C   UNL     1     -36.504  34.536  36.760  1.00  0.00     0.048 C 
ATOM     31  O   UNL     1     -36.852  35.596  36.173  1.00  0.00    -0.550 OA
ATOM     32  O   UNL     1     -35.667  33.652  36.088  1.00  0.00    -0.550 OA
ENDBRANCH   1  30
BRANCH  27  33
ATOM     33  O   UNL     1     -34.653  28.854  32.627  1.00  0.00    -0.393 OA
ATOM     34  H   UNL     1     -35.224  29.332  33.284  1.00  0.00     0.210 HD
ENDBRANCH  27  33
TORSDOF 2
ENDMDL
MODEL 7
REMARK VINA RESULT:    -4.723      2.778      5.405
REMARK INTER + INTRA:          -4.742
REMARK INTER:                  -5.137
REMARK INTRA:                   0.394
REMARK UNBOUND:                 0.395
REMARK SMILES C[C@H]1[C@@H](C)CC[C@]2(C(=O)[O-])CC[C@]3(C)C(=CC[C@H]4[C@]5(C)CC[C@H](O)C(C)(C)[C@H]5CC[C@@]43C)[C@@H]12
REMARK SMILES IDX 7 1 6 2 11 3 33 4 5 5 12 6 15 7 2 8 3 9 13 10 16 11 1 12
REMARK SMILES IDX 4 13 14 14 31 15 17 16 18 17 30 18 32 19 19 20 29 21 28 22
REMARK SMILES IDX 21 23 20 24 25 25 22 26 23 27 26 28 27 29 8 30 9 31 10 32
REMARK SMILES IDX 24 33
REMARK H PARENT 24 34
REMARK Flexibility Score: inf
ROOT
ATOM      1  C   UNL     1     -31.448  29.830  32.478  1.00  0.00     0.017 C 
ATOM      2  C   UNL     1     -32.957  30.211  32.624  1.00  0.00     0.014 C 
ATOM      3  C   UNL     1     -30.853  30.706  31.345  1.00  0.00     0.014 C 
ATOM      4  C   UNL     1     -31.368  28.314  32.090  1.00  0.00     0.030 C 
ATOM      5  C   UNL     1     -33.735  29.309  33.594  1.00  0.00     0.004 C 
ATOM      6  C   UNL     1     -29.462  30.253  30.853  1.00  0.00     0.013 C 
ATOM      7  C   UNL     1     -29.962  27.918  31.588  1.00  0.00    -0.063 C 
ATOM      8  C   UNL     1     -32.087  27.394  33.144  1.00  0.00    -0.003 C 
ATOM      9  C   UNL     1     -33.583  27.815  33.233  1.00  0.00    -0.011 C 
ATOM     10  C   UNL     1     -29.356  28.748  30.425  1.00  0.00    -0.006 C 
ATOM     11  C   UNL     1     -29.279  26.908  32.175  1.00  0.00    -0.027 C 
ATOM     12  C   UNL     1     -31.433  27.329  34.553  1.00  0.00     0.008 C 
ATOM     13  C   UNL     1     -34.395  26.934  34.195  1.00  0.00     0.008 C 
ATOM     14  C   UNL     1     -30.260  28.568  29.163  1.00  0.00     0.017 C 
ATOM     15  C   UNL     1     -27.825  28.308  30.068  1.00  0.00    -0.020 C 
ATOM     16  C   UNL     1     -27.804  26.699  32.055  1.00  0.00     0.032 C 
ATOM     17  C   UNL     1     -27.086  27.906  31.404  1.00  0.00     0.006 C 
ATOM     18  C   UNL     1     -27.046  29.472  29.361  1.00  0.00     0.008 C 
ATOM     19  C   UNL     1     -27.826  27.097  29.075  1.00  0.00     0.012 C 
ATOM     20  C   UNL     1     -25.489  27.780  31.365  1.00  0.00    -0.025 C 
ATOM     21  C   UNL     1     -25.534  29.254  29.257  1.00  0.00     0.005 C 
ATOM     22  C   UNL     1     -24.933  29.080  30.674  1.00  0.00     0.003 C 
ATOM     23  C   UNL     1     -24.959  27.762  32.838  1.00  0.00     0.010 C 
ATOM     24  C   UNL     1     -25.006  26.464  30.661  1.00  0.00     0.012 C 
ATOM     25  C   UNL     1     -23.374  29.325  30.782  1.00  0.00    -0.006 C 
ATOM     26  C   UNL     1     -23.437  27.955  32.966  1.00  0.00     0.033 C 
ATOM     27  C   UNL     1     -22.947  29.238  32.285  1.00  0.00     0.120 C 
ATOM     28  C   UNL     1     -23.020  30.751  30.271  1.00  0.00     0.014 C 
ATOM     29  C   UNL     1     -22.536  28.338  29.929  1.00  0.00     0.014 C 
ENDROOT
BRANCH   1  30
ATOM     30  C   UNL     1     -30.675  30.153  33.754  1.00  0.00     0.048 C 
ATOM     31  O   UNL     1     -31.201  30.838  34.672  1.00  0.00    -0.550 OA
ATOM     32  O   UNL     1     -29.342  29.780  33.888  1.00  0.00    -0.550 OA
ENDBRANCH   1  30
BRANCH  27  33
ATOM     33  O   UNL     1     -23.450  30.336  33.010  1.00  0.00    -0.393 OA
ATOM     34  H   UNL     1     -22.756  30.604  33.668  1.00  0.00     0.210 HD
ENDBRANCH  27  33
TORSDOF 2
ENDMDL
MODEL 8
REMARK VINA RESULT:    -4.704      1.977      7.603
REMARK INTER + INTRA:          -4.721
REMARK INTER:                  -5.112
REMARK INTRA:                   0.391
REMARK UNBOUND:                 0.395
REMARK SMILES C[C@H]1[C@@H](C)CC[C@]2(C(=O)[O-])CC[C@]3(C)C(=CC[C@H]4[C@]5(C)CC[C@H](O)C(C)(C)[C@H]5CC[C@@]43C)[C@@H]12
REMARK SMILES IDX 7 1 6 2 11 3 33 4 5 5 12 6 15 7 2 8 3 9 13 10 16 11 1 12
REMARK SMILES IDX 4 13 14 14 31 15 17 16 18 17 30 18 32 19 19 20 29 21 28 22
REMARK SMILES IDX 21 23 20 24 25 25 22 26 23 27 26 28 27 29 8 30 9 31 10 32
REMARK SMILES IDX 24 33
REMARK H PARENT 24 34
REMARK Flexibility Score: inf
ROOT
ATOM      1  C   UNL     1     -29.337  31.698  31.312  1.00  0.00     0.017 C 
ATOM      2  C   UNL     1     -28.337  32.706  30.657  1.00  0.00     0.014 C 
ATOM      3  C   UNL     1     -29.984  32.408  32.530  1.00  0.00     0.014 C 
ATOM      4  C   UNL     1     -28.520  30.447  31.785  1.00  0.00     0.030 C 
ATOM      5  C   UNL     1     -27.485  32.095  29.534  1.00  0.00     0.004 C 
ATOM      6  C   UNL     1     -30.760  31.469  33.476  1.00  0.00     0.013 C 
ATOM      7  C   UNL     1     -29.336  29.551  32.742  1.00  0.00    -0.063 C 
ATOM      8  C   UNL     1     -27.729  29.775  30.603  1.00  0.00    -0.003 C 
ATOM      9  C   UNL     1     -26.746  30.823  30.004  1.00  0.00    -0.011 C 
ATOM     10  C   UNL     1     -29.961  30.223  33.995  1.00  0.00    -0.006 C 
ATOM     11  C   UNL     1     -29.524  28.240  32.468  1.00  0.00    -0.027 C 
ATOM     12  C   UNL     1     -28.592  29.109  29.494  1.00  0.00     0.008 C 
ATOM     13  C   UNL     1     -25.875  30.248  28.876  1.00  0.00     0.008 C 
ATOM     14  C   UNL     1     -28.805  30.765  34.896  1.00  0.00     0.017 C 
ATOM     15  C   UNL     1     -30.893  29.198  34.859  1.00  0.00    -0.020 C 
ATOM     16  C   UNL     1     -30.591  27.389  33.079  1.00  0.00     0.032 C 
ATOM     17  C   UNL     1     -31.633  28.221  33.865  1.00  0.00     0.006 C 
ATOM     18  C   UNL     1     -31.949  29.977  35.721  1.00  0.00     0.008 C 
ATOM     19  C   UNL     1     -30.013  28.376  35.860  1.00  0.00     0.012 C 
ATOM     20  C   UNL     1     -32.863  27.367  34.435  1.00  0.00    -0.025 C 
ATOM     21  C   UNL     1     -33.045  29.099  36.330  1.00  0.00     0.005 C 
ATOM     22  C   UNL     1     -33.811  28.363  35.201  1.00  0.00     0.003 C 
ATOM     23  C   UNL     1     -33.666  26.787  33.223  1.00  0.00     0.010 C 
ATOM     24  C   UNL     1     -32.398  26.164  35.328  1.00  0.00     0.012 C 
ATOM     25  C   UNL     1     -35.238  27.813  35.600  1.00  0.00    -0.006 C 
ATOM     26  C   UNL     1     -35.042  26.204  33.594  1.00  0.00     0.033 C 
ATOM     27  C   UNL     1     -35.929  27.216  34.329  1.00  0.00     0.120 C 
ATOM     28  C   UNL     1     -36.132  28.974  36.123  1.00  0.00     0.014 C 
ATOM     29  C   UNL     1     -35.195  26.755  36.733  1.00  0.00     0.014 C 
ENDROOT
BRANCH   1  30
ATOM     30  C   UNL     1     -30.463  31.337  30.347  1.00  0.00     0.048 C 
ATOM     31  O   UNL     1     -30.596  31.947  29.253  1.00  0.00    -0.550 OA
ATOM     32  O   UNL     1     -31.422  30.393  30.700  1.00  0.00    -0.550 OA
ENDBRANCH   1  30
BRANCH  27  33
ATOM     33  O   UNL     1     -36.271  28.237  33.422  1.00  0.00    -0.393 OA
ATOM     34  H   UNL     1     -36.360  27.823  32.523  1.00  0.00     0.210 HD
ENDBRANCH  27  33
TORSDOF 2
ENDMDL
MODEL 9
REMARK VINA RESULT:    -4.677      3.917      6.281
REMARK INTER + INTRA:          -4.692
REMARK INTER:                  -5.090
REMARK INTRA:                   0.398
REMARK UNBOUND:                 0.395
REMARK SMILES C[C@H]1[C@@H](C)CC[C@]2(C(=O)[O-])CC[C@]3(C)C(=CC[C@H]4[C@]5(C)CC[C@H](O)C(C)(C)[C@H]5CC[C@@]43C)[C@@H]12
REMARK SMILES IDX 7 1 6 2 11 3 33 4 5 5 12 6 15 7 2 8 3 9 13 10 16 11 1 12
REMARK SMILES IDX 4 13 14 14 31 15 17 16 18 17 30 18 32 19 19 20 29 21 28 22
REMARK SMILES IDX 21 23 20 24 25 25 22 26 23 27 26 28 27 29 8 30 9 31 10 32
REMARK SMILES IDX 24 33
REMARK H PARENT 24 34
REMARK Flexibility Score: inf
ROOT
ATOM      1  C   UNL     1     -33.472  27.862  34.404  1.00  0.00     0.017 C 
ATOM      2  C   UNL     1     -32.874  26.545  34.997  1.00  0.00     0.014 C 
ATOM      3  C   UNL     1     -32.384  28.503  33.503  1.00  0.00     0.014 C 
ATOM      4  C   UNL     1     -33.817  28.816  35.598  1.00  0.00     0.030 C 
ATOM      5  C   UNL     1     -33.770  25.875  36.051  1.00  0.00     0.004 C 
ATOM      6  C   UNL     1     -32.681  29.958  33.082  1.00  0.00     0.013 C 
ATOM      7  C   UNL     1     -34.088  30.261  35.125  1.00  0.00    -0.063 C 
ATOM      8  C   UNL     1     -34.812  28.151  36.619  1.00  0.00    -0.003 C 
ATOM      9  C   UNL     1     -34.155  26.855  37.180  1.00  0.00    -0.011 C 
ATOM     10  C   UNL     1     -32.999  30.947  34.257  1.00  0.00    -0.006 C 
ATOM     11  C   UNL     1     -35.251  30.880  35.430  1.00  0.00    -0.027 C 
ATOM     12  C   UNL     1     -36.249  27.874  36.092  1.00  0.00     0.008 C 
ATOM     13  C   UNL     1     -35.023  26.156  38.238  1.00  0.00     0.008 C 
ATOM     14  C   UNL     1     -31.695  31.078  35.109  1.00  0.00     0.017 C 
ATOM     15  C   UNL     1     -33.455  32.422  33.725  1.00  0.00    -0.020 C 
ATOM     16  C   UNL     1     -35.785  32.083  34.719  1.00  0.00     0.032 C 
ATOM     17  C   UNL     1     -35.003  32.397  33.421  1.00  0.00     0.006 C 
ATOM     18  C   UNL     1     -32.666  32.830  32.430  1.00  0.00     0.008 C 
ATOM     19  C   UNL     1     -33.140  33.510  34.807  1.00  0.00     0.012 C 
ATOM     20  C   UNL     1     -35.614  33.603  32.560  1.00  0.00    -0.025 C 
ATOM     21  C   UNL     1     -33.230  34.053  31.702  1.00  0.00     0.005 C 
ATOM     22  C   UNL     1     -34.700  33.784  31.292  1.00  0.00     0.003 C 
ATOM     23  C   UNL     1     -37.038  33.183  32.063  1.00  0.00     0.010 C 
ATOM     24  C   UNL     1     -35.763  34.923  33.395  1.00  0.00     0.012 C 
ATOM     25  C   UNL     1     -35.262  34.715  30.144  1.00  0.00    -0.006 C 
ATOM     26  C   UNL     1     -37.625  34.101  30.976  1.00  0.00     0.033 C 
ATOM     27  C   UNL     1     -36.702  34.237  29.759  1.00  0.00     0.120 C 
ATOM     28  C   UNL     1     -34.370  34.598  28.875  1.00  0.00     0.014 C 
ATOM     29  C   UNL     1     -35.281  36.218  30.524  1.00  0.00     0.014 C 
ENDROOT
BRANCH   1  30
ATOM     30  C   UNL     1     -34.678  27.566  33.517  1.00  0.00     0.048 C 
ATOM     31  O   UNL     1     -34.963  26.384  33.187  1.00  0.00    -0.550 OA
ATOM     32  O   UNL     1     -35.431  28.603  32.977  1.00  0.00    -0.550 OA
ENDBRANCH   1  30
BRANCH  27  33
ATOM     33  O   UNL     1     -36.655  32.990  29.105  1.00  0.00    -0.393 OA
ATOM     34  H   UNL     1     -36.683  33.162  28.128  1.00  0.00     0.210 HD
ENDBRANCH  27  33
TORSDOF 2
ENDMDL
