MODEL 1
REMARK VINA RESULT:    -2.813      0.000      0.000
REMARK INTER + INTRA:          -8.066
REMARK INTER:                  -7.088
REMARK INTRA:                  -0.978
REMARK UNBOUND:                -0.978
REMARK SMILES CCCCCCCCCCCCCCCCCCCCCCCCCCCC(=O)[O-]
REMARK SMILES IDX 15 1 16 2 17 3 18 4 19 5 20 6 21 7 22 8 23 9 24 10 25 11
REMARK SMILES IDX 26 12 27 13 28 14 29 15 30 16 14 17 13 18 12 19 11 20 10 21
REMARK SMILES IDX 9 22 8 23 7 24 6 25 5 26 4 27 3 28 2 29 1 30
REMARK H PARENT
REMARK Flexibility Score: inf
ROOT
ATOM      1  C   UNL     1      44.185  29.548   3.268  1.00  0.00     0.000 C 
ENDROOT
BRANCH   1   2
ATOM      2  C   UNL     1      42.978  28.624   3.024  1.00  0.00     0.000 C 
BRANCH   2   3
ATOM      3  C   UNL     1      43.304  27.123   3.197  1.00  0.00     0.000 C 
BRANCH   3   4
ATOM      4  C   UNL     1      44.603  26.682   2.489  1.00  0.00     0.000 C 
BRANCH   4   5
ATOM      5  C   UNL     1      45.803  26.435   3.418  1.00  0.00     0.000 C 
BRANCH   5   6
ATOM      6  C   UNL     1      46.330  27.724   4.074  1.00  0.00     0.000 C 
BRANCH   6   7
ATOM      7  C   UNL     1      45.689  28.002   5.445  1.00  0.00     0.000 C 
BRANCH   7   8
ATOM      8  C   UNL     1      46.399  29.075   6.292  1.00  0.00     0.000 C 
BRANCH   8   9
ATOM      9  C   UNL     1      45.725  29.298   7.657  1.00  0.00     0.000 C 
BRANCH   9  10
ATOM     10  C   UNL     1      46.723  29.686   8.762  1.00  0.00     0.000 C 
BRANCH  10  11
ATOM     11  C   UNL     1      46.480  29.019  10.132  1.00  0.00     0.000 C 
BRANCH  11  12
ATOM     12  C   UNL     1      45.107  28.338  10.300  1.00  0.00     0.006 C 
BRANCH  12  13
ATOM     13  C   UNL     1      44.941  27.037   9.500  1.00  0.00     0.053 C 
BRANCH  13  14
ATOM     14  C   UNL     1      46.161  26.171   9.580  1.00  0.00     0.041 C 
ATOM     15  O   UNL     1      46.798  25.876   8.533  1.00  0.00    -0.550 OA
ATOM     16  O   UNL     1      46.614  25.717  10.812  1.00  0.00    -0.550 OA
ENDBRANCH  13  14
ENDBRANCH  12  13
ENDBRANCH  11  12
ENDBRANCH  10  11
ENDBRANCH   9  10
ENDBRANCH   8   9
ENDBRANCH   7   8
ENDBRANCH   6   7
ENDBRANCH   5   6
ENDBRANCH   4   5
ENDBRANCH   3   4
ENDBRANCH   2   3
ENDBRANCH   1   2
BRANCH   1  17
ATOM     17  C   UNL     1      44.815  30.050   1.956  1.00  0.00     0.000 C 
BRANCH  17  18
ATOM     18  C   UNL     1      46.358  30.059   2.017  1.00  0.00     0.000 C 
BRANCH  18  19
ATOM     19  C   UNL     1      47.035  29.863   0.651  1.00  0.00     0.000 C 
BRANCH  19  20
ATOM     20  C   UNL     1      46.085  30.125  -0.530  1.00  0.00     0.000 C 
BRANCH  20  21
ATOM     21  C   UNL     1      46.217  29.074  -1.645  1.00  0.00     0.000 C 
BRANCH  21  22
ATOM     22  C   UNL     1      44.888  28.642  -2.299  1.00  0.00    -0.000 C 
BRANCH  22  23
ATOM     23  C   UNL     1      44.778  27.122  -2.548  1.00  0.00    -0.000 C 
BRANCH  23  24
ATOM     24  C   UNL     1      43.790  26.786  -3.681  1.00  0.00    -0.000 C 
BRANCH  24  25
ATOM     25  C   UNL     1      42.681  27.844  -3.830  1.00  0.00    -0.000 C 
BRANCH  25  26
ATOM     26  C   UNL     1      42.737  28.616  -5.162  1.00  0.00    -0.000 C 
BRANCH  26  27
ATOM     27  C   UNL     1      43.541  27.863  -6.238  1.00  0.00    -0.000 C 
BRANCH  27  28
ATOM     28  C   UNL     1      44.642  28.730  -6.872  1.00  0.00    -0.000 C 
BRANCH  28  29
ATOM     29  C   UNL     1      45.407  29.569  -5.838  1.00  0.00    -0.003 C 
ATOM     30  C   UNL     1      46.736  28.913  -5.473  1.00  0.00     0.004 C 
ENDBRANCH  28  29
ENDBRANCH  27  28
ENDBRANCH  26  27
ENDBRANCH  25  26
ENDBRANCH  24  25
ENDBRANCH  23  24
ENDBRANCH  22  23
ENDBRANCH  21  22
ENDBRANCH  20  21
ENDBRANCH  19  20
ENDBRANCH  18  19
ENDBRANCH  17  18
ENDBRANCH   1  17
TORSDOF 26
ENDMDL
MODEL 2
REMARK VINA RESULT:    -2.559      3.868     11.657
REMARK INTER + INTRA:          -7.426
REMARK INTER:                  -6.129
REMARK INTRA:                  -1.297
REMARK UNBOUND:                -0.978
REMARK SMILES CCCCCCCCCCCCCCCCCCCCCCCCCCCC(=O)[O-]
REMARK SMILES IDX 15 1 16 2 17 3 18 4 19 5 20 6 21 7 22 8 23 9 24 10 25 11
REMARK SMILES IDX 26 12 27 13 28 14 29 15 30 16 14 17 13 18 12 19 11 20 10 21
REMARK SMILES IDX 9 22 8 23 7 24 6 25 5 26 4 27 3 28 2 29 1 30
REMARK H PARENT
REMARK Flexibility Score: inf
ROOT
ATOM      1  C   UNL     1      43.971  27.378   3.182  1.00  0.00     0.000 C 
ENDROOT
BRANCH   1   2
ATOM      2  C   UNL     1      44.337  28.872   3.106  1.00  0.00     0.000 C 
BRANCH   2   3
ATOM      3  C   UNL     1      45.813  29.165   3.462  1.00  0.00     0.000 C 
BRANCH   3   4
ATOM      4  C   UNL     1      46.792  28.944   2.290  1.00  0.00     0.000 C 
BRANCH   4   5
ATOM      5  C   UNL     1      46.784  30.044   1.216  1.00  0.00     0.000 C 
BRANCH   5   6
ATOM      6  C   UNL     1      45.880  29.705   0.016  1.00  0.00     0.000 C 
BRANCH   6   7
ATOM      7  C   UNL     1      46.639  29.002  -1.123  1.00  0.00     0.000 C 
BRANCH   7   8
ATOM      8  C   UNL     1      45.748  28.391  -2.221  1.00  0.00     0.000 C 
BRANCH   8   9
ATOM      9  C   UNL     1      46.539  27.996  -3.479  1.00  0.00     0.000 C 
BRANCH   9  10
ATOM     10  C   UNL     1      46.346  28.982  -4.644  1.00  0.00     0.000 C 
BRANCH  10  11
ATOM     11  C   UNL     1      45.892  28.349  -5.975  1.00  0.00     0.000 C 
BRANCH  11  12
ATOM     12  C   UNL     1      44.388  28.484  -6.291  1.00  0.00     0.006 C 
BRANCH  12  13
ATOM     13  C   UNL     1      43.702  29.679  -5.612  1.00  0.00     0.053 C 
BRANCH  13  14
ATOM     14  C   UNL     1      42.500  29.261  -4.823  1.00  0.00     0.041 C 
ATOM     15  O   UNL     1      42.556  29.203  -3.565  1.00  0.00    -0.550 OA
ATOM     16  O   UNL     1      41.307  28.969  -5.473  1.00  0.00    -0.550 OA
ENDBRANCH  13  14
ENDBRANCH  12  13
ENDBRANCH  11  12
ENDBRANCH  10  11
ENDBRANCH   9  10
ENDBRANCH   8   9
ENDBRANCH   7   8
ENDBRANCH   6   7
ENDBRANCH   5   6
ENDBRANCH   4   5
ENDBRANCH   3   4
ENDBRANCH   2   3
ENDBRANCH   1   2
BRANCH   1  17
ATOM     17  C   UNL     1      44.856  26.510   2.270  1.00  0.00     0.000 C 
BRANCH  17  18
ATOM     18  C   UNL     1      46.003  25.829   3.049  1.00  0.00     0.000 C 
BRANCH  18  19
ATOM     19  C   UNL     1      45.950  26.069   4.567  1.00  0.00     0.000 C 
BRANCH  19  20
ATOM     20  C   UNL     1      47.065  27.006   5.062  1.00  0.00     0.000 C 
BRANCH  20  21
ATOM     21  C   UNL     1      46.835  27.495   6.502  1.00  0.00     0.000 C 
BRANCH  21  22
ATOM     22  C   UNL     1      45.576  28.363   6.706  1.00  0.00    -0.000 C 
BRANCH  22  23
ATOM     23  C   UNL     1      45.874  29.866   6.894  1.00  0.00    -0.000 C 
BRANCH  23  24
ATOM     24  C   UNL     1      47.099  30.109   7.796  1.00  0.00    -0.000 C 
BRANCH  24  25
ATOM     25  C   UNL     1      46.741  30.107   9.293  1.00  0.00    -0.000 C 
BRANCH  25  26
ATOM     26  C   UNL     1      47.124  28.804  10.021  1.00  0.00    -0.000 C 
BRANCH  26  27
ATOM     27  C   UNL     1      45.923  28.167  10.744  1.00  0.00    -0.000 C 
BRANCH  27  28
ATOM     28  C   UNL     1      45.576  26.771  10.201  1.00  0.00    -0.000 C 
BRANCH  28  29
ATOM     29  C   UNL     1      46.815  25.886  10.002  1.00  0.00    -0.003 C 
ATOM     30  C   UNL     1      47.123  25.080  11.262  1.00  0.00     0.004 C 
ENDBRANCH  28  29
ENDBRANCH  27  28
ENDBRANCH  26  27
ENDBRANCH  25  26
ENDBRANCH  24  25
ENDBRANCH  23  24
ENDBRANCH  22  23
ENDBRANCH  21  22
ENDBRANCH  20  21
ENDBRANCH  19  20
ENDBRANCH  18  19
ENDBRANCH  17  18
ENDBRANCH   1  17
TORSDOF 26
ENDMDL
MODEL 3
REMARK VINA RESULT:    -1.252      3.762     11.198
REMARK INTER + INTRA:          -4.133
REMARK INTER:                  -6.322
REMARK INTRA:                   2.189
REMARK UNBOUND:                -0.978
REMARK SMILES CCCCCCCCCCCCCCCCCCCCCCCCCCCC(=O)[O-]
REMARK SMILES IDX 15 1 16 2 17 3 18 4 19 5 20 6 21 7 22 8 23 9 24 10 25 11
REMARK SMILES IDX 26 12 27 13 28 14 29 15 30 16 14 17 13 18 12 19 11 20 10 21
REMARK SMILES IDX 9 22 8 23 7 24 6 25 5 26 4 27 3 28 2 29 1 30
REMARK H PARENT
REMARK Flexibility Score: inf
ROOT
ATOM      1  C   UNL     1      46.703  28.783   0.995  1.00  0.00     0.000 C 
ENDROOT
BRANCH   1   2
ATOM      2  C   UNL     1      45.187  29.017   0.851  1.00  0.00     0.000 C 
BRANCH   2   3
ATOM      3  C   UNL     1      44.822  30.048  -0.241  1.00  0.00     0.000 C 
BRANCH   3   4
ATOM      4  C   UNL     1      45.275  29.639  -1.659  1.00  0.00     0.000 C 
BRANCH   4   5
ATOM      5  C   UNL     1      45.627  28.152  -1.829  1.00  0.00     0.000 C 
BRANCH   5   6
ATOM      6  C   UNL     1      46.482  27.876  -3.079  1.00  0.00     0.000 C 
BRANCH   6   7
ATOM      7  C   UNL     1      46.430  29.024  -4.104  1.00  0.00     0.000 C 
BRANCH   7   8
ATOM      8  C   UNL     1      47.119  28.730  -5.449  1.00  0.00     0.000 C 
BRANCH   8   9
ATOM      9  C   UNL     1      46.185  28.937  -6.654  1.00  0.00     0.000 C 
BRANCH   9  10
ATOM     10  C   UNL     1      45.091  29.986  -6.392  1.00  0.00     0.000 C 
BRANCH  10  11
ATOM     11  C   UNL     1      44.481  29.962  -4.976  1.00  0.00     0.000 C 
BRANCH  11  12
ATOM     12  C   UNL     1      42.942  29.875  -4.922  1.00  0.00     0.006 C 
BRANCH  12  13
ATOM     13  C   UNL     1      42.399  28.829  -3.936  1.00  0.00     0.053 C 
BRANCH  13  14
ATOM     14  C   UNL     1      42.938  27.461  -4.218  1.00  0.00     0.041 C 
ATOM     15  O   UNL     1      43.061  26.623  -3.285  1.00  0.00    -0.550 OA
ATOM     16  O   UNL     1      43.274  27.098  -5.517  1.00  0.00    -0.550 OA
ENDBRANCH  13  14
ENDBRANCH  12  13
ENDBRANCH  11  12
ENDBRANCH  10  11
ENDBRANCH   9  10
ENDBRANCH   8   9
ENDBRANCH   7   8
ENDBRANCH   6   7
ENDBRANCH   5   6
ENDBRANCH   4   5
ENDBRANCH   3   4
ENDBRANCH   2   3
ENDBRANCH   1   2
BRANCH   1  17
ATOM     17  C   UNL     1      47.090  28.292   2.402  1.00  0.00     0.000 C 
BRANCH  17  18
ATOM     18  C   UNL     1      45.852  28.007   3.280  1.00  0.00     0.000 C 
BRANCH  18  19
ATOM     19  C   UNL     1      45.386  29.216   4.107  1.00  0.00     0.000 C 
BRANCH  19  20
ATOM     20  C   UNL     1      45.713  29.078   5.604  1.00  0.00     0.000 C 
BRANCH  20  21
ATOM     21  C   UNL     1      46.931  29.915   6.027  1.00  0.00     0.000 C 
BRANCH  21  22
ATOM     22  C   UNL     1      47.089  30.120   7.548  1.00  0.00    -0.000 C 
BRANCH  22  23
ATOM     23  C   UNL     1      45.830  29.753   8.363  1.00  0.00    -0.000 C 
BRANCH  23  24
ATOM     24  C   UNL     1      45.318  28.337   8.040  1.00  0.00    -0.000 C 
BRANCH  24  25
ATOM     25  C   UNL     1      45.103  27.484   9.304  1.00  0.00    -0.000 C 
BRANCH  25  26
ATOM     26  C   UNL     1      46.368  26.738   9.771  1.00  0.00    -0.000 C 
BRANCH  26  27
ATOM     27  C   UNL     1      47.109  26.063   8.602  1.00  0.00    -0.000 C 
BRANCH  27  28
ATOM     28  C   UNL     1      46.260  25.995   7.321  1.00  0.00    -0.000 C 
BRANCH  28  29
ATOM     29  C   UNL     1      47.108  26.053   6.042  1.00  0.00    -0.003 C 
ATOM     30  C   UNL     1      46.331  25.517   4.843  1.00  0.00     0.004 C 
ENDBRANCH  28  29
ENDBRANCH  27  28
ENDBRANCH  26  27
ENDBRANCH  25  26
ENDBRANCH  24  25
ENDBRANCH  23  24
ENDBRANCH  22  23
ENDBRANCH  21  22
ENDBRANCH  20  21
ENDBRANCH  19  20
ENDBRANCH  18  19
ENDBRANCH  17  18
ENDBRANCH   1  17
TORSDOF 26
ENDMDL
MODEL 4
REMARK VINA RESULT:    -1.198      1.684      4.213
REMARK INTER + INTRA:          -3.996
REMARK INTER:                  -2.840
REMARK INTRA:                  -1.156
REMARK UNBOUND:                -0.978
REMARK SMILES CCCCCCCCCCCCCCCCCCCCCCCCCCCC(=O)[O-]
REMARK SMILES IDX 15 1 16 2 17 3 18 4 19 5 20 6 21 7 22 8 23 9 24 10 25 11
REMARK SMILES IDX 26 12 27 13 28 14 29 15 30 16 14 17 13 18 12 19 11 20 10 21
REMARK SMILES IDX 9 22 8 23 7 24 6 25 5 26 4 27 3 28 2 29 1 30
REMARK H PARENT
REMARK Flexibility Score: inf
ROOT
ATOM      1  C   UNL     1      44.058  26.481  -0.780  1.00  0.00     0.000 C 
ENDROOT
BRANCH   1   2
ATOM      2  C   UNL     1      45.511  26.971  -0.638  1.00  0.00     0.000 C 
BRANCH   2   3
ATOM      3  C   UNL     1      45.667  28.171   0.324  1.00  0.00     0.000 C 
BRANCH   3   4
ATOM      4  C   UNL     1      46.224  27.788   1.711  1.00  0.00     0.000 C 
BRANCH   4   5
ATOM      5  C   UNL     1      45.165  27.390   2.753  1.00  0.00     0.000 C 
BRANCH   5   6
ATOM      6  C   UNL     1      44.296  28.575   3.210  1.00  0.00     0.000 C 
BRANCH   6   7
ATOM      7  C   UNL     1      45.114  29.690   3.887  1.00  0.00     0.000 C 
BRANCH   7   8
ATOM      8  C   UNL     1      46.554  29.303   4.269  1.00  0.00     0.000 C 
BRANCH   8   9
ATOM      9  C   UNL     1      46.853  29.516   5.762  1.00  0.00     0.000 C 
BRANCH   9  10
ATOM     10  C   UNL     1      47.122  28.202   6.514  1.00  0.00     0.000 C 
BRANCH  10  11
ATOM     11  C   UNL     1      45.870  27.490   7.065  1.00  0.00     0.000 C 
BRANCH  11  12
ATOM     12  C   UNL     1      46.106  26.606   8.307  1.00  0.00     0.006 C 
BRANCH  12  13
ATOM     13  C   UNL     1      45.178  26.916   9.492  1.00  0.00     0.053 C 
BRANCH  13  14
ATOM     14  C   UNL     1      45.219  28.364   9.872  1.00  0.00     0.041 C 
ATOM     15  O   UNL     1      44.176  28.943  10.277  1.00  0.00    -0.550 OA
ATOM     16  O   UNL     1      46.416  29.066   9.813  1.00  0.00    -0.550 OA
ENDBRANCH  13  14
ENDBRANCH  12  13
ENDBRANCH  11  12
ENDBRANCH  10  11
ENDBRANCH   9  10
ENDBRANCH   8   9
ENDBRANCH   7   8
ENDBRANCH   6   7
ENDBRANCH   5   6
ENDBRANCH   4   5
ENDBRANCH   3   4
ENDBRANCH   2   3
ENDBRANCH   1   2
BRANCH   1  17
ATOM     17  C   UNL     1      43.800  25.795  -2.134  1.00  0.00     0.000 C 
BRANCH  17  18
ATOM     18  C   UNL     1      42.936  26.666  -3.072  1.00  0.00     0.000 C 
BRANCH  18  19
ATOM     19  C   UNL     1      43.691  27.183  -4.308  1.00  0.00     0.000 C 
BRANCH  19  20
ATOM     20  C   UNL     1      42.928  28.292  -5.052  1.00  0.00     0.000 C 
BRANCH  20  21
ATOM     21  C   UNL     1      43.097  28.209  -6.579  1.00  0.00     0.000 C 
BRANCH  21  22
ATOM     22  C   UNL     1      44.502  28.574  -7.103  1.00  0.00    -0.000 C 
BRANCH  22  23
ATOM     23  C   UNL     1      45.593  27.543  -6.741  1.00  0.00    -0.000 C 
BRANCH  23  24
ATOM     24  C   UNL     1      47.009  28.055  -7.064  1.00  0.00    -0.000 C 
BRANCH  24  25
ATOM     25  C   UNL     1      47.124  29.586  -6.951  1.00  0.00    -0.000 C 
BRANCH  25  26
ATOM     26  C   UNL     1      47.110  30.103  -5.500  1.00  0.00    -0.000 C 
BRANCH  26  27
ATOM     27  C   UNL     1      46.902  28.968  -4.480  1.00  0.00    -0.000 C 
BRANCH  27  28
ATOM     28  C   UNL     1      46.449  29.483  -3.104  1.00  0.00    -0.000 C 
BRANCH  28  29
ATOM     29  C   UNL     1      45.054  30.125  -3.138  1.00  0.00    -0.003 C 
ATOM     30  C   UNL     1      44.405  30.103  -1.757  1.00  0.00     0.004 C 
ENDBRANCH  28  29
ENDBRANCH  27  28
ENDBRANCH  26  27
ENDBRANCH  25  26
ENDBRANCH  24  25
ENDBRANCH  23  24
ENDBRANCH  22  23
ENDBRANCH  21  22
ENDBRANCH  20  21
ENDBRANCH  19  20
ENDBRANCH  18  19
ENDBRANCH  17  18
ENDBRANCH   1  17
TORSDOF 26
ENDMDL
MODEL 5
REMARK VINA RESULT:    -0.809      1.339      2.067
REMARK INTER + INTRA:          -3.016
REMARK INTER:                  -3.208
REMARK INTRA:                   0.192
REMARK UNBOUND:                -0.978
REMARK SMILES CCCCCCCCCCCCCCCCCCCCCCCCCCCC(=O)[O-]
REMARK SMILES IDX 15 1 16 2 17 3 18 4 19 5 20 6 21 7 22 8 23 9 24 10 25 11
REMARK SMILES IDX 26 12 27 13 28 14 29 15 30 16 14 17 13 18 12 19 11 20 10 21
REMARK SMILES IDX 9 22 8 23 7 24 6 25 5 26 4 27 3 28 2 29 1 30
REMARK H PARENT
REMARK Flexibility Score: inf
ROOT
ATOM      1  C   UNL     1      43.913  29.529   3.524  1.00  0.00     0.000 C 
ENDROOT
BRANCH   1   2
ATOM      2  C   UNL     1      42.500  28.998   3.219  1.00  0.00     0.000 C 
BRANCH   2   3
ATOM      3  C   UNL     1      42.412  27.454   3.197  1.00  0.00     0.000 C 
BRANCH   3   4
ATOM      4  C   UNL     1      43.605  26.772   2.495  1.00  0.00     0.000 C 
BRANCH   4   5
ATOM      5  C   UNL     1      44.644  26.142   3.438  1.00  0.00     0.000 C 
BRANCH   5   6
ATOM      6  C   UNL     1      45.849  27.062   3.704  1.00  0.00     0.000 C 
BRANCH   6   7
ATOM      7  C   UNL     1      45.551  28.150   4.750  1.00  0.00     0.000 C 
BRANCH   7   8
ATOM      8  C   UNL     1      46.750  28.562   5.625  1.00  0.00     0.000 C 
BRANCH   8   9
ATOM      9  C   UNL     1      46.409  29.696   6.607  1.00  0.00     0.000 C 
BRANCH   9  10
ATOM     10  C   UNL     1      47.107  29.540   7.969  1.00  0.00     0.000 C 
BRANCH  10  11
ATOM     11  C   UNL     1      46.272  28.840   9.060  1.00  0.00     0.000 C 
BRANCH  11  12
ATOM     12  C   UNL     1      46.944  27.622   9.727  1.00  0.00     0.006 C 
BRANCH  12  13
ATOM     13  C   UNL     1      46.013  26.797  10.628  1.00  0.00     0.053 C 
BRANCH  13  14
ATOM     14  C   UNL     1      46.719  26.291  11.849  1.00  0.00     0.041 C 
ATOM     15  O   UNL     1      46.974  25.063  11.970  1.00  0.00    -0.550 OA
ATOM     16  O   UNL     1      47.125  27.179  12.837  1.00  0.00    -0.550 OA
ENDBRANCH  13  14
ENDBRANCH  12  13
ENDBRANCH  11  12
ENDBRANCH  10  11
ENDBRANCH   9  10
ENDBRANCH   8   9
ENDBRANCH   7   8
ENDBRANCH   6   7
ENDBRANCH   5   6
ENDBRANCH   4   5
ENDBRANCH   3   4
ENDBRANCH   2   3
ENDBRANCH   1   2
BRANCH   1  17
ATOM     17  C   UNL     1      44.602  30.113   2.277  1.00  0.00     0.000 C 
BRANCH  17  18
ATOM     18  C   UNL     1      46.141  30.118   2.411  1.00  0.00     0.000 C 
BRANCH  18  19
ATOM     19  C   UNL     1      46.868  29.427   1.246  1.00  0.00     0.000 C 
BRANCH  19  20
ATOM     20  C   UNL     1      45.948  29.159   0.043  1.00  0.00     0.000 C 
BRANCH  20  21
ATOM     21  C   UNL     1      46.201  30.125  -1.127  1.00  0.00     0.000 C 
BRANCH  21  22
ATOM     22  C   UNL     1      47.008  29.533  -2.302  1.00  0.00    -0.000 C 
BRANCH  22  23
ATOM     23  C   UNL     1      46.498  29.968  -3.693  1.00  0.00    -0.000 C 
BRANCH  23  24
ATOM     24  C   UNL     1      46.747  28.894  -4.768  1.00  0.00    -0.000 C 
BRANCH  24  25
ATOM     25  C   UNL     1      46.617  27.463  -4.214  1.00  0.00    -0.000 C 
BRANCH  25  26
ATOM     26  C   UNL     1      45.193  26.884  -4.320  1.00  0.00    -0.000 C 
BRANCH  26  27
ATOM     27  C   UNL     1      44.159  27.953  -4.717  1.00  0.00    -0.000 C 
BRANCH  27  28
ATOM     28  C   UNL     1      43.438  27.621  -6.035  1.00  0.00    -0.000 C 
BRANCH  28  29
ATOM     29  C   UNL     1      43.620  28.710  -7.103  1.00  0.00    -0.003 C 
ATOM     30  C   UNL     1      43.283  30.089  -6.543  1.00  0.00     0.004 C 
ENDBRANCH  28  29
ENDBRANCH  27  28
ENDBRANCH  26  27
ENDBRANCH  25  26
ENDBRANCH  24  25
ENDBRANCH  23  24
ENDBRANCH  22  23
ENDBRANCH  21  22
ENDBRANCH  20  21
ENDBRANCH  19  20
ENDBRANCH  18  19
ENDBRANCH  17  18
ENDBRANCH   1  17
TORSDOF 26
ENDMDL
MODEL 6
REMARK VINA RESULT:    -0.616      1.732      3.356
REMARK INTER + INTRA:          -2.529
REMARK INTER:                  -3.790
REMARK INTRA:                   1.261
REMARK UNBOUND:                -0.978
REMARK SMILES CCCCCCCCCCCCCCCCCCCCCCCCCCCC(=O)[O-]
REMARK SMILES IDX 15 1 16 2 17 3 18 4 19 5 20 6 21 7 22 8 23 9 24 10 25 11
REMARK SMILES IDX 26 12 27 13 28 14 29 15 30 16 14 17 13 18 12 19 11 20 10 21
REMARK SMILES IDX 9 22 8 23 7 24 6 25 5 26 4 27 3 28 2 29 1 30
REMARK H PARENT
REMARK Flexibility Score: inf
ROOT
ATOM      1  C   UNL     1      44.254  27.667   3.828  1.00  0.00     0.000 C 
ENDROOT
BRANCH   1   2
ATOM      2  C   UNL     1      44.959  28.996   4.160  1.00  0.00     0.000 C 
BRANCH   2   3
ATOM      3  C   UNL     1      45.909  28.904   5.376  1.00  0.00     0.000 C 
BRANCH   3   4
ATOM      4  C   UNL     1      45.843  27.552   6.117  1.00  0.00     0.000 C 
BRANCH   4   5
ATOM      5  C   UNL     1      47.000  27.286   7.095  1.00  0.00     0.000 C 
BRANCH   5   6
ATOM      6  C   UNL     1      46.887  25.923   7.802  1.00  0.00     0.000 C 
BRANCH   6   7
ATOM      7  C   UNL     1      46.217  26.020   9.184  1.00  0.00     0.000 C 
BRANCH   7   8
ATOM      8  C   UNL     1      47.091  26.636  10.292  1.00  0.00     0.000 C 
BRANCH   8   9
ATOM      9  C   UNL     1      46.283  27.495  11.280  1.00  0.00     0.000 C 
BRANCH   9  10
ATOM     10  C   UNL     1      47.073  28.704  11.809  1.00  0.00     0.000 C 
BRANCH  10  11
ATOM     11  C   UNL     1      47.125  29.922  10.864  1.00  0.00     0.000 C 
BRANCH  11  12
ATOM     12  C   UNL     1      46.427  29.730   9.502  1.00  0.00     0.006 C 
BRANCH  12  13
ATOM     13  C   UNL     1      44.941  30.123   9.489  1.00  0.00     0.053 C 
BRANCH  13  14
ATOM     14  C   UNL     1      44.144  29.334  10.482  1.00  0.00     0.041 C 
ATOM     15  O   UNL     1      43.954  28.101  10.306  1.00  0.00    -0.550 OA
ATOM     16  O   UNL     1      43.639  29.953  11.619  1.00  0.00    -0.550 OA
ENDBRANCH  13  14
ENDBRANCH  12  13
ENDBRANCH  11  12
ENDBRANCH  10  11
ENDBRANCH   9  10
ENDBRANCH   8   9
ENDBRANCH   7   8
ENDBRANCH   6   7
ENDBRANCH   5   6
ENDBRANCH   4   5
ENDBRANCH   3   4
ENDBRANCH   2   3
ENDBRANCH   1   2
BRANCH   1  17
ATOM     17  C   UNL     1      43.364  27.771   2.576  1.00  0.00     0.000 C 
BRANCH  17  18
ATOM     18  C   UNL     1      44.130  28.346   1.364  1.00  0.00     0.000 C 
BRANCH  18  19
ATOM     19  C   UNL     1      45.255  29.321   1.747  1.00  0.00     0.000 C 
BRANCH  19  20
ATOM     20  C   UNL     1      46.615  28.931   1.142  1.00  0.00     0.000 C 
BRANCH  20  21
ATOM     21  C   UNL     1      47.021  29.829  -0.038  1.00  0.00     0.000 C 
BRANCH  21  22
ATOM     22  C   UNL     1      46.135  29.700  -1.295  1.00  0.00    -0.000 C 
BRANCH  22  23
ATOM     23  C   UNL     1      46.927  29.678  -2.621  1.00  0.00    -0.000 C 
BRANCH  23  24
ATOM     24  C   UNL     1      46.013  29.470  -3.842  1.00  0.00    -0.000 C 
BRANCH  24  25
ATOM     25  C   UNL     1      46.675  28.613  -4.937  1.00  0.00    -0.000 C 
BRANCH  25  26
ATOM     26  C   UNL     1      45.714  27.612  -5.606  1.00  0.00    -0.000 C 
BRANCH  26  27
ATOM     27  C   UNL     1      44.342  28.239  -5.914  1.00  0.00    -0.000 C 
BRANCH  27  28
ATOM     28  C   UNL     1      43.172  27.407  -5.363  1.00  0.00    -0.000 C 
BRANCH  28  29
ATOM     29  C   UNL     1      42.222  28.228  -4.479  1.00  0.00    -0.003 C 
ATOM     30  C   UNL     1      42.565  29.714  -4.538  1.00  0.00     0.004 C 
ENDBRANCH  28  29
ENDBRANCH  27  28
ENDBRANCH  26  27
ENDBRANCH  25  26
ENDBRANCH  24  25
ENDBRANCH  23  24
ENDBRANCH  22  23
ENDBRANCH  21  22
ENDBRANCH  20  21
ENDBRANCH  19  20
ENDBRANCH  18  19
ENDBRANCH  17  18
ENDBRANCH   1  17
TORSDOF 26
ENDMDL
MODEL 7
REMARK VINA RESULT:    -0.233      1.463      3.190
REMARK INTER + INTRA:          -1.564
REMARK INTER:                  -2.329
REMARK INTRA:                   0.764
REMARK UNBOUND:                -0.978
REMARK SMILES CCCCCCCCCCCCCCCCCCCCCCCCCCCC(=O)[O-]
REMARK SMILES IDX 15 1 16 2 17 3 18 4 19 5 20 6 21 7 22 8 23 9 24 10 25 11
REMARK SMILES IDX 26 12 27 13 28 14 29 15 30 16 14 17 13 18 12 19 11 20 10 21
REMARK SMILES IDX 9 22 8 23 7 24 6 25 5 26 4 27 3 28 2 29 1 30
REMARK H PARENT
REMARK Flexibility Score: inf
ROOT
ATOM      1  C   UNL     1      45.079  25.639   2.682  1.00  0.00     0.000 C 
ENDROOT
BRANCH   1   2
ATOM      2  C   UNL     1      45.641  24.948   3.939  1.00  0.00     0.000 C 
BRANCH   2   3
ATOM      3  C   UNL     1      46.840  25.692   4.569  1.00  0.00     0.000 C 
BRANCH   3   4
ATOM      4  C   UNL     1      47.078  25.346   6.054  1.00  0.00     0.000 C 
BRANCH   4   5
ATOM      5  C   UNL     1      45.886  25.617   6.988  1.00  0.00     0.000 C 
BRANCH   5   6
ATOM      6  C   UNL     1      45.664  27.116   7.258  1.00  0.00     0.000 C 
BRANCH   6   7
ATOM      7  C   UNL     1      46.290  28.018   6.179  1.00  0.00     0.000 C 
BRANCH   7   8
ATOM      8  C   UNL     1      46.074  29.528   6.384  1.00  0.00     0.000 C 
BRANCH   8   9
ATOM      9  C   UNL     1      47.005  30.124   7.453  1.00  0.00     0.000 C 
BRANCH   9  10
ATOM     10  C   UNL     1      46.854  29.445   8.826  1.00  0.00     0.000 C 
BRANCH  10  11
ATOM     11  C   UNL     1      45.409  29.340   9.353  1.00  0.00     0.000 C 
BRANCH  11  12
ATOM     12  C   UNL     1      45.213  28.397  10.558  1.00  0.00     0.006 C 
BRANCH  12  13
ATOM     13  C   UNL     1      46.514  28.009  11.278  1.00  0.00     0.053 C 
BRANCH  13  14
ATOM     14  C   UNL     1      46.703  26.524  11.331  1.00  0.00     0.041 C 
ATOM     15  O   UNL     1      47.125  25.976  12.385  1.00  0.00    -0.550 OA
ATOM     16  O   UNL     1      46.380  25.741  10.230  1.00  0.00    -0.550 OA
ENDBRANCH  13  14
ENDBRANCH  12  13
ENDBRANCH  11  12
ENDBRANCH  10  11
ENDBRANCH   9  10
ENDBRANCH   8   9
ENDBRANCH   7   8
ENDBRANCH   6   7
ENDBRANCH   5   6
ENDBRANCH   4   5
ENDBRANCH   3   4
ENDBRANCH   2   3
ENDBRANCH   1   2
BRANCH   1  17
ATOM     17  C   UNL     1      45.448  27.133   2.620  1.00  0.00     0.000 C 
BRANCH  17  18
ATOM     18  C   UNL     1      44.309  27.988   2.023  1.00  0.00     0.000 C 
BRANCH  18  19
ATOM     19  C   UNL     1      44.543  29.503   2.142  1.00  0.00     0.000 C 
BRANCH  19  20
ATOM     20  C   UNL     1      45.829  29.850   2.912  1.00  0.00     0.000 C 
BRANCH  20  21
ATOM     21  C   UNL     1      47.064  29.937   1.999  1.00  0.00     0.000 C 
BRANCH  21  22
ATOM     22  C   UNL     1      46.757  30.100   0.496  1.00  0.00    -0.000 C 
BRANCH  22  23
ATOM     23  C   UNL     1      46.029  28.890  -0.130  1.00  0.00    -0.000 C 
BRANCH  23  24
ATOM     24  C   UNL     1      46.562  28.552  -1.535  1.00  0.00    -0.000 C 
BRANCH  24  25
ATOM     25  C   UNL     1      46.285  29.671  -2.557  1.00  0.00    -0.000 C 
BRANCH  25  26
ATOM     26  C   UNL     1      44.788  29.885  -2.851  1.00  0.00    -0.000 C 
BRANCH  26  27
ATOM     27  C   UNL     1      44.345  29.184  -4.148  1.00  0.00    -0.000 C 
BRANCH  27  28
ATOM     28  C   UNL     1      43.171  28.215  -3.928  1.00  0.00    -0.000 C 
BRANCH  28  29
ATOM     29  C   UNL     1      41.895  28.650  -4.665  1.00  0.00    -0.003 C 
ATOM     30  C   UNL     1      42.208  29.092  -6.091  1.00  0.00     0.004 C 
ENDBRANCH  28  29
ENDBRANCH  27  28
ENDBRANCH  26  27
ENDBRANCH  25  26
ENDBRANCH  24  25
ENDBRANCH  23  24
ENDBRANCH  22  23
ENDBRANCH  21  22
ENDBRANCH  20  21
ENDBRANCH  19  20
ENDBRANCH  18  19
ENDBRANCH  17  18
ENDBRANCH   1  17
TORSDOF 26
ENDMDL
