MODEL 1
REMARK VINA RESULT:    -4.707      0.000      0.000
REMARK INTER + INTRA:         -11.294
REMARK INTER:                  -9.109
REMARK INTRA:                  -2.185
REMARK UNBOUND:                -2.185
REMARK SMILES CCCCCCCCCCCCCCCCCC(=O)[O-]
REMARK SMILES IDX 10 1 11 2 12 3 13 4 14 5 15 6 16 7 17 8 18 9 19 10 20 11
REMARK SMILES IDX 9 12 8 13 7 14 6 15 5 16 4 17 3 18 2 19 1 20
REMARK H PARENT
REMARK Flexibility Score: inf
ROOT
ATOM      1  C   UNL     1     -24.922 -31.340 -12.317  1.00  0.00     0.000 C 
ENDROOT
BRANCH   1   2
ATOM      2  C   UNL     1     -23.601 -32.118 -12.214  1.00  0.00     0.000 C 
BRANCH   2   3
ATOM      3  C   UNL     1     -22.385 -31.280 -12.645  1.00  0.00     0.000 C 
BRANCH   3   4
ATOM      4  C   UNL     1     -21.125 -32.133 -12.875  1.00  0.00     0.000 C 
BRANCH   4   5
ATOM      5  C   UNL     1     -21.117 -32.937 -14.192  1.00  0.00     0.000 C 
BRANCH   5   6
ATOM      6  C   UNL     1     -20.763 -34.429 -14.050  1.00  0.00     0.000 C 
BRANCH   6   7
ATOM      7  C   UNL     1     -21.213 -35.090 -12.732  1.00  0.00     0.006 C 
BRANCH   7   8
ATOM      8  C   UNL     1     -20.109 -35.902 -12.030  1.00  0.00     0.053 C 
BRANCH   8   9
ATOM      9  C   UNL     1     -19.743 -35.342 -10.690  1.00  0.00     0.041 C 
ATOM     10  O   UNL     1     -19.425 -34.129 -10.573  1.00  0.00    -0.550 OA
ATOM     11  O   UNL     1     -19.714 -36.170  -9.575  1.00  0.00    -0.550 OA
ENDBRANCH   8   9
ENDBRANCH   7   8
ENDBRANCH   6   7
ENDBRANCH   5   6
ENDBRANCH   4   5
ENDBRANCH   3   4
ENDBRANCH   2   3
ENDBRANCH   1   2
BRANCH   1  12
ATOM     12  C   UNL     1     -25.653 -31.239 -10.966  1.00  0.00     0.000 C 
BRANCH  12  13
ATOM     13  C   UNL     1     -27.170 -31.056 -11.130  1.00  0.00    -0.000 C 
BRANCH  13  14
ATOM     14  C   UNL     1     -27.639 -31.246 -12.583  1.00  0.00    -0.000 C 
BRANCH  14  15
ATOM     15  C   UNL     1     -28.418 -32.555 -12.784  1.00  0.00    -0.000 C 
BRANCH  15  16
ATOM     16  C   UNL     1     -27.800 -33.449 -13.870  1.00  0.00    -0.000 C 
BRANCH  16  17
ATOM     17  C   UNL     1     -27.282 -34.788 -13.318  1.00  0.00    -0.000 C 
BRANCH  17  18
ATOM     18  C   UNL     1     -26.960 -34.752 -11.810  1.00  0.00    -0.000 C 
BRANCH  18  19
ATOM     19  C   UNL     1     -25.493 -35.101 -11.520  1.00  0.00    -0.003 C 
ATOM     20  C   UNL     1     -24.853 -35.820 -12.705  1.00  0.00     0.004 C 
ENDBRANCH  18  19
ENDBRANCH  17  18
ENDBRANCH  16  17
ENDBRANCH  15  16
ENDBRANCH  14  15
ENDBRANCH  13  14
ENDBRANCH  12  13
ENDBRANCH   1  12
TORSDOF 16
ENDMDL
MODEL 2
REMARK VINA RESULT:    -4.661      2.137      6.164
REMARK INTER + INTRA:         -11.205
REMARK INTER:                  -9.135
REMARK INTRA:                  -2.070
REMARK UNBOUND:                -2.185
REMARK SMILES CCCCCCCCCCCCCCCCCC(=O)[O-]
REMARK SMILES IDX 10 1 11 2 12 3 13 4 14 5 15 6 16 7 17 8 18 9 19 10 20 11
REMARK SMILES IDX 9 12 8 13 7 14 6 15 5 16 4 17 3 18 2 19 1 20
REMARK H PARENT
REMARK Flexibility Score: inf
ROOT
ATOM      1  C   UNL     1     -24.717 -31.648 -12.196  1.00  0.00     0.000 C 
ENDROOT
BRANCH   1   2
ATOM      2  C   UNL     1     -25.327 -31.322 -10.823  1.00  0.00     0.000 C 
BRANCH   2   3
ATOM      3  C   UNL     1     -26.866 -31.342 -10.839  1.00  0.00     0.000 C 
BRANCH   3   4
ATOM      4  C   UNL     1     -27.461 -30.476 -11.963  1.00  0.00     0.000 C 
BRANCH   4   5
ATOM      5  C   UNL     1     -28.333 -31.240 -12.980  1.00  0.00     0.000 C 
BRANCH   5   6
ATOM      6  C   UNL     1     -28.399 -32.765 -12.775  1.00  0.00     0.000 C 
BRANCH   6   7
ATOM      7  C   UNL     1     -27.547 -33.599 -13.751  1.00  0.00     0.006 C 
BRANCH   7   8
ATOM      8  C   UNL     1     -27.258 -35.031 -13.263  1.00  0.00     0.053 C 
BRANCH   8   9
ATOM      9  C   UNL     1     -26.023 -35.116 -12.418  1.00  0.00     0.041 C 
ATOM     10  O   UNL     1     -26.067 -34.808 -11.198  1.00  0.00    -0.550 OA
ATOM     11  O   UNL     1     -24.816 -35.499 -12.987  1.00  0.00    -0.550 OA
ENDBRANCH   8   9
ENDBRANCH   7   8
ENDBRANCH   6   7
ENDBRANCH   5   6
ENDBRANCH   4   5
ENDBRANCH   3   4
ENDBRANCH   2   3
ENDBRANCH   1   2
BRANCH   1  12
ATOM     12  C   UNL     1     -23.351 -32.348 -12.083  1.00  0.00     0.000 C 
BRANCH  12  13
ATOM     13  C   UNL     1     -22.185 -31.435 -12.492  1.00  0.00    -0.000 C 
BRANCH  13  14
ATOM     14  C   UNL     1     -21.209 -32.118 -13.467  1.00  0.00    -0.000 C 
BRANCH  14  15
ATOM     15  C   UNL     1     -21.574 -33.587 -13.732  1.00  0.00    -0.000 C 
BRANCH  15  16
ATOM     16  C   UNL     1     -20.382 -34.407 -14.250  1.00  0.00    -0.000 C 
BRANCH  16  17
ATOM     17  C   UNL     1     -20.054 -35.614 -13.356  1.00  0.00    -0.000 C 
BRANCH  17  18
ATOM     18  C   UNL     1     -20.753 -35.574 -11.981  1.00  0.00    -0.000 C 
BRANCH  18  19
ATOM     19  C   UNL     1     -19.759 -35.370 -10.829  1.00  0.00    -0.003 C 
ATOM     20  C   UNL     1     -19.396 -33.896 -10.668  1.00  0.00     0.004 C 
ENDBRANCH  18  19
ENDBRANCH  17  18
ENDBRANCH  16  17
ENDBRANCH  15  16
ENDBRANCH  14  15
ENDBRANCH  13  14
ENDBRANCH  12  13
ENDBRANCH   1  12
TORSDOF 16
ENDMDL
MODEL 3
REMARK VINA RESULT:    -4.623      2.393      6.144
REMARK INTER + INTRA:         -11.132
REMARK INTER:                  -9.025
REMARK INTRA:                  -2.108
REMARK UNBOUND:                -2.185
REMARK SMILES CCCCCCCCCCCCCCCCCC(=O)[O-]
REMARK SMILES IDX 10 1 11 2 12 3 13 4 14 5 15 6 16 7 17 8 18 9 19 10 20 11
REMARK SMILES IDX 9 12 8 13 7 14 6 15 5 16 4 17 3 18 2 19 1 20
REMARK H PARENT
REMARK Flexibility Score: inf
ROOT
ATOM      1  C   UNL     1     -26.997 -34.527 -11.484  1.00  0.00     0.000 C 
ENDROOT
BRANCH   1   2
ATOM      2  C   UNL     1     -28.295 -33.868 -11.977  1.00  0.00     0.000 C 
BRANCH   2   3
ATOM      3  C   UNL     1     -28.076 -32.984 -13.217  1.00  0.00     0.000 C 
BRANCH   3   4
ATOM      4  C   UNL     1     -28.663 -31.571 -13.053  1.00  0.00     0.000 C 
BRANCH   4   5
ATOM      5  C   UNL     1     -27.618 -30.444 -12.916  1.00  0.00     0.000 C 
BRANCH   5   6
ATOM      6  C   UNL     1     -26.223 -30.770 -13.482  1.00  0.00     0.000 C 
BRANCH   6   7
ATOM      7  C   UNL     1     -25.042 -30.114 -12.740  1.00  0.00     0.006 C 
BRANCH   7   8
ATOM      8  C   UNL     1     -24.226 -31.093 -11.876  1.00  0.00     0.053 C 
BRANCH   8   9
ATOM      9  C   UNL     1     -24.617 -31.053 -10.430  1.00  0.00     0.041 C 
ATOM     10  O   UNL     1     -25.768 -31.421 -10.073  1.00  0.00    -0.550 OA
ATOM     11  O   UNL     1     -23.726 -30.572  -9.481  1.00  0.00    -0.550 OA
ENDBRANCH   8   9
ENDBRANCH   7   8
ENDBRANCH   6   7
ENDBRANCH   5   6
ENDBRANCH   4   5
ENDBRANCH   3   4
ENDBRANCH   2   3
ENDBRANCH   1   2
BRANCH   1  12
ATOM     12  C   UNL     1     -25.823 -34.319 -12.458  1.00  0.00     0.000 C 
BRANCH  12  13
ATOM     13  C   UNL     1     -25.232 -35.645 -12.961  1.00  0.00    -0.000 C 
BRANCH  13  14
ATOM     14  C   UNL     1     -23.747 -35.811 -12.594  1.00  0.00    -0.000 C 
BRANCH  14  15
ATOM     15  C   UNL     1     -22.979 -34.480 -12.631  1.00  0.00    -0.000 C 
BRANCH  15  16
ATOM     16  C   UNL     1     -21.536 -34.646 -13.132  1.00  0.00    -0.000 C 
BRANCH  16  17
ATOM     17  C   UNL     1     -21.130 -33.568 -14.151  1.00  0.00    -0.000 C 
BRANCH  17  18
ATOM     18  C   UNL     1     -20.994 -32.159 -13.539  1.00  0.00    -0.000 C 
BRANCH  18  19
ATOM     19  C   UNL     1     -20.004 -32.128 -12.365  1.00  0.00    -0.003 C 
ATOM     20  C   UNL     1     -20.718 -31.827 -11.050  1.00  0.00     0.004 C 
ENDBRANCH  18  19
ENDBRANCH  17  18
ENDBRANCH  16  17
ENDBRANCH  15  16
ENDBRANCH  14  15
ENDBRANCH  13  14
ENDBRANCH  12  13
ENDBRANCH   1  12
TORSDOF 16
ENDMDL
MODEL 4
REMARK VINA RESULT:    -4.534      2.971      7.004
REMARK INTER + INTRA:         -10.961
REMARK INTER:                  -9.064
REMARK INTRA:                  -1.897
REMARK UNBOUND:                -2.185
REMARK SMILES CCCCCCCCCCCCCCCCCC(=O)[O-]
REMARK SMILES IDX 10 1 11 2 12 3 13 4 14 5 15 6 16 7 17 8 18 9 19 10 20 11
REMARK SMILES IDX 9 12 8 13 7 14 6 15 5 16 4 17 3 18 2 19 1 20
REMARK H PARENT
REMARK Flexibility Score: inf
ROOT
ATOM      1  C   UNL     1     -23.858 -33.256 -12.256  1.00  0.00     0.000 C 
ENDROOT
BRANCH   1   2
ATOM      2  C   UNL     1     -24.898 -32.756 -11.240  1.00  0.00     0.000 C 
BRANCH   2   3
ATOM      3  C   UNL     1     -25.310 -31.294 -11.486  1.00  0.00     0.000 C 
BRANCH   3   4
ATOM      4  C   UNL     1     -26.470 -30.843 -10.582  1.00  0.00     0.000 C 
BRANCH   4   5
ATOM      5  C   UNL     1     -27.738 -30.384 -11.332  1.00  0.00     0.000 C 
BRANCH   5   6
ATOM      6  C   UNL     1     -27.854 -30.872 -12.788  1.00  0.00     0.000 C 
BRANCH   6   7
ATOM      7  C   UNL     1     -28.567 -32.226 -12.975  1.00  0.00     0.006 C 
BRANCH   7   8
ATOM      8  C   UNL     1     -27.724 -33.279 -13.718  1.00  0.00     0.053 C 
BRANCH   8   9
ATOM      9  C   UNL     1     -27.676 -34.593 -13.001  1.00  0.00     0.041 C 
ATOM     10  O   UNL     1     -27.469 -35.658 -13.640  1.00  0.00    -0.550 OA
ATOM     11  O   UNL     1     -27.898 -34.646 -11.631  1.00  0.00    -0.550 OA
ENDBRANCH   8   9
ENDBRANCH   7   8
ENDBRANCH   6   7
ENDBRANCH   5   6
ENDBRANCH   4   5
ENDBRANCH   3   4
ENDBRANCH   2   3
ENDBRANCH   1   2
BRANCH   1  12
ATOM     12  C   UNL     1     -24.051 -34.740 -12.614  1.00  0.00     0.000 C 
BRANCH  12  13
ATOM     13  C   UNL     1     -22.752 -35.551 -12.484  1.00  0.00    -0.000 C 
BRANCH  13  14
ATOM     14  C   UNL     1     -21.495 -34.663 -12.471  1.00  0.00    -0.000 C 
BRANCH  14  15
ATOM     15  C   UNL     1     -20.390 -35.193 -13.399  1.00  0.00    -0.000 C 
BRANCH  15  16
ATOM     16  C   UNL     1     -19.734 -34.080 -14.230  1.00  0.00    -0.000 C 
BRANCH  16  17
ATOM     17  C   UNL     1     -20.761 -33.156 -14.908  1.00  0.00    -0.000 C 
BRANCH  17  18
ATOM     18  C   UNL     1     -20.138 -31.887 -15.524  1.00  0.00    -0.000 C 
BRANCH  18  19
ATOM     19  C   UNL     1     -20.311 -30.657 -14.622  1.00  0.00    -0.003 C 
ATOM     20  C   UNL     1     -21.583 -30.762 -13.785  1.00  0.00     0.004 C 
ENDBRANCH  18  19
ENDBRANCH  17  18
ENDBRANCH  16  17
ENDBRANCH  15  16
ENDBRANCH  14  15
ENDBRANCH  13  14
ENDBRANCH  12  13
ENDBRANCH   1  12
TORSDOF 16
ENDMDL
MODEL 5
REMARK VINA RESULT:    -4.510      1.757      5.583
REMARK INTER + INTRA:         -10.915
REMARK INTER:                  -9.123
REMARK INTRA:                  -1.791
REMARK UNBOUND:                -2.185
REMARK SMILES CCCCCCCCCCCCCCCCCC(=O)[O-]
REMARK SMILES IDX 10 1 11 2 12 3 13 4 14 5 15 6 16 7 17 8 18 9 19 10 20 11
REMARK SMILES IDX 9 12 8 13 7 14 6 15 5 16 4 17 3 18 2 19 1 20
REMARK H PARENT
REMARK Flexibility Score: inf
ROOT
ATOM      1  C   UNL     1     -27.857 -33.894 -13.677  1.00  0.00     0.000 C 
ENDROOT
BRANCH   1   2
ATOM      2  C   UNL     1     -27.313 -32.521 -13.252  1.00  0.00     0.000 C 
BRANCH   2   3
ATOM      3  C   UNL     1     -28.430 -31.485 -13.033  1.00  0.00     0.000 C 
BRANCH   3   4
ATOM      4  C   UNL     1     -28.195 -30.612 -11.787  1.00  0.00     0.000 C 
BRANCH   4   5
ATOM      5  C   UNL     1     -27.056 -31.091 -10.863  1.00  0.00     0.000 C 
BRANCH   5   6
ATOM      6  C   UNL     1     -25.897 -30.094 -10.676  1.00  0.00     0.000 C 
BRANCH   6   7
ATOM      7  C   UNL     1     -24.546 -30.720 -10.279  1.00  0.00     0.006 C 
BRANCH   7   8
ATOM      8  C   UNL     1     -23.978 -31.696 -11.326  1.00  0.00     0.053 C 
BRANCH   8   9
ATOM      9  C   UNL     1     -22.506 -31.517 -11.545  1.00  0.00     0.041 C 
ATOM     10  O   UNL     1     -21.701 -31.643 -10.584  1.00  0.00    -0.550 OA
ATOM     11  O   UNL     1     -22.026 -31.173 -12.801  1.00  0.00    -0.550 OA
ENDBRANCH   8   9
ENDBRANCH   7   8
ENDBRANCH   6   7
ENDBRANCH   5   6
ENDBRANCH   4   5
ENDBRANCH   3   4
ENDBRANCH   2   3
ENDBRANCH   1   2
BRANCH   1  12
ATOM     12  C   UNL     1     -27.169 -35.056 -12.938  1.00  0.00     0.000 C 
BRANCH  12  13
ATOM     13  C   UNL     1     -26.322 -34.578 -11.749  1.00  0.00    -0.000 C 
BRANCH  13  14
ATOM     14  C   UNL     1     -25.122 -35.500 -11.465  1.00  0.00    -0.000 C 
BRANCH  14  15
ATOM     15  C   UNL     1     -24.286 -35.782 -12.723  1.00  0.00    -0.000 C 
BRANCH  15  16
ATOM     16  C   UNL     1     -23.060 -34.861 -12.834  1.00  0.00    -0.000 C 
BRANCH  16  17
ATOM     17  C   UNL     1     -21.782 -35.496 -12.259  1.00  0.00    -0.000 C 
BRANCH  17  18
ATOM     18  C   UNL     1     -20.596 -35.496 -13.245  1.00  0.00    -0.000 C 
BRANCH  18  19
ATOM     19  C   UNL     1     -20.093 -34.078 -13.550  1.00  0.00    -0.003 C 
ATOM     20  C   UNL     1     -20.569 -33.607 -14.922  1.00  0.00     0.004 C 
ENDBRANCH  18  19
ENDBRANCH  17  18
ENDBRANCH  16  17
ENDBRANCH  15  16
ENDBRANCH  14  15
ENDBRANCH  13  14
ENDBRANCH  12  13
ENDBRANCH   1  12
TORSDOF 16
ENDMDL
MODEL 6
REMARK VINA RESULT:    -4.478      1.680      3.093
REMARK INTER + INTRA:         -10.852
REMARK INTER:                  -8.917
REMARK INTRA:                  -1.934
REMARK UNBOUND:                -2.185
REMARK SMILES CCCCCCCCCCCCCCCCCC(=O)[O-]
REMARK SMILES IDX 10 1 11 2 12 3 13 4 14 5 15 6 16 7 17 8 18 9 19 10 20 11
REMARK SMILES IDX 9 12 8 13 7 14 6 15 5 16 4 17 3 18 2 19 1 20
REMARK H PARENT
REMARK Flexibility Score: inf
ROOT
ATOM      1  C   UNL     1     -24.495 -32.678 -12.207  1.00  0.00     0.000 C 
ENDROOT
BRANCH   1   2
ATOM      2  C   UNL     1     -24.908 -34.087 -11.753  1.00  0.00     0.000 C 
BRANCH   2   3
ATOM      3  C   UNL     1     -24.179 -35.197 -12.531  1.00  0.00     0.000 C 
BRANCH   3   4
ATOM      4  C   UNL     1     -22.759 -34.789 -12.960  1.00  0.00     0.000 C 
BRANCH   4   5
ATOM      5  C   UNL     1     -21.620 -35.548 -12.246  1.00  0.00     0.000 C 
BRANCH   5   6
ATOM      6  C   UNL     1     -20.284 -35.600 -13.010  1.00  0.00     0.000 C 
BRANCH   6   7
ATOM      7  C   UNL     1     -20.130 -34.564 -14.140  1.00  0.00     0.006 C 
BRANCH   7   8
ATOM      8  C   UNL     1     -19.333 -33.310 -13.735  1.00  0.00     0.053 C 
BRANCH   8   9
ATOM      9  C   UNL     1     -20.186 -32.270 -13.074  1.00  0.00     0.041 C 
ATOM     10  O   UNL     1     -20.072 -32.046 -11.840  1.00  0.00    -0.550 OA
ATOM     11  O   UNL     1     -21.134 -31.576 -13.813  1.00  0.00    -0.550 OA
ENDBRANCH   8   9
ENDBRANCH   7   8
ENDBRANCH   6   7
ENDBRANCH   5   6
ENDBRANCH   4   5
ENDBRANCH   3   4
ENDBRANCH   2   3
ENDBRANCH   1   2
BRANCH   1  12
ATOM     12  C   UNL     1     -23.904 -31.839 -11.060  1.00  0.00     0.000 C 
BRANCH  12  13
ATOM     13  C   UNL     1     -24.967 -31.003 -10.333  1.00  0.00    -0.000 C 
BRANCH  13  14
ATOM     14  C   UNL     1     -25.888 -30.239 -11.301  1.00  0.00    -0.000 C 
BRANCH  14  15
ATOM     15  C   UNL     1     -27.373 -30.570 -11.086  1.00  0.00    -0.000 C 
BRANCH  15  16
ATOM     16  C   UNL     1     -28.066 -31.036 -12.375  1.00  0.00    -0.000 C 
BRANCH  16  17
ATOM     17  C   UNL     1     -28.387 -32.540 -12.370  1.00  0.00    -0.000 C 
BRANCH  17  18
ATOM     18  C   UNL     1     -27.881 -33.284 -13.623  1.00  0.00    -0.000 C 
BRANCH  18  19
ATOM     19  C   UNL     1     -27.951 -34.810 -13.463  1.00  0.00    -0.003 C 
ATOM     20  C   UNL     1     -27.501 -35.520 -14.736  1.00  0.00     0.004 C 
ENDBRANCH  18  19
ENDBRANCH  17  18
ENDBRANCH  16  17
ENDBRANCH  15  16
ENDBRANCH  14  15
ENDBRANCH  13  14
ENDBRANCH  12  13
ENDBRANCH   1  12
TORSDOF 16
ENDMDL
MODEL 7
REMARK VINA RESULT:    -4.466      2.114      5.624
REMARK INTER + INTRA:         -10.828
REMARK INTER:                  -8.735
REMARK INTRA:                  -2.092
REMARK UNBOUND:                -2.185
REMARK SMILES CCCCCCCCCCCCCCCCCC(=O)[O-]
REMARK SMILES IDX 10 1 11 2 12 3 13 4 14 5 15 6 16 7 17 8 18 9 19 10 20 11
REMARK SMILES IDX 9 12 8 13 7 14 6 15 5 16 4 17 3 18 2 19 1 20
REMARK H PARENT
REMARK Flexibility Score: inf
ROOT
ATOM      1  C   UNL     1     -25.771 -30.955 -10.643  1.00  0.00     0.000 C 
ENDROOT
BRANCH   1   2
ATOM      2  C   UNL     1     -26.382 -30.909 -12.053  1.00  0.00     0.000 C 
BRANCH   2   3
ATOM      3  C   UNL     1     -27.905 -31.128 -12.045  1.00  0.00     0.000 C 
BRANCH   3   4
ATOM      4  C   UNL     1     -28.362 -32.164 -13.088  1.00  0.00     0.000 C 
BRANCH   4   5
ATOM      5  C   UNL     1     -27.492 -33.436 -13.165  1.00  0.00     0.000 C 
BRANCH   5   6
ATOM      6  C   UNL     1     -27.648 -34.413 -11.985  1.00  0.00     0.000 C 
BRANCH   6   7
ATOM      7  C   UNL     1     -26.345 -34.757 -11.238  1.00  0.00     0.006 C 
BRANCH   7   8
ATOM      8  C   UNL     1     -25.067 -34.321 -11.977  1.00  0.00     0.053 C 
BRANCH   8   9
ATOM      9  C   UNL     1     -24.329 -35.473 -12.587  1.00  0.00     0.041 C 
ATOM     10  O   UNL     1     -23.072 -35.523 -12.533  1.00  0.00    -0.550 OA
ATOM     11  O   UNL     1     -25.028 -36.472 -13.251  1.00  0.00    -0.550 OA
ENDBRANCH   8   9
ENDBRANCH   7   8
ENDBRANCH   6   7
ENDBRANCH   5   6
ENDBRANCH   4   5
ENDBRANCH   3   4
ENDBRANCH   2   3
ENDBRANCH   1   2
BRANCH   1  12
ATOM     12  C   UNL     1     -24.526 -30.059 -10.511  1.00  0.00     0.000 C 
BRANCH  12  13
ATOM     13  C   UNL     1     -23.376 -30.755  -9.767  1.00  0.00    -0.000 C 
BRANCH  13  14
ATOM     14  C   UNL     1     -22.101 -30.871 -10.621  1.00  0.00    -0.000 C 
BRANCH  14  15
ATOM     15  C   UNL     1     -22.024 -32.202 -11.385  1.00  0.00    -0.000 C 
BRANCH  15  16
ATOM     16  C   UNL     1     -22.425 -32.058 -12.862  1.00  0.00    -0.000 C 
BRANCH  16  17
ATOM     17  C   UNL     1     -21.452 -31.174 -13.661  1.00  0.00    -0.000 C 
BRANCH  17  18
ATOM     18  C   UNL     1     -20.471 -31.975 -14.542  1.00  0.00    -0.000 C 
BRANCH  18  19
ATOM     19  C   UNL     1     -20.698 -33.490 -14.436  1.00  0.00    -0.003 C 
ATOM     20  C   UNL     1     -19.401 -34.220 -14.097  1.00  0.00     0.004 C 
ENDBRANCH  18  19
ENDBRANCH  17  18
ENDBRANCH  16  17
ENDBRANCH  15  16
ENDBRANCH  14  15
ENDBRANCH  13  14
ENDBRANCH  12  13
ENDBRANCH   1  12
TORSDOF 16
ENDMDL
MODEL 8
REMARK VINA RESULT:    -4.450      1.212      2.001
REMARK INTER + INTRA:         -10.797
REMARK INTER:                  -8.682
REMARK INTRA:                  -2.115
REMARK UNBOUND:                -2.185
REMARK SMILES CCCCCCCCCCCCCCCCCC(=O)[O-]
REMARK SMILES IDX 10 1 11 2 12 3 13 4 14 5 15 6 16 7 17 8 18 9 19 10 20 11
REMARK SMILES IDX 9 12 8 13 7 14 6 15 5 16 4 17 3 18 2 19 1 20
REMARK H PARENT
REMARK Flexibility Score: inf
ROOT
ATOM      1  C   UNL     1     -25.627 -31.379 -10.372  1.00  0.00     0.000 C 
ENDROOT
BRANCH   1   2
ATOM      2  C   UNL     1     -24.153 -30.947 -10.320  1.00  0.00     0.000 C 
BRANCH   2   3
ATOM      3  C   UNL     1     -23.231 -31.896 -11.105  1.00  0.00     0.000 C 
BRANCH   3   4
ATOM      4  C   UNL     1     -23.217 -31.598 -12.615  1.00  0.00     0.000 C 
BRANCH   4   5
ATOM      5  C   UNL     1     -21.904 -30.983 -13.144  1.00  0.00     0.000 C 
BRANCH   5   6
ATOM      6  C   UNL     1     -20.688 -31.928 -13.144  1.00  0.00     0.000 C 
BRANCH   6   7
ATOM      7  C   UNL     1     -20.684 -32.997 -14.254  1.00  0.00     0.006 C 
BRANCH   7   8
ATOM      8  C   UNL     1     -21.264 -34.354 -13.816  1.00  0.00     0.053 C 
BRANCH   8   9
ATOM      9  C   UNL     1     -20.368 -35.088 -12.866  1.00  0.00     0.041 C 
ATOM     10  O   UNL     1     -20.486 -34.921 -11.623  1.00  0.00    -0.550 OA
ATOM     11  O   UNL     1     -19.375 -35.928 -13.354  1.00  0.00    -0.550 OA
ENDBRANCH   8   9
ENDBRANCH   7   8
ENDBRANCH   6   7
ENDBRANCH   5   6
ENDBRANCH   4   5
ENDBRANCH   3   4
ENDBRANCH   2   3
ENDBRANCH   1   2
BRANCH   1  12
ATOM     12  C   UNL     1     -26.566 -30.224 -10.763  1.00  0.00     0.000 C 
BRANCH  12  13
ATOM     13  C   UNL     1     -26.588 -29.969 -12.278  1.00  0.00    -0.000 C 
BRANCH  13  14
ATOM     14  C   UNL     1     -26.876 -31.244 -13.092  1.00  0.00    -0.000 C 
BRANCH  14  15
ATOM     15  C   UNL     1     -28.310 -31.759 -12.890  1.00  0.00    -0.000 C 
BRANCH  15  16
ATOM     16  C   UNL     1     -28.360 -33.268 -12.605  1.00  0.00    -0.000 C 
BRANCH  16  17
ATOM     17  C   UNL     1     -27.867 -34.116 -13.789  1.00  0.00    -0.000 C 
BRANCH  17  18
ATOM     18  C   UNL     1     -26.806 -35.166 -13.398  1.00  0.00    -0.000 C 
BRANCH  18  19
ATOM     19  C   UNL     1     -25.964 -34.721 -12.194  1.00  0.00    -0.003 C 
ATOM     20  C   UNL     1     -24.529 -35.230 -12.306  1.00  0.00     0.004 C 
ENDBRANCH  18  19
ENDBRANCH  17  18
ENDBRANCH  16  17
ENDBRANCH  15  16
ENDBRANCH  14  15
ENDBRANCH  13  14
ENDBRANCH  12  13
ENDBRANCH   1  12
TORSDOF 16
ENDMDL
MODEL 9
REMARK VINA RESULT:    -4.355      2.890      7.078
REMARK INTER + INTRA:         -10.613
REMARK INTER:                  -8.515
REMARK INTRA:                  -2.098
REMARK UNBOUND:                -2.185
REMARK SMILES CCCCCCCCCCCCCCCCCC(=O)[O-]
REMARK SMILES IDX 10 1 11 2 12 3 13 4 14 5 15 6 16 7 17 8 18 9 19 10 20 11
REMARK SMILES IDX 9 12 8 13 7 14 6 15 5 16 4 17 3 18 2 19 1 20
REMARK H PARENT
REMARK Flexibility Score: inf
ROOT
ATOM      1  C   UNL     1     -22.900 -35.542 -12.751  1.00  0.00     0.000 C 
ENDROOT
BRANCH   1   2
ATOM      2  C   UNL     1     -24.033 -34.588 -12.341  1.00  0.00     0.000 C 
BRANCH   2   3
ATOM      3  C   UNL     1     -25.347 -35.326 -12.034  1.00  0.00     0.000 C 
BRANCH   3   4
ATOM      4  C   UNL     1     -26.395 -34.421 -11.363  1.00  0.00     0.000 C 
BRANCH   4   5
ATOM      5  C   UNL     1     -27.811 -34.505 -11.970  1.00  0.00     0.000 C 
BRANCH   5   6
ATOM      6  C   UNL     1     -28.019 -33.705 -13.270  1.00  0.00     0.000 C 
BRANCH   6   7
ATOM      7  C   UNL     1     -28.294 -32.201 -13.080  1.00  0.00     0.006 C 
BRANCH   7   8
ATOM      8  C   UNL     1     -27.022 -31.342 -12.960  1.00  0.00     0.053 C 
BRANCH   8   9
ATOM      9  C   UNL     1     -26.968 -30.562 -11.682  1.00  0.00     0.041 C 
ATOM     10  O   UNL     1     -28.033 -30.186 -11.122  1.00  0.00    -0.550 OA
ATOM     11  O   UNL     1     -25.743 -30.215 -11.129  1.00  0.00    -0.550 OA
ENDBRANCH   8   9
ENDBRANCH   7   8
ENDBRANCH   6   7
ENDBRANCH   5   6
ENDBRANCH   4   5
ENDBRANCH   3   4
ENDBRANCH   2   3
ENDBRANCH   1   2
BRANCH   1  12
ATOM     12  C   UNL     1     -21.535 -35.117 -12.183  1.00  0.00     0.000 C 
BRANCH  12  13
ATOM     13  C   UNL     1     -20.377 -35.403 -13.152  1.00  0.00    -0.000 C 
BRANCH  13  14
ATOM     14  C   UNL     1     -19.749 -34.120 -13.723  1.00  0.00    -0.000 C 
BRANCH  14  15
ATOM     15  C   UNL     1     -20.477 -33.616 -14.979  1.00  0.00    -0.000 C 
BRANCH  15  16
ATOM     16  C   UNL     1     -20.918 -32.149 -14.858  1.00  0.00    -0.000 C 
BRANCH  16  17
ATOM     17  C   UNL     1     -20.877 -31.632 -13.409  1.00  0.00    -0.000 C 
BRANCH  17  18
ATOM     18  C   UNL     1     -22.273 -31.399 -12.797  1.00  0.00    -0.000 C 
BRANCH  18  19
ATOM     19  C   UNL     1     -22.259 -31.493 -11.264  1.00  0.00    -0.003 C 
ATOM     20  C   UNL     1     -20.849 -31.752 -10.741  1.00  0.00     0.004 C 
ENDBRANCH  18  19
ENDBRANCH  17  18
ENDBRANCH  16  17
ENDBRANCH  15  16
ENDBRANCH  14  15
ENDBRANCH  13  14
ENDBRANCH  12  13
ENDBRANCH   1  12
TORSDOF 16
ENDMDL
