MODEL 1
REMARK VINA RESULT:    -3.975      0.000      0.000
REMARK INTER + INTRA:         -15.346
REMARK INTER:                 -10.017
REMARK INTRA:                  -5.328
REMARK UNBOUND:                -5.328
REMARK SMILES CCCCCCCCCCCCCCCCCCCCCCCCCCCC(=O)[O-]
REMARK SMILES IDX 15 1 16 2 17 3 18 4 19 5 20 6 21 7 22 8 23 9 24 10 25 11
REMARK SMILES IDX 26 12 27 13 28 14 29 15 30 16 14 17 13 18 12 19 11 20 10 21
REMARK SMILES IDX 9 22 8 23 7 24 6 25 5 26 4 27 3 28 2 29 1 30
REMARK H PARENT
REMARK Flexibility Score: inf
ROOT
ATOM      1  C   UNL     1      31.011   7.494  31.723  1.00  0.00     0.000 C 
ENDROOT
BRANCH   1   2
ATOM      2  C   UNL     1      30.624   6.622  30.518  1.00  0.00     0.000 C 
BRANCH   2   3
ATOM      3  C   UNL     1      30.367   7.446  29.244  1.00  0.00     0.000 C 
BRANCH   3   4
ATOM      4  C   UNL     1      31.629   8.132  28.677  1.00  0.00     0.000 C 
BRANCH   4   5
ATOM      5  C   UNL     1      31.289   9.341  27.789  1.00  0.00     0.000 C 
BRANCH   5   6
ATOM      6  C   UNL     1      29.776   9.615  27.701  1.00  0.00     0.000 C 
BRANCH   6   7
ATOM      7  C   UNL     1      29.388  11.098  27.545  1.00  0.00     0.000 C 
BRANCH   7   8
ATOM      8  C   UNL     1      28.591  11.694  28.722  1.00  0.00     0.000 C 
BRANCH   8   9
ATOM      9  C   UNL     1      28.439  10.764  29.939  1.00  0.00     0.000 C 
BRANCH   9  10
ATOM     10  C   UNL     1      29.213  11.264  31.171  1.00  0.00     0.000 C 
BRANCH  10  11
ATOM     11  C   UNL     1      30.704  10.864  31.123  1.00  0.00     0.000 C 
BRANCH  11  12
ATOM     12  C   UNL     1      31.649  12.035  30.804  1.00  0.00     0.006 C 
BRANCH  12  13
ATOM     13  C   UNL     1      31.835  12.994  31.988  1.00  0.00     0.053 C 
BRANCH  13  14
ATOM     14  C   UNL     1      32.091  14.387  31.505  1.00  0.00     0.041 C 
ATOM     15  O   UNL     1      31.431  14.855  30.539  1.00  0.00    -0.550 OA
ATOM     16  O   UNL     1      33.061  15.169  32.120  1.00  0.00    -0.550 OA
ENDBRANCH  13  14
ENDBRANCH  12  13
ENDBRANCH  11  12
ENDBRANCH  10  11
ENDBRANCH   9  10
ENDBRANCH   8   9
ENDBRANCH   7   8
ENDBRANCH   6   7
ENDBRANCH   5   6
ENDBRANCH   4   5
ENDBRANCH   3   4
ENDBRANCH   2   3
ENDBRANCH   1   2
BRANCH   1  17
ATOM     17  C   UNL     1      31.353   6.669  32.977  1.00  0.00     0.000 C 
BRANCH  17  18
ATOM     18  C   UNL     1      31.850   7.489  34.182  1.00  0.00     0.000 C 
BRANCH  18  19
ATOM     19  C   UNL     1      30.948   8.694  34.503  1.00  0.00     0.000 C 
BRANCH  19  20
ATOM     20  C   UNL     1      31.732  10.014  34.589  1.00  0.00     0.000 C 
BRANCH  20  21
ATOM     21  C   UNL     1      33.080   9.952  33.849  1.00  0.00     0.000 C 
BRANCH  21  22
ATOM     22  C   UNL     1      34.267  10.377  34.731  1.00  0.00    -0.000 C 
BRANCH  22  23
ATOM     23  C   UNL     1      35.509   9.472  34.630  1.00  0.00    -0.000 C 
BRANCH  23  24
ATOM     24  C   UNL     1      35.246   8.177  33.842  1.00  0.00    -0.000 C 
BRANCH  24  25
ATOM     25  C   UNL     1      36.546   7.560  33.283  1.00  0.00    -0.000 C 
BRANCH  25  26
ATOM     26  C   UNL     1      36.410   7.035  31.844  1.00  0.00    -0.000 C 
BRANCH  26  27
ATOM     27  C   UNL     1      36.370   8.162  30.799  1.00  0.00    -0.000 C 
BRANCH  27  28
ATOM     28  C   UNL     1      34.977   8.342  30.177  1.00  0.00    -0.000 C 
BRANCH  28  29
ATOM     29  C   UNL     1      34.322   9.675  30.569  1.00  0.00    -0.003 C 
ATOM     30  C   UNL     1      35.377  10.724  30.915  1.00  0.00     0.004 C 
ENDBRANCH  28  29
ENDBRANCH  27  28
ENDBRANCH  26  27
ENDBRANCH  25  26
ENDBRANCH  24  25
ENDBRANCH  23  24
ENDBRANCH  22  23
ENDBRANCH  21  22
ENDBRANCH  20  21
ENDBRANCH  19  20
ENDBRANCH  18  19
ENDBRANCH  17  18
ENDBRANCH   1  17
TORSDOF 26
ENDMDL
MODEL 2
REMARK VINA RESULT:    -3.931      1.886      5.631
REMARK INTER + INTRA:         -15.234
REMARK INTER:                 -10.125
REMARK INTRA:                  -5.109
REMARK UNBOUND:                -5.328
REMARK SMILES CCCCCCCCCCCCCCCCCCCCCCCCCCCC(=O)[O-]
REMARK SMILES IDX 15 1 16 2 17 3 18 4 19 5 20 6 21 7 22 8 23 9 24 10 25 11
REMARK SMILES IDX 26 12 27 13 28 14 29 15 30 16 14 17 13 18 12 19 11 20 10 21
REMARK SMILES IDX 9 22 8 23 7 24 6 25 5 26 4 27 3 28 2 29 1 30
REMARK H PARENT
REMARK Flexibility Score: inf
ROOT
ATOM      1  C   UNL     1      35.365   9.527  30.354  1.00  0.00     0.000 C 
ENDROOT
BRANCH   1   2
ATOM      2  C   UNL     1      36.742   8.846  30.392  1.00  0.00     0.000 C 
BRANCH   2   3
ATOM      3  C   UNL     1      36.838   7.754  31.471  1.00  0.00     0.000 C 
BRANCH   3   4
ATOM      4  C   UNL     1      35.498   7.042  31.760  1.00  0.00     0.000 C 
BRANCH   4   5
ATOM      5  C   UNL     1      35.013   7.272  33.202  1.00  0.00     0.000 C 
BRANCH   5   6
ATOM      6  C   UNL     1      33.478   7.305  33.322  1.00  0.00     0.000 C 
BRANCH   6   7
ATOM      7  C   UNL     1      32.719   7.378  31.982  1.00  0.00     0.000 C 
BRANCH   7   8
ATOM      8  C   UNL     1      31.229   6.995  32.051  1.00  0.00     0.000 C 
BRANCH   8   9
ATOM      9  C   UNL     1      30.629   6.482  30.730  1.00  0.00     0.000 C 
BRANCH   9  10
ATOM     10  C   UNL     1      30.210   7.621  29.784  1.00  0.00     0.000 C 
BRANCH  10  11
ATOM     11  C   UNL     1      31.216   7.819  28.630  1.00  0.00     0.000 C 
BRANCH  11  12
ATOM     12  C   UNL     1      31.326   9.276  28.147  1.00  0.00     0.006 C 
BRANCH  12  13
ATOM     13  C   UNL     1      29.986   9.851  27.671  1.00  0.00     0.053 C 
BRANCH  13  14
ATOM     14  C   UNL     1      29.555  10.985  28.547  1.00  0.00     0.041 C 
ATOM     15  O   UNL     1      30.224  12.051  28.579  1.00  0.00    -0.550 OA
ATOM     16  O   UNL     1      28.415  10.863  29.333  1.00  0.00    -0.550 OA
ENDBRANCH  13  14
ENDBRANCH  12  13
ENDBRANCH  11  12
ENDBRANCH  10  11
ENDBRANCH   9  10
ENDBRANCH   8   9
ENDBRANCH   7   8
ENDBRANCH   6   7
ENDBRANCH   5   6
ENDBRANCH   4   5
ENDBRANCH   3   4
ENDBRANCH   2   3
ENDBRANCH   1   2
BRANCH   1  17
ATOM     17  C   UNL     1      35.245  10.698  31.346  1.00  0.00     0.000 C 
BRANCH  17  18
ATOM     18  C   UNL     1      33.885  10.814  32.058  1.00  0.00     0.000 C 
BRANCH  18  19
ATOM     19  C   UNL     1      32.697  10.874  31.080  1.00  0.00     0.000 C 
BRANCH  19  20
ATOM     20  C   UNL     1      31.447  11.513  31.706  1.00  0.00     0.000 C 
BRANCH  20  21
ATOM     21  C   UNL     1      30.495  10.474  32.324  1.00  0.00     0.000 C 
BRANCH  21  22
ATOM     22  C   UNL     1      29.946  10.906  33.695  1.00  0.00    -0.000 C 
BRANCH  22  23
ATOM     23  C   UNL     1      30.986  10.941  34.830  1.00  0.00    -0.000 C 
BRANCH  23  24
ATOM     24  C   UNL     1      31.405  12.369  35.219  1.00  0.00    -0.000 C 
BRANCH  24  25
ATOM     25  C   UNL     1      32.913  12.615  35.004  1.00  0.00    -0.000 C 
BRANCH  25  26
ATOM     26  C   UNL     1      33.257  14.075  34.665  1.00  0.00    -0.000 C 
BRANCH  26  27
ATOM     27  C   UNL     1      34.341  14.197  33.581  1.00  0.00    -0.000 C 
BRANCH  27  28
ATOM     28  C   UNL     1      33.753  14.407  32.178  1.00  0.00    -0.000 C 
BRANCH  28  29
ATOM     29  C   UNL     1      32.405  15.144  32.206  1.00  0.00    -0.003 C 
ATOM     30  C   UNL     1      31.688  15.027  30.863  1.00  0.00     0.004 C 
ENDBRANCH  28  29
ENDBRANCH  27  28
ENDBRANCH  26  27
ENDBRANCH  25  26
ENDBRANCH  24  25
ENDBRANCH  23  24
ENDBRANCH  22  23
ENDBRANCH  21  22
ENDBRANCH  20  21
ENDBRANCH  19  20
ENDBRANCH  18  19
ENDBRANCH  17  18
ENDBRANCH   1  17
TORSDOF 26
ENDMDL
MODEL 3
REMARK VINA RESULT:    -3.930      2.084      5.764
REMARK INTER + INTRA:         -15.231
REMARK INTER:                 -10.182
REMARK INTRA:                  -5.049
REMARK UNBOUND:                -5.328
REMARK SMILES CCCCCCCCCCCCCCCCCCCCCCCCCCCC(=O)[O-]
REMARK SMILES IDX 15 1 16 2 17 3 18 4 19 5 20 6 21 7 22 8 23 9 24 10 25 11
REMARK SMILES IDX 26 12 27 13 28 14 29 15 30 16 14 17 13 18 12 19 11 20 10 21
REMARK SMILES IDX 9 22 8 23 7 24 6 25 5 26 4 27 3 28 2 29 1 30
REMARK H PARENT
REMARK Flexibility Score: inf
ROOT
ATOM      1  C   UNL     1      35.000  11.594  31.597  1.00  0.00     0.000 C 
ENDROOT
BRANCH   1   2
ATOM      2  C   UNL     1      36.169  12.558  31.852  1.00  0.00     0.000 C 
BRANCH   2   3
ATOM      3  C   UNL     1      35.722  13.878  32.504  1.00  0.00     0.000 C 
BRANCH   3   4
ATOM      4  C   UNL     1      34.254  14.256  32.209  1.00  0.00     0.000 C 
BRANCH   4   5
ATOM      5  C   UNL     1      33.454  14.536  33.493  1.00  0.00     0.000 C 
BRANCH   5   6
ATOM      6  C   UNL     1      32.125  13.759  33.554  1.00  0.00     0.000 C 
BRANCH   6   7
ATOM      7  C   UNL     1      32.083  12.616  34.588  1.00  0.00     0.000 C 
BRANCH   7   8
ATOM      8  C   UNL     1      32.209  11.197  34.001  1.00  0.00     0.000 C 
BRANCH   8   9
ATOM      9  C   UNL     1      30.872  10.511  33.673  1.00  0.00     0.000 C 
BRANCH   9  10
ATOM     10  C   UNL     1      30.304  10.936  32.307  1.00  0.00     0.000 C 
BRANCH  10  11
ATOM     11  C   UNL     1      31.388  10.962  31.208  1.00  0.00     0.000 C 
BRANCH  11  12
ATOM     12  C   UNL     1      31.128  12.005  30.107  1.00  0.00     0.006 C 
BRANCH  12  13
ATOM     13  C   UNL     1      29.657  12.432  30.021  1.00  0.00     0.053 C 
BRANCH  13  14
ATOM     14  C   UNL     1      28.932  11.628  28.989  1.00  0.00     0.041 C 
ATOM     15  O   UNL     1      29.436  11.461  27.847  1.00  0.00    -0.550 OA
ATOM     16  O   UNL     1      27.697  11.065  29.286  1.00  0.00    -0.550 OA
ENDBRANCH  13  14
ENDBRANCH  12  13
ENDBRANCH  11  12
ENDBRANCH  10  11
ENDBRANCH   9  10
ENDBRANCH   8   9
ENDBRANCH   7   8
ENDBRANCH   6   7
ENDBRANCH   5   6
ENDBRANCH   4   5
ENDBRANCH   3   4
ENDBRANCH   2   3
ENDBRANCH   1   2
BRANCH   1  17
ATOM     17  C   UNL     1      35.373  10.430  30.661  1.00  0.00     0.000 C 
BRANCH  17  18
ATOM     18  C   UNL     1      36.882  10.241  30.423  1.00  0.00     0.000 C 
BRANCH  18  19
ATOM     19  C   UNL     1      37.317   8.765  30.448  1.00  0.00     0.000 C 
BRANCH  19  20
ATOM     20  C   UNL     1      36.992   8.076  31.783  1.00  0.00     0.000 C 
BRANCH  20  21
ATOM     21  C   UNL     1      35.869   7.032  31.655  1.00  0.00     0.000 C 
BRANCH  21  22
ATOM     22  C   UNL     1      34.715   7.270  32.646  1.00  0.00    -0.000 C 
BRANCH  22  23
ATOM     23  C   UNL     1      33.400   7.753  32.007  1.00  0.00    -0.000 C 
BRANCH  23  24
ATOM     24  C   UNL     1      32.151   7.125  32.652  1.00  0.00    -0.000 C 
BRANCH  24  25
ATOM     25  C   UNL     1      30.877   7.368  31.815  1.00  0.00    -0.000 C 
BRANCH  25  26
ATOM     26  C   UNL     1      30.551   6.220  30.845  1.00  0.00    -0.000 C 
BRANCH  26  27
ATOM     27  C   UNL     1      30.305   6.706  29.407  1.00  0.00    -0.000 C 
BRANCH  27  28
ATOM     28  C   UNL     1      30.482   8.225  29.258  1.00  0.00    -0.000 C 
BRANCH  28  29
ATOM     29  C   UNL     1      31.447   8.599  28.123  1.00  0.00    -0.003 C 
ATOM     30  C   UNL     1      32.890   8.638  28.621  1.00  0.00     0.004 C 
ENDBRANCH  28  29
ENDBRANCH  27  28
ENDBRANCH  26  27
ENDBRANCH  25  26
ENDBRANCH  24  25
ENDBRANCH  23  24
ENDBRANCH  22  23
ENDBRANCH  21  22
ENDBRANCH  20  21
ENDBRANCH  19  20
ENDBRANCH  18  19
ENDBRANCH  17  18
ENDBRANCH   1  17
TORSDOF 26
ENDMDL
MODEL 4
REMARK VINA RESULT:    -3.858      1.729      5.556
REMARK INTER + INTRA:         -15.050
REMARK INTER:                  -9.200
REMARK INTRA:                  -5.850
REMARK UNBOUND:                -5.328
REMARK SMILES CCCCCCCCCCCCCCCCCCCCCCCCCCCC(=O)[O-]
REMARK SMILES IDX 15 1 16 2 17 3 18 4 19 5 20 6 21 7 22 8 23 9 24 10 25 11
REMARK SMILES IDX 26 12 27 13 28 14 29 15 30 16 14 17 13 18 12 19 11 20 10 21
REMARK SMILES IDX 9 22 8 23 7 24 6 25 5 26 4 27 3 28 2 29 1 30
REMARK H PARENT
REMARK Flexibility Score: inf
ROOT
ATOM      1  C   UNL     1      30.338   7.950  29.963  1.00  0.00     0.000 C 
ENDROOT
BRANCH   1   2
ATOM      2  C   UNL     1      31.337   7.268  30.911  1.00  0.00     0.000 C 
BRANCH   2   3
ATOM      3  C   UNL     1      30.986   7.473  32.395  1.00  0.00     0.000 C 
BRANCH   3   4
ATOM      4  C   UNL     1      32.057   6.939  33.371  1.00  0.00     0.000 C 
BRANCH   4   5
ATOM      5  C   UNL     1      31.923   7.548  34.777  1.00  0.00     0.000 C 
BRANCH   5   6
ATOM      6  C   UNL     1      30.646   8.392  34.947  1.00  0.00     0.000 C 
BRANCH   6   7
ATOM      7  C   UNL     1      30.749   9.534  35.976  1.00  0.00     0.000 C 
BRANCH   7   8
ATOM      8  C   UNL     1      29.703  10.655  35.819  1.00  0.00     0.000 C 
BRANCH   8   9
ATOM      9  C   UNL     1      30.200  12.063  36.190  1.00  0.00     0.000 C 
BRANCH   9  10
ATOM     10  C   UNL     1      31.723  12.218  36.033  1.00  0.00     0.000 C 
BRANCH  10  11
ATOM     11  C   UNL     1      32.157  13.699  36.000  1.00  0.00     0.000 C 
BRANCH  11  12
ATOM     12  C   UNL     1      32.395  14.243  34.581  1.00  0.00     0.006 C 
BRANCH  12  13
ATOM     13  C   UNL     1      33.857  14.123  34.131  1.00  0.00     0.053 C 
BRANCH  13  14
ATOM     14  C   UNL     1      33.982  14.385  32.663  1.00  0.00     0.041 C 
ATOM     15  O   UNL     1      33.251  15.246  32.108  1.00  0.00    -0.550 OA
ATOM     16  O   UNL     1      34.906  13.674  31.906  1.00  0.00    -0.550 OA
ENDBRANCH  13  14
ENDBRANCH  12  13
ENDBRANCH  11  12
ENDBRANCH  10  11
ENDBRANCH   9  10
ENDBRANCH   8   9
ENDBRANCH   7   8
ENDBRANCH   6   7
ENDBRANCH   5   6
ENDBRANCH   4   5
ENDBRANCH   3   4
ENDBRANCH   2   3
ENDBRANCH   1   2
BRANCH   1  17
ATOM     17  C   UNL     1      30.813   7.964  28.498  1.00  0.00     0.000 C 
BRANCH  17  18
ATOM     18  C   UNL     1      31.483   9.273  28.042  1.00  0.00     0.000 C 
BRANCH  18  19
ATOM     19  C   UNL     1      30.752  10.531  28.544  1.00  0.00     0.000 C 
BRANCH  19  20
ATOM     20  C   UNL     1      29.445  10.800  27.780  1.00  0.00     0.000 C 
BRANCH  20  21
ATOM     21  C   UNL     1      28.364  11.447  28.663  1.00  0.00     0.000 C 
BRANCH  21  22
ATOM     22  C   UNL     1      28.951  12.207  29.867  1.00  0.00    -0.000 C 
BRANCH  22  23
ATOM     23  C   UNL     1      28.454  11.727  31.243  1.00  0.00    -0.000 C 
BRANCH  23  24
ATOM     24  C   UNL     1      29.530  10.970  32.040  1.00  0.00    -0.000 C 
BRANCH  24  25
ATOM     25  C   UNL     1      30.725  11.873  32.412  1.00  0.00    -0.000 C 
BRANCH  25  26
ATOM     26  C   UNL     1      32.064  11.393  31.829  1.00  0.00    -0.000 C 
BRANCH  26  27
ATOM     27  C   UNL     1      32.897  10.582  32.836  1.00  0.00    -0.000 C 
BRANCH  27  28
ATOM     28  C   UNL     1      34.233  10.104  32.248  1.00  0.00    -0.000 C 
BRANCH  28  29
ATOM     29  C   UNL     1      34.261  10.169  30.714  1.00  0.00    -0.003 C 
ATOM     30  C   UNL     1      34.546   8.795  30.111  1.00  0.00     0.004 C 
ENDBRANCH  28  29
ENDBRANCH  27  28
ENDBRANCH  26  27
ENDBRANCH  25  26
ENDBRANCH  24  25
ENDBRANCH  23  24
ENDBRANCH  22  23
ENDBRANCH  21  22
ENDBRANCH  20  21
ENDBRANCH  19  20
ENDBRANCH  18  19
ENDBRANCH  17  18
ENDBRANCH   1  17
TORSDOF 26
ENDMDL
MODEL 5
REMARK VINA RESULT:    -3.849      1.928      5.575
REMARK INTER + INTRA:         -15.028
REMARK INTER:                  -9.484
REMARK INTRA:                  -5.544
REMARK UNBOUND:                -5.328
REMARK SMILES CCCCCCCCCCCCCCCCCCCCCCCCCCCC(=O)[O-]
REMARK SMILES IDX 15 1 16 2 17 3 18 4 19 5 20 6 21 7 22 8 23 9 24 10 25 11
REMARK SMILES IDX 26 12 27 13 28 14 29 15 30 16 14 17 13 18 12 19 11 20 10 21
REMARK SMILES IDX 9 22 8 23 7 24 6 25 5 26 4 27 3 28 2 29 1 30
REMARK H PARENT
REMARK Flexibility Score: inf
ROOT
ATOM      1  C   UNL     1      34.729  10.456  32.243  1.00  0.00     0.000 C 
ENDROOT
BRANCH   1   2
ATOM      2  C   UNL     1      35.946  11.162  32.862  1.00  0.00     0.000 C 
BRANCH   2   3
ATOM      3  C   UNL     1      36.921  11.705  31.803  1.00  0.00     0.000 C 
BRANCH   3   4
ATOM      4  C   UNL     1      36.774  13.218  31.534  1.00  0.00     0.000 C 
BRANCH   4   5
ATOM      5  C   UNL     1      36.487  14.015  32.819  1.00  0.00     0.000 C 
BRANCH   5   6
ATOM      6  C   UNL     1      35.262  14.939  32.691  1.00  0.00     0.000 C 
BRANCH   6   7
ATOM      7  C   UNL     1      33.952  14.237  32.284  1.00  0.00     0.000 C 
BRANCH   7   8
ATOM      8  C   UNL     1      33.097  13.714  33.454  1.00  0.00     0.000 C 
BRANCH   8   9
ATOM      9  C   UNL     1      31.951  12.770  33.049  1.00  0.00     0.000 C 
BRANCH   9  10
ATOM     10  C   UNL     1      31.800  12.637  31.523  1.00  0.00     0.000 C 
BRANCH  10  11
ATOM     11  C   UNL     1      31.257  11.252  31.110  1.00  0.00     0.000 C 
BRANCH  11  12
ATOM     12  C   UNL     1      29.761  11.058  31.414  1.00  0.00     0.006 C 
BRANCH  12  13
ATOM     13  C   UNL     1      28.991  10.422  30.249  1.00  0.00     0.053 C 
BRANCH  13  14
ATOM     14  C   UNL     1      28.966  11.339  29.068  1.00  0.00     0.041 C 
ATOM     15  O   UNL     1      28.259  12.382  29.089  1.00  0.00    -0.550 OA
ATOM     16  O   UNL     1      29.720  11.042  27.939  1.00  0.00    -0.550 OA
ENDBRANCH  13  14
ENDBRANCH  12  13
ENDBRANCH  11  12
ENDBRANCH  10  11
ENDBRANCH   9  10
ENDBRANCH   8   9
ENDBRANCH   7   8
ENDBRANCH   6   7
ENDBRANCH   5   6
ENDBRANCH   4   5
ENDBRANCH   3   4
ENDBRANCH   2   3
ENDBRANCH   1   2
BRANCH   1  17
ATOM     17  C   UNL     1      34.883  10.202  30.733  1.00  0.00     0.000 C 
BRANCH  17  18
ATOM     18  C   UNL     1      35.098   8.729  30.337  1.00  0.00     0.000 C 
BRANCH  18  19
ATOM     19  C   UNL     1      36.509   8.215  30.673  1.00  0.00     0.000 C 
BRANCH  19  20
ATOM     20  C   UNL     1      36.489   7.038  31.662  1.00  0.00     0.000 C 
BRANCH  20  21
ATOM     21  C   UNL     1      36.806   7.470  33.105  1.00  0.00     0.000 C 
BRANCH  21  22
ATOM     22  C   UNL     1      35.560   7.493  34.010  1.00  0.00    -0.000 C 
BRANCH  22  23
ATOM     23  C   UNL     1      34.315   6.809  33.417  1.00  0.00    -0.000 C 
BRANCH  23  24
ATOM     24  C   UNL     1      33.009   7.229  34.115  1.00  0.00    -0.000 C 
BRANCH  24  25
ATOM     25  C   UNL     1      32.208   8.255  33.285  1.00  0.00    -0.000 C 
BRANCH  25  26
ATOM     26  C   UNL     1      31.158   7.615  32.362  1.00  0.00    -0.000 C 
BRANCH  26  27
ATOM     27  C   UNL     1      31.655   7.453  30.916  1.00  0.00    -0.000 C 
BRANCH  27  28
ATOM     28  C   UNL     1      30.511   7.190  29.925  1.00  0.00    -0.000 C 
BRANCH  28  29
ATOM     29  C   UNL     1      30.799   7.757  28.526  1.00  0.00    -0.003 C 
ATOM     30  C   UNL     1      32.034   8.654  28.542  1.00  0.00     0.004 C 
ENDBRANCH  28  29
ENDBRANCH  27  28
ENDBRANCH  26  27
ENDBRANCH  25  26
ENDBRANCH  24  25
ENDBRANCH  23  24
ENDBRANCH  22  23
ENDBRANCH  21  22
ENDBRANCH  20  21
ENDBRANCH  19  20
ENDBRANCH  18  19
ENDBRANCH  17  18
ENDBRANCH   1  17
TORSDOF 26
ENDMDL
MODEL 6
REMARK VINA RESULT:    -3.849      1.828      4.483
REMARK INTER + INTRA:         -15.027
REMARK INTER:                  -9.717
REMARK INTRA:                  -5.311
REMARK UNBOUND:                -5.328
REMARK SMILES CCCCCCCCCCCCCCCCCCCCCCCCCCCC(=O)[O-]
REMARK SMILES IDX 15 1 16 2 17 3 18 4 19 5 20 6 21 7 22 8 23 9 24 10 25 11
REMARK SMILES IDX 26 12 27 13 28 14 29 15 30 16 14 17 13 18 12 19 11 20 10 21
REMARK SMILES IDX 9 22 8 23 7 24 6 25 5 26 4 27 3 28 2 29 1 30
REMARK H PARENT
REMARK Flexibility Score: inf
ROOT
ATOM      1  C   UNL     1      33.073  10.725  31.121  1.00  0.00     0.000 C 
ENDROOT
BRANCH   1   2
ATOM      2  C   UNL     1      32.812  10.847  32.630  1.00  0.00     0.000 C 
BRANCH   2   3
ATOM      3  C   UNL     1      31.791   9.817  33.144  1.00  0.00     0.000 C 
BRANCH   3   4
ATOM      4  C   UNL     1      31.106   9.004  32.024  1.00  0.00     0.000 C 
BRANCH   4   5
ATOM      5  C   UNL     1      31.138   7.490  32.298  1.00  0.00     0.000 C 
BRANCH   5   6
ATOM      6  C   UNL     1      30.970   6.646  31.021  1.00  0.00     0.000 C 
BRANCH   6   7
ATOM      7  C   UNL     1      29.820   7.084  30.093  1.00  0.00     0.000 C 
BRANCH   7   8
ATOM      8  C   UNL     1      30.228   7.375  28.636  1.00  0.00     0.000 C 
BRANCH   8   9
ATOM      9  C   UNL     1      31.554   8.138  28.474  1.00  0.00     0.000 C 
BRANCH   9  10
ATOM     10  C   UNL     1      31.348   9.622  28.118  1.00  0.00     0.000 C 
BRANCH  10  11
ATOM     11  C   UNL     1      29.908   9.912  27.643  1.00  0.00     0.000 C 
BRANCH  11  12
ATOM     12  C   UNL     1      29.290  11.171  28.275  1.00  0.00     0.006 C 
BRANCH  12  13
ATOM     13  C   UNL     1      30.087  11.691  29.478  1.00  0.00     0.053 C 
BRANCH  13  14
ATOM     14  C   UNL     1      29.172  12.283  30.503  1.00  0.00     0.041 C 
ATOM     15  O   UNL     1      29.191  11.861  31.689  1.00  0.00    -0.550 OA
ATOM     16  O   UNL     1      28.295  13.300  30.147  1.00  0.00    -0.550 OA
ENDBRANCH  13  14
ENDBRANCH  12  13
ENDBRANCH  11  12
ENDBRANCH  10  11
ENDBRANCH   9  10
ENDBRANCH   8   9
ENDBRANCH   7   8
ENDBRANCH   6   7
ENDBRANCH   5   6
ENDBRANCH   4   5
ENDBRANCH   3   4
ENDBRANCH   2   3
ENDBRANCH   1   2
BRANCH   1  17
ATOM     17  C   UNL     1      34.522  10.319  30.792  1.00  0.00     0.000 C 
BRANCH  17  18
ATOM     18  C   UNL     1      34.667   9.009  29.995  1.00  0.00     0.000 C 
BRANCH  18  19
ATOM     19  C   UNL     1      35.494   7.943  30.735  1.00  0.00     0.000 C 
BRANCH  19  20
ATOM     20  C   UNL     1      34.771   7.386  31.972  1.00  0.00     0.000 C 
BRANCH  20  21
ATOM     21  C   UNL     1      35.625   7.475  33.249  1.00  0.00     0.000 C 
BRANCH  21  22
ATOM     22  C   UNL     1      34.899   8.188  34.405  1.00  0.00    -0.000 C 
BRANCH  22  23
ATOM     23  C   UNL     1      35.518   9.533  34.829  1.00  0.00    -0.000 C 
BRANCH  23  24
ATOM     24  C   UNL     1      36.266  10.238  33.684  1.00  0.00    -0.000 C 
BRANCH  24  25
ATOM     25  C   UNL     1      37.362  11.194  34.203  1.00  0.00    -0.000 C 
BRANCH  25  26
ATOM     26  C   UNL     1      37.097  12.671  33.869  1.00  0.00    -0.000 C 
BRANCH  26  27
ATOM     27  C   UNL     1      35.607  12.976  33.646  1.00  0.00    -0.000 C 
BRANCH  27  28
ATOM     28  C   UNL     1      35.341  13.673  32.303  1.00  0.00    -0.000 C 
BRANCH  28  29
ATOM     29  C   UNL     1      34.342  14.833  32.427  1.00  0.00    -0.003 C 
ATOM     30  C   UNL     1      32.958  14.421  31.930  1.00  0.00     0.004 C 
ENDBRANCH  28  29
ENDBRANCH  27  28
ENDBRANCH  26  27
ENDBRANCH  25  26
ENDBRANCH  24  25
ENDBRANCH  23  24
ENDBRANCH  22  23
ENDBRANCH  21  22
ENDBRANCH  20  21
ENDBRANCH  19  20
ENDBRANCH  18  19
ENDBRANCH  17  18
ENDBRANCH   1  17
TORSDOF 26
ENDMDL
MODEL 7
REMARK VINA RESULT:    -3.846      1.718      4.824
REMARK INTER + INTRA:         -15.019
REMARK INTER:                  -9.144
REMARK INTRA:                  -5.875
REMARK UNBOUND:                -5.328
REMARK SMILES CCCCCCCCCCCCCCCCCCCCCCCCCCCC(=O)[O-]
REMARK SMILES IDX 15 1 16 2 17 3 18 4 19 5 20 6 21 7 22 8 23 9 24 10 25 11
REMARK SMILES IDX 26 12 27 13 28 14 29 15 30 16 14 17 13 18 12 19 11 20 10 21
REMARK SMILES IDX 9 22 8 23 7 24 6 25 5 26 4 27 3 28 2 29 1 30
REMARK H PARENT
REMARK Flexibility Score: inf
ROOT
ATOM      1  C   UNL     1      34.741  10.763  31.191  1.00  0.00     0.000 C 
ENDROOT
BRANCH   1   2
ATOM      2  C   UNL     1      34.679   9.347  30.597  1.00  0.00     0.000 C 
BRANCH   2   3
ATOM      3  C   UNL     1      33.426   8.570  31.038  1.00  0.00     0.000 C 
BRANCH   3   4
ATOM      4  C   UNL     1      32.280   9.470  31.548  1.00  0.00     0.000 C 
BRANCH   4   5
ATOM      5  C   UNL     1      30.974   8.685  31.766  1.00  0.00     0.000 C 
BRANCH   5   6
ATOM      6  C   UNL     1      31.166   7.160  31.666  1.00  0.00     0.000 C 
BRANCH   6   7
ATOM      7  C   UNL     1      30.565   6.507  30.406  1.00  0.00     0.000 C 
BRANCH   7   8
ATOM      8  C   UNL     1      30.123   7.491  29.305  1.00  0.00     0.000 C 
BRANCH   8   9
ATOM      9  C   UNL     1      31.232   7.904  28.322  1.00  0.00     0.000 C 
BRANCH   9  10
ATOM     10  C   UNL     1      31.198   9.405  27.982  1.00  0.00     0.000 C 
BRANCH  10  11
ATOM     11  C   UNL     1      29.761   9.913  27.734  1.00  0.00     0.000 C 
BRANCH  11  12
ATOM     12  C   UNL     1      29.555  11.392  28.104  1.00  0.00     0.006 C 
BRANCH  12  13
ATOM     13  C   UNL     1      30.170  11.761  29.460  1.00  0.00     0.053 C 
BRANCH  13  14
ATOM     14  C   UNL     1      29.113  12.228  30.410  1.00  0.00     0.041 C 
ATOM     15  O   UNL     1      28.440  13.261  30.153  1.00  0.00    -0.550 OA
ATOM     16  O   UNL     1      28.872  11.524  31.584  1.00  0.00    -0.550 OA
ENDBRANCH  13  14
ENDBRANCH  12  13
ENDBRANCH  11  12
ENDBRANCH  10  11
ENDBRANCH   9  10
ENDBRANCH   8   9
ENDBRANCH   7   8
ENDBRANCH   6   7
ENDBRANCH   5   6
ENDBRANCH   4   5
ENDBRANCH   3   4
ENDBRANCH   2   3
ENDBRANCH   1   2
BRANCH   1  17
ATOM     17  C   UNL     1      36.021  11.017  32.009  1.00  0.00     0.000 C 
BRANCH  17  18
ATOM     18  C   UNL     1      36.084  12.384  32.715  1.00  0.00     0.000 C 
BRANCH  18  19
ATOM     19  C   UNL     1      35.456  13.519  31.887  1.00  0.00     0.000 C 
BRANCH  19  20
ATOM     20  C   UNL     1      34.270  14.187  32.601  1.00  0.00     0.000 C 
BRANCH  20  21
ATOM     21  C   UNL     1      32.942  14.002  31.845  1.00  0.00     0.000 C 
BRANCH  21  22
ATOM     22  C   UNL     1      31.982  13.029  32.554  1.00  0.00    -0.000 C 
BRANCH  22  23
ATOM     23  C   UNL     1      32.306  12.760  34.035  1.00  0.00    -0.000 C 
BRANCH  23  24
ATOM     24  C   UNL     1      31.370  11.720  34.676  1.00  0.00    -0.000 C 
BRANCH  24  25
ATOM     25  C   UNL     1      32.107  10.412  35.032  1.00  0.00    -0.000 C 
BRANCH  25  26
ATOM     26  C   UNL     1      33.627  10.483  34.814  1.00  0.00    -0.000 C 
BRANCH  26  27
ATOM     27  C   UNL     1      34.283   9.095  34.723  1.00  0.00    -0.000 C 
BRANCH  27  28
ATOM     28  C   UNL     1      33.280   7.952  34.944  1.00  0.00    -0.000 C 
BRANCH  28  29
ATOM     29  C   UNL     1      33.688   6.660  34.220  1.00  0.00    -0.003 C 
ATOM     30  C   UNL     1      35.162   6.695  33.824  1.00  0.00     0.004 C 
ENDBRANCH  28  29
ENDBRANCH  27  28
ENDBRANCH  26  27
ENDBRANCH  25  26
ENDBRANCH  24  25
ENDBRANCH  23  24
ENDBRANCH  22  23
ENDBRANCH  21  22
ENDBRANCH  20  21
ENDBRANCH  19  20
ENDBRANCH  18  19
ENDBRANCH  17  18
ENDBRANCH   1  17
TORSDOF 26
ENDMDL
MODEL 8
REMARK VINA RESULT:    -3.835      1.424      2.749
REMARK INTER + INTRA:         -14.993
REMARK INTER:                  -9.335
REMARK INTRA:                  -5.658
REMARK UNBOUND:                -5.328
REMARK SMILES CCCCCCCCCCCCCCCCCCCCCCCCCCCC(=O)[O-]
REMARK SMILES IDX 15 1 16 2 17 3 18 4 19 5 20 6 21 7 22 8 23 9 24 10 25 11
REMARK SMILES IDX 26 12 27 13 28 14 29 15 30 16 14 17 13 18 12 19 11 20 10 21
REMARK SMILES IDX 9 22 8 23 7 24 6 25 5 26 4 27 3 28 2 29 1 30
REMARK H PARENT
REMARK Flexibility Score: inf
ROOT
ATOM      1  C   UNL     1      30.545   7.904  30.180  1.00  0.00     0.000 C 
ENDROOT
BRANCH   1   2
ATOM      2  C   UNL     1      31.684   8.259  29.213  1.00  0.00     0.000 C 
BRANCH   2   3
ATOM      3  C   UNL     1      31.382   9.510  28.370  1.00  0.00     0.000 C 
BRANCH   3   4
ATOM      4  C   UNL     1      29.915   9.605  27.896  1.00  0.00     0.000 C 
BRANCH   4   5
ATOM      5  C   UNL     1      29.496  11.051  27.580  1.00  0.00     0.000 C 
BRANCH   5   6
ATOM      6  C   UNL     1      28.368  11.563  28.495  1.00  0.00     0.000 C 
BRANCH   6   7
ATOM      7  C   UNL     1      28.325  10.926  29.898  1.00  0.00     0.000 C 
BRANCH   7   8
ATOM      8  C   UNL     1      28.663  11.879  31.061  1.00  0.00     0.000 C 
BRANCH   8   9
ATOM      9  C   UNL     1      29.988  11.577  31.782  1.00  0.00     0.000 C 
BRANCH   9  10
ATOM     10  C   UNL     1      31.204  12.215  31.087  1.00  0.00     0.000 C 
BRANCH  10  11
ATOM     11  C   UNL     1      31.717  13.461  31.841  1.00  0.00     0.000 C 
BRANCH  11  12
ATOM     12  C   UNL     1      33.205  13.765  31.593  1.00  0.00     0.006 C 
BRANCH  12  13
ATOM     13  C   UNL     1      33.734  14.913  32.462  1.00  0.00     0.053 C 
BRANCH  13  14
ATOM     14  C   UNL     1      35.018  14.526  33.125  1.00  0.00     0.041 C 
ATOM     15  O   UNL     1      35.049  14.296  34.363  1.00  0.00    -0.550 OA
ATOM     16  O   UNL     1      36.184  14.421  32.376  1.00  0.00    -0.550 OA
ENDBRANCH  13  14
ENDBRANCH  12  13
ENDBRANCH  11  12
ENDBRANCH  10  11
ENDBRANCH   9  10
ENDBRANCH   8   9
ENDBRANCH   7   8
ENDBRANCH   6   7
ENDBRANCH   5   6
ENDBRANCH   4   5
ENDBRANCH   3   4
ENDBRANCH   2   3
ENDBRANCH   1   2
BRANCH   1  17
ATOM     17  C   UNL     1      30.874   6.699  31.081  1.00  0.00     0.000 C 
BRANCH  17  18
ATOM     18  C   UNL     1      31.659   7.036  32.362  1.00  0.00     0.000 C 
BRANCH  18  19
ATOM     19  C   UNL     1      31.459   8.490  32.825  1.00  0.00     0.000 C 
BRANCH  19  20
ATOM     20  C   UNL     1      32.374   8.868  34.001  1.00  0.00     0.000 C 
BRANCH  20  21
ATOM     21  C   UNL     1      32.229  10.344  34.415  1.00  0.00     0.000 C 
BRANCH  21  22
ATOM     22  C   UNL     1      33.512  11.161  34.177  1.00  0.00    -0.000 C 
BRANCH  22  23
ATOM     23  C   UNL     1      34.690  10.363  33.590  1.00  0.00    -0.000 C 
BRANCH  23  24
ATOM     24  C   UNL     1      35.106  10.847  32.190  1.00  0.00    -0.000 C 
BRANCH  24  25
ATOM     25  C   UNL     1      34.256  10.204  31.073  1.00  0.00    -0.000 C 
BRANCH  25  26
ATOM     26  C   UNL     1      35.038   9.208  30.201  1.00  0.00    -0.000 C 
BRANCH  26  27
ATOM     27  C   UNL     1      35.203   7.832  30.867  1.00  0.00    -0.000 C 
BRANCH  27  28
ATOM     28  C   UNL     1      36.646   7.565  31.321  1.00  0.00    -0.000 C 
BRANCH  28  29
ATOM     29  C   UNL     1      36.729   7.083  32.777  1.00  0.00    -0.003 C 
ATOM     30  C   UNL     1      35.340   6.775  33.332  1.00  0.00     0.004 C 
ENDBRANCH  28  29
ENDBRANCH  27  28
ENDBRANCH  26  27
ENDBRANCH  25  26
ENDBRANCH  24  25
ENDBRANCH  23  24
ENDBRANCH  22  23
ENDBRANCH  21  22
ENDBRANCH  20  21
ENDBRANCH  19  20
ENDBRANCH  18  19
ENDBRANCH  17  18
ENDBRANCH   1  17
TORSDOF 26
ENDMDL
MODEL 9
REMARK VINA RESULT:    -3.822      1.421      3.751
REMARK INTER + INTRA:         -14.960
REMARK INTER:                  -9.278
REMARK INTRA:                  -5.682
REMARK UNBOUND:                -5.328
REMARK SMILES CCCCCCCCCCCCCCCCCCCCCCCCCCCC(=O)[O-]
REMARK SMILES IDX 15 1 16 2 17 3 18 4 19 5 20 6 21 7 22 8 23 9 24 10 25 11
REMARK SMILES IDX 26 12 27 13 28 14 29 15 30 16 14 17 13 18 12 19 11 20 10 21
REMARK SMILES IDX 9 22 8 23 7 24 6 25 5 26 4 27 3 28 2 29 1 30
REMARK H PARENT
REMARK Flexibility Score: inf
ROOT
ATOM      1  C   UNL     1      32.166   7.787  31.178  1.00  0.00     0.000 C 
ENDROOT
BRANCH   1   2
ATOM      2  C   UNL     1      30.706   7.365  31.401  1.00  0.00     0.000 C 
BRANCH   2   3
ATOM      3  C   UNL     1      29.988   6.986  30.094  1.00  0.00     0.000 C 
BRANCH   3   4
ATOM      4  C   UNL     1      30.754   7.399  28.818  1.00  0.00     0.000 C 
BRANCH   4   5
ATOM      5  C   UNL     1      29.996   8.457  27.998  1.00  0.00     0.000 C 
BRANCH   5   6
ATOM      6  C   UNL     1      30.602   9.867  28.131  1.00  0.00     0.000 C 
BRANCH   6   7
ATOM      7  C   UNL     1      29.647  10.939  28.692  1.00  0.00     0.000 C 
BRANCH   7   8
ATOM      8  C   UNL     1      29.120  10.669  30.114  1.00  0.00     0.000 C 
BRANCH   8   9
ATOM      9  C   UNL     1      29.636  11.639  31.191  1.00  0.00     0.000 C 
BRANCH   9  10
ATOM     10  C   UNL     1      30.244  12.921  30.596  1.00  0.00     0.000 C 
BRANCH  10  11
ATOM     11  C   UNL     1      31.626  13.246  31.204  1.00  0.00     0.000 C 
BRANCH  11  12
ATOM     12  C   UNL     1      31.726  12.945  32.710  1.00  0.00     0.006 C 
BRANCH  12  13
ATOM     13  C   UNL     1      33.089  12.371  33.116  1.00  0.00     0.053 C 
BRANCH  13  14
ATOM     14  C   UNL     1      34.197  13.270  32.667  1.00  0.00     0.041 C 
ATOM     15  O   UNL     1      35.081  12.842  31.878  1.00  0.00    -0.550 OA
ATOM     16  O   UNL     1      34.258  14.581  33.124  1.00  0.00    -0.550 OA
ENDBRANCH  13  14
ENDBRANCH  12  13
ENDBRANCH  11  12
ENDBRANCH  10  11
ENDBRANCH   9  10
ENDBRANCH   8   9
ENDBRANCH   7   8
ENDBRANCH   6   7
ENDBRANCH   5   6
ENDBRANCH   4   5
ENDBRANCH   3   4
ENDBRANCH   2   3
ENDBRANCH   1   2
BRANCH   1  17
ATOM     17  C   UNL     1      32.400   9.292  31.406  1.00  0.00     0.000 C 
BRANCH  17  18
ATOM     18  C   UNL     1      33.395   9.952  30.433  1.00  0.00     0.000 C 
BRANCH  18  19
ATOM     19  C   UNL     1      34.424   8.962  29.860  1.00  0.00     0.000 C 
BRANCH  19  20
ATOM     20  C   UNL     1      35.849   9.227  30.371  1.00  0.00     0.000 C 
BRANCH  20  21
ATOM     21  C   UNL     1      36.581   7.938  30.785  1.00  0.00     0.000 C 
BRANCH  21  22
ATOM     22  C   UNL     1      35.729   7.031  31.691  1.00  0.00    -0.000 C 
BRANCH  22  23
ATOM     23  C   UNL     1      35.942   7.237  33.202  1.00  0.00    -0.000 C 
BRANCH  23  24
ATOM     24  C   UNL     1      34.688   7.767  33.920  1.00  0.00    -0.000 C 
BRANCH  24  25
ATOM     25  C   UNL     1      33.971   6.667  34.730  1.00  0.00    -0.000 C 
BRANCH  25  26
ATOM     26  C   UNL     1      32.459   6.590  34.460  1.00  0.00    -0.000 C 
BRANCH  26  27
ATOM     27  C   UNL     1      31.615   6.766  35.733  1.00  0.00    -0.000 C 
BRANCH  27  28
ATOM     28  C   UNL     1      30.613   7.926  35.622  1.00  0.00    -0.000 C 
BRANCH  28  29
ATOM     29  C   UNL     1      31.149   9.091  34.778  1.00  0.00    -0.003 C 
ATOM     30  C   UNL     1      30.034  10.074  34.429  1.00  0.00     0.004 C 
ENDBRANCH  28  29
ENDBRANCH  27  28
ENDBRANCH  26  27
ENDBRANCH  25  26
ENDBRANCH  24  25
ENDBRANCH  23  24
ENDBRANCH  22  23
ENDBRANCH  21  22
ENDBRANCH  20  21
ENDBRANCH  19  20
ENDBRANCH  18  19
ENDBRANCH  17  18
ENDBRANCH   1  17
TORSDOF 26
ENDMDL
