MODEL 1
REMARK VINA RESULT:    -3.432      0.000      0.000
REMARK INTER + INTRA:          -9.418
REMARK INTER:                  -6.442
REMARK INTRA:                  -2.975
REMARK UNBOUND:                -2.975
REMARK SMILES CCCCCCCCC=CCCCCCCCC(=O)[O-]
REMARK SMILES IDX 10 1 9 2 11 3 12 4 13 5 14 6 15 7 16 8 17 9 18 10 19 11
REMARK SMILES IDX 20 12 8 13 7 14 6 15 5 16 4 17 3 18 2 19 1 20
REMARK H PARENT
REMARK Flexibility Score: inf
ROOT
ATOM      1  C   UNL     1      53.552  29.151  50.876  1.00  0.00    -0.031 C 
ATOM      2  C   UNL     1      54.274  28.131  50.390  1.00  0.00    -0.031 C 
ENDROOT
BRANCH   1   3
ATOM      3  C   UNL     1      54.208  30.401  51.389  1.00  0.00     0.027 C 
BRANCH   3   4
ATOM      4  C   UNL     1      55.616  30.560  50.800  1.00  0.00     0.004 C 
BRANCH   4   5
ATOM      5  C   UNL     1      56.709  30.644  51.880  1.00  0.00     0.000 C 
BRANCH   5   6
ATOM      6  C   UNL     1      57.909  29.699  51.668  1.00  0.00     0.000 C 
BRANCH   6   7
ATOM      7  C   UNL     1      57.925  28.955  50.320  1.00  0.00     0.000 C 
BRANCH   7   8
ATOM      8  C   UNL     1      59.345  28.656  49.820  1.00  0.00     0.006 C 
BRANCH   8   9
ATOM      9  C   UNL     1      59.654  27.159  49.908  1.00  0.00     0.053 C 
BRANCH   9  10
ATOM     10  C   UNL     1      60.836  26.919  50.791  1.00  0.00     0.041 C 
ATOM     11  O   UNL     1      60.672  26.589  51.995  1.00  0.00    -0.550 OA
ATOM     12  O   UNL     1      62.123  27.103  50.297  1.00  0.00    -0.550 OA
ENDBRANCH   9  10
ENDBRANCH   8   9
ENDBRANCH   7   8
ENDBRANCH   6   7
ENDBRANCH   5   6
ENDBRANCH   4   5
ENDBRANCH   3   4
ENDBRANCH   1   3
BRANCH   2  13
ATOM     13  C   UNL     1      53.627  26.856  49.919  1.00  0.00     0.027 C 
BRANCH  13  14
ATOM     14  C   UNL     1      54.653  25.720  49.786  1.00  0.00     0.004 C 
BRANCH  14  15
ATOM     15  C   UNL     1      56.031  26.032  50.404  1.00  0.00     0.000 C 
BRANCH  15  16
ATOM     16  C   UNL     1      56.268  25.441  51.808  1.00  0.00     0.000 C 
BRANCH  16  17
ATOM     17  C   UNL     1      57.163  26.289  52.732  1.00  0.00    -0.000 C 
BRANCH  17  18
ATOM     18  C   UNL     1      56.470  26.661  54.053  1.00  0.00    -0.000 C 
BRANCH  18  19
ATOM     19  C   UNL     1      55.443  27.793  53.881  1.00  0.00    -0.003 C 
ATOM     20  C   UNL     1      54.001  27.318  54.061  1.00  0.00     0.004 C 
ENDBRANCH  18  19
ENDBRANCH  17  18
ENDBRANCH  16  17
ENDBRANCH  15  16
ENDBRANCH  14  15
ENDBRANCH  13  14
ENDBRANCH   2  13
TORSDOF 15
ENDMDL
MODEL 2
REMARK VINA RESULT:    -3.303      1.299      2.477
REMARK INTER + INTRA:          -9.174
REMARK INTER:                  -7.258
REMARK INTRA:                  -1.916
REMARK UNBOUND:                -2.975
REMARK SMILES CCCCCCCCC=CCCCCCCCC(=O)[O-]
REMARK SMILES IDX 10 1 9 2 11 3 12 4 13 5 14 6 15 7 16 8 17 9 18 10 19 11
REMARK SMILES IDX 20 12 8 13 7 14 6 15 5 16 4 17 3 18 2 19 1 20
REMARK H PARENT
REMARK Flexibility Score: inf
ROOT
ATOM      1  C   UNL     1      53.610  29.312  50.403  1.00  0.00    -0.031 C 
ATOM      2  C   UNL     1      54.162  28.095  50.514  1.00  0.00    -0.031 C 
ENDROOT
BRANCH   1   3
ATOM      3  C   UNL     1      54.196  30.505  51.102  1.00  0.00     0.027 C 
BRANCH   3   4
ATOM      4  C   UNL     1      55.684  30.663  50.758  1.00  0.00     0.004 C 
BRANCH   4   5
ATOM      5  C   UNL     1      56.596  30.558  51.993  1.00  0.00     0.000 C 
BRANCH   5   6
ATOM      6  C   UNL     1      57.918  29.797  51.764  1.00  0.00     0.000 C 
BRANCH   6   7
ATOM      7  C   UNL     1      57.937  28.878  50.530  1.00  0.00     0.000 C 
BRANCH   7   8
ATOM      8  C   UNL     1      59.247  28.975  49.734  1.00  0.00     0.006 C 
BRANCH   8   9
ATOM      9  C   UNL     1      59.961  27.621  49.686  1.00  0.00     0.053 C 
BRANCH   9  10
ATOM     10  C   UNL     1      61.235  27.673  50.468  1.00  0.00     0.041 C 
ATOM     11  O   UNL     1      62.299  27.213  49.977  1.00  0.00    -0.550 OA
ATOM     12  O   UNL     1      61.239  28.190  51.758  1.00  0.00    -0.550 OA
ENDBRANCH   9  10
ENDBRANCH   8   9
ENDBRANCH   7   8
ENDBRANCH   6   7
ENDBRANCH   5   6
ENDBRANCH   4   5
ENDBRANCH   3   4
ENDBRANCH   1   3
BRANCH   2  13
ATOM     13  C   UNL     1      53.552  26.886  49.855  1.00  0.00     0.027 C 
BRANCH  13  14
ATOM     14  C   UNL     1      54.558  25.729  49.760  1.00  0.00     0.004 C 
BRANCH  14  15
ATOM     15  C   UNL     1      55.924  26.019  50.416  1.00  0.00     0.000 C 
BRANCH  15  16
ATOM     16  C   UNL     1      56.108  25.434  51.831  1.00  0.00     0.000 C 
BRANCH  16  17
ATOM     17  C   UNL     1      57.522  25.586  52.422  1.00  0.00    -0.000 C 
BRANCH  17  18
ATOM     18  C   UNL     1      58.367  24.309  52.279  1.00  0.00    -0.000 C 
BRANCH  18  19
ATOM     19  C   UNL     1      59.512  24.471  51.266  1.00  0.00    -0.003 C 
ATOM     20  C   UNL     1      60.882  24.154  51.864  1.00  0.00     0.004 C 
ENDBRANCH  18  19
ENDBRANCH  17  18
ENDBRANCH  16  17
ENDBRANCH  15  16
ENDBRANCH  14  15
ENDBRANCH  13  14
ENDBRANCH   2  13
TORSDOF 15
ENDMDL
MODEL 3
REMARK VINA RESULT:    -3.298      2.118      5.310
REMARK INTER + INTRA:          -9.165
REMARK INTER:                  -6.378
REMARK INTRA:                  -2.787
REMARK UNBOUND:                -2.975
REMARK SMILES CCCCCCCCC=CCCCCCCCC(=O)[O-]
REMARK SMILES IDX 10 1 9 2 11 3 12 4 13 5 14 6 15 7 16 8 17 9 18 10 19 11
REMARK SMILES IDX 20 12 8 13 7 14 6 15 5 16 4 17 3 18 2 19 1 20
REMARK H PARENT
REMARK Flexibility Score: inf
ROOT
ATOM      1  C   UNL     1      54.176  28.062  50.374  1.00  0.00    -0.031 C 
ATOM      2  C   UNL     1      53.397  29.098  50.722  1.00  0.00    -0.031 C 
ENDROOT
BRANCH   1   3
ATOM      3  C   UNL     1      53.590  26.788  49.835  1.00  0.00     0.027 C 
BRANCH   3   4
ATOM      4  C   UNL     1      54.611  25.644  49.911  1.00  0.00     0.004 C 
BRANCH   4   5
ATOM      5  C   UNL     1      56.018  26.125  50.306  1.00  0.00     0.000 C 
BRANCH   5   6
ATOM      6  C   UNL     1      56.582  25.499  51.598  1.00  0.00     0.000 C 
BRANCH   6   7
ATOM      7  C   UNL     1      56.703  26.464  52.791  1.00  0.00     0.000 C 
BRANCH   7   8
ATOM      8  C   UNL     1      55.416  26.548  53.624  1.00  0.00     0.006 C 
BRANCH   8   9
ATOM      9  C   UNL     1      55.067  28.003  53.951  1.00  0.00     0.053 C 
BRANCH   9  10
ATOM     10  C   UNL     1      55.725  28.425  55.226  1.00  0.00     0.041 C 
ATOM     11  O   UNL     1      55.137  28.263  56.327  1.00  0.00    -0.550 OA
ATOM     12  O   UNL     1      56.971  29.041  55.195  1.00  0.00    -0.550 OA
ENDBRANCH   9  10
ENDBRANCH   8   9
ENDBRANCH   7   8
ENDBRANCH   6   7
ENDBRANCH   5   6
ENDBRANCH   4   5
ENDBRANCH   3   4
ENDBRANCH   1   3
BRANCH   2  13
ATOM     13  C   UNL     1      53.972  30.359  51.308  1.00  0.00     0.027 C 
BRANCH  13  14
ATOM     14  C   UNL     1      55.394  30.623  50.790  1.00  0.00     0.004 C 
BRANCH  14  15
ATOM     15  C   UNL     1      56.457  30.775  51.898  1.00  0.00     0.000 C 
BRANCH  15  16
ATOM     16  C   UNL     1      57.682  29.849  51.761  1.00  0.00     0.000 C 
BRANCH  16  17
ATOM     17  C   UNL     1      57.795  29.109  50.416  1.00  0.00    -0.000 C 
BRANCH  17  18
ATOM     18  C   UNL     1      59.243  29.022  49.904  1.00  0.00    -0.000 C 
BRANCH  18  19
ATOM     19  C   UNL     1      59.778  27.581  49.892  1.00  0.00    -0.003 C 
ATOM     20  C   UNL     1      61.300  27.513  50.022  1.00  0.00     0.004 C 
ENDBRANCH  18  19
ENDBRANCH  17  18
ENDBRANCH  16  17
ENDBRANCH  15  16
ENDBRANCH  14  15
ENDBRANCH  13  14
ENDBRANCH   2  13
TORSDOF 15
ENDMDL
MODEL 4
REMARK VINA RESULT:    -3.095      1.808      4.521
REMARK INTER + INTRA:          -8.784
REMARK INTER:                  -6.058
REMARK INTRA:                  -2.726
REMARK UNBOUND:                -2.975
REMARK SMILES CCCCCCCCC=CCCCCCCCC(=O)[O-]
REMARK SMILES IDX 10 1 9 2 11 3 12 4 13 5 14 6 15 7 16 8 17 9 18 10 19 11
REMARK SMILES IDX 20 12 8 13 7 14 6 15 5 16 4 17 3 18 2 19 1 20
REMARK H PARENT
REMARK Flexibility Score: inf
ROOT
ATOM      1  C   UNL     1      57.402  26.989  53.419  1.00  0.00    -0.031 C 
ATOM      2  C   UNL     1      57.959  28.183  53.168  1.00  0.00    -0.031 C 
ENDROOT
BRANCH   1   3
ATOM      3  C   UNL     1      58.137  25.708  53.146  1.00  0.00     0.027 C 
BRANCH   3   4
ATOM      4  C   UNL     1      59.622  25.980  52.866  1.00  0.00     0.004 C 
BRANCH   4   5
ATOM      5  C   UNL     1      60.052  25.547  51.454  1.00  0.00     0.000 C 
BRANCH   5   6
ATOM      6  C   UNL     1      59.089  25.964  50.323  1.00  0.00     0.000 C 
BRANCH   6   7
ATOM      7  C   UNL     1      59.337  27.365  49.737  1.00  0.00     0.000 C 
BRANCH   7   8
ATOM      8  C   UNL     1      60.738  27.906  50.056  1.00  0.00     0.006 C 
BRANCH   8   9
ATOM      9  C   UNL     1      60.656  29.272  50.744  1.00  0.00     0.053 C 
BRANCH   9  10
ATOM     10  C   UNL     1      62.005  29.916  50.792  1.00  0.00     0.041 C 
ATOM     11  O   UNL     1      63.046  29.214  50.703  1.00  0.00    -0.550 OA
ATOM     12  O   UNL     1      62.114  31.288  50.982  1.00  0.00    -0.550 OA
ENDBRANCH   9  10
ENDBRANCH   8   9
ENDBRANCH   7   8
ENDBRANCH   6   7
ENDBRANCH   5   6
ENDBRANCH   4   5
ENDBRANCH   3   4
ENDBRANCH   1   3
BRANCH   2  13
ATOM     13  C   UNL     1      57.210  29.469  53.393  1.00  0.00     0.027 C 
BRANCH  13  14
ATOM     14  C   UNL     1      57.203  30.345  52.130  1.00  0.00     0.004 C 
BRANCH  14  15
ATOM     15  C   UNL     1      56.604  29.660  50.885  1.00  0.00     0.000 C 
BRANCH  15  16
ATOM     16  C   UNL     1      55.068  29.533  50.882  1.00  0.00     0.000 C 
BRANCH  16  17
ATOM     17  C   UNL     1      54.527  28.144  50.494  1.00  0.00    -0.000 C 
BRANCH  17  18
ATOM     18  C   UNL     1      55.638  27.089  50.360  1.00  0.00    -0.000 C 
BRANCH  18  19
ATOM     19  C   UNL     1      55.086  25.655  50.325  1.00  0.00    -0.003 C 
ATOM     20  C   UNL     1      53.798  25.534  49.511  1.00  0.00     0.004 C 
ENDBRANCH  18  19
ENDBRANCH  17  18
ENDBRANCH  16  17
ENDBRANCH  15  16
ENDBRANCH  14  15
ENDBRANCH  13  14
ENDBRANCH   2  13
TORSDOF 15
ENDMDL
MODEL 5
REMARK VINA RESULT:    -3.090      1.642      4.754
REMARK INTER + INTRA:          -8.774
REMARK INTER:                  -6.426
REMARK INTRA:                  -2.348
REMARK UNBOUND:                -2.975
REMARK SMILES CCCCCCCCC=CCCCCCCCC(=O)[O-]
REMARK SMILES IDX 10 1 9 2 11 3 12 4 13 5 14 6 15 7 16 8 17 9 18 10 19 11
REMARK SMILES IDX 20 12 8 13 7 14 6 15 5 16 4 17 3 18 2 19 1 20
REMARK H PARENT
REMARK Flexibility Score: inf
ROOT
ATOM      1  C   UNL     1      54.624  27.048  50.348  1.00  0.00    -0.031 C 
ATOM      2  C   UNL     1      53.701  27.983  50.077  1.00  0.00    -0.031 C 
ENDROOT
BRANCH   1   3
ATOM      3  C   UNL     1      54.478  25.636  49.857  1.00  0.00     0.027 C 
BRANCH   3   4
ATOM      4  C   UNL     1      53.800  24.757  50.916  1.00  0.00     0.004 C 
BRANCH   4   5
ATOM      5  C   UNL     1      54.037  25.261  52.351  1.00  0.00     0.000 C 
BRANCH   5   6
ATOM      6  C   UNL     1      55.140  24.515  53.130  1.00  0.00     0.000 C 
BRANCH   6   7
ATOM      7  C   UNL     1      56.050  25.410  53.989  1.00  0.00     0.000 C 
BRANCH   7   8
ATOM      8  C   UNL     1      56.881  26.394  53.153  1.00  0.00     0.006 C 
BRANCH   8   9
ATOM      9  C   UNL     1      58.328  25.912  53.014  1.00  0.00     0.053 C 
BRANCH   9  10
ATOM     10  C   UNL     1      58.486  25.082  51.779  1.00  0.00     0.041 C 
ATOM     11  O   UNL     1      57.820  25.349  50.746  1.00  0.00    -0.550 OA
ATOM     12  O   UNL     1      59.339  23.984  51.784  1.00  0.00    -0.550 OA
ENDBRANCH   9  10
ENDBRANCH   8   9
ENDBRANCH   7   8
ENDBRANCH   6   7
ENDBRANCH   5   6
ENDBRANCH   4   5
ENDBRANCH   3   4
ENDBRANCH   1   3
BRANCH   2  13
ATOM     13  C   UNL     1      53.816  29.387  50.607  1.00  0.00     0.027 C 
BRANCH  13  14
ATOM     14  C   UNL     1      54.931  29.503  51.657  1.00  0.00     0.004 C 
BRANCH  14  15
ATOM     15  C   UNL     1      56.107  30.409  51.239  1.00  0.00     0.000 C 
BRANCH  15  16
ATOM     16  C   UNL     1      57.509  29.806  51.458  1.00  0.00     0.000 C 
BRANCH  16  17
ATOM     17  C   UNL     1      57.882  28.654  50.506  1.00  0.00    -0.000 C 
BRANCH  17  18
ATOM     18  C   UNL     1      59.143  28.951  49.678  1.00  0.00    -0.000 C 
BRANCH  18  19
ATOM     19  C   UNL     1      60.169  27.808  49.737  1.00  0.00    -0.003 C 
ATOM     20  C   UNL     1      60.949  27.779  51.052  1.00  0.00     0.004 C 
ENDBRANCH  18  19
ENDBRANCH  17  18
ENDBRANCH  16  17
ENDBRANCH  15  16
ENDBRANCH  14  15
ENDBRANCH  13  14
ENDBRANCH   2  13
TORSDOF 15
ENDMDL
MODEL 6
REMARK VINA RESULT:    -3.088      1.395      2.067
REMARK INTER + INTRA:          -8.771
REMARK INTER:                  -5.896
REMARK INTRA:                  -2.874
REMARK UNBOUND:                -2.975
REMARK SMILES CCCCCCCCC=CCCCCCCCC(=O)[O-]
REMARK SMILES IDX 10 1 9 2 11 3 12 4 13 5 14 6 15 7 16 8 17 9 18 10 19 11
REMARK SMILES IDX 20 12 8 13 7 14 6 15 5 16 4 17 3 18 2 19 1 20
REMARK H PARENT
REMARK Flexibility Score: inf
ROOT
ATOM      1  C   UNL     1      53.885  27.912  50.461  1.00  0.00    -0.031 C 
ATOM      2  C   UNL     1      54.846  27.042  50.113  1.00  0.00    -0.031 C 
ENDROOT
BRANCH   1   3
ATOM      3  C   UNL     1      54.180  29.374  50.642  1.00  0.00     0.027 C 
BRANCH   3   4
ATOM      4  C   UNL     1      54.662  29.661  52.071  1.00  0.00     0.004 C 
BRANCH   4   5
ATOM      5  C   UNL     1      56.062  30.296  52.112  1.00  0.00     0.000 C 
BRANCH   5   6
ATOM      6  C   UNL     1      56.918  30.071  50.849  1.00  0.00     0.000 C 
BRANCH   6   7
ATOM      7  C   UNL     1      58.205  29.256  51.068  1.00  0.00     0.000 C 
BRANCH   7   8
ATOM      8  C   UNL     1      58.885  28.848  49.753  1.00  0.00     0.006 C 
BRANCH   8   9
ATOM      9  C   UNL     1      60.183  28.083  50.022  1.00  0.00     0.053 C 
BRANCH   9  10
ATOM     10  C   UNL     1      59.886  26.716  50.550  1.00  0.00     0.041 C 
ATOM     11  O   UNL     1      59.087  25.960  49.938  1.00  0.00    -0.550 OA
ATOM     12  O   UNL     1      60.459  26.292  51.743  1.00  0.00    -0.550 OA
ENDBRANCH   9  10
ENDBRANCH   8   9
ENDBRANCH   7   8
ENDBRANCH   6   7
ENDBRANCH   5   6
ENDBRANCH   4   5
ENDBRANCH   3   4
ENDBRANCH   1   3
BRANCH   2  13
ATOM     13  C   UNL     1      54.568  25.569  49.978  1.00  0.00     0.027 C 
BRANCH  13  14
ATOM     14  C   UNL     1      53.335  25.151  50.792  1.00  0.00     0.004 C 
BRANCH  14  15
ATOM     15  C   UNL     1      53.659  24.360  52.076  1.00  0.00     0.000 C 
BRANCH  15  16
ATOM     16  C   UNL     1      53.592  25.177  53.382  1.00  0.00     0.000 C 
BRANCH  16  17
ATOM     17  C   UNL     1      54.931  25.330  54.127  1.00  0.00    -0.000 C 
BRANCH  17  18
ATOM     18  C   UNL     1      55.687  26.611  53.736  1.00  0.00    -0.000 C 
BRANCH  18  19
ATOM     19  C   UNL     1      56.921  26.324  52.865  1.00  0.00    -0.003 C 
ATOM     20  C   UNL     1      57.258  24.835  52.786  1.00  0.00     0.004 C 
ENDBRANCH  18  19
ENDBRANCH  17  18
ENDBRANCH  16  17
ENDBRANCH  15  16
ENDBRANCH  14  15
ENDBRANCH  13  14
ENDBRANCH   2  13
TORSDOF 15
ENDMDL
MODEL 7
REMARK VINA RESULT:    -3.081      1.569      4.455
REMARK INTER + INTRA:          -8.758
REMARK INTER:                  -6.827
REMARK INTRA:                  -1.931
REMARK UNBOUND:                -2.975
REMARK SMILES CCCCCCCCC=CCCCCCCCC(=O)[O-]
REMARK SMILES IDX 10 1 9 2 11 3 12 4 13 5 14 6 15 7 16 8 17 9 18 10 19 11
REMARK SMILES IDX 20 12 8 13 7 14 6 15 5 16 4 17 3 18 2 19 1 20
REMARK H PARENT
REMARK Flexibility Score: inf
ROOT
ATOM      1  C   UNL     1      54.390  28.097  50.410  1.00  0.00    -0.031 C 
ATOM      2  C   UNL     1      53.728  29.230  50.690  1.00  0.00    -0.031 C 
ENDROOT
BRANCH   1   3
ATOM      3  C   UNL     1      53.671  26.864  49.943  1.00  0.00     0.027 C 
BRANCH   3   4
ATOM      4  C   UNL     1      54.628  25.665  49.880  1.00  0.00     0.004 C 
BRANCH   4   5
ATOM      5  C   UNL     1      56.006  25.968  50.493  1.00  0.00     0.000 C 
BRANCH   5   6
ATOM      6  C   UNL     1      56.158  25.581  51.978  1.00  0.00     0.000 C 
BRANCH   6   7
ATOM      7  C   UNL     1      57.440  24.803  52.322  1.00  0.00     0.000 C 
BRANCH   7   8
ATOM      8  C   UNL     1      58.659  25.275  51.518  1.00  0.00     0.006 C 
BRANCH   8   9
ATOM      9  C   UNL     1      59.571  24.098  51.160  1.00  0.00     0.053 C 
BRANCH   9  10
ATOM     10  C   UNL     1      60.676  23.969  52.160  1.00  0.00     0.041 C 
ATOM     11  O   UNL     1      60.491  23.334  53.231  1.00  0.00    -0.550 OA
ATOM     12  O   UNL     1      61.899  24.588  51.929  1.00  0.00    -0.550 OA
ENDBRANCH   9  10
ENDBRANCH   8   9
ENDBRANCH   7   8
ENDBRANCH   6   7
ENDBRANCH   5   6
ENDBRANCH   4   5
ENDBRANCH   3   4
ENDBRANCH   1   3
BRANCH   2  13
ATOM     13  C   UNL     1      54.436  30.455  51.205  1.00  0.00     0.027 C 
BRANCH  13  14
ATOM     14  C   UNL     1      55.917  30.461  50.799  1.00  0.00     0.004 C 
BRANCH  14  15
ATOM     15  C   UNL     1      56.899  30.271  51.974  1.00  0.00     0.000 C 
BRANCH  15  16
ATOM     16  C   UNL     1      57.881  29.093  51.824  1.00  0.00     0.000 C 
BRANCH  16  17
ATOM     17  C   UNL     1      58.079  28.586  50.383  1.00  0.00    -0.000 C 
BRANCH  17  18
ATOM     18  C   UNL     1      59.340  29.162  49.718  1.00  0.00    -0.000 C 
BRANCH  18  19
ATOM     19  C   UNL     1      60.612  28.898  50.539  1.00  0.00    -0.003 C 
ATOM     20  C   UNL     1      61.263  27.554  50.209  1.00  0.00     0.004 C 
ENDBRANCH  18  19
ENDBRANCH  17  18
ENDBRANCH  16  17
ENDBRANCH  15  16
ENDBRANCH  14  15
ENDBRANCH  13  14
ENDBRANCH   2  13
TORSDOF 15
ENDMDL
MODEL 8
REMARK VINA RESULT:    -3.058      1.758      4.413
REMARK INTER + INTRA:          -8.714
REMARK INTER:                  -5.916
REMARK INTRA:                  -2.798
REMARK UNBOUND:                -2.975
REMARK SMILES CCCCCCCCC=CCCCCCCCC(=O)[O-]
REMARK SMILES IDX 10 1 9 2 11 3 12 4 13 5 14 6 15 7 16 8 17 9 18 10 19 11
REMARK SMILES IDX 20 12 8 13 7 14 6 15 5 16 4 17 3 18 2 19 1 20
REMARK H PARENT
REMARK Flexibility Score: inf
ROOT
ATOM      1  C   UNL     1      57.538  27.729  50.908  1.00  0.00    -0.031 C 
ATOM      2  C   UNL     1      57.055  28.074  52.111  1.00  0.00    -0.031 C 
ENDROOT
BRANCH   1   3
ATOM      3  C   UNL     1      57.893  26.306  50.585  1.00  0.00     0.027 C 
BRANCH   3   4
ATOM      4  C   UNL     1      59.341  26.205  50.084  1.00  0.00     0.004 C 
BRANCH   4   5
ATOM      5  C   UNL     1      59.924  27.565  49.665  1.00  0.00     0.000 C 
BRANCH   5   6
ATOM      6  C   UNL     1      61.427  27.749  49.960  1.00  0.00     0.000 C 
BRANCH   6   7
ATOM      7  C   UNL     1      61.772  28.930  50.884  1.00  0.00     0.000 C 
BRANCH   7   8
ATOM      8  C   UNL     1      60.528  29.611  51.473  1.00  0.00     0.006 C 
BRANCH   8   9
ATOM      9  C   UNL     1      60.593  29.645  53.002  1.00  0.00     0.053 C 
BRANCH   9  10
ATOM     10  C   UNL     1      60.901  28.285  53.544  1.00  0.00     0.041 C 
ATOM     11  O   UNL     1      60.088  27.338  53.379  1.00  0.00    -0.550 OA
ATOM     12  O   UNL     1      62.067  28.074  54.270  1.00  0.00    -0.550 OA
ENDBRANCH   9  10
ENDBRANCH   8   9
ENDBRANCH   7   8
ENDBRANCH   6   7
ENDBRANCH   5   6
ENDBRANCH   4   5
ENDBRANCH   3   4
ENDBRANCH   1   3
BRANCH   2  13
ATOM     13  C   UNL     1      56.743  29.505  52.459  1.00  0.00     0.027 C 
BRANCH  13  14
ATOM     14  C   UNL     1      56.655  30.384  51.202  1.00  0.00     0.004 C 
BRANCH  14  15
ATOM     15  C   UNL     1      55.216  30.657  50.718  1.00  0.00     0.000 C 
BRANCH  15  16
ATOM     16  C   UNL     1      54.103  30.215  51.688  1.00  0.00     0.000 C 
BRANCH  16  17
ATOM     17  C   UNL     1      53.172  29.110  51.156  1.00  0.00    -0.000 C 
BRANCH  17  18
ATOM     18  C   UNL     1      53.881  28.151  50.185  1.00  0.00    -0.000 C 
BRANCH  18  19
ATOM     19  C   UNL     1      53.897  26.701  50.696  1.00  0.00    -0.003 C 
ATOM     20  C   UNL     1      54.357  25.703  49.633  1.00  0.00     0.004 C 
ENDBRANCH  18  19
ENDBRANCH  17  18
ENDBRANCH  16  17
ENDBRANCH  15  16
ENDBRANCH  14  15
ENDBRANCH  13  14
ENDBRANCH   2  13
TORSDOF 15
ENDMDL
MODEL 9
REMARK VINA RESULT:    -3.053      1.492      2.668
REMARK INTER + INTRA:          -8.706
REMARK INTER:                  -6.523
REMARK INTRA:                  -2.183
REMARK UNBOUND:                -2.975
REMARK SMILES CCCCCCCCC=CCCCCCCCC(=O)[O-]
REMARK SMILES IDX 10 1 9 2 11 3 12 4 13 5 14 6 15 7 16 8 17 9 18 10 19 11
REMARK SMILES IDX 20 12 8 13 7 14 6 15 5 16 4 17 3 18 2 19 1 20
REMARK H PARENT
REMARK Flexibility Score: inf
ROOT
ATOM      1  C   UNL     1      55.191  30.400  50.739  1.00  0.00    -0.031 C 
ATOM      2  C   UNL     1      54.273  29.514  51.153  1.00  0.00    -0.031 C 
ENDROOT
BRANCH   1   3
ATOM      3  C   UNL     1      56.389  30.738  51.579  1.00  0.00     0.027 C 
BRANCH   3   4
ATOM      4  C   UNL     1      56.824  29.529  52.420  1.00  0.00     0.004 C 
BRANCH   4   5
ATOM      5  C   UNL     1      58.078  28.833  51.862  1.00  0.00     0.000 C 
BRANCH   5   6
ATOM      6  C   UNL     1      58.442  29.211  50.412  1.00  0.00     0.000 C 
BRANCH   6   7
ATOM      7  C   UNL     1      59.370  28.218  49.691  1.00  0.00     0.000 C 
BRANCH   7   8
ATOM      8  C   UNL     1      60.525  27.729  50.577  1.00  0.00     0.006 C 
BRANCH   8   9
ATOM      9  C   UNL     1      61.647  28.769  50.639  1.00  0.00     0.053 C 
BRANCH   9  10
ATOM     10  C   UNL     1      62.863  28.270  49.926  1.00  0.00     0.041 C 
ATOM     11  O   UNL     1      63.108  27.036  49.876  1.00  0.00    -0.550 OA
ATOM     12  O   UNL     1      63.753  29.172  49.352  1.00  0.00    -0.550 OA
ENDBRANCH   9  10
ENDBRANCH   8   9
ENDBRANCH   7   8
ENDBRANCH   6   7
ENDBRANCH   5   6
ENDBRANCH   4   5
ENDBRANCH   3   4
ENDBRANCH   1   3
BRANCH   2  13
ATOM     13  C   UNL     1      53.044  29.207  50.339  1.00  0.00     0.027 C 
BRANCH  13  14
ATOM     14  C   UNL     1      52.967  27.716  49.976  1.00  0.00     0.004 C 
BRANCH  14  15
ATOM     15  C   UNL     1      53.929  26.816  50.778  1.00  0.00     0.000 C 
BRANCH  15  16
ATOM     16  C   UNL     1      54.929  26.007  49.929  1.00  0.00     0.000 C 
BRANCH  16  17
ATOM     17  C   UNL     1      56.323  25.824  50.559  1.00  0.00    -0.000 C 
BRANCH  17  18
ATOM     18  C   UNL     1      56.280  25.774  52.096  1.00  0.00    -0.000 C 
BRANCH  18  19
ATOM     19  C   UNL     1      57.518  25.089  52.697  1.00  0.00    -0.003 C 
ATOM     20  C   UNL     1      58.621  24.846  51.667  1.00  0.00     0.004 C 
ENDBRANCH  18  19
ENDBRANCH  17  18
ENDBRANCH  16  17
ENDBRANCH  15  16
ENDBRANCH  14  15
ENDBRANCH  13  14
ENDBRANCH   2  13
TORSDOF 15
ENDMDL
