MODEL 1
REMARK VINA RESULT:    -5.791      0.000      0.000
REMARK INTER + INTRA:          -5.275
REMARK INTER:                  -6.299
REMARK INTRA:                   1.023
REMARK UNBOUND:                 1.023
REMARK SMILES C[C@H]1[C@H](C)CC[C@]2(C(=O)[O-])CC[C@@]3(C)C(=CC[C@@H]4[C@]5(C)CC[C@@H](O)C(C)(C)[C@@H]5CC[C@]43C)[C@@H]12
REMARK SMILES IDX 7 1 6 2 11 3 33 4 5 5 12 6 15 7 2 8 3 9 13 10 16 11 1 12
REMARK SMILES IDX 4 13 14 14 31 15 17 16 18 17 30 18 32 19 19 20 29 21 28 22
REMARK SMILES IDX 21 23 20 24 25 25 22 26 23 27 26 28 27 29 8 30 9 31 10 32
REMARK SMILES IDX 24 33
REMARK H PARENT 24 34
REMARK Flexibility Score: inf
ROOT
ATOM      1  C   UNL     1     -10.720   6.217  13.271  1.00  0.00     0.017 C 
ATOM      2  C   UNL     1     -11.534   6.174  14.596  1.00  0.00     0.014 C 
ATOM      3  C   UNL     1     -11.679   5.788  12.102  1.00  0.00     0.014 C 
ATOM      4  C   UNL     1      -9.527   5.206  13.393  1.00  0.00     0.030 C 
ATOM      5  C   UNL     1     -10.674   6.506  15.822  1.00  0.00     0.004 C 
ATOM      6  C   UNL     1     -11.072   4.877  11.002  1.00  0.00     0.013 C 
ATOM      7  C   UNL     1      -8.780   4.937  12.059  1.00  0.00    -0.063 C 
ATOM      8  C   UNL     1      -8.649   5.386  14.693  1.00  0.00    -0.003 C 
ATOM      9  C   UNL     1      -9.502   5.522  15.990  1.00  0.00    -0.011 C 
ATOM     10  C   UNL     1      -9.558   5.115  10.704  1.00  0.00    -0.006 C 
ATOM     11  C   UNL     1      -7.693   4.102  12.133  1.00  0.00    -0.027 C 
ATOM     12  C   UNL     1      -7.595   6.505  14.609  1.00  0.00     0.008 C 
ATOM     13  C   UNL     1      -9.985   4.155  16.509  1.00  0.00     0.008 C 
ATOM     14  C   UNL     1      -9.416   6.580  10.168  1.00  0.00     0.017 C 
ATOM     15  C   UNL     1      -8.972   4.099   9.589  1.00  0.00    -0.020 C 
ATOM     16  C   UNL     1      -7.485   2.897  11.230  1.00  0.00     0.032 C 
ATOM     17  C   UNL     1      -8.694   2.729  10.290  1.00  0.00     0.006 C 
ATOM     18  C   UNL     1      -9.912   3.877   8.361  1.00  0.00     0.008 C 
ATOM     19  C   UNL     1      -7.627   4.723   9.023  1.00  0.00     0.012 C 
ATOM     20  C   UNL     1      -8.869   1.399   9.427  1.00  0.00    -0.025 C 
ATOM     21  C   UNL     1     -10.914   2.705   8.439  1.00  0.00     0.005 C 
ATOM     22  C   UNL     1     -10.395   1.329   9.018  1.00  0.00     0.003 C 
ATOM     23  C   UNL     1      -7.965   1.281   8.147  1.00  0.00     0.010 C 
ATOM     24  C   UNL     1      -8.521   0.200  10.358  1.00  0.00     0.012 C 
ATOM     25  C   UNL     1     -10.796   0.018   8.173  1.00  0.00    -0.006 C 
ATOM     26  C   UNL     1      -8.694   0.792   6.877  1.00  0.00     0.033 C 
ATOM     27  C   UNL     1      -9.653  -0.371   7.141  1.00  0.00     0.120 C 
ATOM     28  C   UNL     1     -12.106   0.247   7.356  1.00  0.00     0.014 C 
ATOM     29  C   UNL     1     -11.141  -1.172   9.156  1.00  0.00     0.014 C 
ENDROOT
BRANCH   1  30
ATOM     30  C   UNL     1     -10.282   7.666  13.051  1.00  0.00     0.048 C 
ATOM     31  O   UNL     1      -9.177   7.951  12.523  1.00  0.00    -0.550 OA
ATOM     32  O   UNL     1     -11.146   8.705  13.382  1.00  0.00    -0.550 OA
ENDBRANCH   1  30
BRANCH  27  33
ATOM     33  O   UNL     1      -8.885  -1.479   7.545  1.00  0.00    -0.393 OA
ATOM     34  H   UNL     1      -8.705  -1.378   8.517  1.00  0.00     0.210 HD
ENDBRANCH  27  33
TORSDOF 2
ENDMDL
MODEL 2
REMARK VINA RESULT:    -5.391      3.008      5.898
REMARK INTER + INTRA:          -4.840
REMARK INTER:                  -5.954
REMARK INTRA:                   1.114
REMARK UNBOUND:                 1.023
REMARK SMILES C[C@H]1[C@H](C)CC[C@]2(C(=O)[O-])CC[C@@]3(C)C(=CC[C@@H]4[C@]5(C)CC[C@@H](O)C(C)(C)[C@@H]5CC[C@]43C)[C@@H]12
REMARK SMILES IDX 7 1 6 2 11 3 33 4 5 5 12 6 15 7 2 8 3 9 13 10 16 11 1 12
REMARK SMILES IDX 4 13 14 14 31 15 17 16 18 17 30 18 32 19 19 20 29 21 28 22
REMARK SMILES IDX 21 23 20 24 25 25 22 26 23 27 26 28 27 29 8 30 9 31 10 32
REMARK SMILES IDX 24 33
REMARK H PARENT 24 34
REMARK Flexibility Score: inf
ROOT
ATOM      1  C   UNL     1      -7.496   4.748  13.373  1.00  0.00     0.017 C 
ATOM      2  C   UNL     1      -6.968   5.355  14.704  1.00  0.00     0.014 C 
ATOM      3  C   UNL     1      -7.090   5.719  12.206  1.00  0.00     0.014 C 
ATOM      4  C   UNL     1      -9.058   4.638  13.469  1.00  0.00     0.030 C 
ATOM      5  C   UNL     1      -7.372   4.523  15.928  1.00  0.00     0.004 C 
ATOM      6  C   UNL     1      -8.142   5.939  11.086  1.00  0.00     0.013 C 
ATOM      7  C   UNL     1      -9.756   4.300  12.124  1.00  0.00    -0.063 C 
ATOM      8  C   UNL     1      -9.583   3.902  14.764  1.00  0.00    -0.003 C 
ATOM      9  C   UNL     1      -8.901   4.408  16.070  1.00  0.00    -0.011 C 
ATOM     10  C   UNL     1      -9.053   4.709  10.779  1.00  0.00    -0.006 C 
ATOM     11  C   UNL     1     -11.119   4.137  12.175  1.00  0.00    -0.027 C 
ATOM     12  C   UNL     1      -9.553   2.364  14.689  1.00  0.00     0.008 C 
ATOM     13  C   UNL     1      -9.520   5.727  16.571  1.00  0.00     0.008 C 
ATOM     14  C   UNL     1      -8.121   3.559  10.266  1.00  0.00     0.017 C 
ATOM     15  C   UNL     1     -10.162   5.019   9.642  1.00  0.00    -0.020 C 
ATOM     16  C   UNL     1     -12.094   4.848  11.251  1.00  0.00     0.032 C 
ATOM     17  C   UNL     1     -11.331   5.808  10.319  1.00  0.00     0.006 C 
ATOM     18  C   UNL     1      -9.624   5.828   8.420  1.00  0.00     0.008 C 
ATOM     19  C   UNL     1     -10.678   3.630   9.076  1.00  0.00     0.012 C 
ATOM     20  C   UNL     1     -12.120   6.877   9.436  1.00  0.00    -0.025 C 
ATOM     21  C   UNL     1      -9.728   7.367   8.487  1.00  0.00     0.005 C 
ATOM     22  C   UNL     1     -11.071   7.991   9.039  1.00  0.00     0.003 C 
ATOM     23  C   UNL     1     -12.826   6.322   8.146  1.00  0.00     0.010 C 
ATOM     24  C   UNL     1     -13.223   7.496  10.344  1.00  0.00     0.012 C 
ATOM     25  C   UNL     1     -11.685   9.205   8.176  1.00  0.00    -0.006 C 
ATOM     26  C   UNL     1     -12.624   7.175   6.875  1.00  0.00     0.033 C 
ATOM     27  C   UNL     1     -12.756   8.678   7.128  1.00  0.00     0.120 C 
ATOM     28  C   UNL     1     -10.574   9.952   7.375  1.00  0.00     0.014 C 
ATOM     29  C   UNL     1     -12.288  10.302   9.143  1.00  0.00     0.014 C 
ENDROOT
BRANCH   1  30
ATOM     30  C   UNL     1      -6.794   3.404  13.174  1.00  0.00     0.048 C 
ATOM     31  O   UNL     1      -7.343   2.453  12.560  1.00  0.00    -0.550 OA
ATOM     32  O   UNL     1      -5.486   3.237  13.622  1.00  0.00    -0.550 OA
ENDBRANCH   1  30
BRANCH  27  33
ATOM     33  O   UNL     1     -14.087   8.935   7.507  1.00  0.00    -0.393 OA
ATOM     34  H   UNL     1     -14.486   9.525   6.814  1.00  0.00     0.210 HD
ENDBRANCH  27  33
TORSDOF 2
ENDMDL
MODEL 3
REMARK VINA RESULT:    -5.206      3.365      5.478
REMARK INTER + INTRA:          -4.639
REMARK INTER:                  -5.575
REMARK INTRA:                   0.937
REMARK UNBOUND:                 1.023
REMARK SMILES C[C@H]1[C@H](C)CC[C@]2(C(=O)[O-])CC[C@@]3(C)C(=CC[C@@H]4[C@]5(C)CC[C@@H](O)C(C)(C)[C@@H]5CC[C@]43C)[C@@H]12
REMARK SMILES IDX 7 1 6 2 11 3 33 4 5 5 12 6 15 7 2 8 3 9 13 10 16 11 1 12
REMARK SMILES IDX 4 13 14 14 31 15 17 16 18 17 30 18 32 19 19 20 29 21 28 22
REMARK SMILES IDX 21 23 20 24 25 25 22 26 23 27 26 28 27 29 8 30 9 31 10 32
REMARK SMILES IDX 24 33
REMARK H PARENT 24 34
REMARK Flexibility Score: inf
ROOT
ATOM      1  C   UNL     1      -8.067   5.411  14.627  1.00  0.00     0.017 C 
ATOM      2  C   UNL     1      -8.306   5.756  16.124  1.00  0.00     0.014 C 
ATOM      3  C   UNL     1      -7.965   6.762  13.831  1.00  0.00     0.014 C 
ATOM      4  C   UNL     1      -9.287   4.569  14.115  1.00  0.00     0.030 C 
ATOM      5  C   UNL     1      -8.495   4.505  16.991  1.00  0.00     0.004 C 
ATOM      6  C   UNL     1      -8.645   6.801  12.436  1.00  0.00     0.013 C 
ATOM      7  C   UNL     1      -9.324   4.374  12.575  1.00  0.00    -0.063 C 
ATOM      8  C   UNL     1      -9.642   3.320  15.013  1.00  0.00    -0.003 C 
ATOM      9  C   UNL     1      -9.698   3.660  16.533  1.00  0.00    -0.011 C 
ATOM     10  C   UNL     1      -8.637   5.448  11.656  1.00  0.00    -0.006 C 
ATOM     11  C   UNL     1     -10.345   3.594  12.089  1.00  0.00    -0.027 C 
ATOM     12  C   UNL     1      -8.771   2.075  14.761  1.00  0.00     0.008 C 
ATOM     13  C   UNL     1     -11.032   4.321  16.928  1.00  0.00     0.008 C 
ATOM     14  C   UNL     1      -7.139   5.077  11.388  1.00  0.00     0.017 C 
ATOM     15  C   UNL     1      -9.406   5.540  10.235  1.00  0.00    -0.020 C 
ATOM     16  C   UNL     1     -11.276   4.017  10.965  1.00  0.00     0.032 C 
ATOM     17  C   UNL     1     -10.942   5.453  10.517  1.00  0.00     0.006 C 
ATOM     18  C   UNL     1      -9.099   6.834   9.417  1.00  0.00     0.008 C 
ATOM     19  C   UNL     1      -8.930   4.316   9.345  1.00  0.00     0.012 C 
ATOM     20  C   UNL     1     -11.927   6.247   9.546  1.00  0.00    -0.025 C 
ATOM     21  C   UNL     1     -10.027   8.048   9.635  1.00  0.00     0.005 C 
ATOM     22  C   UNL     1     -11.582   7.781   9.717  1.00  0.00     0.003 C 
ATOM     23  C   UNL     1     -11.868   5.850   8.026  1.00  0.00     0.010 C 
ATOM     24  C   UNL     1     -13.377   5.978  10.045  1.00  0.00     0.012 C 
ATOM     25  C   UNL     1     -12.510   8.771   8.848  1.00  0.00    -0.006 C 
ATOM     26  C   UNL     1     -11.841   7.041   7.043  1.00  0.00     0.033 C 
ATOM     27  C   UNL     1     -12.820   8.156   7.417  1.00  0.00     0.120 C 
ATOM     28  C   UNL     1     -11.815  10.150   8.624  1.00  0.00     0.014 C 
ATOM     29  C   UNL     1     -13.830   9.113   9.649  1.00  0.00     0.014 C 
ENDROOT
BRANCH   1  30
ATOM     30  C   UNL     1      -6.728   4.676  14.537  1.00  0.00     0.048 C 
ATOM     31  O   UNL     1      -6.660   3.458  14.233  1.00  0.00    -0.550 OA
ATOM     32  O   UNL     1      -5.542   5.379  14.731  1.00  0.00    -0.550 OA
ENDBRANCH   1  30
BRANCH  27  33
ATOM     33  O   UNL     1     -14.125   7.640   7.298  1.00  0.00    -0.393 OA
ATOM     34  H   UNL     1     -14.576   7.765   8.175  1.00  0.00     0.210 HD
ENDBRANCH  27  33
TORSDOF 2
ENDMDL
MODEL 4
REMARK VINA RESULT:    -4.881      2.060      2.718
REMARK INTER + INTRA:          -4.286
REMARK INTER:                  -5.265
REMARK INTRA:                   0.979
REMARK UNBOUND:                 1.023
REMARK SMILES C[C@H]1[C@H](C)CC[C@]2(C(=O)[O-])CC[C@@]3(C)C(=CC[C@@H]4[C@]5(C)CC[C@@H](O)C(C)(C)[C@@H]5CC[C@]43C)[C@@H]12
REMARK SMILES IDX 7 1 6 2 11 3 33 4 5 5 12 6 15 7 2 8 3 9 13 10 16 11 1 12
REMARK SMILES IDX 4 13 14 14 31 15 17 16 18 17 30 18 32 19 19 20 29 21 28 22
REMARK SMILES IDX 21 23 20 24 25 25 22 26 23 27 26 28 27 29 8 30 9 31 10 32
REMARK SMILES IDX 24 33
REMARK H PARENT 24 34
REMARK Flexibility Score: inf
ROOT
ATOM      1  C   UNL     1     -12.093   7.414  10.057  1.00  0.00     0.017 C 
ATOM      2  C   UNL     1     -13.315   7.764  10.954  1.00  0.00     0.014 C 
ATOM      3  C   UNL     1     -12.593   6.460   8.912  1.00  0.00     0.014 C 
ATOM      4  C   UNL     1     -11.025   6.684  10.944  1.00  0.00     0.030 C 
ATOM      5  C   UNL     1     -12.930   8.637  12.154  1.00  0.00     0.004 C 
ATOM      6  C   UNL     1     -11.650   5.291   8.520  1.00  0.00     0.013 C 
ATOM      7  C   UNL     1      -9.865   6.036  10.142  1.00  0.00    -0.063 C 
ATOM      8  C   UNL     1     -10.649   7.448  12.275  1.00  0.00    -0.003 C 
ATOM      9  C   UNL     1     -11.896   7.947  13.064  1.00  0.00    -0.011 C 
ATOM     10  C   UNL     1     -10.125   5.593   8.656  1.00  0.00    -0.006 C 
ATOM     11  C   UNL     1      -8.878   5.436  10.883  1.00  0.00    -0.027 C 
ATOM     12  C   UNL     1      -9.621   8.581  12.099  1.00  0.00     0.008 C 
ATOM     13  C   UNL     1     -12.542   6.822  13.895  1.00  0.00     0.008 C 
ATOM     14  C   UNL     1      -9.793   6.758   7.661  1.00  0.00     0.017 C 
ATOM     15  C   UNL     1      -9.198   4.320   8.284  1.00  0.00    -0.020 C 
ATOM     16  C   UNL     1      -8.381   4.019  10.648  1.00  0.00     0.032 C 
ATOM     17  C   UNL     1      -9.192   3.358   9.517  1.00  0.00     0.006 C 
ATOM     18  C   UNL     1      -9.658   3.537   7.013  1.00  0.00     0.008 C 
ATOM     19  C   UNL     1      -7.735   4.855   7.983  1.00  0.00     0.012 C 
ATOM     20  C   UNL     1      -9.070   1.792   9.243  1.00  0.00    -0.025 C 
ATOM     21  C   UNL     1     -10.635   2.360   7.221  1.00  0.00     0.005 C 
ATOM     22  C   UNL     1     -10.360   1.378   8.428  1.00  0.00     0.003 C 
ATOM     23  C   UNL     1      -7.780   1.322   8.477  1.00  0.00     0.010 C 
ATOM     24  C   UNL     1      -9.076   1.082  10.629  1.00  0.00     0.012 C 
ATOM     25  C   UNL     1     -10.457  -0.193   8.089  1.00  0.00    -0.006 C 
ATOM     26  C   UNL     1      -8.030   0.305   7.343  1.00  0.00     0.033 C 
ATOM     27  C   UNL     1      -9.031  -0.788   7.721  1.00  0.00     0.120 C 
ATOM     28  C   UNL     1     -11.401  -0.456   6.875  1.00  0.00     0.014 C 
ATOM     29  C   UNL     1     -11.131  -0.964   9.294  1.00  0.00     0.014 C 
ENDROOT
BRANCH   1  30
ATOM     30  C   UNL     1     -11.593   8.720   9.437  1.00  0.00     0.048 C 
ATOM     31  O   UNL     1     -10.366   8.956   9.289  1.00  0.00    -0.550 OA
ATOM     32  O   UNL     1     -12.510   9.653   8.962  1.00  0.00    -0.550 OA
ENDBRANCH   1  30
BRANCH  27  33
ATOM     33  O   UNL     1      -8.459  -1.557   8.752  1.00  0.00    -0.393 OA
ATOM     34  H   UNL     1      -8.209  -0.933   9.485  1.00  0.00     0.210 HD
ENDBRANCH  27  33
TORSDOF 2
ENDMDL
MODEL 5
REMARK VINA RESULT:    -4.709      1.780      7.657
REMARK INTER + INTRA:          -4.098
REMARK INTER:                  -5.017
REMARK INTRA:                   0.918
REMARK UNBOUND:                 1.023
REMARK SMILES C[C@H]1[C@H](C)CC[C@]2(C(=O)[O-])CC[C@@]3(C)C(=CC[C@@H]4[C@]5(C)CC[C@@H](O)C(C)(C)[C@@H]5CC[C@]43C)[C@@H]12
REMARK SMILES IDX 7 1 6 2 11 3 33 4 5 5 12 6 15 7 2 8 3 9 13 10 16 11 1 12
REMARK SMILES IDX 4 13 14 14 31 15 17 16 18 17 30 18 32 19 19 20 29 21 28 22
REMARK SMILES IDX 21 23 20 24 25 25 22 26 23 27 26 28 27 29 8 30 9 31 10 32
REMARK SMILES IDX 24 33
REMARK H PARENT 24 34
REMARK Flexibility Score: inf
ROOT
ATOM      1  C   UNL     1      -9.524   1.159  10.145  1.00  0.00     0.017 C 
ATOM      2  C   UNL     1     -10.381  -0.120   9.926  1.00  0.00     0.014 C 
ATOM      3  C   UNL     1      -9.665   1.581  11.652  1.00  0.00     0.014 C 
ATOM      4  C   UNL     1     -10.078   2.289   9.210  1.00  0.00     0.030 C 
ATOM      5  C   UNL     1     -10.378  -0.585   8.464  1.00  0.00     0.004 C 
ATOM      6  C   UNL     1      -9.776   3.102  11.941  1.00  0.00     0.013 C 
ATOM      7  C   UNL     1      -9.501   3.700   9.504  1.00  0.00    -0.063 C 
ATOM      8  C   UNL     1     -10.230   1.868   7.695  1.00  0.00    -0.003 C 
ATOM      9  C   UNL     1     -10.935   0.491   7.514  1.00  0.00    -0.011 C 
ATOM     10  C   UNL     1      -8.992   4.025  10.955  1.00  0.00    -0.006 C 
ATOM     11  C   UNL     1      -9.917   4.709   8.671  1.00  0.00    -0.027 C 
ATOM     12  C   UNL     1      -8.928   1.931   6.875  1.00  0.00     0.008 C 
ATOM     13  C   UNL     1     -12.467   0.606   7.632  1.00  0.00     0.008 C 
ATOM     14  C   UNL     1      -7.472   3.674  11.104  1.00  0.00     0.017 C 
ATOM     15  C   UNL     1      -9.192   5.598  11.276  1.00  0.00    -0.020 C 
ATOM     16  C   UNL     1     -10.483   6.033   9.157  1.00  0.00     0.032 C 
ATOM     17  C   UNL     1     -10.577   6.031  10.695  1.00  0.00     0.006 C 
ATOM     18  C   UNL     1      -9.126   5.960  12.795  1.00  0.00     0.008 C 
ATOM     19  C   UNL     1      -8.014   6.392  10.569  1.00  0.00     0.012 C 
ATOM     20  C   UNL     1     -11.382   7.179  11.457  1.00  0.00    -0.025 C 
ATOM     21  C   UNL     1     -10.454   5.959  13.582  1.00  0.00     0.005 C 
ATOM     22  C   UNL     1     -11.719   6.609  12.894  1.00  0.00     0.003 C 
ATOM     23  C   UNL     1     -10.653   8.565  11.588  1.00  0.00     0.010 C 
ATOM     24  C   UNL     1     -12.702   7.416  10.665  1.00  0.00     0.012 C 
ATOM     25  C   UNL     1     -12.583   7.607  13.817  1.00  0.00    -0.006 C 
ATOM     26  C   UNL     1     -10.732   9.213  12.987  1.00  0.00     0.033 C 
ATOM     27  C   UNL     1     -12.121   9.114  13.621  1.00  0.00     0.120 C 
ATOM     28  C   UNL     1     -12.424   7.261  15.331  1.00  0.00     0.014 C 
ATOM     29  C   UNL     1     -14.125   7.414  13.523  1.00  0.00     0.014 C 
ENDROOT
BRANCH   1  30
ATOM     30  C   UNL     1      -8.067   0.785   9.865  1.00  0.00     0.048 C 
ATOM     31  O   UNL     1      -7.428   1.285   8.904  1.00  0.00    -0.550 OA
ATOM     32  O   UNL     1      -7.400  -0.082  10.726  1.00  0.00    -0.550 OA
ENDBRANCH   1  30
BRANCH  27  33
ATOM     33  O   UNL     1     -13.008   9.876  12.838  1.00  0.00    -0.393 OA
ATOM     34  H   UNL     1     -13.842   9.346  12.730  1.00  0.00     0.210 HD
ENDBRANCH  27  33
TORSDOF 2
ENDMDL
MODEL 6
REMARK VINA RESULT:    -4.138      3.296      6.326
REMARK INTER + INTRA:          -3.477
REMARK INTER:                  -4.577
REMARK INTRA:                   1.100
REMARK UNBOUND:                 1.023
REMARK SMILES C[C@H]1[C@H](C)CC[C@]2(C(=O)[O-])CC[C@@]3(C)C(=CC[C@@H]4[C@]5(C)CC[C@@H](O)C(C)(C)[C@@H]5CC[C@]43C)[C@@H]12
REMARK SMILES IDX 7 1 6 2 11 3 33 4 5 5 12 6 15 7 2 8 3 9 13 10 16 11 1 12
REMARK SMILES IDX 4 13 14 14 31 15 17 16 18 17 30 18 32 19 19 20 29 21 28 22
REMARK SMILES IDX 21 23 20 24 25 25 22 26 23 27 26 28 27 29 8 30 9 31 10 32
REMARK SMILES IDX 24 33
REMARK H PARENT 24 34
REMARK Flexibility Score: inf
ROOT
ATOM      1  C   UNL     1     -12.871   6.790   9.011  1.00  0.00     0.017 C 
ATOM      2  C   UNL     1     -14.124   7.669   9.288  1.00  0.00     0.014 C 
ATOM      3  C   UNL     1     -12.994   5.488   9.883  1.00  0.00     0.014 C 
ATOM      4  C   UNL     1     -11.597   7.604   9.427  1.00  0.00     0.030 C 
ATOM      5  C   UNL     1     -14.077   9.008   8.542  1.00  0.00     0.004 C 
ATOM      6  C   UNL     1     -11.689   4.965  10.540  1.00  0.00     0.013 C 
ATOM      7  C   UNL     1     -10.290   6.767   9.461  1.00  0.00    -0.063 C 
ATOM      8  C   UNL     1     -11.515   9.053   8.805  1.00  0.00    -0.003 C 
ATOM      9  C   UNL     1     -12.848   9.848   8.939  1.00  0.00    -0.011 C 
ATOM     10  C   UNL     1     -10.384   5.220   9.721  1.00  0.00    -0.006 C 
ATOM     11  C   UNL     1      -9.140   7.454   9.765  1.00  0.00    -0.027 C 
ATOM     12  C   UNL     1     -10.986   9.106   7.360  1.00  0.00     0.008 C 
ATOM     13  C   UNL     1     -13.017  10.463  10.341  1.00  0.00     0.008 C 
ATOM     14  C   UNL     1     -10.524   4.436   8.372  1.00  0.00     0.017 C 
ATOM     15  C   UNL     1      -9.054   4.701  10.483  1.00  0.00    -0.020 C 
ATOM     16  C   UNL     1      -8.153   7.026  10.839  1.00  0.00     0.032 C 
ATOM     17  C   UNL     1      -8.674   5.768  11.560  1.00  0.00     0.006 C 
ATOM     18  C   UNL     1      -9.205   3.303  11.163  1.00  0.00     0.008 C 
ATOM     19  C   UNL     1      -7.901   4.558   9.403  1.00  0.00     0.012 C 
ATOM     20  C   UNL     1      -7.980   5.260  12.904  1.00  0.00    -0.025 C 
ATOM     21  C   UNL     1      -9.670   3.277  12.635  1.00  0.00     0.005 C 
ATOM     22  C   UNL     1      -9.034   4.330  13.627  1.00  0.00     0.003 C 
ATOM     23  C   UNL     1      -6.618   4.495  12.731  1.00  0.00     0.010 C 
ATOM     24  C   UNL     1      -7.703   6.518  13.780  1.00  0.00     0.012 C 
ATOM     25  C   UNL     1      -8.541   3.746  15.045  1.00  0.00    -0.006 C 
ATOM     26  C   UNL     1      -6.485   3.205  13.570  1.00  0.00     0.033 C 
ATOM     27  C   UNL     1      -7.001   3.360  15.002  1.00  0.00     0.120 C 
ATOM     28  C   UNL     1      -9.335   2.462  15.439  1.00  0.00     0.014 C 
ATOM     29  C   UNL     1      -8.863   4.783  16.196  1.00  0.00     0.014 C 
ENDROOT
BRANCH   1  30
ATOM     30  C   UNL     1     -12.902   6.405   7.531  1.00  0.00     0.048 C 
ATOM     31  O   UNL     1     -11.848   6.201   6.877  1.00  0.00    -0.550 OA
ATOM     32  O   UNL     1     -14.125   6.211   6.895  1.00  0.00    -0.550 OA
ENDBRANCH   1  30
BRANCH  27  33
ATOM     33  O   UNL     1      -6.171   4.286  15.661  1.00  0.00    -0.393 OA
ATOM     34  H   UNL     1      -5.820   3.843  16.479  1.00  0.00     0.210 HD
ENDBRANCH  27  33
TORSDOF 2
ENDMDL
MODEL 7
REMARK VINA RESULT:    -3.914      3.035      6.940
REMARK INTER + INTRA:          -3.233
REMARK INTER:                  -4.351
REMARK INTRA:                   1.117
REMARK UNBOUND:                 1.023
REMARK SMILES C[C@H]1[C@H](C)CC[C@]2(C(=O)[O-])CC[C@@]3(C)C(=CC[C@@H]4[C@]5(C)CC[C@@H](O)C(C)(C)[C@@H]5CC[C@]43C)[C@@H]12
REMARK SMILES IDX 7 1 6 2 11 3 33 4 5 5 12 6 15 7 2 8 3 9 13 10 16 11 1 12
REMARK SMILES IDX 4 13 14 14 31 15 17 16 18 17 30 18 32 19 19 20 29 21 28 22
REMARK SMILES IDX 21 23 20 24 25 25 22 26 23 27 26 28 27 29 8 30 9 31 10 32
REMARK SMILES IDX 24 33
REMARK H PARENT 24 34
REMARK Flexibility Score: inf
ROOT
ATOM      1  C   UNL     1      -9.304   2.315  11.368  1.00  0.00     0.017 C 
ATOM      2  C   UNL     1     -10.148   1.039  11.646  1.00  0.00     0.014 C 
ATOM      3  C   UNL     1      -9.964   3.509  12.149  1.00  0.00     0.014 C 
ATOM      4  C   UNL     1      -9.330   2.595   9.825  1.00  0.00     0.030 C 
ATOM      5  C   UNL     1      -9.637  -0.182  10.871  1.00  0.00     0.004 C 
ATOM      6  C   UNL     1     -10.008   4.878  11.419  1.00  0.00     0.013 C 
ATOM      7  C   UNL     1      -8.756   3.980   9.419  1.00  0.00    -0.063 C 
ATOM      8  C   UNL     1      -8.936   1.356   8.929  1.00  0.00    -0.003 C 
ATOM      9  C   UNL     1      -9.666   0.045   9.348  1.00  0.00    -0.011 C 
ATOM     10  C   UNL     1      -8.809   5.158  10.459  1.00  0.00    -0.006 C 
ATOM     11  C   UNL     1      -8.707   4.243   8.073  1.00  0.00    -0.027 C 
ATOM     12  C   UNL     1      -7.421   1.119   8.786  1.00  0.00     0.008 C 
ATOM     13  C   UNL     1     -11.103  -0.017   8.798  1.00  0.00     0.008 C 
ATOM     14  C   UNL     1      -7.511   5.186  11.335  1.00  0.00     0.017 C 
ATOM     15  C   UNL     1      -8.941   6.575   9.688  1.00  0.00    -0.020 C 
ATOM     16  C   UNL     1      -9.266   5.503   7.432  1.00  0.00     0.032 C 
ATOM     17  C   UNL     1      -9.941   6.382   8.502  1.00  0.00     0.006 C 
ATOM     18  C   UNL     1      -9.422   7.757  10.590  1.00  0.00     0.008 C 
ATOM     19  C   UNL     1      -7.502   6.971   9.150  1.00  0.00     0.012 C 
ATOM     20  C   UNL     1     -10.844   7.626   8.075  1.00  0.00    -0.025 C 
ATOM     21  C   UNL     1     -10.941   8.020  10.663  1.00  0.00     0.005 C 
ATOM     22  C   UNL     1     -11.766   7.956   9.317  1.00  0.00     0.003 C 
ATOM     23  C   UNL     1     -10.072   8.918   7.623  1.00  0.00     0.010 C 
ATOM     24  C   UNL     1     -11.725   7.162   6.878  1.00  0.00     0.012 C 
ATOM     25  C   UNL     1     -12.802   9.165   9.072  1.00  0.00    -0.006 C 
ATOM     26  C   UNL     1     -10.608  10.238   8.216  1.00  0.00     0.033 C 
ATOM     27  C   UNL     1     -12.136  10.325   8.215  1.00  0.00     0.120 C 
ATOM     28  C   UNL     1     -13.274   9.791  10.421  1.00  0.00     0.014 C 
ATOM     29  C   UNL     1     -14.125   8.614   8.403  1.00  0.00     0.014 C 
ENDROOT
BRANCH   1  30
ATOM     30  C   UNL     1      -7.902   2.066  11.927  1.00  0.00     0.048 C 
ATOM     31  O   UNL     1      -6.976   1.604  11.212  1.00  0.00    -0.550 OA
ATOM     32  O   UNL     1      -7.613   2.414  13.243  1.00  0.00    -0.550 OA
ENDBRANCH   1  30
BRANCH  27  33
ATOM     33  O   UNL     1     -12.565  10.350   6.875  1.00  0.00    -0.393 OA
ATOM     34  H   UNL     1     -13.557  10.410   6.880  1.00  0.00     0.210 HD
ENDBRANCH  27  33
TORSDOF 2
ENDMDL
