MODEL 1
REMARK VINA RESULT:    -8.359      0.000      0.000
REMARK INTER + INTRA:         -12.228
REMARK INTER:                 -11.535
REMARK INTRA:                  -0.693
REMARK UNBOUND:                -0.693
REMARK SMILES CC[C@H](CC[C@@H](C)[C@H]1CC[C@@H]2C3=CC[C@H]4C[C@H](O)CC[C@@]4(C)[C@@H]3CC[C@@]21C)C(C)C
REMARK SMILES IDX 5 1 4 2 3 3 2 4 1 5 28 6 29 7 30 8 6 9 7 10 8 11 9 12 26 13
REMARK SMILES IDX 10 14 11 15 25 16 27 17 12 18 24 19 23 20 13 21 21 22 14 23
REMARK SMILES IDX 15 24 20 25 22 26 16 27 19 28 17 29 18 30
REMARK H PARENT 18 31
REMARK Flexibility Score: inf
ROOT
ATOM      1  C   UNL     1     134.331 133.962 140.775  1.00  0.00     0.004 C 
ENDROOT
BRANCH   1   2
ATOM      2  C   UNL     1     134.653 133.875 142.281  1.00  0.00     0.004 C 
BRANCH   2   3
ATOM      3  C   UNL     1     133.400 134.159 143.169  1.00  0.00    -0.009 C 
BRANCH   3   4
ATOM      4  C   UNL     1     133.096 132.977 144.128  1.00  0.00     0.000 C 
ATOM      5  C   UNL     1     134.213 131.934 144.160  1.00  0.00     0.004 C 
ENDBRANCH   3   4
BRANCH   3   6
ATOM      6  C   UNL     1     133.495 135.504 143.960  1.00  0.00    -0.014 C 
ATOM      7  C   UNL     1     134.759 135.566 144.835  1.00  0.00     0.007 C 
ATOM      8  C   UNL     1     132.244 135.823 144.799  1.00  0.00     0.007 C 
ENDBRANCH   3   6
ENDBRANCH   2   3
ENDBRANCH   1   2
BRANCH   1   9
ATOM      9  C   UNL     1     133.272 132.907 140.313  1.00  0.00    -0.011 C 
ATOM     10  C   UNL     1     132.393 133.558 139.225  1.00  0.00     0.008 C 
BRANCH   9  11
ATOM     11  C   UNL     1     133.940 131.578 139.790  1.00  0.00    -0.002 C 
ATOM     12  C   UNL     1     134.671 130.805 140.890  1.00  0.00     0.005 C 
ATOM     13  C   UNL     1     133.028 130.489 139.099  1.00  0.00    -0.023 C 
ATOM     14  C   UNL     1     134.932 129.441 140.299  1.00  0.00     0.009 C 
ATOM     15  C   UNL     1     133.668 129.112 139.516  1.00  0.00     0.021 C 
ATOM     16  C   UNL     1     132.988 130.687 137.552  1.00  0.00     0.008 C 
ATOM     17  C   UNL     1     131.572 130.511 139.640  1.00  0.00     0.012 C 
ATOM     18  C   UNL     1     133.982 128.126 138.398  1.00  0.00    -0.067 C 
ATOM     19  C   UNL     1     134.216 130.107 136.850  1.00  0.00     0.009 C 
ATOM     20  C   UNL     1     134.222 128.574 136.965  1.00  0.00     0.021 C 
ATOM     21  C   UNL     1     134.051 126.808 138.675  1.00  0.00    -0.027 C 
ATOM     22  C   UNL     1     135.455 127.840 136.255  1.00  0.00    -0.023 C 
ATOM     23  C   UNL     1     134.560 125.854 137.633  1.00  0.00     0.031 C 
ATOM     24  C   UNL     1     135.810 126.488 136.999  1.00  0.00     0.002 C 
ATOM     25  C   UNL     1     135.041 127.570 134.770  1.00  0.00     0.010 C 
ATOM     26  C   UNL     1     136.728 128.730 136.271  1.00  0.00     0.012 C 
ATOM     27  C   UNL     1     136.624 125.475 136.157  1.00  0.00     0.036 C 
ATOM     28  C   UNL     1     135.979 126.624 134.019  1.00  0.00     0.032 C 
ATOM     29  C   UNL     1     136.061 125.279 134.746  1.00  0.00     0.114 C 
BRANCH  29  30
ATOM     30  O   UNL     1     136.851 124.370 134.020  1.00  0.00    -0.393 OA
ATOM     31  H   UNL     1     136.952 123.549 134.570  1.00  0.00     0.210 HD
ENDBRANCH  29  30
ENDBRANCH   9  11
ENDBRANCH   1   9
TORSDOF 7
ENDMDL
MODEL 2
REMARK VINA RESULT:    -8.323      3.456      7.131
REMARK INTER + INTRA:         -12.178
REMARK INTER:                 -11.717
REMARK INTRA:                  -0.461
REMARK UNBOUND:                -0.693
REMARK SMILES CC[C@H](CC[C@@H](C)[C@H]1CC[C@@H]2C3=CC[C@H]4C[C@H](O)CC[C@@]4(C)[C@@H]3CC[C@@]21C)C(C)C
REMARK SMILES IDX 5 1 4 2 3 3 2 4 1 5 28 6 29 7 30 8 6 9 7 10 8 11 9 12 26 13
REMARK SMILES IDX 10 14 11 15 25 16 27 17 12 18 24 19 23 20 13 21 21 22 14 23
REMARK SMILES IDX 15 24 20 25 22 26 16 27 19 28 17 29 18 30
REMARK H PARENT 18 31
REMARK Flexibility Score: inf
ROOT
ATOM      1  C   UNL     1     133.217 131.007 135.507  1.00  0.00     0.004 C 
ENDROOT
BRANCH   1   2
ATOM      2  C   UNL     1     133.768 129.566 135.504  1.00  0.00     0.004 C 
BRANCH   2   3
ATOM      3  C   UNL     1     135.232 129.496 134.966  1.00  0.00    -0.009 C 
BRANCH   3   4
ATOM      4  C   UNL     1     136.210 130.312 135.852  1.00  0.00     0.000 C 
ATOM      5  C   UNL     1     136.905 131.440 135.088  1.00  0.00     0.004 C 
ENDBRANCH   3   4
BRANCH   3   6
ATOM      6  C   UNL     1     135.751 128.034 134.771  1.00  0.00    -0.014 C 
ATOM      7  C   UNL     1     135.349 127.461 133.401  1.00  0.00     0.007 C 
ATOM      8  C   UNL     1     135.338 127.071 135.899  1.00  0.00     0.007 C 
ENDBRANCH   3   6
ENDBRANCH   2   3
ENDBRANCH   1   2
BRANCH   1   9
ATOM      9  C   UNL     1     132.606 131.426 136.884  1.00  0.00    -0.011 C 
ATOM     10  C   UNL     1     131.109 131.053 136.876  1.00  0.00     0.008 C 
BRANCH   9  11
ATOM     11  C   UNL     1     133.355 130.757 138.099  1.00  0.00    -0.002 C 
ATOM     12  C   UNL     1     134.385 131.685 138.749  1.00  0.00     0.005 C 
ATOM     13  C   UNL     1     132.504 130.220 139.316  1.00  0.00    -0.023 C 
ATOM     14  C   UNL     1     134.733 131.023 140.060  1.00  0.00     0.009 C 
ATOM     15  C   UNL     1     133.409 130.479 140.580  1.00  0.00     0.021 C 
ATOM     16  C   UNL     1     132.148 128.712 139.133  1.00  0.00     0.008 C 
ATOM     17  C   UNL     1     131.187 131.020 139.512  1.00  0.00     0.012 C 
ATOM     18  C   UNL     1     133.652 129.299 141.512  1.00  0.00    -0.067 C 
ATOM     19  C   UNL     1     133.297 127.782 139.524  1.00  0.00     0.009 C 
ATOM     20  C   UNL     1     133.552 127.857 141.039  1.00  0.00     0.021 C 
ATOM     21  C   UNL     1     133.967 129.526 142.803  1.00  0.00    -0.027 C 
ATOM     22  C   UNL     1     134.727 126.915 141.581  1.00  0.00    -0.023 C 
ATOM     23  C   UNL     1     134.410 128.386 143.674  1.00  0.00     0.031 C 
ATOM     24  C   UNL     1     135.412 127.548 142.860  1.00  0.00     0.002 C 
ATOM     25  C   UNL     1     134.090 125.525 141.917  1.00  0.00     0.010 C 
ATOM     26  C   UNL     1     135.834 126.717 140.509  1.00  0.00     0.012 C 
ATOM     27  C   UNL     1     136.197 126.547 143.743  1.00  0.00     0.036 C 
ATOM     28  C   UNL     1     135.002 124.592 142.714  1.00  0.00     0.032 C 
ATOM     29  C   UNL     1     135.418 125.259 144.028  1.00  0.00     0.114 C 
BRANCH  29  30
ATOM     30  O   UNL     1     136.186 124.378 144.810  1.00  0.00    -0.393 OA
ATOM     31  H   UNL     1     135.825 123.463 144.679  1.00  0.00     0.210 HD
ENDBRANCH  29  30
ENDBRANCH   9  11
ENDBRANCH   1   9
TORSDOF 7
ENDMDL
MODEL 3
REMARK VINA RESULT:    -8.026      0.488      1.537
REMARK INTER + INTRA:         -11.769
REMARK INTER:                 -10.588
REMARK INTRA:                  -1.180
REMARK UNBOUND:                -0.693
REMARK SMILES CC[C@H](CC[C@@H](C)[C@H]1CC[C@@H]2C3=CC[C@H]4C[C@H](O)CC[C@@]4(C)[C@@H]3CC[C@@]21C)C(C)C
REMARK SMILES IDX 5 1 4 2 3 3 2 4 1 5 28 6 29 7 30 8 6 9 7 10 8 11 9 12 26 13
REMARK SMILES IDX 10 14 11 15 25 16 27 17 12 18 24 19 23 20 13 21 21 22 14 23
REMARK SMILES IDX 15 24 20 25 22 26 16 27 19 28 17 29 18 30
REMARK H PARENT 18 31
REMARK Flexibility Score: inf
ROOT
ATOM      1  C   UNL     1     134.110 133.681 140.934  1.00  0.00     0.004 C 
ENDROOT
BRANCH   1   2
ATOM      2  C   UNL     1     133.545 134.192 142.275  1.00  0.00     0.004 C 
BRANCH   2   3
ATOM      3  C   UNL     1     134.437 133.775 143.487  1.00  0.00    -0.009 C 
BRANCH   3   4
ATOM      4  C   UNL     1     134.577 134.926 144.520  1.00  0.00     0.000 C 
ATOM      5  C   UNL     1     133.451 135.955 144.419  1.00  0.00     0.004 C 
ENDBRANCH   3   4
BRANCH   3   6
ATOM      6  C   UNL     1     133.958 132.461 144.185  1.00  0.00    -0.014 C 
ATOM      7  C   UNL     1     134.993 131.331 144.052  1.00  0.00     0.007 C 
ATOM      8  C   UNL     1     132.572 131.978 143.720  1.00  0.00     0.007 C 
ENDBRANCH   3   6
ENDBRANCH   2   3
ENDBRANCH   1   2
BRANCH   1   9
ATOM      9  C   UNL     1     133.122 132.736 140.174  1.00  0.00    -0.011 C 
ATOM     10  C   UNL     1     132.505 133.531 139.005  1.00  0.00     0.008 C 
BRANCH   9  11
ATOM     11  C   UNL     1     133.826 131.421 139.663  1.00  0.00    -0.002 C 
ATOM     12  C   UNL     1     134.582 130.681 140.769  1.00  0.00     0.005 C 
ATOM     13  C   UNL     1     132.943 130.299 138.988  1.00  0.00    -0.023 C 
ATOM     14  C   UNL     1     134.880 129.318 140.191  1.00  0.00     0.009 C 
ATOM     15  C   UNL     1     133.624 128.945 139.417  1.00  0.00     0.021 C 
ATOM     16  C   UNL     1     132.891 130.478 137.439  1.00  0.00     0.008 C 
ATOM     17  C   UNL     1     131.489 130.285 139.533  1.00  0.00     0.012 C 
ATOM     18  C   UNL     1     133.961 127.956 138.308  1.00  0.00    -0.067 C 
ATOM     19  C   UNL     1     134.133 129.926 136.738  1.00  0.00     0.009 C 
ATOM     20  C   UNL     1     134.183 128.394 136.870  1.00  0.00     0.021 C 
ATOM     21  C   UNL     1     134.069 126.644 138.600  1.00  0.00    -0.027 C 
ATOM     22  C   UNL     1     135.434 127.689 136.163  1.00  0.00    -0.023 C 
ATOM     23  C   UNL     1     134.601 125.693 137.566  1.00  0.00     0.031 C 
ATOM     24  C   UNL     1     135.830 126.356 136.920  1.00  0.00     0.002 C 
ATOM     25  C   UNL     1     135.023 127.390 134.683  1.00  0.00     0.010 C 
ATOM     26  C   UNL     1     136.681 128.615 136.165  1.00  0.00     0.012 C 
ATOM     27  C   UNL     1     136.670 125.357 136.087  1.00  0.00     0.036 C 
ATOM     28  C   UNL     1     135.985 126.463 133.938  1.00  0.00     0.032 C 
ATOM     29  C   UNL     1     136.108 125.129 134.680  1.00  0.00     0.114 C 
BRANCH  29  30
ATOM     30  O   UNL     1     136.921 124.235 133.961  1.00  0.00    -0.393 OA
ATOM     31  H   UNL     1     137.842 124.607 133.946  1.00  0.00     0.210 HD
ENDBRANCH  29  30
ENDBRANCH   9  11
ENDBRANCH   1   9
TORSDOF 7
ENDMDL
MODEL 4
REMARK VINA RESULT:    -7.895      3.145      9.034
REMARK INTER + INTRA:         -11.587
REMARK INTER:                 -10.900
REMARK INTRA:                  -0.688
REMARK UNBOUND:                -0.693
REMARK SMILES CC[C@H](CC[C@@H](C)[C@H]1CC[C@@H]2C3=CC[C@H]4C[C@H](O)CC[C@@]4(C)[C@@H]3CC[C@@]21C)C(C)C
REMARK SMILES IDX 5 1 4 2 3 3 2 4 1 5 28 6 29 7 30 8 6 9 7 10 8 11 9 12 26 13
REMARK SMILES IDX 10 14 11 15 25 16 27 17 12 18 24 19 23 20 13 21 21 22 14 23
REMARK SMILES IDX 15 24 20 25 22 26 16 27 19 28 17 29 18 30
REMARK H PARENT 18 31
REMARK Flexibility Score: inf
ROOT
ATOM      1  C   UNL     1     134.291 126.380 136.798  1.00  0.00     0.004 C 
ENDROOT
BRANCH   1   2
ATOM      2  C   UNL     1     135.829 126.257 136.808  1.00  0.00     0.004 C 
BRANCH   2   3
ATOM      3  C   UNL     1     136.469 126.763 135.476  1.00  0.00    -0.009 C 
BRANCH   3   4
ATOM      4  C   UNL     1     136.899 125.585 134.562  1.00  0.00     0.000 C 
ATOM      5  C   UNL     1     136.943 124.246 135.299  1.00  0.00     0.004 C 
ENDBRANCH   3   4
BRANCH   3   6
ATOM      6  C   UNL     1     135.560 127.767 134.695  1.00  0.00    -0.014 C 
ATOM      7  C   UNL     1     135.358 127.338 133.232  1.00  0.00     0.007 C 
ATOM      8  C   UNL     1     136.040 129.228 134.766  1.00  0.00     0.007 C 
ENDBRANCH   3   6
ENDBRANCH   2   3
ENDBRANCH   1   2
BRANCH   1   9
ATOM      9  C   UNL     1     133.684 126.580 138.226  1.00  0.00    -0.011 C 
ATOM     10  C   UNL     1     134.258 125.484 139.147  1.00  0.00     0.008 C 
BRANCH   9  11
ATOM     11  C   UNL     1     133.971 128.019 138.801  1.00  0.00    -0.002 C 
ATOM     12  C   UNL     1     134.835 128.873 137.870  1.00  0.00     0.005 C 
ATOM     13  C   UNL     1     132.749 128.956 139.153  1.00  0.00    -0.023 C 
ATOM     14  C   UNL     1     134.713 130.279 138.406  1.00  0.00     0.009 C 
ATOM     15  C   UNL     1     133.251 130.410 138.813  1.00  0.00     0.021 C 
ATOM     16  C   UNL     1     132.333 128.801 140.649  1.00  0.00     0.008 C 
ATOM     17  C   UNL     1     131.510 128.668 138.262  1.00  0.00     0.012 C 
ATOM     18  C   UNL     1     133.098 131.468 139.897  1.00  0.00    -0.067 C 
ATOM     19  C   UNL     1     133.224 129.605 141.597  1.00  0.00     0.009 C 
ATOM     20  C   UNL     1     133.018 131.113 141.373  1.00  0.00     0.021 C 
ATOM     21  C   UNL     1     133.029 132.770 139.550  1.00  0.00    -0.027 C 
ATOM     22  C   UNL     1     133.888 132.068 142.318  1.00  0.00    -0.023 C 
ATOM     23  C   UNL     1     133.087 133.828 140.613  1.00  0.00     0.031 C 
ATOM     24  C   UNL     1     134.208 133.438 141.591  1.00  0.00     0.002 C 
ATOM     25  C   UNL     1     133.058 132.309 143.624  1.00  0.00     0.010 C 
ATOM     26  C   UNL     1     135.244 131.410 142.694  1.00  0.00     0.012 C 
ATOM     27  C   UNL     1     134.601 134.601 142.535  1.00  0.00     0.036 C 
ATOM     28  C   UNL     1     133.602 133.424 144.517  1.00  0.00     0.032 C 
ATOM     29  C   UNL     1     133.661 134.741 143.736  1.00  0.00     0.114 C 
BRANCH  29  30
ATOM     30  O   UNL     1     134.077 135.794 144.571  1.00  0.00    -0.393 OA
ATOM     31  H   UNL     1     133.265 136.214 144.957  1.00  0.00     0.210 HD
ENDBRANCH  29  30
ENDBRANCH   9  11
ENDBRANCH   1   9
TORSDOF 7
ENDMDL
MODEL 5
REMARK VINA RESULT:    -7.823      3.132      9.075
REMARK INTER + INTRA:         -11.488
REMARK INTER:                 -11.613
REMARK INTRA:                   0.124
REMARK UNBOUND:                -0.693
REMARK SMILES CC[C@H](CC[C@@H](C)[C@H]1CC[C@@H]2C3=CC[C@H]4C[C@H](O)CC[C@@]4(C)[C@@H]3CC[C@@]21C)C(C)C
REMARK SMILES IDX 5 1 4 2 3 3 2 4 1 5 28 6 29 7 30 8 6 9 7 10 8 11 9 12 26 13
REMARK SMILES IDX 10 14 11 15 25 16 27 17 12 18 24 19 23 20 13 21 21 22 14 23
REMARK SMILES IDX 15 24 20 25 22 26 16 27 19 28 17 29 18 30
REMARK H PARENT 18 31
REMARK Flexibility Score: inf
ROOT
ATOM      1  C   UNL     1     134.031 125.960 137.644  1.00  0.00     0.004 C 
ENDROOT
BRANCH   1   2
ATOM      2  C   UNL     1     135.481 126.269 137.219  1.00  0.00     0.004 C 
BRANCH   2   3
ATOM      3  C   UNL     1     135.697 126.090 135.683  1.00  0.00    -0.009 C 
BRANCH   3   4
ATOM      4  C   UNL     1     135.853 127.455 134.962  1.00  0.00     0.000 C 
ATOM      5  C   UNL     1     135.083 127.522 133.643  1.00  0.00     0.004 C 
ENDBRANCH   3   4
BRANCH   3   6
ATOM      6  C   UNL     1     136.887 125.139 135.331  1.00  0.00    -0.014 C 
ATOM      7  C   UNL     1     136.841 123.837 136.150  1.00  0.00     0.007 C 
ATOM      8  C   UNL     1     138.271 125.801 135.452  1.00  0.00     0.007 C 
ENDBRANCH   3   6
ENDBRANCH   2   3
ENDBRANCH   1   2
BRANCH   1   9
ATOM      9  C   UNL     1     133.057 127.163 137.417  1.00  0.00    -0.011 C 
ATOM     10  C   UNL     1     131.650 126.733 137.881  1.00  0.00     0.008 C 
BRANCH   9  11
ATOM     11  C   UNL     1     133.533 128.467 138.164  1.00  0.00    -0.002 C 
ATOM     12  C   UNL     1     134.536 129.289 137.350  1.00  0.00     0.005 C 
ATOM     13  C   UNL     1     132.449 129.524 138.613  1.00  0.00    -0.023 C 
ATOM     14  C   UNL     1     134.602 130.625 138.049  1.00  0.00     0.009 C 
ATOM     15  C   UNL     1     133.164 130.919 138.455  1.00  0.00     0.021 C 
ATOM     16  C   UNL     1     131.974 129.258 140.075  1.00  0.00     0.008 C 
ATOM     17  C   UNL     1     131.206 129.527 137.682  1.00  0.00     0.012 C 
ATOM     18  C   UNL     1     133.136 131.854 139.657  1.00  0.00    -0.067 C 
ATOM     19  C   UNL     1     132.946 129.806 141.122  1.00  0.00     0.009 C 
ATOM     20  C   UNL     1     132.965 131.343 141.079  1.00  0.00     0.021 C 
ATOM     21  C   UNL     1     133.264 133.183 139.468  1.00  0.00    -0.027 C 
ATOM     22  C   UNL     1     133.937 132.044 142.140  1.00  0.00    -0.023 C 
ATOM     23  C   UNL     1     133.445 134.090 140.651  1.00  0.00     0.031 C 
ATOM     24  C   UNL     1     134.472 133.427 141.586  1.00  0.00     0.002 C 
ATOM     25  C   UNL     1     133.116 132.248 143.457  1.00  0.00     0.010 C 
ATOM     26  C   UNL     1     135.174 131.155 142.448  1.00  0.00     0.012 C 
ATOM     27  C   UNL     1     135.002 134.402 142.666  1.00  0.00     0.036 C 
ATOM     28  C   UNL     1     133.791 133.159 144.483  1.00  0.00     0.032 C 
ATOM     29  C   UNL     1     134.059 134.536 143.866  1.00  0.00     0.114 C 
BRANCH  29  30
ATOM     30  O   UNL     1     134.600 135.411 144.825  1.00  0.00    -0.393 OA
ATOM     31  H   UNL     1     133.845 135.806 145.335  1.00  0.00     0.210 HD
ENDBRANCH  29  30
ENDBRANCH   9  11
ENDBRANCH   1   9
TORSDOF 7
ENDMDL
MODEL 6
REMARK VINA RESULT:    -7.709      3.244      8.239
REMARK INTER + INTRA:         -11.330
REMARK INTER:                 -10.500
REMARK INTRA:                  -0.831
REMARK UNBOUND:                -0.693
REMARK SMILES CC[C@H](CC[C@@H](C)[C@H]1CC[C@@H]2C3=CC[C@H]4C[C@H](O)CC[C@@]4(C)[C@@H]3CC[C@@]21C)C(C)C
REMARK SMILES IDX 5 1 4 2 3 3 2 4 1 5 28 6 29 7 30 8 6 9 7 10 8 11 9 12 26 13
REMARK SMILES IDX 10 14 11 15 25 16 27 17 12 18 24 19 23 20 13 21 21 22 14 23
REMARK SMILES IDX 15 24 20 25 22 26 16 27 19 28 17 29 18 30
REMARK H PARENT 18 31
REMARK Flexibility Score: inf
ROOT
ATOM      1  C   UNL     1     132.934 125.643 138.131  1.00  0.00     0.004 C 
ENDROOT
BRANCH   1   2
ATOM      2  C   UNL     1     134.397 125.328 137.756  1.00  0.00     0.004 C 
BRANCH   2   3
ATOM      3  C   UNL     1     135.374 125.551 138.955  1.00  0.00    -0.009 C 
BRANCH   3   4
ATOM      4  C   UNL     1     136.448 126.622 138.629  1.00  0.00     0.000 C 
ATOM      5  C   UNL     1     136.887 126.598 137.165  1.00  0.00     0.004 C 
ENDBRANCH   3   4
BRANCH   3   6
ATOM      6  C   UNL     1     134.642 125.890 140.294  1.00  0.00    -0.014 C 
ATOM      7  C   UNL     1     135.218 127.152 140.958  1.00  0.00     0.007 C 
ATOM      8  C   UNL     1     134.606 124.722 141.297  1.00  0.00     0.007 C 
ENDBRANCH   3   6
ENDBRANCH   2   3
ENDBRANCH   1   2
BRANCH   1   9
ATOM      9  C   UNL     1     132.408 126.966 137.483  1.00  0.00    -0.011 C 
ATOM     10  C   UNL     1     130.867 126.950 137.551  1.00  0.00     0.008 C 
BRANCH   9  11
ATOM     11  C   UNL     1     132.999 128.250 138.180  1.00  0.00    -0.002 C 
ATOM     12  C   UNL     1     134.032 128.976 137.316  1.00  0.00     0.005 C 
ATOM     13  C   UNL     1     132.008 129.394 138.633  1.00  0.00    -0.023 C 
ATOM     14  C   UNL     1     134.216 130.321 137.977  1.00  0.00     0.009 C 
ATOM     15  C   UNL     1     132.816 130.729 138.416  1.00  0.00     0.021 C 
ATOM     16  C   UNL     1     131.561 129.199 140.115  1.00  0.00     0.008 C 
ATOM     17  C   UNL     1     130.740 129.463 137.738  1.00  0.00     0.012 C 
ATOM     18  C   UNL     1     132.892 131.693 139.593  1.00  0.00    -0.067 C 
ATOM     19  C   UNL     1     132.601 129.701 141.117  1.00  0.00     0.009 C 
ATOM     20  C   UNL     1     132.729 131.231 141.032  1.00  0.00     0.021 C 
ATOM     21  C   UNL     1     133.109 133.004 139.364  1.00  0.00    -0.027 C 
ATOM     22  C   UNL     1     133.781 131.885 142.045  1.00  0.00    -0.023 C 
ATOM     23  C   UNL     1     133.391 133.924 140.516  1.00  0.00     0.031 C 
ATOM     24  C   UNL     1     134.396 133.212 141.439  1.00  0.00     0.002 C 
ATOM     25  C   UNL     1     133.018 132.181 143.379  1.00  0.00     0.010 C 
ATOM     26  C   UNL     1     134.960 130.917 142.341  1.00  0.00     0.012 C 
ATOM     27  C   UNL     1     135.028 134.173 142.476  1.00  0.00     0.036 C 
ATOM     28  C   UNL     1     133.788 133.066 144.360  1.00  0.00     0.032 C 
ATOM     29  C   UNL     1     134.135 134.404 143.700  1.00  0.00     0.114 C 
BRANCH  29  30
ATOM     30  O   UNL     1     134.767 135.261 144.619  1.00  0.00    -0.393 OA
ATOM     31  H   UNL     1     134.590 136.196 144.333  1.00  0.00     0.210 HD
ENDBRANCH  29  30
ENDBRANCH   9  11
ENDBRANCH   1   9
TORSDOF 7
ENDMDL
MODEL 7
REMARK VINA RESULT:    -7.683      3.191      8.367
REMARK INTER + INTRA:         -11.295
REMARK INTER:                 -10.812
REMARK INTRA:                  -0.483
REMARK UNBOUND:                -0.693
REMARK SMILES CC[C@H](CC[C@@H](C)[C@H]1CC[C@@H]2C3=CC[C@H]4C[C@H](O)CC[C@@]4(C)[C@@H]3CC[C@@]21C)C(C)C
REMARK SMILES IDX 5 1 4 2 3 3 2 4 1 5 28 6 29 7 30 8 6 9 7 10 8 11 9 12 26 13
REMARK SMILES IDX 10 14 11 15 25 16 27 17 12 18 24 19 23 20 13 21 21 22 14 23
REMARK SMILES IDX 15 24 20 25 22 26 16 27 19 28 17 29 18 30
REMARK H PARENT 18 31
REMARK Flexibility Score: inf
ROOT
ATOM      1  C   UNL     1     134.642 126.619 136.910  1.00  0.00     0.004 C 
ENDROOT
BRANCH   1   2
ATOM      2  C   UNL     1     134.214 127.949 136.257  1.00  0.00     0.004 C 
BRANCH   2   3
ATOM      3  C   UNL     1     135.440 128.801 135.796  1.00  0.00    -0.009 C 
BRANCH   3   4
ATOM      4  C   UNL     1     135.745 128.599 134.288  1.00  0.00     0.000 C 
ATOM      5  C   UNL     1     134.930 127.466 133.663  1.00  0.00     0.004 C 
ENDBRANCH   3   4
BRANCH   3   6
ATOM      6  C   UNL     1     135.299 130.321 136.134  1.00  0.00    -0.014 C 
ATOM      7  C   UNL     1     133.883 130.845 135.839  1.00  0.00     0.007 C 
ATOM      8  C   UNL     1     136.355 131.211 135.454  1.00  0.00     0.007 C 
ENDBRANCH   3   6
ENDBRANCH   2   3
ENDBRANCH   1   2
BRANCH   1   9
ATOM      9  C   UNL     1     133.630 126.113 137.990  1.00  0.00    -0.011 C 
ATOM     10  C   UNL     1     134.211 124.834 138.626  1.00  0.00     0.008 C 
BRANCH   9  11
ATOM     11  C   UNL     1     133.324 127.208 139.082  1.00  0.00    -0.002 C 
ATOM     12  C   UNL     1     132.144 126.838 139.983  1.00  0.00     0.005 C 
ATOM     13  C   UNL     1     134.466 127.612 140.095  1.00  0.00    -0.023 C 
ATOM     14  C   UNL     1     132.223 127.800 141.144  1.00  0.00     0.009 C 
ATOM     15  C   UNL     1     133.711 127.920 141.444  1.00  0.00     0.021 C 
ATOM     16  C   UNL     1     135.278 128.837 139.571  1.00  0.00     0.008 C 
ATOM     17  C   UNL     1     135.453 126.444 140.368  1.00  0.00     0.012 C 
ATOM     18  C   UNL     1     134.008 129.254 142.116  1.00  0.00    -0.067 C 
ATOM     19  C   UNL     1     134.573 130.169 139.831  1.00  0.00     0.009 C 
ATOM     20  C   UNL     1     134.519 130.458 141.341  1.00  0.00     0.021 C 
ATOM     21  C   UNL     1     133.817 129.385 143.444  1.00  0.00    -0.027 C 
ATOM     22  C   UNL     1     133.814 131.836 141.747  1.00  0.00    -0.023 C 
ATOM     23  C   UNL     1     133.907 130.742 144.080  1.00  0.00     0.031 C 
ATOM     24  C   UNL     1     133.142 131.725 143.176  1.00  0.00     0.002 C 
ATOM     25  C   UNL     1     134.921 132.944 141.734  1.00  0.00     0.010 C 
ATOM     26  C   UNL     1     132.701 132.223 140.736  1.00  0.00     0.012 C 
ATOM     27  C   UNL     1     132.867 133.079 143.875  1.00  0.00     0.036 C 
ATOM     28  C   UNL     1     134.494 134.266 142.373  1.00  0.00     0.032 C 
ATOM     29  C   UNL     1     134.064 134.033 143.825  1.00  0.00     0.114 C 
BRANCH  29  30
ATOM     30  O   UNL     1     133.752 135.253 144.452  1.00  0.00    -0.393 OA
ATOM     31  H   UNL     1     134.604 135.670 144.745  1.00  0.00     0.210 HD
ENDBRANCH  29  30
ENDBRANCH   9  11
ENDBRANCH   1   9
TORSDOF 7
ENDMDL
MODEL 8
REMARK VINA RESULT:    -7.195      3.365      5.797
REMARK INTER + INTRA:         -10.622
REMARK INTER:                  -9.790
REMARK INTRA:                  -0.832
REMARK UNBOUND:                -0.693
REMARK SMILES CC[C@H](CC[C@@H](C)[C@H]1CC[C@@H]2C3=CC[C@H]4C[C@H](O)CC[C@@]4(C)[C@@H]3CC[C@@]21C)C(C)C
REMARK SMILES IDX 5 1 4 2 3 3 2 4 1 5 28 6 29 7 30 8 6 9 7 10 8 11 9 12 26 13
REMARK SMILES IDX 10 14 11 15 25 16 27 17 12 18 24 19 23 20 13 21 21 22 14 23
REMARK SMILES IDX 15 24 20 25 22 26 16 27 19 28 17 29 18 30
REMARK H PARENT 18 31
REMARK Flexibility Score: inf
ROOT
ATOM      1  C   UNL     1     131.528 131.414 136.415  1.00  0.00     0.004 C 
ENDROOT
BRANCH   1   2
ATOM      2  C   UNL     1     130.931 131.233 137.826  1.00  0.00     0.004 C 
BRANCH   2   3
ATOM      3  C   UNL     1     132.020 131.311 138.942  1.00  0.00    -0.009 C 
BRANCH   3   4
ATOM      4  C   UNL     1     132.644 132.728 139.038  1.00  0.00     0.000 C 
ATOM      5  C   UNL     1     134.167 132.699 139.178  1.00  0.00     0.004 C 
ENDBRANCH   3   4
BRANCH   3   6
ATOM      6  C   UNL     1     131.508 130.835 140.341  1.00  0.00    -0.014 C 
ATOM      7  C   UNL     1     132.606 130.929 141.414  1.00  0.00     0.007 C 
ATOM      8  C   UNL     1     130.883 129.429 140.331  1.00  0.00     0.007 C 
ENDBRANCH   3   6
ENDBRANCH   2   3
ENDBRANCH   1   2
BRANCH   1   9
ATOM      9  C   UNL     1     132.575 130.312 136.047  1.00  0.00    -0.011 C 
ATOM     10  C   UNL     1     133.931 131.005 135.801  1.00  0.00     0.008 C 
BRANCH   9  11
ATOM     11  C   UNL     1     132.693 129.203 137.161  1.00  0.00    -0.002 C 
ATOM     12  C   UNL     1     131.668 128.079 136.995  1.00  0.00     0.005 C 
ATOM     13  C   UNL     1     134.067 128.444 137.337  1.00  0.00    -0.023 C 
ATOM     14  C   UNL     1     132.147 126.977 137.909  1.00  0.00     0.009 C 
ATOM     15  C   UNL     1     133.662 126.980 137.753  1.00  0.00     0.021 C 
ATOM     16  C   UNL     1     134.965 129.144 138.403  1.00  0.00     0.008 C 
ATOM     17  C   UNL     1     134.862 128.349 136.006  1.00  0.00     0.012 C 
ATOM     18  C   UNL     1     134.322 126.406 139.001  1.00  0.00    -0.067 C 
ATOM     19  C   UNL     1     134.577 128.776 139.836  1.00  0.00     0.009 C 
ATOM     20  C   UNL     1     134.876 127.291 140.106  1.00  0.00     0.021 C 
ATOM     21  C   UNL     1     134.424 125.069 139.142  1.00  0.00    -0.027 C 
ATOM     22  C   UNL     1     134.526 126.781 141.582  1.00  0.00    -0.023 C 
ATOM     23  C   UNL     1     134.881 124.492 140.451  1.00  0.00     0.031 C 
ATOM     24  C   UNL     1     134.141 125.246 141.570  1.00  0.00     0.002 C 
ATOM     25  C   UNL     1     135.789 127.035 142.472  1.00  0.00     0.010 C 
ATOM     26  C   UNL     1     133.322 127.560 142.179  1.00  0.00     0.012 C 
ATOM     27  C   UNL     1     134.258 124.533 142.940  1.00  0.00     0.036 C 
ATOM     28  C   UNL     1     135.741 126.351 143.839  1.00  0.00     0.032 C 
ATOM     29  C   UNL     1     135.574 124.838 143.663  1.00  0.00     0.114 C 
BRANCH  29  30
ATOM     30  O   UNL     1     135.616 124.187 144.909  1.00  0.00    -0.393 OA
ATOM     31  H   UNL     1     135.795 123.225 144.743  1.00  0.00     0.210 HD
ENDBRANCH  29  30
ENDBRANCH   9  11
ENDBRANCH   1   9
TORSDOF 7
ENDMDL
MODEL 9
REMARK VINA RESULT:    -6.586      1.433      2.754
REMARK INTER + INTRA:          -9.782
REMARK INTER:                  -8.921
REMARK INTRA:                  -0.860
REMARK UNBOUND:                -0.693
REMARK SMILES CC[C@H](CC[C@@H](C)[C@H]1CC[C@@H]2C3=CC[C@H]4C[C@H](O)CC[C@@]4(C)[C@@H]3CC[C@@]21C)C(C)C
REMARK SMILES IDX 5 1 4 2 3 3 2 4 1 5 28 6 29 7 30 8 6 9 7 10 8 11 9 12 26 13
REMARK SMILES IDX 10 14 11 15 25 16 27 17 12 18 24 19 23 20 13 21 21 22 14 23
REMARK SMILES IDX 15 24 20 25 22 26 16 27 19 28 17 29 18 30
REMARK H PARENT 18 31
REMARK Flexibility Score: inf
ROOT
ATOM      1  C   UNL     1     134.082 130.908 143.536  1.00  0.00     0.004 C 
ENDROOT
BRANCH   1   2
ATOM      2  C   UNL     1     135.087 131.712 142.685  1.00  0.00     0.004 C 
BRANCH   2   3
ATOM      3  C   UNL     1     134.396 132.861 141.886  1.00  0.00    -0.009 C 
BRANCH   3   4
ATOM      4  C   UNL     1     134.607 134.241 142.564  1.00  0.00     0.000 C 
ATOM      5  C   UNL     1     133.606 134.509 143.689  1.00  0.00     0.004 C 
ENDBRANCH   3   4
BRANCH   3   6
ATOM      6  C   UNL     1     134.822 132.913 140.382  1.00  0.00    -0.014 C 
ATOM      7  C   UNL     1     135.465 134.261 140.015  1.00  0.00     0.007 C 
ATOM      8  C   UNL     1     133.687 132.572 139.401  1.00  0.00     0.007 C 
ENDBRANCH   3   6
ENDBRANCH   2   3
ENDBRANCH   1   2
BRANCH   1   9
ATOM      9  C   UNL     1     133.116 130.030 142.675  1.00  0.00    -0.011 C 
ATOM     10  C   UNL     1     132.088 130.966 142.007  1.00  0.00     0.008 C 
BRANCH   9  11
ATOM     11  C   UNL     1     133.885 129.167 141.605  1.00  0.00    -0.002 C 
ATOM     12  C   UNL     1     134.944 128.252 142.224  1.00  0.00     0.005 C 
ATOM     13  C   UNL     1     133.057 128.207 140.662  1.00  0.00    -0.023 C 
ATOM     14  C   UNL     1     135.315 127.286 141.126  1.00  0.00     0.009 C 
ATOM     15  C   UNL     1     133.997 126.964 140.435  1.00  0.00     0.021 C 
ATOM     16  C   UNL     1     132.673 128.920 139.328  1.00  0.00     0.008 C 
ATOM     17  C   UNL     1     131.757 127.694 141.341  1.00  0.00     0.012 C 
ATOM     18  C   UNL     1     134.246 126.537 138.994  1.00  0.00    -0.067 C 
ATOM     19  C   UNL     1     133.818 128.931 138.314  1.00  0.00     0.009 C 
ATOM     20  C   UNL     1     134.113 127.502 137.827  1.00  0.00     0.021 C 
ATOM     21  C   UNL     1     134.597 125.262 138.731  1.00  0.00    -0.027 C 
ATOM     22  C   UNL     1     135.287 127.378 136.746  1.00  0.00    -0.023 C 
ATOM     23  C   UNL     1     135.045 124.883 137.349  1.00  0.00     0.031 C 
ATOM     24  C   UNL     1     136.013 125.975 136.863  1.00  0.00     0.002 C 
ATOM     25  C   UNL     1     134.637 127.556 135.333  1.00  0.00     0.010 C 
ATOM     26  C   UNL     1     136.363 128.479 136.951  1.00  0.00     0.012 C 
ATOM     27  C   UNL     1     136.805 125.544 135.604  1.00  0.00     0.036 C 
ATOM     28  C   UNL     1     135.555 127.184 134.169  1.00  0.00     0.032 C 
ATOM     29  C   UNL     1     136.014 125.729 134.306  1.00  0.00     0.114 C 
BRANCH  29  30
ATOM     30  O   UNL     1     136.788 125.346 133.195  1.00  0.00    -0.393 OA
ATOM     31  H   UNL     1     136.936 124.366 133.252  1.00  0.00     0.210 HD
ENDBRANCH  29  30
ENDBRANCH   9  11
ENDBRANCH   1   9
TORSDOF 7
ENDMDL
