MODEL 1
REMARK VINA RESULT:    -7.658      0.000      0.000
REMARK INTER + INTRA:          -9.529
REMARK INTER:                  -9.225
REMARK INTRA:                  -0.304
REMARK UNBOUND:                -0.304
REMARK SMILES O=c1c(O)c(-c2ccc(O)c(O)c2)oc2cc(O)cc(O)c12
REMARK SMILES IDX 5 1 3 2 2 3 1 4 22 5 20 6 19 7 17 8 16 9 15 10 14 11 6 12
REMARK SMILES IDX 7 13 8 14 9 15 13 16 11 17 10 18 12 20 4 22 21 24 18 26
REMARK H PARENT 10 19 12 21 4 23 21 25 18 27
REMARK Flexibility Score: inf
ROOT
ATOM      1  C   UNL     1      26.025  37.417  26.275  1.00  0.00     0.180 A 
ATOM      2  C   UNL     1      25.988  38.648  26.951  1.00  0.00     0.208 A 
ATOM      3  C   UNL     1      24.755  39.132  27.417  1.00  0.00     0.238 A 
ATOM      4  O   UNL     1      24.735  40.208  28.069  1.00  0.00    -0.285 OA
ATOM      5  C   UNL     1      23.573  38.387  27.187  1.00  0.00     0.111 A 
ATOM      6  C   UNL     1      22.264  38.800  27.580  1.00  0.00     0.134 A 
ATOM      7  C   UNL     1      21.185  37.923  27.416  1.00  0.00     0.093 A 
ATOM      8  C   UNL     1      21.357  36.674  26.816  1.00  0.00     0.123 A 
ATOM      9  C   UNL     1      22.621  36.286  26.376  1.00  0.00     0.094 A 
ATOM     10  C   UNL     1      23.723  37.123  26.557  1.00  0.00     0.146 A 
ATOM     11  O   UNL     1      24.911  36.710  26.132  1.00  0.00    -0.452 OA
ENDROOT
BRANCH   1  12
ATOM     12  C   UNL     1      27.284  36.854  25.733  1.00  0.00     0.025 A 
ATOM     13  C   UNL     1      27.834  37.320  24.527  1.00  0.00     0.016 A 
ATOM     14  C   UNL     1      29.009  36.757  24.023  1.00  0.00     0.051 A 
ATOM     15  C   UNL     1      29.644  35.712  24.707  1.00  0.00     0.157 A 
ATOM     16  C   UNL     1      27.912  35.792  26.405  1.00  0.00     0.062 A 
ATOM     17  C   UNL     1      29.089  35.226  25.903  1.00  0.00     0.158 A 
BRANCH  15  18
ATOM     18  O   UNL     1      30.818  35.154  24.203  1.00  0.00    -0.504 OA
ATOM     19  H   UNL     1      30.814  34.569  23.376  1.00  0.00     0.293 HD
ENDBRANCH  15  18
BRANCH  17  20
ATOM     20  O   UNL     1      29.692  34.183  26.606  1.00  0.00    -0.504 OA
ATOM     21  H   UNL     1      30.555  33.753  26.294  1.00  0.00     0.293 HD
ENDBRANCH  17  20
ENDBRANCH   1  12
BRANCH   2  22
ATOM     22  O   UNL     1      27.169  39.357  27.187  1.00  0.00    -0.502 OA
ATOM     23  H   UNL     1      27.608  39.394  28.100  1.00  0.00     0.293 HD
ENDBRANCH   2  22
BRANCH   6  24
ATOM     24  O   UNL     1      21.970  40.063  28.104  1.00  0.00    -0.507 OA
ATOM     25  H   UNL     1      22.641  40.672  28.547  1.00  0.00     0.293 HD
ENDBRANCH   6  24
BRANCH   8  26
ATOM     26  O   UNL     1      20.275  35.814  26.643  1.00  0.00    -0.508 OA
ATOM     27  H   UNL     1      20.179  34.967  27.191  1.00  0.00     0.293 HD
ENDBRANCH   8  26
TORSDOF 6
ENDMDL
MODEL 2
REMARK VINA RESULT:    -7.251      2.160      3.766
REMARK INTER + INTRA:          -9.039
REMARK INTER:                  -8.716
REMARK INTRA:                  -0.323
REMARK UNBOUND:                -0.304
REMARK SMILES O=c1c(O)c(-c2ccc(O)c(O)c2)oc2cc(O)cc(O)c12
REMARK SMILES IDX 5 1 3 2 2 3 1 4 22 5 20 6 19 7 17 8 16 9 15 10 14 11 6 12
REMARK SMILES IDX 7 13 8 14 9 15 13 16 11 17 10 18 12 20 4 22 21 24 18 26
REMARK H PARENT 10 19 12 21 4 23 21 25 18 27
REMARK Flexibility Score: inf
ROOT
ATOM      1  C   UNL     1      25.557  38.237  26.790  1.00  0.00     0.180 A 
ATOM      2  C   UNL     1      24.277  37.973  27.308  1.00  0.00     0.208 A 
ATOM      3  C   UNL     1      23.353  39.025  27.408  1.00  0.00     0.238 A 
ATOM      4  O   UNL     1      22.191  38.771  27.822  1.00  0.00    -0.285 OA
ATOM      5  C   UNL     1      23.724  40.330  27.006  1.00  0.00     0.111 A 
ATOM      6  C   UNL     1      22.882  41.478  27.100  1.00  0.00     0.134 A 
ATOM      7  C   UNL     1      23.307  42.694  26.551  1.00  0.00     0.093 A 
ATOM      8  C   UNL     1      24.570  42.818  25.969  1.00  0.00     0.123 A 
ATOM      9  C   UNL     1      25.423  41.717  25.924  1.00  0.00     0.094 A 
ATOM     10  C   UNL     1      25.014  40.482  26.431  1.00  0.00     0.146 A 
ATOM     11  O   UNL     1      25.853  39.457  26.359  1.00  0.00    -0.452 OA
ENDROOT
BRANCH   1  12
ATOM     12  C   UNL     1      26.593  37.185  26.676  1.00  0.00     0.025 A 
ATOM     13  C   UNL     1      26.697  36.380  25.528  1.00  0.00     0.016 A 
ATOM     14  C   UNL     1      27.667  35.378  25.454  1.00  0.00     0.051 A 
ATOM     15  C   UNL     1      28.538  35.155  26.528  1.00  0.00     0.157 A 
ATOM     16  C   UNL     1      27.455  36.943  27.760  1.00  0.00     0.062 A 
ATOM     17  C   UNL     1      28.428  35.940  27.688  1.00  0.00     0.158 A 
BRANCH  15  18
ATOM     18  O   UNL     1      29.507  34.155  26.450  1.00  0.00    -0.504 OA
ATOM     19  H   UNL     1      30.200  34.030  27.179  1.00  0.00     0.293 HD
ENDBRANCH  15  18
BRANCH  17  20
ATOM     20  O   UNL     1      29.275  35.740  28.778  1.00  0.00    -0.504 OA
ATOM     21  H   UNL     1      30.237  35.445  28.664  1.00  0.00     0.293 HD
ENDBRANCH  17  20
ENDBRANCH   1  12
BRANCH   2  22
ATOM     22  O   UNL     1      23.924  36.673  27.679  1.00  0.00    -0.502 OA
ATOM     23  H   UNL     1      24.564  35.891  27.600  1.00  0.00     0.293 HD
ENDBRANCH   2  22
BRANCH   6  24
ATOM     24  O   UNL     1      21.641  41.484  27.744  1.00  0.00    -0.507 OA
ATOM     25  H   UNL     1      21.443  41.014  28.615  1.00  0.00     0.293 HD
ENDBRANCH   6  24
BRANCH   8  26
ATOM     26  O   UNL     1      24.992  44.036  25.438  1.00  0.00    -0.508 OA
ATOM     27  H   UNL     1      25.829  44.106  24.872  1.00  0.00     0.293 HD
ENDBRANCH   8  26
TORSDOF 6
ENDMDL
MODEL 3
REMARK VINA RESULT:    -7.244      3.967      6.833
REMARK INTER + INTRA:          -9.030
REMARK INTER:                  -8.701
REMARK INTRA:                  -0.329
REMARK UNBOUND:                -0.304
REMARK SMILES O=c1c(O)c(-c2ccc(O)c(O)c2)oc2cc(O)cc(O)c12
REMARK SMILES IDX 5 1 3 2 2 3 1 4 22 5 20 6 19 7 17 8 16 9 15 10 14 11 6 12
REMARK SMILES IDX 7 13 8 14 9 15 13 16 11 17 10 18 12 20 4 22 21 24 18 26
REMARK H PARENT 10 19 12 21 4 23 21 25 18 27
REMARK Flexibility Score: inf
ROOT
ATOM      1  C   UNL     1      28.184  40.282  27.851  1.00  0.00     0.180 A 
ATOM      2  C   UNL     1      28.742  39.837  29.062  1.00  0.00     0.208 A 
ATOM      3  C   UNL     1      28.888  38.457  29.278  1.00  0.00     0.238 A 
ATOM      4  O   UNL     1      29.439  38.067  30.341  1.00  0.00    -0.285 OA
ATOM      5  C   UNL     1      28.459  37.540  28.290  1.00  0.00     0.111 A 
ATOM      6  C   UNL     1      28.522  36.120  28.419  1.00  0.00     0.134 A 
ATOM      7  C   UNL     1      28.189  35.310  27.326  1.00  0.00     0.093 A 
ATOM      8  C   UNL     1      27.735  35.869  26.129  1.00  0.00     0.123 A 
ATOM      9  C   UNL     1      27.614  37.252  26.012  1.00  0.00     0.094 A 
ATOM     10  C   UNL     1      27.972  38.087  27.073  1.00  0.00     0.146 A 
ATOM     11  O   UNL     1      27.851  39.400  26.916  1.00  0.00    -0.452 OA
ENDROOT
BRANCH   1  12
ATOM     12  C   UNL     1      27.975  41.719  27.560  1.00  0.00     0.025 A 
ATOM     13  C   UNL     1      26.766  42.362  27.875  1.00  0.00     0.016 A 
ATOM     14  C   UNL     1      26.583  43.712  27.569  1.00  0.00     0.051 A 
ATOM     15  C   UNL     1      27.599  44.438  26.934  1.00  0.00     0.157 A 
ATOM     16  C   UNL     1      28.984  42.445  26.904  1.00  0.00     0.062 A 
ATOM     17  C   UNL     1      28.804  43.799  26.598  1.00  0.00     0.158 A 
BRANCH  15  18
ATOM     18  O   UNL     1      27.415  45.786  26.633  1.00  0.00    -0.504 OA
ATOM     19  H   UNL     1      27.041  46.437  27.315  1.00  0.00     0.293 HD
ENDBRANCH  15  18
BRANCH  17  20
ATOM     20  O   UNL     1      29.834  44.490  25.959  1.00  0.00    -0.504 OA
ATOM     21  H   UNL     1      29.663  45.096  25.165  1.00  0.00     0.293 HD
ENDBRANCH  17  20
ENDBRANCH   1  12
BRANCH   2  22
ATOM     22  O   UNL     1      29.180  40.761  30.015  1.00  0.00    -0.502 OA
ATOM     23  H   UNL     1      29.342  41.736  29.792  1.00  0.00     0.293 HD
ENDBRANCH   2  22
BRANCH   6  24
ATOM     24  O   UNL     1      28.873  35.459  29.600  1.00  0.00    -0.507 OA
ATOM     25  H   UNL     1      29.033  35.914  30.487  1.00  0.00     0.293 HD
ENDBRANCH   6  24
BRANCH   8  26
ATOM     26  O   UNL     1      27.392  35.056  25.050  1.00  0.00    -0.508 OA
ATOM     27  H   UNL     1      27.667  34.082  25.013  1.00  0.00     0.293 HD
ENDBRANCH   8  26
TORSDOF 6
ENDMDL
MODEL 4
REMARK VINA RESULT:    -7.179      1.934      6.861
REMARK INTER + INTRA:          -8.952
REMARK INTER:                  -8.625
REMARK INTRA:                  -0.328
REMARK UNBOUND:                -0.304
REMARK SMILES O=c1c(O)c(-c2ccc(O)c(O)c2)oc2cc(O)cc(O)c12
REMARK SMILES IDX 5 1 3 2 2 3 1 4 22 5 20 6 19 7 17 8 16 9 15 10 14 11 6 12
REMARK SMILES IDX 7 13 8 14 9 15 13 16 11 17 10 18 12 20 4 22 21 24 18 26
REMARK H PARENT 10 19 12 21 4 23 21 25 18 27
REMARK Flexibility Score: inf
ROOT
ATOM      1  C   UNL     1      25.869  37.500  26.158  1.00  0.00     0.180 A 
ATOM      2  C   UNL     1      26.390  37.956  24.935  1.00  0.00     0.208 A 
ATOM      3  C   UNL     1      27.782  37.965  24.750  1.00  0.00     0.238 A 
ATOM      4  O   UNL     1      28.241  38.323  23.633  1.00  0.00    -0.285 OA
ATOM      5  C   UNL     1      28.635  37.534  25.793  1.00  0.00     0.111 A 
ATOM      6  C   UNL     1      30.061  37.538  25.730  1.00  0.00     0.134 A 
ATOM      7  C   UNL     1      30.801  36.968  26.773  1.00  0.00     0.093 A 
ATOM      8  C   UNL     1      30.168  36.452  27.906  1.00  0.00     0.123 A 
ATOM      9  C   UNL     1      28.779  36.497  28.004  1.00  0.00     0.094 A 
ATOM     10  C   UNL     1      28.012  37.026  26.964  1.00  0.00     0.146 A 
ATOM     11  O   UNL     1      26.691  37.041  27.094  1.00  0.00    -0.452 OA
ENDROOT
BRANCH   1  12
ATOM     12  C   UNL     1      24.414  37.484  26.437  1.00  0.00     0.025 A 
ATOM     13  C   UNL     1      23.777  38.568  27.065  1.00  0.00     0.016 A 
ATOM     14  C   UNL     1      22.409  38.520  27.341  1.00  0.00     0.051 A 
ATOM     15  C   UNL     1      21.658  37.386  27.005  1.00  0.00     0.157 A 
ATOM     16  C   UNL     1      23.662  36.340  26.121  1.00  0.00     0.062 A 
ATOM     17  C   UNL     1      22.290  36.289  26.394  1.00  0.00     0.158 A 
BRANCH  15  18
ATOM     18  O   UNL     1      20.292  37.342  27.278  1.00  0.00    -0.504 OA
ATOM     19  H   UNL     1      19.904  36.680  27.941  1.00  0.00     0.293 HD
ENDBRANCH  15  18
BRANCH  17  20
ATOM     20  O   UNL     1      21.574  35.142  26.053  1.00  0.00    -0.504 OA
ATOM     21  H   UNL     1      21.024  35.085  25.205  1.00  0.00     0.293 HD
ENDBRANCH  17  20
ENDBRANCH   1  12
BRANCH   2  22
ATOM     22  O   UNL     1      25.530  38.356  23.910  1.00  0.00    -0.502 OA
ATOM     23  H   UNL     1      24.817  39.065  24.043  1.00  0.00     0.293 HD
ENDBRANCH   2  22
BRANCH   6  24
ATOM     24  O   UNL     1      30.793  38.112  24.686  1.00  0.00    -0.507 OA
ATOM     25  H   UNL     1      31.800  38.107  24.620  1.00  0.00     0.293 HD
ENDBRANCH   6  24
BRANCH   8  26
ATOM     26  O   UNL     1      30.912  35.899  28.946  1.00  0.00    -0.508 OA
ATOM     27  H   UNL     1      30.536  35.820  29.883  1.00  0.00     0.293 HD
ENDBRANCH   8  26
TORSDOF 6
ENDMDL
MODEL 5
REMARK VINA RESULT:    -7.141      3.257      3.733
REMARK INTER + INTRA:          -8.907
REMARK INTER:                  -8.671
REMARK INTRA:                  -0.236
REMARK UNBOUND:                -0.304
REMARK SMILES O=c1c(O)c(-c2ccc(O)c(O)c2)oc2cc(O)cc(O)c12
REMARK SMILES IDX 5 1 3 2 2 3 1 4 22 5 20 6 19 7 17 8 16 9 15 10 14 11 6 12
REMARK SMILES IDX 7 13 8 14 9 15 13 16 11 17 10 18 12 20 4 22 21 24 18 26
REMARK H PARENT 10 19 12 21 4 23 21 25 18 27
REMARK Flexibility Score: inf
ROOT
ATOM      1  C   UNL     1      26.820  39.293  26.827  1.00  0.00     0.180 A 
ATOM      2  C   UNL     1      27.013  40.258  27.831  1.00  0.00     0.208 A 
ATOM      3  C   UNL     1      26.294  41.461  27.766  1.00  0.00     0.238 A 
ATOM      4  O   UNL     1      26.430  42.298  28.697  1.00  0.00    -0.285 OA
ATOM      5  C   UNL     1      25.404  41.694  26.691  1.00  0.00     0.111 A 
ATOM      6  C   UNL     1      24.654  42.893  26.502  1.00  0.00     0.134 A 
ATOM      7  C   UNL     1      23.706  42.962  25.474  1.00  0.00     0.093 A 
ATOM      8  C   UNL     1      23.527  41.897  24.588  1.00  0.00     0.123 A 
ATOM      9  C   UNL     1      24.297  40.744  24.727  1.00  0.00     0.094 A 
ATOM     10  C   UNL     1      25.224  40.632  25.765  1.00  0.00     0.146 A 
ATOM     11  O   UNL     1      25.930  39.512  25.867  1.00  0.00    -0.452 OA
ENDROOT
BRANCH   1  12
ATOM     12  C   UNL     1      27.560  38.010  26.815  1.00  0.00     0.025 A 
ATOM     13  C   UNL     1      28.561  37.752  25.862  1.00  0.00     0.016 A 
ATOM     14  C   UNL     1      29.229  36.525  25.854  1.00  0.00     0.051 A 
ATOM     15  C   UNL     1      28.899  35.534  26.788  1.00  0.00     0.157 A 
ATOM     16  C   UNL     1      27.218  37.005  27.735  1.00  0.00     0.062 A 
ATOM     17  C   UNL     1      27.886  35.776  27.731  1.00  0.00     0.158 A 
BRANCH  15  18
ATOM     18  O   UNL     1      29.569  34.311  26.779  1.00  0.00    -0.504 OA
ATOM     19  H   UNL     1      30.194  34.054  26.024  1.00  0.00     0.293 HD
ENDBRANCH  15  18
BRANCH  17  20
ATOM     20  O   UNL     1      27.529  34.808  28.669  1.00  0.00    -0.504 OA
ATOM     21  H   UNL     1      28.051  34.671  29.526  1.00  0.00     0.293 HD
ENDBRANCH  17  20
ENDBRANCH   1  12
BRANCH   2  22
ATOM     22  O   UNL     1      27.880  39.999  28.896  1.00  0.00    -0.502 OA
ATOM     23  H   UNL     1      28.395  39.130  28.981  1.00  0.00     0.293 HD
ENDBRANCH   2  22
BRANCH   6  24
ATOM     24  O   UNL     1      24.822  44.047  27.275  1.00  0.00    -0.507 OA
ATOM     25  H   UNL     1      25.371  44.848  26.999  1.00  0.00     0.293 HD
ENDBRANCH   6  24
BRANCH   8  26
ATOM     26  O   UNL     1      22.592  41.979  23.558  1.00  0.00    -0.508 OA
ATOM     27  H   UNL     1      22.767  41.567  22.649  1.00  0.00     0.293 HD
ENDBRANCH   8  26
TORSDOF 6
ENDMDL
MODEL 6
REMARK VINA RESULT:    -7.056      3.039      4.605
REMARK INTER + INTRA:          -8.803
REMARK INTER:                  -8.524
REMARK INTRA:                  -0.279
REMARK UNBOUND:                -0.304
REMARK SMILES O=c1c(O)c(-c2ccc(O)c(O)c2)oc2cc(O)cc(O)c12
REMARK SMILES IDX 5 1 3 2 2 3 1 4 22 5 20 6 19 7 17 8 16 9 15 10 14 11 6 12
REMARK SMILES IDX 7 13 8 14 9 15 13 16 11 17 10 18 12 20 4 22 21 24 18 26
REMARK H PARENT 10 19 12 21 4 23 21 25 18 27
REMARK Flexibility Score: inf
ROOT
ATOM      1  C   UNL     1      26.585  38.136  27.528  1.00  0.00     0.180 A 
ATOM      2  C   UNL     1      25.982  37.544  26.405  1.00  0.00     0.208 A 
ATOM      3  C   UNL     1      25.130  38.318  25.603  1.00  0.00     0.238 A 
ATOM      4  O   UNL     1      24.636  37.798  24.568  1.00  0.00    -0.285 OA
ATOM      5  C   UNL     1      24.877  39.669  25.942  1.00  0.00     0.111 A 
ATOM      6  C   UNL     1      23.999  40.535  25.224  1.00  0.00     0.134 A 
ATOM      7  C   UNL     1      23.925  41.889  25.573  1.00  0.00     0.093 A 
ATOM      8  C   UNL     1      24.649  42.394  26.656  1.00  0.00     0.123 A 
ATOM      9  C   UNL     1      25.464  41.543  27.400  1.00  0.00     0.094 A 
ATOM     10  C   UNL     1      25.586  40.196  27.054  1.00  0.00     0.146 A 
ATOM     11  O   UNL     1      26.381  39.422  27.783  1.00  0.00    -0.452 OA
ENDROOT
BRANCH   1  12
ATOM     12  C   UNL     1      27.477  37.377  28.436  1.00  0.00     0.025 A 
ATOM     13  C   UNL     1      27.033  36.929  29.692  1.00  0.00     0.016 A 
ATOM     14  C   UNL     1      27.900  36.236  30.541  1.00  0.00     0.051 A 
ATOM     15  C   UNL     1      29.224  35.991  30.155  1.00  0.00     0.157 A 
ATOM     16  C   UNL     1      28.811  37.147  28.061  1.00  0.00     0.062 A 
ATOM     17  C   UNL     1      29.681  36.452  28.909  1.00  0.00     0.158 A 
BRANCH  15  18
ATOM     18  O   UNL     1      30.085  35.297  31.003  1.00  0.00    -0.504 OA
ATOM     19  H   UNL     1      29.822  34.409  31.416  1.00  0.00     0.293 HD
ENDBRANCH  15  18
BRANCH  17  20
ATOM     20  O   UNL     1      30.995  36.230  28.496  1.00  0.00    -0.504 OA
ATOM     21  H   UNL     1      31.310  36.454  27.560  1.00  0.00     0.293 HD
ENDBRANCH  17  20
ENDBRANCH   1  12
BRANCH   2  22
ATOM     22  O   UNL     1      26.263  36.215  26.075  1.00  0.00    -0.502 OA
ATOM     23  H   UNL     1      26.580  35.540  26.761  1.00  0.00     0.293 HD
ENDBRANCH   2  22
BRANCH   6  24
ATOM     24  O   UNL     1      23.163  40.112  24.186  1.00  0.00    -0.507 OA
ATOM     25  H   UNL     1      23.465  39.575  23.387  1.00  0.00     0.293 HD
ENDBRANCH   6  24
BRANCH   8  26
ATOM     26  O   UNL     1      24.559  43.739  27.006  1.00  0.00    -0.508 OA
ATOM     27  H   UNL     1      25.386  44.299  27.177  1.00  0.00     0.293 HD
ENDBRANCH   8  26
TORSDOF 6
ENDMDL
MODEL 7
REMARK VINA RESULT:    -6.964      3.910      6.666
REMARK INTER + INTRA:          -8.694
REMARK INTER:                  -8.451
REMARK INTRA:                  -0.242
REMARK UNBOUND:                -0.304
REMARK SMILES O=c1c(O)c(-c2ccc(O)c(O)c2)oc2cc(O)cc(O)c12
REMARK SMILES IDX 5 1 3 2 2 3 1 4 22 5 20 6 19 7 17 8 16 9 15 10 14 11 6 12
REMARK SMILES IDX 7 13 8 14 9 15 13 16 11 17 10 18 12 20 4 22 21 24 18 26
REMARK H PARENT 10 19 12 21 4 23 21 25 18 27
REMARK Flexibility Score: inf
ROOT
ATOM      1  C   UNL     1      29.245  39.626  26.054  1.00  0.00     0.180 A 
ATOM      2  C   UNL     1      30.028  38.681  25.369  1.00  0.00     0.208 A 
ATOM      3  C   UNL     1      29.904  37.323  25.705  1.00  0.00     0.238 A 
ATOM      4  O   UNL     1      30.568  36.476  25.052  1.00  0.00    -0.285 OA
ATOM      5  C   UNL     1      29.013  36.929  26.732  1.00  0.00     0.111 A 
ATOM      6  C   UNL     1      28.837  35.586  27.182  1.00  0.00     0.134 A 
ATOM      7  C   UNL     1      27.833  35.296  28.115  1.00  0.00     0.093 A 
ATOM      8  C   UNL     1      27.043  36.310  28.661  1.00  0.00     0.123 A 
ATOM      9  C   UNL     1      27.247  37.632  28.271  1.00  0.00     0.094 A 
ATOM     10  C   UNL     1      28.216  37.948  27.317  1.00  0.00     0.146 A 
ATOM     11  O   UNL     1      28.370  39.220  26.967  1.00  0.00    -0.452 OA
ENDROOT
BRANCH   1  12
ATOM     12  C   UNL     1      29.338  41.077  25.774  1.00  0.00     0.025 A 
ATOM     13  C   UNL     1      28.809  41.630  24.594  1.00  0.00     0.016 A 
ATOM     14  C   UNL     1      28.930  42.998  24.339  1.00  0.00     0.051 A 
ATOM     15  C   UNL     1      29.591  43.832  25.251  1.00  0.00     0.157 A 
ATOM     16  C   UNL     1      30.018  41.914  26.675  1.00  0.00     0.062 A 
ATOM     17  C   UNL     1      30.140  43.285  26.423  1.00  0.00     0.158 A 
BRANCH  15  18
ATOM     18  O   UNL     1      29.708  45.198  24.996  1.00  0.00    -0.504 OA
ATOM     19  H   UNL     1      30.178  45.544  24.167  1.00  0.00     0.293 HD
ENDBRANCH  15  18
BRANCH  17  20
ATOM     20  O   UNL     1      30.809  44.086  27.348  1.00  0.00    -0.504 OA
ATOM     21  H   UNL     1      30.315  44.675  28.007  1.00  0.00     0.293 HD
ENDBRANCH  17  20
ENDBRANCH   1  12
BRANCH   2  22
ATOM     22  O   UNL     1      30.885  39.089  24.344  1.00  0.00    -0.502 OA
ATOM     23  H   UNL     1      30.672  39.871  23.736  1.00  0.00     0.293 HD
ENDBRANCH   2  22
BRANCH   6  24
ATOM     24  O   UNL     1      29.635  34.514  26.769  1.00  0.00    -0.507 OA
ATOM     25  H   UNL     1      30.642  34.491  26.829  1.00  0.00     0.293 HD
ENDBRANCH   6  24
BRANCH   8  26
ATOM     26  O   UNL     1      26.057  36.014  29.599  1.00  0.00    -0.508 OA
ATOM     27  H   UNL     1      25.915  36.592  30.419  1.00  0.00     0.293 HD
ENDBRANCH   8  26
TORSDOF 6
ENDMDL
MODEL 8
REMARK VINA RESULT:    -6.920      4.591      7.708
REMARK INTER + INTRA:          -8.640
REMARK INTER:                  -8.324
REMARK INTRA:                  -0.316
REMARK UNBOUND:                -0.304
REMARK SMILES O=c1c(O)c(-c2ccc(O)c(O)c2)oc2cc(O)cc(O)c12
REMARK SMILES IDX 5 1 3 2 2 3 1 4 22 5 20 6 19 7 17 8 16 9 15 10 14 11 6 12
REMARK SMILES IDX 7 13 8 14 9 15 13 16 11 17 10 18 12 20 4 22 21 24 18 26
REMARK H PARENT 10 19 12 21 4 23 21 25 18 27
REMARK Flexibility Score: inf
ROOT
ATOM      1  C   UNL     1      28.286  40.780  26.881  1.00  0.00     0.180 A 
ATOM      2  C   UNL     1      28.702  40.085  25.732  1.00  0.00     0.208 A 
ATOM      3  C   UNL     1      29.301  38.823  25.879  1.00  0.00     0.238 A 
ATOM      4  O   UNL     1      29.622  38.182  24.845  1.00  0.00    -0.285 OA
ATOM      5  C   UNL     1      29.491  38.280  27.172  1.00  0.00     0.111 A 
ATOM      6  C   UNL     1      30.123  37.029  27.441  1.00  0.00     0.134 A 
ATOM      7  C   UNL     1      30.141  36.531  28.750  1.00  0.00     0.093 A 
ATOM      8  C   UNL     1      29.606  37.269  29.808  1.00  0.00     0.123 A 
ATOM      9  C   UNL     1      29.040  38.519  29.564  1.00  0.00     0.094 A 
ATOM     10  C   UNL     1      28.975  39.026  28.265  1.00  0.00     0.146 A 
ATOM     11  O   UNL     1      28.418  40.216  28.075  1.00  0.00    -0.452 OA
ENDROOT
BRANCH   1  12
ATOM     12  C   UNL     1      27.669  42.125  26.808  1.00  0.00     0.025 A 
ATOM     13  C   UNL     1      28.454  43.283  26.676  1.00  0.00     0.016 A 
ATOM     14  C   UNL     1      27.851  44.543  26.634  1.00  0.00     0.051 A 
ATOM     15  C   UNL     1      26.459  44.666  26.735  1.00  0.00     0.157 A 
ATOM     16  C   UNL     1      26.275  42.254  26.931  1.00  0.00     0.062 A 
ATOM     17  C   UNL     1      25.669  43.514  26.888  1.00  0.00     0.158 A 
BRANCH  15  18
ATOM     18  O   UNL     1      25.861  45.924  26.690  1.00  0.00    -0.504 OA
ATOM     19  H   UNL     1      24.867  46.045  26.853  1.00  0.00     0.293 HD
ENDBRANCH  15  18
BRANCH  17  20
ATOM     20  O   UNL     1      24.281  43.602  26.998  1.00  0.00    -0.504 OA
ATOM     21  H   UNL     1      23.830  43.959  27.832  1.00  0.00     0.293 HD
ENDBRANCH  17  20
ENDBRANCH   1  12
BRANCH   2  22
ATOM     22  O   UNL     1      28.484  40.629  24.464  1.00  0.00    -0.502 OA
ATOM     23  H   UNL     1      29.005  41.427  24.118  1.00  0.00     0.293 HD
ENDBRANCH   2  22
BRANCH   6  24
ATOM     24  O   UNL     1      30.768  36.257  26.471  1.00  0.00    -0.507 OA
ATOM     25  H   UNL     1      31.733  36.367  26.196  1.00  0.00     0.293 HD
ENDBRANCH   6  24
BRANCH   8  26
ATOM     26  O   UNL     1      29.641  36.773  31.110  1.00  0.00    -0.508 OA
ATOM     27  H   UNL     1      30.156  35.932  31.343  1.00  0.00     0.293 HD
ENDBRANCH   8  26
TORSDOF 6
ENDMDL
MODEL 9
REMARK VINA RESULT:    -6.885      3.559      4.679
REMARK INTER + INTRA:          -8.598
REMARK INTER:                  -8.279
REMARK INTRA:                  -0.320
REMARK UNBOUND:                -0.304
REMARK SMILES O=c1c(O)c(-c2ccc(O)c(O)c2)oc2cc(O)cc(O)c12
REMARK SMILES IDX 5 1 3 2 2 3 1 4 22 5 20 6 19 7 17 8 16 9 15 10 14 11 6 12
REMARK SMILES IDX 7 13 8 14 9 15 13 16 11 17 10 18 12 20 4 22 21 24 18 26
REMARK H PARENT 10 19 12 21 4 23 21 25 18 27
REMARK Flexibility Score: inf
ROOT
ATOM      1  C   UNL     1      27.090  38.989  26.969  1.00  0.00     0.180 A 
ATOM      2  C   UNL     1      27.536  39.045  25.638  1.00  0.00     0.208 A 
ATOM      3  C   UNL     1      26.883  39.900  24.736  1.00  0.00     0.238 A 
ATOM      4  O   UNL     1      27.322  39.987  23.559  1.00  0.00    -0.285 OA
ATOM      5  C   UNL     1      25.782  40.676  25.171  1.00  0.00     0.111 A 
ATOM      6  C   UNL     1      25.020  41.545  24.334  1.00  0.00     0.134 A 
ATOM      7  C   UNL     1      24.034  42.362  24.901  1.00  0.00     0.093 A 
ATOM      8  C   UNL     1      23.739  42.293  26.265  1.00  0.00     0.123 A 
ATOM      9  C   UNL     1      24.437  41.404  27.080  1.00  0.00     0.094 A 
ATOM     10  C   UNL     1      25.450  40.603  26.551  1.00  0.00     0.146 A 
ATOM     11  O   UNL     1      26.097  39.777  27.364  1.00  0.00    -0.452 OA
ENDROOT
BRANCH   1  12
ATOM     12  C   UNL     1      27.712  38.094  27.972  1.00  0.00     0.025 A 
ATOM     13  C   UNL     1      28.761  38.535  28.796  1.00  0.00     0.016 A 
ATOM     14  C   UNL     1      29.349  37.665  29.718  1.00  0.00     0.051 A 
ATOM     15  C   UNL     1      28.907  36.339  29.821  1.00  0.00     0.157 A 
ATOM     16  C   UNL     1      27.287  36.758  28.064  1.00  0.00     0.062 A 
ATOM     17  C   UNL     1      27.873  35.884  28.987  1.00  0.00     0.158 A 
BRANCH  15  18
ATOM     18  O   UNL     1      29.494  35.474  30.743  1.00  0.00    -0.504 OA
ATOM     19  H   UNL     1      29.453  35.654  31.740  1.00  0.00     0.293 HD
ENDBRANCH  15  18
BRANCH  17  20
ATOM     20  O   UNL     1      27.414  34.569  29.059  1.00  0.00    -0.504 OA
ATOM     21  H   UNL     1      28.040  33.776  28.978  1.00  0.00     0.293 HD
ENDBRANCH  17  20
ENDBRANCH   1  12
BRANCH   2  22
ATOM     22  O   UNL     1      28.640  38.288  25.234  1.00  0.00    -0.502 OA
ATOM     23  H   UNL     1      29.412  38.078  25.856  1.00  0.00     0.293 HD
ENDBRANCH   2  22
BRANCH   6  24
ATOM     24  O   UNL     1      25.173  41.622  22.947  1.00  0.00    -0.507 OA
ATOM     25  H   UNL     1      26.018  41.910  22.476  1.00  0.00     0.293 HD
ENDBRANCH   6  24
BRANCH   8  26
ATOM     26  O   UNL     1      22.746  43.098  26.818  1.00  0.00    -0.508 OA
ATOM     27  H   UNL     1      21.830  43.178  26.393  1.00  0.00     0.293 HD
ENDBRANCH   8  26
TORSDOF 6
ENDMDL
