MODEL 1
REMARK VINA RESULT:    62.846      0.000      0.000
REMARK INTER + INTRA:          88.050
REMARK INTER:                  86.727
REMARK INTRA:                   1.324
REMARK UNBOUND:                 1.324
REMARK SMILES CC[C@@H](CC[C@H](C)[C@H]1CC[C@@H]2C3=CC[C@H]4C[C@@H](O)CC[C@@]4(C)[C@H]3CC[C@]21C)C(C)C
REMARK SMILES IDX 5 1 4 2 3 3 2 4 1 5 28 6 29 7 30 8 6 9 7 10 8 11 9 12 26 13
REMARK SMILES IDX 10 14 11 15 25 16 27 17 12 18 24 19 23 20 13 21 21 22 14 23
REMARK SMILES IDX 15 24 20 25 22 26 16 27 19 28 17 29 18 30
REMARK H PARENT 18 31
REMARK Flexibility Score: inf
ROOT
ATOM      1  C   UNL     1      -7.428   1.277  16.558  1.00  0.00     0.004 C 
ENDROOT
BRANCH   1   2
ATOM      2  C   UNL     1      -6.478   0.087  16.807  1.00  0.00     0.004 C 
BRANCH   2   3
ATOM      3  C   UNL     1      -6.325  -0.242  18.326  1.00  0.00    -0.009 C 
BRANCH   3   4
ATOM      4  C   UNL     1      -6.524   1.046  19.170  1.00  0.00     0.000 C 
ATOM      5  C   UNL     1      -6.608   2.326  18.334  1.00  0.00     0.004 C 
ENDBRANCH   3   4
BRANCH   3   6
ATOM      6  C   UNL     1      -5.000  -1.009  18.666  1.00  0.00    -0.014 C 
ATOM      7  C   UNL     1      -4.847  -1.260  20.173  1.00  0.00     0.007 C 
ATOM      8  C   UNL     1      -4.817  -2.324  17.888  1.00  0.00     0.007 C 
ENDBRANCH   3   6
ENDBRANCH   2   3
ENDBRANCH   1   2
BRANCH   1   9
ATOM      9  C   UNL     1      -8.890   0.834  16.258  1.00  0.00    -0.011 C 
ATOM     10  C   UNL     1      -9.785   1.032  17.501  1.00  0.00     0.008 C 
BRANCH   9  11
ATOM     11  C   UNL     1      -8.921  -0.623  15.669  1.00  0.00    -0.002 C 
ATOM     12  C   UNL     1      -8.973  -1.726  16.764  1.00  0.00     0.005 C 
ATOM     13  C   UNL     1     -10.068  -1.010  14.671  1.00  0.00    -0.023 C 
ATOM     14  C   UNL     1     -10.283  -2.506  16.579  1.00  0.00     0.009 C 
ATOM     15  C   UNL     1     -11.101  -1.672  15.598  1.00  0.00     0.021 C 
ATOM     16  C   UNL     1     -10.751   0.123  13.829  1.00  0.00     0.008 C 
ATOM     17  C   UNL     1      -9.468  -2.048  13.661  1.00  0.00     0.012 C 
ATOM     18  C   UNL     1     -12.205  -2.324  14.788  1.00  0.00    -0.067 C 
ATOM     19  C   UNL     1     -12.290  -0.040  13.679  1.00  0.00     0.009 C 
ATOM     20  C   UNL     1     -12.787  -1.520  13.632  1.00  0.00     0.021 C 
ATOM     21  C   UNL     1     -12.741  -3.508  15.125  1.00  0.00    -0.027 C 
ATOM     22  C   UNL     1     -14.352  -1.674  13.571  1.00  0.00    -0.023 C 
ATOM     23  C   UNL     1     -13.830  -4.161  14.320  1.00  0.00     0.031 C 
ATOM     24  C   UNL     1     -14.686  -3.205  13.428  1.00  0.00     0.002 C 
ATOM     25  C   UNL     1     -15.035  -1.090  14.849  1.00  0.00     0.010 C 
ATOM     26  C   UNL     1     -14.875  -0.917  12.316  1.00  0.00     0.012 C 
ATOM     27  C   UNL     1     -16.201  -3.512  13.581  1.00  0.00     0.036 C 
ATOM     28  C   UNL     1     -16.541  -1.379  14.908  1.00  0.00     0.032 C 
ATOM     29  C   UNL     1     -16.838  -2.881  14.831  1.00  0.00     0.114 C 
BRANCH  29  30
ATOM     30  O   UNL     1     -16.380  -3.524  15.994  1.00  0.00    -0.393 OA
ATOM     31  H   UNL     1     -17.013  -3.291  16.722  1.00  0.00     0.210 HD
ENDBRANCH  29  30
ENDBRANCH   9  11
ENDBRANCH   1   9
TORSDOF 7
ENDMDL
MODEL 2
REMARK VINA RESULT:    63.249      7.495     11.173
REMARK INTER + INTRA:          88.607
REMARK INTER:                  89.697
REMARK INTRA:                  -1.090
REMARK UNBOUND:                 1.324
REMARK SMILES CC[C@@H](CC[C@H](C)[C@H]1CC[C@@H]2C3=CC[C@H]4C[C@@H](O)CC[C@@]4(C)[C@H]3CC[C@]21C)C(C)C
REMARK SMILES IDX 5 1 4 2 3 3 2 4 1 5 28 6 29 7 30 8 6 9 7 10 8 11 9 12 26 13
REMARK SMILES IDX 10 14 11 15 25 16 27 17 12 18 24 19 23 20 13 21 21 22 14 23
REMARK SMILES IDX 15 24 20 25 22 26 16 27 19 28 17 29 18 30
REMARK H PARENT 18 31
REMARK Flexibility Score: inf
ROOT
ATOM      1  C   UNL     1     -15.832  -3.346  18.033  1.00  0.00     0.004 C 
ENDROOT
BRANCH   1   2
ATOM      2  C   UNL     1     -15.433  -3.639  16.572  1.00  0.00     0.004 C 
BRANCH   2   3
ATOM      3  C   UNL     1     -16.575  -3.293  15.564  1.00  0.00    -0.009 C 
BRANCH   3   4
ATOM      4  C   UNL     1     -15.985  -2.568  14.324  1.00  0.00     0.000 C 
ATOM      5  C   UNL     1     -14.915  -3.375  13.587  1.00  0.00     0.004 C 
ENDBRANCH   3   4
BRANCH   3   6
ATOM      6  C   UNL     1     -17.774  -2.526  16.221  1.00  0.00    -0.014 C 
ATOM      7  C   UNL     1     -17.930  -1.105  15.660  1.00  0.00     0.007 C 
ATOM      8  C   UNL     1     -19.117  -3.275  16.149  1.00  0.00     0.007 C 
ENDBRANCH   3   6
ENDBRANCH   2   3
ENDBRANCH   1   2
BRANCH   1   9
ATOM      9  C   UNL     1     -15.162  -4.316  19.050  1.00  0.00    -0.011 C 
ATOM     10  C   UNL     1     -14.026  -5.114  18.375  1.00  0.00     0.008 C 
BRANCH   9  11
ATOM     11  C   UNL     1     -16.241  -5.210  19.762  1.00  0.00    -0.002 C 
ATOM     12  C   UNL     1     -16.917  -6.232  18.805  1.00  0.00     0.005 C 
ATOM     13  C   UNL     1     -15.813  -6.065  21.006  1.00  0.00    -0.023 C 
ATOM     14  C   UNL     1     -16.598  -7.641  19.326  1.00  0.00     0.009 C 
ATOM     15  C   UNL     1     -15.510  -7.434  20.376  1.00  0.00     0.021 C 
ATOM     16  C   UNL     1     -14.591  -5.587  21.865  1.00  0.00     0.008 C 
ATOM     17  C   UNL     1     -17.055  -6.143  21.959  1.00  0.00     0.012 C 
ATOM     18  C   UNL     1     -15.289  -8.480  21.451  1.00  0.00    -0.067 C 
ATOM     19  C   UNL     1     -13.665  -6.741  22.343  1.00  0.00     0.009 C 
ATOM     20  C   UNL     1     -14.399  -8.091  22.625  1.00  0.00     0.021 C 
ATOM     21  C   UNL     1     -15.751  -9.735  21.340  1.00  0.00    -0.027 C 
ATOM     22  C   UNL     1     -13.441  -9.276  23.021  1.00  0.00    -0.023 C 
ATOM     23  C   UNL     1     -15.540 -10.772  22.408  1.00  0.00     0.031 C 
ATOM     24  C   UNL     1     -14.331 -10.527  23.368  1.00  0.00     0.002 C 
ATOM     25  C   UNL     1     -12.450  -9.623  21.865  1.00  0.00     0.010 C 
ATOM     26  C   UNL     1     -12.634  -8.859  24.284  1.00  0.00     0.012 C 
ATOM     27  C   UNL     1     -13.502 -11.827  23.558  1.00  0.00     0.036 C 
ATOM     28  C   UNL     1     -11.622 -10.884  22.144  1.00  0.00     0.032 C 
ATOM     29  C   UNL     1     -12.511 -12.103  22.416  1.00  0.00     0.114 C 
BRANCH  29  30
ATOM     30  O   UNL     1     -13.198 -12.469  21.246  1.00  0.00    -0.393 OA
ATOM     31  H   UNL     1     -12.971 -11.796  20.553  1.00  0.00     0.210 HD
ENDBRANCH  29  30
ENDBRANCH   9  11
ENDBRANCH   1   9
TORSDOF 7
ENDMDL
MODEL 3
REMARK VINA RESULT:    65.075      2.517      8.237
REMARK INTER + INTRA:          91.126
REMARK INTER:                  88.107
REMARK INTRA:                   3.019
REMARK UNBOUND:                 1.324
REMARK SMILES CC[C@@H](CC[C@H](C)[C@H]1CC[C@@H]2C3=CC[C@H]4C[C@@H](O)CC[C@@]4(C)[C@H]3CC[C@]21C)C(C)C
REMARK SMILES IDX 5 1 4 2 3 3 2 4 1 5 28 6 29 7 30 8 6 9 7 10 8 11 9 12 26 13
REMARK SMILES IDX 10 14 11 15 25 16 27 17 12 18 24 19 23 20 13 21 21 22 14 23
REMARK SMILES IDX 15 24 20 25 22 26 16 27 19 28 17 29 18 30
REMARK H PARENT 18 31
REMARK Flexibility Score: inf
ROOT
ATOM      1  C   UNL     1     -16.640  -1.891  14.722  1.00  0.00     0.004 C 
ENDROOT
BRANCH   1   2
ATOM      2  C   UNL     1     -16.266  -1.623  16.194  1.00  0.00     0.004 C 
BRANCH   2   3
ATOM      3  C   UNL     1     -17.201  -2.378  17.191  1.00  0.00    -0.009 C 
BRANCH   3   4
ATOM      4  C   UNL     1     -16.554  -3.726  17.608  1.00  0.00     0.000 C 
ATOM      5  C   UNL     1     -15.139  -3.583  18.174  1.00  0.00     0.004 C 
ENDBRANCH   3   4
BRANCH   3   6
ATOM      6  C   UNL     1     -18.672  -2.529  16.671  1.00  0.00    -0.014 C 
ATOM      7  C   UNL     1     -19.015  -1.490  15.593  1.00  0.00     0.007 C 
ATOM      8  C   UNL     1     -19.023  -3.943  16.175  1.00  0.00     0.007 C 
ENDBRANCH   3   6
ENDBRANCH   2   3
ENDBRANCH   1   2
BRANCH   1   9
ATOM      9  C   UNL     1     -16.049  -3.225  14.178  1.00  0.00    -0.011 C 
ATOM     10  C   UNL     1     -15.671  -4.166  15.342  1.00  0.00     0.008 C 
BRANCH   9  11
ATOM     11  C   UNL     1     -14.877  -2.945  13.170  1.00  0.00    -0.002 C 
ATOM     12  C   UNL     1     -14.982  -1.555  12.480  1.00  0.00     0.005 C 
ATOM     13  C   UNL     1     -13.399  -3.010  13.692  1.00  0.00    -0.023 C 
ATOM     14  C   UNL     1     -13.739  -0.744  12.874  1.00  0.00     0.009 C 
ATOM     15  C   UNL     1     -13.096  -1.537  14.008  1.00  0.00     0.021 C 
ATOM     16  C   UNL     1     -13.079  -3.904  14.941  1.00  0.00     0.008 C 
ATOM     17  C   UNL     1     -12.514  -3.527  12.506  1.00  0.00     0.012 C 
ATOM     18  C   UNL     1     -11.624  -1.349  14.322  1.00  0.00    -0.067 C 
ATOM     19  C   UNL     1     -12.062  -3.267  15.930  1.00  0.00     0.009 C 
ATOM     20  C   UNL     1     -10.979  -2.363  15.259  1.00  0.00     0.021 C 
ATOM     21  C   UNL     1     -10.929  -0.282  13.898  1.00  0.00    -0.027 C 
ATOM     22  C   UNL     1     -10.012  -1.651  16.277  1.00  0.00    -0.023 C 
ATOM     23  C   UNL     1      -9.468  -0.097  14.201  1.00  0.00     0.031 C 
ATOM     24  C   UNL     1      -8.927  -0.866  15.450  1.00  0.00     0.002 C 
ATOM     25  C   UNL     1     -10.785  -0.673  17.217  1.00  0.00     0.010 C 
ATOM     26  C   UNL     1      -9.308  -2.742  17.135  1.00  0.00     0.012 C 
ATOM     27  C   UNL     1      -8.045   0.060  16.332  1.00  0.00     0.036 C 
ATOM     28  C   UNL     1      -9.856   0.168  18.102  1.00  0.00     0.032 C 
ATOM     29  C   UNL     1      -8.851   0.973  17.271  1.00  0.00     0.114 C 
BRANCH  29  30
ATOM     30  O   UNL     1      -9.519   1.967  16.535  1.00  0.00    -0.393 OA
ATOM     31  H   UNL     1      -9.804   1.553  15.679  1.00  0.00     0.210 HD
ENDBRANCH  29  30
ENDBRANCH   9  11
ENDBRANCH   1   9
TORSDOF 7
ENDMDL
MODEL 4
REMARK VINA RESULT:    65.811      1.687      3.972
REMARK INTER + INTRA:          92.141
REMARK INTER:                  90.337
REMARK INTRA:                   1.805
REMARK UNBOUND:                 1.324
REMARK SMILES CC[C@@H](CC[C@H](C)[C@H]1CC[C@@H]2C3=CC[C@H]4C[C@@H](O)CC[C@@]4(C)[C@H]3CC[C@]21C)C(C)C
REMARK SMILES IDX 5 1 4 2 3 3 2 4 1 5 28 6 29 7 30 8 6 9 7 10 8 11 9 12 26 13
REMARK SMILES IDX 10 14 11 15 25 16 27 17 12 18 24 19 23 20 13 21 21 22 14 23
REMARK SMILES IDX 15 24 20 25 22 26 16 27 19 28 17 29 18 30
REMARK H PARENT 18 31
REMARK Flexibility Score: inf
ROOT
ATOM      1  C   UNL     1     -10.917  -1.166  14.836  1.00  0.00     0.004 C 
ENDROOT
BRANCH   1   2
ATOM      2  C   UNL     1      -9.412  -0.877  15.012  1.00  0.00     0.004 C 
BRANCH   2   3
ATOM      3  C   UNL     1      -9.064  -0.404  16.459  1.00  0.00    -0.009 C 
BRANCH   3   4
ATOM      4  C   UNL     1     -10.138   0.598  16.961  1.00  0.00     0.000 C 
ATOM      5  C   UNL     1      -9.605   1.629  17.959  1.00  0.00     0.004 C 
ENDBRANCH   3   4
BRANCH   3   6
ATOM      6  C   UNL     1      -7.598   0.133  16.602  1.00  0.00    -0.014 C 
ATOM      7  C   UNL     1      -7.561   1.612  17.014  1.00  0.00     0.007 C 
ATOM      8  C   UNL     1      -6.710  -0.702  17.542  1.00  0.00     0.007 C 
ENDBRANCH   3   6
ENDBRANCH   2   3
ENDBRANCH   1   2
BRANCH   1   9
ATOM      9  C   UNL     1     -11.486  -0.620  13.493  1.00  0.00    -0.011 C 
ATOM     10  C   UNL     1     -12.205   0.728  13.714  1.00  0.00     0.008 C 
BRANCH   9  11
ATOM     11  C   UNL     1     -12.366  -1.709  12.777  1.00  0.00    -0.002 C 
ATOM     12  C   UNL     1     -11.888  -3.162  13.057  1.00  0.00     0.005 C 
ATOM     13  C   UNL     1     -13.908  -1.743  13.065  1.00  0.00    -0.023 C 
ATOM     14  C   UNL     1     -13.028  -3.897  13.778  1.00  0.00     0.009 C 
ATOM     15  C   UNL     1     -14.012  -2.801  14.176  1.00  0.00     0.021 C 
ATOM     16  C   UNL     1     -14.621  -0.421  13.515  1.00  0.00     0.008 C 
ATOM     17  C   UNL     1     -14.610  -2.232  11.751  1.00  0.00     0.012 C 
ATOM     18  C   UNL     1     -15.463  -3.150  14.447  1.00  0.00    -0.067 C 
ATOM     19  C   UNL     1     -15.692  -0.625  14.623  1.00  0.00     0.009 C 
ATOM     20  C   UNL     1     -16.447  -1.991  14.554  1.00  0.00     0.021 C 
ATOM     21  C   UNL     1     -15.866  -4.405  14.697  1.00  0.00    -0.027 C 
ATOM     22  C   UNL     1     -17.464  -2.226  15.732  1.00  0.00    -0.023 C 
ATOM     23  C   UNL     1     -17.305  -4.755  14.959  1.00  0.00     0.031 C 
ATOM     24  C   UNL     1     -18.210  -3.587  15.469  1.00  0.00     0.002 C 
ATOM     25  C   UNL     1     -16.741  -2.267  17.116  1.00  0.00     0.010 C 
ATOM     26  C   UNL     1     -18.502  -1.067  15.728  1.00  0.00     0.012 C 
ATOM     27  C   UNL     1     -19.080  -4.044  16.671  1.00  0.00     0.036 C 
ATOM     28  C   UNL     1     -17.672  -2.668  18.267  1.00  0.00     0.032 C 
ATOM     29  C   UNL     1     -18.337  -4.027  18.017  1.00  0.00     0.114 C 
BRANCH  29  30
ATOM     30  O   UNL     1     -17.374  -5.050  18.061  1.00  0.00    -0.393 OA
ATOM     31  H   UNL     1     -17.834  -5.893  17.808  1.00  0.00     0.210 HD
ENDBRANCH  29  30
ENDBRANCH   9  11
ENDBRANCH   1   9
TORSDOF 7
ENDMDL
