MODEL 1
REMARK VINA RESULT:    -2.837      0.000      0.000
REMARK INTER + INTRA:         -13.542
REMARK INTER:                  -7.480
REMARK INTRA:                  -6.063
REMARK UNBOUND:                -6.063
REMARK SMILES CCCCCCCCCCCCCCCCCCCCCCCCCCCCCC(=O)[O-]
REMARK SMILES IDX 16 1 17 2 18 3 19 4 20 5 21 6 22 7 23 8 24 9 25 10 26 11
REMARK SMILES IDX 27 12 28 13 29 14 30 15 31 16 32 17 15 18 14 19 13 20 12 21
REMARK SMILES IDX 11 22 10 23 9 24 8 25 7 26 6 27 5 28 4 29 3 30 2 31 1 32
REMARK H PARENT
REMARK Flexibility Score: inf
ROOT
ATOM      1  C   UNL     1      64.834  31.932  59.567  1.00  0.00     0.000 C 
ENDROOT
BRANCH   1   2
ATOM      2  C   UNL     1      63.796  30.852  59.921  1.00  0.00     0.000 C 
BRANCH   2   3
ATOM      3  C   UNL     1      63.749  30.535  61.422  1.00  0.00     0.000 C 
BRANCH   3   4
ATOM      4  C   UNL     1      62.313  30.238  61.872  1.00  0.00     0.000 C 
BRANCH   4   5
ATOM      5  C   UNL     1      61.345  31.334  61.399  1.00  0.00     0.000 C 
BRANCH   5   6
ATOM      6  C   UNL     1      60.213  30.786  60.514  1.00  0.00     0.000 C 
BRANCH   6   7
ATOM      7  C   UNL     1      59.781  29.341  60.826  1.00  0.00     0.000 C 
BRANCH   7   8
ATOM      8  C   UNL     1      59.773  28.407  59.597  1.00  0.00     0.000 C 
BRANCH   8   9
ATOM      9  C   UNL     1      61.095  28.458  58.811  1.00  0.00     0.000 C 
BRANCH   9  10
ATOM     10  C   UNL     1      61.863  27.126  58.870  1.00  0.00     0.000 C 
BRANCH  10  11
ATOM     11  C   UNL     1      63.296  27.301  59.405  1.00  0.00     0.000 C 
BRANCH  11  12
ATOM     12  C   UNL     1      63.443  26.834  60.862  1.00  0.00     0.000 C 
BRANCH  12  13
ATOM     13  C   UNL     1      62.219  26.035  61.348  1.00  0.00     0.006 C 
BRANCH  13  14
ATOM     14  C   UNL     1      61.593  26.644  62.611  1.00  0.00     0.053 C 
BRANCH  14  15
ATOM     15  C   UNL     1      60.368  25.896  63.042  1.00  0.00     0.041 C 
ATOM     16  O   UNL     1      59.245  26.176  62.541  1.00  0.00    -0.550 OA
ATOM     17  O   UNL     1      60.465  24.883  63.990  1.00  0.00    -0.550 OA
ENDBRANCH  14  15
ENDBRANCH  13  14
ENDBRANCH  12  13
ENDBRANCH  11  12
ENDBRANCH  10  11
ENDBRANCH   9  10
ENDBRANCH   8   9
ENDBRANCH   7   8
ENDBRANCH   6   7
ENDBRANCH   5   6
ENDBRANCH   4   5
ENDBRANCH   3   4
ENDBRANCH   2   3
ENDBRANCH   1   2
BRANCH   1  18
ATOM     18  C   UNL     1      64.264  33.357  59.419  1.00  0.00     0.000 C 
BRANCH  18  19
ATOM     19  C   UNL     1      64.147  34.156  60.732  1.00  0.00     0.000 C 
BRANCH  19  20
ATOM     20  C   UNL     1      62.757  34.763  61.010  1.00  0.00     0.000 C 
BRANCH  20  21
ATOM     21  C   UNL     1      62.755  36.262  61.362  1.00  0.00     0.000 C 
BRANCH  21  22
ATOM     22  C   UNL     1      61.649  37.044  60.633  1.00  0.00     0.000 C 
BRANCH  22  23
ATOM     23  C   UNL     1      60.372  36.210  60.435  1.00  0.00     0.000 C 
BRANCH  23  24
ATOM     24  C   UNL     1      59.922  36.160  58.964  1.00  0.00    -0.000 C 
BRANCH  24  25
ATOM     25  C   UNL     1      61.102  36.236  57.978  1.00  0.00    -0.000 C 
BRANCH  25  26
ATOM     26  C   UNL     1      61.617  34.870  57.483  1.00  0.00    -0.000 C 
BRANCH  26  27
ATOM     27  C   UNL     1      60.784  33.673  57.993  1.00  0.00    -0.000 C 
BRANCH  27  28
ATOM     28  C   UNL     1      61.308  32.317  57.487  1.00  0.00    -0.000 C 
BRANCH  28  29
ATOM     29  C   UNL     1      61.749  32.383  56.015  1.00  0.00    -0.000 C 
BRANCH  29  30
ATOM     30  C   UNL     1      62.221  31.024  55.470  1.00  0.00    -0.000 C 
BRANCH  30  31
ATOM     31  C   UNL     1      63.227  30.283  56.368  1.00  0.00    -0.003 C 
ATOM     32  C   UNL     1      64.681  30.646  56.068  1.00  0.00     0.004 C 
ENDBRANCH  30  31
ENDBRANCH  29  30
ENDBRANCH  28  29
ENDBRANCH  27  28
ENDBRANCH  26  27
ENDBRANCH  25  26
ENDBRANCH  24  25
ENDBRANCH  23  24
ENDBRANCH  22  23
ENDBRANCH  21  22
ENDBRANCH  20  21
ENDBRANCH  19  20
ENDBRANCH  18  19
ENDBRANCH   1  18
TORSDOF 28
ENDMDL
MODEL 2
REMARK VINA RESULT:    -2.827      5.214      7.654
REMARK INTER + INTRA:         -13.517
REMARK INTER:                  -9.760
REMARK INTRA:                  -3.757
REMARK UNBOUND:                -6.063
REMARK SMILES CCCCCCCCCCCCCCCCCCCCCCCCCCCCCC(=O)[O-]
REMARK SMILES IDX 16 1 17 2 18 3 19 4 20 5 21 6 22 7 23 8 24 9 25 10 26 11
REMARK SMILES IDX 27 12 28 13 29 14 30 15 31 16 32 17 15 18 14 19 13 20 12 21
REMARK SMILES IDX 11 22 10 23 9 24 8 25 7 26 6 27 5 28 4 29 3 30 2 31 1 32
REMARK H PARENT
REMARK Flexibility Score: inf
ROOT
ATOM      1  C   UNL     1      64.499  33.699  59.551  1.00  0.00     0.000 C 
ENDROOT
BRANCH   1   2
ATOM      2  C   UNL     1      64.769  32.230  59.180  1.00  0.00     0.000 C 
BRANCH   2   3
ATOM      3  C   UNL     1      64.513  31.261  60.344  1.00  0.00     0.000 C 
BRANCH   3   4
ATOM      4  C   UNL     1      64.977  29.844  59.985  1.00  0.00     0.000 C 
BRANCH   4   5
ATOM      5  C   UNL     1      65.423  29.072  61.236  1.00  0.00     0.000 C 
BRANCH   5   6
ATOM      6  C   UNL     1      66.657  28.190  60.983  1.00  0.00     0.000 C 
BRANCH   6   7
ATOM      7  C   UNL     1      67.987  28.761  61.511  1.00  0.00     0.000 C 
BRANCH   7   8
ATOM      8  C   UNL     1      68.756  29.618  60.483  1.00  0.00     0.000 C 
BRANCH   8   9
ATOM      9  C   UNL     1      70.282  29.519  60.660  1.00  0.00     0.000 C 
BRANCH   9  10
ATOM     10  C   UNL     1      70.829  30.577  61.634  1.00  0.00     0.000 C 
BRANCH  10  11
ATOM     11  C   UNL     1      71.904  31.468  60.985  1.00  0.00     0.000 C 
BRANCH  11  12
ATOM     12  C   UNL     1      72.242  31.035  59.550  1.00  0.00     0.000 C 
BRANCH  12  13
ATOM     13  C   UNL     1      71.980  32.151  58.523  1.00  0.00     0.006 C 
BRANCH  13  14
ATOM     14  C   UNL     1      70.704  32.945  58.841  1.00  0.00     0.053 C 
BRANCH  14  15
ATOM     15  C   UNL     1      70.812  34.374  58.401  1.00  0.00     0.041 C 
ATOM     16  O   UNL     1      70.247  35.285  59.063  1.00  0.00    -0.550 OA
ATOM     17  O   UNL     1      71.543  34.702  57.265  1.00  0.00    -0.550 OA
ENDBRANCH  14  15
ENDBRANCH  13  14
ENDBRANCH  12  13
ENDBRANCH  11  12
ENDBRANCH  10  11
ENDBRANCH   9  10
ENDBRANCH   8   9
ENDBRANCH   7   8
ENDBRANCH   6   7
ENDBRANCH   5   6
ENDBRANCH   4   5
ENDBRANCH   3   4
ENDBRANCH   2   3
ENDBRANCH   1   2
BRANCH   1  18
ATOM     18  C   UNL     1      63.944  33.920  60.972  1.00  0.00     0.000 C 
BRANCH  18  19
ATOM     19  C   UNL     1      64.049  35.365  61.499  1.00  0.00     0.000 C 
BRANCH  19  20
ATOM     20  C   UNL     1      62.876  36.291  61.115  1.00  0.00     0.000 C 
BRANCH  20  21
ATOM     21  C   UNL     1      61.587  35.568  60.682  1.00  0.00     0.000 C 
BRANCH  21  22
ATOM     22  C   UNL     1      61.267  35.760  59.190  1.00  0.00     0.000 C 
BRANCH  22  23
ATOM     23  C   UNL     1      61.284  34.436  58.408  1.00  0.00     0.000 C 
BRANCH  23  24
ATOM     24  C   UNL     1      60.225  33.440  58.910  1.00  0.00    -0.000 C 
BRANCH  24  25
ATOM     25  C   UNL     1      60.844  32.183  59.548  1.00  0.00    -0.000 C 
BRANCH  25  26
ATOM     26  C   UNL     1      60.877  32.193  61.089  1.00  0.00    -0.000 C 
BRANCH  26  27
ATOM     27  C   UNL     1      61.077  30.793  61.712  1.00  0.00    -0.000 C 
BRANCH  27  28
ATOM     28  C   UNL     1      60.514  29.659  60.837  1.00  0.00    -0.000 C 
BRANCH  28  29
ATOM     29  C   UNL     1      61.611  28.676  60.392  1.00  0.00    -0.000 C 
BRANCH  29  30
ATOM     30  C   UNL     1      61.958  27.638  61.474  1.00  0.00    -0.000 C 
BRANCH  30  31
ATOM     31  C   UNL     1      62.806  26.452  60.981  1.00  0.00    -0.003 C 
ATOM     32  C   UNL     1      62.613  25.188  61.817  1.00  0.00     0.004 C 
ENDBRANCH  30  31
ENDBRANCH  29  30
ENDBRANCH  28  29
ENDBRANCH  27  28
ENDBRANCH  26  27
ENDBRANCH  25  26
ENDBRANCH  24  25
ENDBRANCH  23  24
ENDBRANCH  22  23
ENDBRANCH  21  22
ENDBRANCH  20  21
ENDBRANCH  19  20
ENDBRANCH  18  19
ENDBRANCH   1  18
TORSDOF 28
ENDMDL
MODEL 3
REMARK VINA RESULT:    -2.808      2.304      6.414
REMARK INTER + INTRA:         -13.467
REMARK INTER:                  -7.775
REMARK INTRA:                  -5.692
REMARK UNBOUND:                -6.063
REMARK SMILES CCCCCCCCCCCCCCCCCCCCCCCCCCCCCC(=O)[O-]
REMARK SMILES IDX 16 1 17 2 18 3 19 4 20 5 21 6 22 7 23 8 24 9 25 10 26 11
REMARK SMILES IDX 27 12 28 13 29 14 30 15 31 16 32 17 15 18 14 19 13 20 12 21
REMARK SMILES IDX 11 22 10 23 9 24 8 25 7 26 6 27 5 28 4 29 3 30 2 31 1 32
REMARK H PARENT
REMARK Flexibility Score: inf
ROOT
ATOM      1  C   UNL     1      62.468  32.798  60.039  1.00  0.00     0.000 C 
ENDROOT
BRANCH   1   2
ATOM      2  C   UNL     1      63.773  33.259  60.714  1.00  0.00     0.000 C 
BRANCH   2   3
ATOM      3  C   UNL     1      64.190  34.679  60.306  1.00  0.00     0.000 C 
BRANCH   3   4
ATOM      4  C   UNL     1      64.439  35.551  61.543  1.00  0.00     0.000 C 
BRANCH   4   5
ATOM      5  C   UNL     1      63.280  36.533  61.772  1.00  0.00     0.000 C 
BRANCH   5   6
ATOM      6  C   UNL     1      62.452  36.784  60.501  1.00  0.00     0.000 C 
BRANCH   6   7
ATOM      7  C   UNL     1      60.926  36.673  60.684  1.00  0.00     0.000 C 
BRANCH   7   8
ATOM      8  C   UNL     1      60.206  35.933  59.536  1.00  0.00     0.000 C 
BRANCH   8   9
ATOM      9  C   UNL     1      60.998  35.984  58.217  1.00  0.00     0.000 C 
BRANCH   9  10
ATOM     10  C   UNL     1      60.934  34.657  57.443  1.00  0.00     0.000 C 
BRANCH  10  11
ATOM     11  C   UNL     1      59.675  33.840  57.787  1.00  0.00     0.000 C 
BRANCH  11  12
ATOM     12  C   UNL     1      59.668  32.457  57.117  1.00  0.00     0.000 C 
BRANCH  12  13
ATOM     13  C   UNL     1      59.077  31.366  58.029  1.00  0.00     0.006 C 
BRANCH  13  14
ATOM     14  C   UNL     1      58.552  30.164  57.231  1.00  0.00     0.053 C 
BRANCH  14  15
ATOM     15  C   UNL     1      58.397  28.947  58.092  1.00  0.00     0.041 C 
ATOM     16  O   UNL     1      58.655  27.805  57.627  1.00  0.00    -0.550 OA
ATOM     17  O   UNL     1      57.976  29.074  59.411  1.00  0.00    -0.550 OA
ENDBRANCH  14  15
ENDBRANCH  13  14
ENDBRANCH  12  13
ENDBRANCH  11  12
ENDBRANCH  10  11
ENDBRANCH   9  10
ENDBRANCH   8   9
ENDBRANCH   7   8
ENDBRANCH   6   7
ENDBRANCH   5   6
ENDBRANCH   4   5
ENDBRANCH   3   4
ENDBRANCH   2   3
ENDBRANCH   1   2
BRANCH   1  18
ATOM     18  C   UNL     1      61.255  32.677  60.983  1.00  0.00     0.000 C 
BRANCH  18  19
ATOM     19  C   UNL     1      60.832  31.235  61.325  1.00  0.00     0.000 C 
BRANCH  19  20
ATOM     20  C   UNL     1      61.942  30.350  61.926  1.00  0.00     0.000 C 
BRANCH  20  21
ATOM     21  C   UNL     1      62.041  28.931  61.333  1.00  0.00     0.000 C 
BRANCH  21  22
ATOM     22  C   UNL     1      61.474  28.841  59.907  1.00  0.00     0.000 C 
BRANCH  22  23
ATOM     23  C   UNL     1      62.576  28.753  58.838  1.00  0.00     0.000 C 
BRANCH  23  24
ATOM     24  C   UNL     1      62.416  29.814  57.736  1.00  0.00    -0.000 C 
BRANCH  24  25
ATOM     25  C   UNL     1      63.714  30.597  57.470  1.00  0.00    -0.000 C 
BRANCH  25  26
ATOM     26  C   UNL     1      64.914  29.730  57.040  1.00  0.00    -0.000 C 
BRANCH  26  27
ATOM     27  C   UNL     1      65.853  29.351  58.208  1.00  0.00    -0.000 C 
BRANCH  27  28
ATOM     28  C   UNL     1      65.999  30.474  59.250  1.00  0.00    -0.000 C 
BRANCH  28  29
ATOM     29  C   UNL     1      65.557  30.020  60.652  1.00  0.00    -0.000 C 
BRANCH  29  30
ATOM     30  C   UNL     1      66.349  28.805  61.164  1.00  0.00    -0.000 C 
BRANCH  30  31
ATOM     31  C   UNL     1      67.793  29.111  61.596  1.00  0.00    -0.003 C 
ATOM     32  C   UNL     1      68.840  28.504  60.663  1.00  0.00     0.004 C 
ENDBRANCH  30  31
ENDBRANCH  29  30
ENDBRANCH  28  29
ENDBRANCH  27  28
ENDBRANCH  26  27
ENDBRANCH  25  26
ENDBRANCH  24  25
ENDBRANCH  23  24
ENDBRANCH  22  23
ENDBRANCH  21  22
ENDBRANCH  20  21
ENDBRANCH  19  20
ENDBRANCH  18  19
ENDBRANCH   1  18
TORSDOF 28
ENDMDL
MODEL 4
REMARK VINA RESULT:    -2.803      8.553     11.676
REMARK INTER + INTRA:         -13.454
REMARK INTER:                  -7.672
REMARK INTRA:                  -5.782
REMARK UNBOUND:                -6.063
REMARK SMILES CCCCCCCCCCCCCCCCCCCCCCCCCCCCCC(=O)[O-]
REMARK SMILES IDX 16 1 17 2 18 3 19 4 20 5 21 6 22 7 23 8 24 9 25 10 26 11
REMARK SMILES IDX 27 12 28 13 29 14 30 15 31 16 32 17 15 18 14 19 13 20 12 21
REMARK SMILES IDX 11 22 10 23 9 24 8 25 7 26 6 27 5 28 4 29 3 30 2 31 1 32
REMARK H PARENT
REMARK Flexibility Score: inf
ROOT
ATOM      1  C   UNL     1      57.408  29.423  52.798  1.00  0.00     0.000 C 
ENDROOT
BRANCH   1   2
ATOM      2  C   UNL     1      58.060  30.023  51.541  1.00  0.00     0.000 C 
BRANCH   2   3
ATOM      3  C   UNL     1      57.745  29.230  50.265  1.00  0.00     0.000 C 
BRANCH   3   4
ATOM      4  C   UNL     1      58.899  29.334  49.259  1.00  0.00     0.000 C 
BRANCH   4   5
ATOM      5  C   UNL     1      59.517  27.956  48.977  1.00  0.00     0.000 C 
BRANCH   5   6
ATOM      6  C   UNL     1      58.703  26.803  49.587  1.00  0.00     0.000 C 
BRANCH   6   7
ATOM      7  C   UNL     1      59.542  25.657  50.183  1.00  0.00     0.000 C 
BRANCH   7   8
ATOM      8  C   UNL     1      59.061  25.181  51.571  1.00  0.00     0.000 C 
BRANCH   8   9
ATOM      9  C   UNL     1      59.939  25.721  52.714  1.00  0.00     0.000 C 
BRANCH   9  10
ATOM     10  C   UNL     1      61.354  26.094  52.240  1.00  0.00     0.000 C 
BRANCH  10  11
ATOM     11  C   UNL     1      61.735  27.537  52.618  1.00  0.00     0.000 C 
BRANCH  11  12
ATOM     12  C   UNL     1      62.225  28.353  51.411  1.00  0.00     0.000 C 
BRANCH  12  13
ATOM     13  C   UNL     1      61.704  29.802  51.432  1.00  0.00     0.006 C 
BRANCH  13  14
ATOM     14  C   UNL     1      62.817  30.823  51.155  1.00  0.00     0.053 C 
BRANCH  14  15
ATOM     15  C   UNL     1      62.803  31.292  49.731  1.00  0.00     0.041 C 
ATOM     16  O   UNL     1      63.503  30.704  48.864  1.00  0.00    -0.550 OA
ATOM     17  O   UNL     1      62.010  32.371  49.359  1.00  0.00    -0.550 OA
ENDBRANCH  14  15
ENDBRANCH  13  14
ENDBRANCH  12  13
ENDBRANCH  11  12
ENDBRANCH  10  11
ENDBRANCH   9  10
ENDBRANCH   8   9
ENDBRANCH   7   8
ENDBRANCH   6   7
ENDBRANCH   5   6
ENDBRANCH   4   5
ENDBRANCH   3   4
ENDBRANCH   2   3
ENDBRANCH   1   2
BRANCH   1  18
ATOM     18  C   UNL     1      56.959  27.954  52.660  1.00  0.00     0.000 C 
BRANCH  18  19
ATOM     19  C   UNL     1      55.817  27.526  53.603  1.00  0.00     0.000 C 
BRANCH  19  20
ATOM     20  C   UNL     1      54.829  26.499  53.013  1.00  0.00     0.000 C 
BRANCH  20  21
ATOM     21  C   UNL     1      55.327  25.759  51.758  1.00  0.00     0.000 C 
BRANCH  21  22
ATOM     22  C   UNL     1      54.387  25.930  50.553  1.00  0.00     0.000 C 
BRANCH  22  23
ATOM     23  C   UNL     1      54.714  27.183  49.723  1.00  0.00     0.000 C 
BRANCH  23  24
ATOM     24  C   UNL     1      53.671  28.299  49.902  1.00  0.00    -0.000 C 
BRANCH  24  25
ATOM     25  C   UNL     1      54.274  29.590  50.485  1.00  0.00    -0.000 C 
BRANCH  25  26
ATOM     26  C   UNL     1      53.318  30.400  51.383  1.00  0.00    -0.000 C 
BRANCH  26  27
ATOM     27  C   UNL     1      53.476  30.093  52.889  1.00  0.00    -0.000 C 
BRANCH  27  28
ATOM     28  C   UNL     1      54.172  31.226  53.664  1.00  0.00    -0.000 C 
BRANCH  28  29
ATOM     29  C   UNL     1      54.366  32.482  52.797  1.00  0.00    -0.000 C 
BRANCH  29  30
ATOM     30  C   UNL     1      55.440  33.433  53.353  1.00  0.00    -0.000 C 
BRANCH  30  31
ATOM     31  C   UNL     1      56.735  32.744  53.816  1.00  0.00    -0.003 C 
ATOM     32  C   UNL     1      57.996  33.382  53.234  1.00  0.00     0.004 C 
ENDBRANCH  30  31
ENDBRANCH  29  30
ENDBRANCH  28  29
ENDBRANCH  27  28
ENDBRANCH  26  27
ENDBRANCH  25  26
ENDBRANCH  24  25
ENDBRANCH  23  24
ENDBRANCH  22  23
ENDBRANCH  21  22
ENDBRANCH  20  21
ENDBRANCH  19  20
ENDBRANCH  18  19
ENDBRANCH   1  18
TORSDOF 28
ENDMDL
MODEL 5
REMARK VINA RESULT:    -2.714      3.658      5.049
REMARK INTER + INTRA:         -13.219
REMARK INTER:                  -7.194
REMARK INTRA:                  -6.024
REMARK UNBOUND:                -6.063
REMARK SMILES CCCCCCCCCCCCCCCCCCCCCCCCCCCCCC(=O)[O-]
REMARK SMILES IDX 16 1 17 2 18 3 19 4 20 5 21 6 22 7 23 8 24 9 25 10 26 11
REMARK SMILES IDX 27 12 28 13 29 14 30 15 31 16 32 17 15 18 14 19 13 20 12 21
REMARK SMILES IDX 11 22 10 23 9 24 8 25 7 26 6 27 5 28 4 29 3 30 2 31 1 32
REMARK H PARENT
REMARK Flexibility Score: inf
ROOT
ATOM      1  C   UNL     1      63.214  32.318  58.442  1.00  0.00     0.000 C 
ENDROOT
BRANCH   1   2
ATOM      2  C   UNL     1      64.018  32.223  59.750  1.00  0.00     0.000 C 
BRANCH   2   3
ATOM      3  C   UNL     1      63.136  32.309  61.004  1.00  0.00     0.000 C 
BRANCH   3   4
ATOM      4  C   UNL     1      61.652  32.375  60.623  1.00  0.00     0.000 C 
BRANCH   4   5
ATOM      5  C   UNL     1      60.803  31.478  61.537  1.00  0.00     0.000 C 
BRANCH   5   6
ATOM      6  C   UNL     1      61.129  29.984  61.375  1.00  0.00     0.000 C 
BRANCH   6   7
ATOM      7  C   UNL     1      61.264  29.500  59.919  1.00  0.00     0.000 C 
BRANCH   7   8
ATOM      8  C   UNL     1      62.487  28.593  59.667  1.00  0.00     0.000 C 
BRANCH   8   9
ATOM      9  C   UNL     1      63.459  28.573  60.861  1.00  0.00     0.000 C 
BRANCH   9  10
ATOM     10  C   UNL     1      64.909  28.296  60.431  1.00  0.00     0.000 C 
BRANCH  10  11
ATOM     11  C   UNL     1      65.893  29.344  60.982  1.00  0.00     0.000 C 
BRANCH  11  12
ATOM     12  C   UNL     1      67.136  29.512  60.094  1.00  0.00     0.000 C 
BRANCH  12  13
ATOM     13  C   UNL     1      66.800  30.137  58.727  1.00  0.00     0.006 C 
BRANCH  13  14
ATOM     14  C   UNL     1      67.839  31.182  58.295  1.00  0.00     0.053 C 
BRANCH  14  15
ATOM     15  C   UNL     1      69.241  30.674  58.454  1.00  0.00     0.041 C 
ATOM     16  O   UNL     1      69.661  29.737  57.723  1.00  0.00    -0.550 OA
ATOM     17  O   UNL     1      70.086  31.240  59.402  1.00  0.00    -0.550 OA
ENDBRANCH  14  15
ENDBRANCH  13  14
ENDBRANCH  12  13
ENDBRANCH  11  12
ENDBRANCH  10  11
ENDBRANCH   9  10
ENDBRANCH   8   9
ENDBRANCH   7   8
ENDBRANCH   6   7
ENDBRANCH   5   6
ENDBRANCH   4   5
ENDBRANCH   3   4
ENDBRANCH   2   3
ENDBRANCH   1   2
BRANCH   1  18
ATOM     18  C   UNL     1      63.846  33.207  57.352  1.00  0.00     0.000 C 
BRANCH  18  19
ATOM     19  C   UNL     1      64.637  34.423  57.875  1.00  0.00     0.000 C 
BRANCH  19  20
ATOM     20  C   UNL     1      63.886  35.768  57.817  1.00  0.00     0.000 C 
BRANCH  20  21
ATOM     21  C   UNL     1      64.058  36.667  59.056  1.00  0.00     0.000 C 
BRANCH  21  22
ATOM     22  C   UNL     1      64.499  35.883  60.304  1.00  0.00     0.000 C 
BRANCH  22  23
ATOM     23  C   UNL     1      63.421  35.869  61.402  1.00  0.00     0.000 C 
BRANCH  23  24
ATOM     24  C   UNL     1      62.254  36.823  61.096  1.00  0.00    -0.000 C 
BRANCH  24  25
ATOM     25  C   UNL     1      60.963  36.080  60.708  1.00  0.00    -0.000 C 
BRANCH  25  26
ATOM     26  C   UNL     1      60.046  36.847  59.735  1.00  0.00    -0.000 C 
BRANCH  26  27
ATOM     27  C   UNL     1      59.961  36.207  58.331  1.00  0.00    -0.000 C 
BRANCH  27  28
ATOM     28  C   UNL     1      60.424  34.740  58.309  1.00  0.00    -0.000 C 
BRANCH  28  29
ATOM     29  C   UNL     1      60.189  34.082  56.939  1.00  0.00    -0.000 C 
BRANCH  29  30
ATOM     30  C   UNL     1      59.799  32.597  57.048  1.00  0.00    -0.000 C 
BRANCH  30  31
ATOM     31  C   UNL     1      58.759  32.281  58.137  1.00  0.00    -0.003 C 
ATOM     32  C   UNL     1      58.375  30.803  58.189  1.00  0.00     0.004 C 
ENDBRANCH  30  31
ENDBRANCH  29  30
ENDBRANCH  28  29
ENDBRANCH  27  28
ENDBRANCH  26  27
ENDBRANCH  25  26
ENDBRANCH  24  25
ENDBRANCH  23  24
ENDBRANCH  22  23
ENDBRANCH  21  22
ENDBRANCH  20  21
ENDBRANCH  19  20
ENDBRANCH  18  19
ENDBRANCH   1  18
TORSDOF 28
ENDMDL
MODEL 6
REMARK VINA RESULT:    -2.702      7.783     11.183
REMARK INTER + INTRA:         -13.189
REMARK INTER:                  -7.000
REMARK INTRA:                  -6.189
REMARK UNBOUND:                -6.063
REMARK SMILES CCCCCCCCCCCCCCCCCCCCCCCCCCCCCC(=O)[O-]
REMARK SMILES IDX 16 1 17 2 18 3 19 4 20 5 21 6 22 7 23 8 24 9 25 10 26 11
REMARK SMILES IDX 27 12 28 13 29 14 30 15 31 16 32 17 15 18 14 19 13 20 12 21
REMARK SMILES IDX 11 22 10 23 9 24 8 25 7 26 6 27 5 28 4 29 3 30 2 31 1 32
REMARK H PARENT
REMARK Flexibility Score: inf
ROOT
ATOM      1  C   UNL     1      59.626  27.799  53.843  1.00  0.00     0.000 C 
ENDROOT
BRANCH   1   2
ATOM      2  C   UNL     1      58.395  26.876  53.794  1.00  0.00     0.000 C 
BRANCH   2   3
ATOM      3  C   UNL     1      57.067  27.645  53.815  1.00  0.00     0.000 C 
BRANCH   3   4
ATOM      4  C   UNL     1      55.924  26.775  53.276  1.00  0.00     0.000 C 
BRANCH   4   5
ATOM      5  C   UNL     1      56.282  26.173  51.909  1.00  0.00     0.000 C 
BRANCH   5   6
ATOM      6  C   UNL     1      55.049  25.941  51.020  1.00  0.00     0.000 C 
BRANCH   6   7
ATOM      7  C   UNL     1      54.971  26.833  49.767  1.00  0.00     0.000 C 
BRANCH   7   8
ATOM      8  C   UNL     1      53.790  27.827  49.774  1.00  0.00     0.000 C 
BRANCH   8   9
ATOM      9  C   UNL     1      54.203  29.227  50.265  1.00  0.00     0.000 C 
BRANCH   9  10
ATOM     10  C   UNL     1      53.950  29.418  51.770  1.00  0.00     0.000 C 
BRANCH  10  11
ATOM     11  C   UNL     1      54.528  30.745  52.295  1.00  0.00     0.000 C 
BRANCH  11  12
ATOM     12  C   UNL     1      54.808  30.709  53.806  1.00  0.00     0.000 C 
BRANCH  12  13
ATOM     13  C   UNL     1      56.214  31.231  54.156  1.00  0.00     0.006 C 
BRANCH  13  14
ATOM     14  C   UNL     1      56.600  32.460  53.321  1.00  0.00     0.053 C 
BRANCH  14  15
ATOM     15  C   UNL     1      56.237  33.740  54.010  1.00  0.00     0.041 C 
ATOM     16  O   UNL     1      55.079  34.222  53.883  1.00  0.00    -0.550 OA
ATOM     17  O   UNL     1      57.173  34.397  54.801  1.00  0.00    -0.550 OA
ENDBRANCH  14  15
ENDBRANCH  13  14
ENDBRANCH  12  13
ENDBRANCH  11  12
ENDBRANCH  10  11
ENDBRANCH   9  10
ENDBRANCH   8   9
ENDBRANCH   7   8
ENDBRANCH   6   7
ENDBRANCH   5   6
ENDBRANCH   4   5
ENDBRANCH   3   4
ENDBRANCH   2   3
ENDBRANCH   1   2
BRANCH   1  18
ATOM     18  C   UNL     1      59.321  29.272  54.183  1.00  0.00     0.000 C 
BRANCH  18  19
ATOM     19  C   UNL     1      59.684  30.287  53.081  1.00  0.00     0.000 C 
BRANCH  19  20
ATOM     20  C   UNL     1      59.492  29.784  51.636  1.00  0.00     0.000 C 
BRANCH  20  21
ATOM     21  C   UNL     1      58.031  29.727  51.151  1.00  0.00     0.000 C 
BRANCH  21  22
ATOM     22  C   UNL     1      57.881  29.019  49.794  1.00  0.00     0.000 C 
BRANCH  22  23
ATOM     23  C   UNL     1      59.140  28.228  49.399  1.00  0.00     0.000 C 
BRANCH  23  24
ATOM     24  C   UNL     1      58.904  26.708  49.394  1.00  0.00    -0.000 C 
BRANCH  24  25
ATOM     25  C   UNL     1      59.642  25.987  50.537  1.00  0.00    -0.000 C 
BRANCH  25  26
ATOM     26  C   UNL     1      60.928  25.251  50.110  1.00  0.00    -0.000 C 
BRANCH  26  27
ATOM     27  C   UNL     1      62.191  25.724  50.865  1.00  0.00    -0.000 C 
BRANCH  27  28
ATOM     28  C   UNL     1      62.132  27.210  51.262  1.00  0.00    -0.000 C 
BRANCH  28  29
ATOM     29  C   UNL     1      63.168  28.051  50.498  1.00  0.00    -0.000 C 
BRANCH  29  30
ATOM     30  C   UNL     1      62.807  28.242  49.014  1.00  0.00    -0.000 C 
BRANCH  30  31
ATOM     31  C   UNL     1      63.969  28.012  48.032  1.00  0.00    -0.003 C 
ATOM     32  C   UNL     1      65.019  27.037  48.563  1.00  0.00     0.004 C 
ENDBRANCH  30  31
ENDBRANCH  29  30
ENDBRANCH  28  29
ENDBRANCH  27  28
ENDBRANCH  26  27
ENDBRANCH  25  26
ENDBRANCH  24  25
ENDBRANCH  23  24
ENDBRANCH  22  23
ENDBRANCH  21  22
ENDBRANCH  20  21
ENDBRANCH  19  20
ENDBRANCH  18  19
ENDBRANCH   1  18
TORSDOF 28
ENDMDL
MODEL 7
REMARK VINA RESULT:    -2.666      8.379     11.647
REMARK INTER + INTRA:         -13.091
REMARK INTER:                  -7.105
REMARK INTRA:                  -5.987
REMARK UNBOUND:                -6.063
REMARK SMILES CCCCCCCCCCCCCCCCCCCCCCCCCCCCCC(=O)[O-]
REMARK SMILES IDX 16 1 17 2 18 3 19 4 20 5 21 6 22 7 23 8 24 9 25 10 26 11
REMARK SMILES IDX 27 12 28 13 29 14 30 15 31 16 32 17 15 18 14 19 13 20 12 21
REMARK SMILES IDX 11 22 10 23 9 24 8 25 7 26 6 27 5 28 4 29 3 30 2 31 1 32
REMARK H PARENT
REMARK Flexibility Score: inf
ROOT
ATOM      1  C   UNL     1      56.747  29.766  53.030  1.00  0.00     0.000 C 
ENDROOT
BRANCH   1   2
ATOM      2  C   UNL     1      55.596  28.910  53.587  1.00  0.00     0.000 C 
BRANCH   2   3
ATOM      3  C   UNL     1      54.366  28.885  52.668  1.00  0.00     0.000 C 
BRANCH   3   4
ATOM      4  C   UNL     1      54.636  29.668  51.376  1.00  0.00     0.000 C 
BRANCH   4   5
ATOM      5  C   UNL     1      54.273  28.835  50.137  1.00  0.00     0.000 C 
BRANCH   5   6
ATOM      6  C   UNL     1      54.899  27.431  50.159  1.00  0.00     0.000 C 
BRANCH   6   7
ATOM      7  C   UNL     1      54.147  26.369  49.335  1.00  0.00     0.000 C 
BRANCH   7   8
ATOM      8  C   UNL     1      53.374  25.340  50.188  1.00  0.00     0.000 C 
BRANCH   8   9
ATOM      9  C   UNL     1      53.465  25.640  51.695  1.00  0.00     0.000 C 
BRANCH   9  10
ATOM     10  C   UNL     1      53.611  24.363  52.539  1.00  0.00     0.000 C 
BRANCH  10  11
ATOM     11  C   UNL     1      54.880  24.380  53.411  1.00  0.00     0.000 C 
BRANCH  11  12
ATOM     12  C   UNL     1      55.985  25.275  52.827  1.00  0.00     0.000 C 
BRANCH  12  13
ATOM     13  C   UNL     1      57.124  25.532  53.831  1.00  0.00     0.006 C 
BRANCH  13  14
ATOM     14  C   UNL     1      56.654  25.401  55.287  1.00  0.00     0.053 C 
BRANCH  14  15
ATOM     15  C   UNL     1      56.991  26.619  56.094  1.00  0.00     0.041 C 
ATOM     16  O   UNL     1      57.968  27.344  55.768  1.00  0.00    -0.550 OA
ATOM     17  O   UNL     1      56.220  26.959  57.200  1.00  0.00    -0.550 OA
ENDBRANCH  14  15
ENDBRANCH  13  14
ENDBRANCH  12  13
ENDBRANCH  11  12
ENDBRANCH  10  11
ENDBRANCH   9  10
ENDBRANCH   8   9
ENDBRANCH   7   8
ENDBRANCH   6   7
ENDBRANCH   5   6
ENDBRANCH   4   5
ENDBRANCH   3   4
ENDBRANCH   2   3
ENDBRANCH   1   2
BRANCH   1  18
ATOM     18  C   UNL     1      57.990  28.972  52.581  1.00  0.00     0.000 C 
BRANCH  18  19
ATOM     19  C   UNL     1      58.770  29.586  51.401  1.00  0.00     0.000 C 
BRANCH  19  20
ATOM     20  C   UNL     1      58.146  29.353  50.010  1.00  0.00     0.000 C 
BRANCH  20  21
ATOM     21  C   UNL     1      59.097  28.750  48.959  1.00  0.00     0.000 C 
BRANCH  21  22
ATOM     22  C   UNL     1      59.564  27.330  49.323  1.00  0.00     0.000 C 
BRANCH  22  23
ATOM     23  C   UNL     1      58.398  26.410  49.723  1.00  0.00     0.000 C 
BRANCH  23  24
ATOM     24  C   UNL     1      58.865  25.169  50.503  1.00  0.00    -0.000 C 
BRANCH  24  25
ATOM     25  C   UNL     1      59.943  25.496  51.552  1.00  0.00    -0.000 C 
BRANCH  25  26
ATOM     26  C   UNL     1      61.246  24.684  51.411  1.00  0.00    -0.000 C 
BRANCH  26  27
ATOM     27  C   UNL     1      61.427  24.041  50.018  1.00  0.00    -0.000 C 
BRANCH  27  28
ATOM     28  C   UNL     1      61.287  22.509  50.040  1.00  0.00    -0.000 C 
BRANCH  28  29
ATOM     29  C   UNL     1      61.061  21.972  51.463  1.00  0.00    -0.000 C 
BRANCH  29  30
ATOM     30  C   UNL     1      59.698  21.277  51.631  1.00  0.00    -0.000 C 
BRANCH  30  31
ATOM     31  C   UNL     1      58.682  22.047  52.491  1.00  0.00    -0.003 C 
ATOM     32  C   UNL     1      59.268  22.543  53.812  1.00  0.00     0.004 C 
ENDBRANCH  30  31
ENDBRANCH  29  30
ENDBRANCH  28  29
ENDBRANCH  27  28
ENDBRANCH  26  27
ENDBRANCH  25  26
ENDBRANCH  24  25
ENDBRANCH  23  24
ENDBRANCH  22  23
ENDBRANCH  21  22
ENDBRANCH  20  21
ENDBRANCH  19  20
ENDBRANCH  18  19
ENDBRANCH   1  18
TORSDOF 28
ENDMDL
MODEL 8
REMARK VINA RESULT:    -2.665      8.224     12.199
REMARK INTER + INTRA:         -13.089
REMARK INTER:                  -7.323
REMARK INTRA:                  -5.766
REMARK UNBOUND:                -6.063
REMARK SMILES CCCCCCCCCCCCCCCCCCCCCCCCCCCCCC(=O)[O-]
REMARK SMILES IDX 16 1 17 2 18 3 19 4 20 5 21 6 22 7 23 8 24 9 25 10 26 11
REMARK SMILES IDX 27 12 28 13 29 14 30 15 31 16 32 17 15 18 14 19 13 20 12 21
REMARK SMILES IDX 11 22 10 23 9 24 8 25 7 26 6 27 5 28 4 29 3 30 2 31 1 32
REMARK H PARENT
REMARK Flexibility Score: inf
ROOT
ATOM      1  C   UNL     1      63.248  25.561  50.467  1.00  0.00     0.000 C 
ENDROOT
BRANCH   1   2
ATOM      2  C   UNL     1      63.772  26.861  51.102  1.00  0.00     0.000 C 
BRANCH   2   3
ATOM      3  C   UNL     1      63.488  28.104  50.248  1.00  0.00     0.000 C 
BRANCH   3   4
ATOM      4  C   UNL     1      63.232  27.714  48.786  1.00  0.00     0.000 C 
BRANCH   4   5
ATOM      5  C   UNL     1      64.495  27.902  47.932  1.00  0.00     0.000 C 
BRANCH   5   6
ATOM      6  C   UNL     1      64.517  29.248  47.189  1.00  0.00     0.000 C 
BRANCH   6   7
ATOM      7  C   UNL     1      65.756  30.123  47.461  1.00  0.00     0.000 C 
BRANCH   7   8
ATOM      8  C   UNL     1      66.386  29.906  48.854  1.00  0.00     0.000 C 
BRANCH   8   9
ATOM      9  C   UNL     1      65.868  30.914  49.896  1.00  0.00     0.000 C 
BRANCH   9  10
ATOM     10  C   UNL     1      65.492  32.266  49.268  1.00  0.00     0.000 C 
BRANCH  10  11
ATOM     11  C   UNL     1      64.157  32.810  49.807  1.00  0.00     0.000 C 
BRANCH  11  12
ATOM     12  C   UNL     1      62.952  32.350  48.971  1.00  0.00     0.000 C 
BRANCH  12  13
ATOM     13  C   UNL     1      62.034  31.386  49.745  1.00  0.00     0.006 C 
BRANCH  13  14
ATOM     14  C   UNL     1      62.318  31.400  51.254  1.00  0.00     0.053 C 
BRANCH  14  15
ATOM     15  C   UNL     1      61.271  32.158  52.012  1.00  0.00     0.041 C 
ATOM     16  O   UNL     1      60.534  31.561  52.842  1.00  0.00    -0.550 OA
ATOM     17  O   UNL     1      61.115  33.525  51.811  1.00  0.00    -0.550 OA
ENDBRANCH  14  15
ENDBRANCH  13  14
ENDBRANCH  12  13
ENDBRANCH  11  12
ENDBRANCH  10  11
ENDBRANCH   9  10
ENDBRANCH   8   9
ENDBRANCH   7   8
ENDBRANCH   6   7
ENDBRANCH   5   6
ENDBRANCH   4   5
ENDBRANCH   3   4
ENDBRANCH   2   3
ENDBRANCH   1   2
BRANCH   1  18
ATOM     18  C   UNL     1      62.618  24.561  51.457  1.00  0.00     0.000 C 
BRANCH  18  19
ATOM     19  C   UNL     1      61.277  23.947  51.005  1.00  0.00     0.000 C 
BRANCH  19  20
ATOM     20  C   UNL     1      60.623  24.626  49.784  1.00  0.00     0.000 C 
BRANCH  20  21
ATOM     21  C   UNL     1      59.404  25.511  50.103  1.00  0.00     0.000 C 
BRANCH  21  22
ATOM     22  C   UNL     1      59.531  26.931  49.527  1.00  0.00     0.000 C 
BRANCH  22  23
ATOM     23  C   UNL     1      59.988  27.955  50.580  1.00  0.00     0.000 C 
BRANCH  23  24
ATOM     24  C   UNL     1      59.092  29.206  50.614  1.00  0.00    -0.000 C 
BRANCH  24  25
ATOM     25  C   UNL     1      57.795  29.032  49.803  1.00  0.00    -0.000 C 
BRANCH  25  26
ATOM     26  C   UNL     1      56.512  28.934  50.653  1.00  0.00    -0.000 C 
BRANCH  26  27
ATOM     27  C   UNL     1      55.507  27.880  50.136  1.00  0.00    -0.000 C 
BRANCH  27  28
ATOM     28  C   UNL     1      55.927  26.436  50.464  1.00  0.00    -0.000 C 
BRANCH  28  29
ATOM     29  C   UNL     1      55.645  26.075  51.933  1.00  0.00    -0.000 C 
BRANCH  29  30
ATOM     30  C   UNL     1      56.888  25.544  52.667  1.00  0.00    -0.000 C 
BRANCH  30  31
ATOM     31  C   UNL     1      57.780  26.630  53.294  1.00  0.00    -0.003 C 
ATOM     32  C   UNL     1      59.155  26.111  53.712  1.00  0.00     0.004 C 
ENDBRANCH  30  31
ENDBRANCH  29  30
ENDBRANCH  28  29
ENDBRANCH  27  28
ENDBRANCH  26  27
ENDBRANCH  25  26
ENDBRANCH  24  25
ENDBRANCH  23  24
ENDBRANCH  22  23
ENDBRANCH  21  22
ENDBRANCH  20  21
ENDBRANCH  19  20
ENDBRANCH  18  19
ENDBRANCH   1  18
TORSDOF 28
ENDMDL
MODEL 9
REMARK VINA RESULT:    -2.595      2.583      7.502
REMARK INTER + INTRA:         -12.905
REMARK INTER:                  -6.988
REMARK INTRA:                  -5.917
REMARK UNBOUND:                -6.063
REMARK SMILES CCCCCCCCCCCCCCCCCCCCCCCCCCCCCC(=O)[O-]
REMARK SMILES IDX 16 1 17 2 18 3 19 4 20 5 21 6 22 7 23 8 24 9 25 10 26 11
REMARK SMILES IDX 27 12 28 13 29 14 30 15 31 16 32 17 15 18 14 19 13 20 12 21
REMARK SMILES IDX 11 22 10 23 9 24 8 25 7 26 6 27 5 28 4 29 3 30 2 31 1 32
REMARK H PARENT
REMARK Flexibility Score: inf
ROOT
ATOM      1  C   UNL     1      62.740  32.715  60.689  1.00  0.00     0.000 C 
ENDROOT
BRANCH   1   2
ATOM      2  C   UNL     1      63.190  33.535  59.467  1.00  0.00     0.000 C 
BRANCH   2   3
ATOM      3  C   UNL     1      64.081  34.729  59.842  1.00  0.00     0.000 C 
BRANCH   3   4
ATOM      4  C   UNL     1      64.091  34.946  61.360  1.00  0.00     0.000 C 
BRANCH   4   5
ATOM      5  C   UNL     1      63.677  36.381  61.719  1.00  0.00     0.000 C 
BRANCH   5   6
ATOM      6  C   UNL     1      62.759  37.018  60.663  1.00  0.00     0.000 C 
BRANCH   6   7
ATOM      7  C   UNL     1      61.251  36.897  60.952  1.00  0.00     0.000 C 
BRANCH   7   8
ATOM      8  C   UNL     1      60.457  36.153  59.856  1.00  0.00     0.000 C 
BRANCH   8   9
ATOM      9  C   UNL     1      61.026  36.401  58.448  1.00  0.00     0.000 C 
BRANCH   9  10
ATOM     10  C   UNL     1      60.597  35.319  57.443  1.00  0.00     0.000 C 
BRANCH  10  11
ATOM     11  C   UNL     1      59.566  34.343  58.039  1.00  0.00     0.000 C 
BRANCH  11  12
ATOM     12  C   UNL     1      59.408  33.065  57.200  1.00  0.00     0.000 C 
BRANCH  12  13
ATOM     13  C   UNL     1      60.484  32.013  57.525  1.00  0.00     0.006 C 
BRANCH  13  14
ATOM     14  C   UNL     1      61.477  31.822  56.369  1.00  0.00     0.053 C 
BRANCH  14  15
ATOM     15  C   UNL     1      61.011  30.777  55.400  1.00  0.00     0.041 C 
ATOM     16  O   UNL     1      61.053  29.558  55.715  1.00  0.00    -0.550 OA
ATOM     17  O   UNL     1      60.522  31.150  54.154  1.00  0.00    -0.550 OA
ENDBRANCH  14  15
ENDBRANCH  13  14
ENDBRANCH  12  13
ENDBRANCH  11  12
ENDBRANCH  10  11
ENDBRANCH   9  10
ENDBRANCH   8   9
ENDBRANCH   7   8
ENDBRANCH   6   7
ENDBRANCH   5   6
ENDBRANCH   4   5
ENDBRANCH   3   4
ENDBRANCH   2   3
ENDBRANCH   1   2
BRANCH   1  18
ATOM     18  C   UNL     1      61.218  32.702  60.939  1.00  0.00     0.000 C 
BRANCH  18  19
ATOM     19  C   UNL     1      60.687  31.465  61.690  1.00  0.00     0.000 C 
BRANCH  19  20
ATOM     20  C   UNL     1      60.373  30.243  60.804  1.00  0.00     0.000 C 
BRANCH  20  21
ATOM     21  C   UNL     1      61.531  29.242  60.635  1.00  0.00     0.000 C 
BRANCH  21  22
ATOM     22  C   UNL     1      61.877  28.974  59.161  1.00  0.00     0.000 C 
BRANCH  22  23
ATOM     23  C   UNL     1      63.243  29.556  58.761  1.00  0.00     0.000 C 
BRANCH  23  24
ATOM     24  C   UNL     1      64.259  29.525  59.916  1.00  0.00    -0.000 C 
BRANCH  24  25
ATOM     25  C   UNL     1      65.225  28.330  59.828  1.00  0.00    -0.000 C 
BRANCH  25  26
ATOM     26  C   UNL     1      64.760  27.068  60.581  1.00  0.00    -0.000 C 
BRANCH  26  27
ATOM     27  C   UNL     1      64.112  26.005  59.665  1.00  0.00    -0.000 C 
BRANCH  27  28
ATOM     28  C   UNL     1      62.745  25.521  60.180  1.00  0.00    -0.000 C 
BRANCH  28  29
ATOM     29  C   UNL     1      62.707  25.429  61.715  1.00  0.00    -0.000 C 
BRANCH  29  30
ATOM     30  C   UNL     1      61.421  26.020  62.318  1.00  0.00    -0.000 C 
BRANCH  30  31
ATOM     31  C   UNL     1      60.151  25.789  61.482  1.00  0.00    -0.003 C 
ATOM     32  C   UNL     1      59.023  26.762  61.823  1.00  0.00     0.004 C 
ENDBRANCH  30  31
ENDBRANCH  29  30
ENDBRANCH  28  29
ENDBRANCH  27  28
ENDBRANCH  26  27
ENDBRANCH  25  26
ENDBRANCH  24  25
ENDBRANCH  23  24
ENDBRANCH  22  23
ENDBRANCH  21  22
ENDBRANCH  20  21
ENDBRANCH  19  20
ENDBRANCH  18  19
ENDBRANCH   1  18
TORSDOF 28
ENDMDL
