MODEL 1
REMARK VINA RESULT:    -2.849      0.000      0.000
REMARK INTER + INTRA:          -9.201
REMARK INTER:                  -7.179
REMARK INTRA:                  -2.021
REMARK UNBOUND:                -2.021
REMARK SMILES CCCCCCCCCCCCCCCCCCCCCCCCCCCC(=O)[O-]
REMARK SMILES IDX 15 1 16 2 17 3 18 4 19 5 20 6 21 7 22 8 23 9 24 10 25 11
REMARK SMILES IDX 26 12 27 13 28 14 29 15 30 16 14 17 13 18 12 19 11 20 10 21
REMARK SMILES IDX 9 22 8 23 7 24 6 25 5 26 4 27 3 28 2 29 1 30
REMARK H PARENT
REMARK Flexibility Score: inf
ROOT
ATOM      1  C   UNL     1       6.872   9.303  34.110  1.00  0.00     0.000 C 
ENDROOT
BRANCH   1   2
ATOM      2  C   UNL     1       6.276  10.232  33.038  1.00  0.00     0.000 C 
BRANCH   2   3
ATOM      3  C   UNL     1       5.225  11.223  33.590  1.00  0.00     0.000 C 
BRANCH   3   4
ATOM      4  C   UNL     1       5.526  11.661  35.033  1.00  0.00     0.000 C 
BRANCH   4   5
ATOM      5  C   UNL     1       4.875  13.008  35.390  1.00  0.00     0.000 C 
BRANCH   5   6
ATOM      6  C   UNL     1       5.547  14.197  34.682  1.00  0.00     0.000 C 
BRANCH   6   7
ATOM      7  C   UNL     1       6.056  15.269  35.663  1.00  0.00     0.000 C 
BRANCH   7   8
ATOM      8  C   UNL     1       4.957  16.121  36.326  1.00  0.00     0.000 C 
BRANCH   8   9
ATOM      9  C   UNL     1       5.070  17.616  35.979  1.00  0.00     0.000 C 
BRANCH   9  10
ATOM     10  C   UNL     1       6.520  18.062  35.712  1.00  0.00     0.000 C 
BRANCH  10  11
ATOM     11  C   UNL     1       6.732  19.585  35.618  1.00  0.00     0.000 C 
BRANCH  11  12
ATOM     12  C   UNL     1       5.494  20.333  35.095  1.00  0.00     0.006 C 
BRANCH  12  13
ATOM     13  C   UNL     1       5.792  21.125  33.814  1.00  0.00     0.053 C 
BRANCH  13  14
ATOM     14  C   UNL     1       6.065  20.224  32.648  1.00  0.00     0.041 C 
ATOM     15  O   UNL     1       7.116  20.368  31.969  1.00  0.00    -0.550 OA
ATOM     16  O   UNL     1       5.151  19.236  32.302  1.00  0.00    -0.550 OA
ENDBRANCH  13  14
ENDBRANCH  12  13
ENDBRANCH  11  12
ENDBRANCH  10  11
ENDBRANCH   9  10
ENDBRANCH   8   9
ENDBRANCH   7   8
ENDBRANCH   6   7
ENDBRANCH   5   6
ENDBRANCH   4   5
ENDBRANCH   3   4
ENDBRANCH   2   3
ENDBRANCH   1   2
BRANCH   1  17
ATOM     17  C   UNL     1       5.895   8.246  34.653  1.00  0.00     0.000 C 
BRANCH  17  18
ATOM     18  C   UNL     1       5.451   8.508  36.112  1.00  0.00     0.000 C 
BRANCH  18  19
ATOM     19  C   UNL     1       4.902   7.245  36.795  1.00  0.00     0.000 C 
BRANCH  19  20
ATOM     20  C   UNL     1       5.251   5.955  36.035  1.00  0.00     0.000 C 
BRANCH  20  21
ATOM     21  C   UNL     1       5.702   4.821  36.968  1.00  0.00     0.000 C 
BRANCH  21  22
ATOM     22  C   UNL     1       4.930   3.523  36.678  1.00  0.00    -0.000 C 
BRANCH  22  23
ATOM     23  C   UNL     1       5.605   2.661  35.599  1.00  0.00    -0.000 C 
BRANCH  23  24
ATOM     24  C   UNL     1       6.545   1.597  36.193  1.00  0.00    -0.000 C 
BRANCH  24  25
ATOM     25  C   UNL     1       8.028   1.973  36.029  1.00  0.00    -0.000 C 
BRANCH  25  26
ATOM     26  C   UNL     1       8.527   3.002  37.070  1.00  0.00    -0.000 C 
BRANCH  26  27
ATOM     27  C   UNL     1       9.692   3.873  36.564  1.00  0.00    -0.000 C 
BRANCH  27  28
ATOM     28  C   UNL     1       9.336   5.355  36.333  1.00  0.00    -0.000 C 
BRANCH  28  29
ATOM     29  C   UNL     1       9.004   5.718  34.874  1.00  0.00    -0.003 C 
ATOM     30  C   UNL     1      10.248   5.983  34.026  1.00  0.00     0.004 C 
ENDBRANCH  28  29
ENDBRANCH  27  28
ENDBRANCH  26  27
ENDBRANCH  25  26
ENDBRANCH  24  25
ENDBRANCH  23  24
ENDBRANCH  22  23
ENDBRANCH  21  22
ENDBRANCH  20  21
ENDBRANCH  19  20
ENDBRANCH  18  19
ENDBRANCH  17  18
ENDBRANCH   1  17
TORSDOF 26
ENDMDL
MODEL 2
REMARK VINA RESULT:    -2.804      1.191      2.161
REMARK INTER + INTRA:          -9.088
REMARK INTER:                  -6.622
REMARK INTRA:                  -2.465
REMARK UNBOUND:                -2.021
REMARK SMILES CCCCCCCCCCCCCCCCCCCCCCCCCCCC(=O)[O-]
REMARK SMILES IDX 15 1 16 2 17 3 18 4 19 5 20 6 21 7 22 8 23 9 24 10 25 11
REMARK SMILES IDX 26 12 27 13 28 14 29 15 30 16 14 17 13 18 12 19 11 20 10 21
REMARK SMILES IDX 9 22 8 23 7 24 6 25 5 26 4 27 3 28 2 29 1 30
REMARK H PARENT
REMARK Flexibility Score: inf
ROOT
ATOM      1  C   UNL     1       6.828   9.227  34.700  1.00  0.00     0.000 C 
ENDROOT
BRANCH   1   2
ATOM      2  C   UNL     1       6.552  10.106  33.468  1.00  0.00     0.000 C 
BRANCH   2   3
ATOM      3  C   UNL     1       5.083  10.575  33.357  1.00  0.00     0.000 C 
BRANCH   3   4
ATOM      4  C   UNL     1       4.961  12.096  33.161  1.00  0.00     0.000 C 
BRANCH   4   5
ATOM      5  C   UNL     1       5.755  12.893  34.209  1.00  0.00     0.000 C 
BRANCH   5   6
ATOM      6  C   UNL     1       4.877  13.374  35.378  1.00  0.00     0.000 C 
BRANCH   6   7
ATOM      7  C   UNL     1       5.417  14.652  36.045  1.00  0.00     0.000 C 
BRANCH   7   8
ATOM      8  C   UNL     1       6.425  15.453  35.201  1.00  0.00     0.000 C 
BRANCH   8   9
ATOM      9  C   UNL     1       5.791  16.678  34.517  1.00  0.00     0.000 C 
BRANCH   9  10
ATOM     10  C   UNL     1       5.359  17.766  35.517  1.00  0.00     0.000 C 
BRANCH  10  11
ATOM     11  C   UNL     1       6.507  18.602  36.116  1.00  0.00     0.000 C 
BRANCH  11  12
ATOM     12  C   UNL     1       6.710  19.947  35.396  1.00  0.00     0.006 C 
BRANCH  12  13
ATOM     13  C   UNL     1       5.645  20.195  34.319  1.00  0.00     0.053 C 
BRANCH  13  14
ATOM     14  C   UNL     1       6.200  20.037  32.935  1.00  0.00     0.041 C 
ATOM     15  O   UNL     1       5.464  19.621  32.002  1.00  0.00    -0.550 OA
ATOM     16  O   UNL     1       7.533  20.333  32.681  1.00  0.00    -0.550 OA
ENDBRANCH  13  14
ENDBRANCH  12  13
ENDBRANCH  11  12
ENDBRANCH  10  11
ENDBRANCH   9  10
ENDBRANCH   8   9
ENDBRANCH   7   8
ENDBRANCH   6   7
ENDBRANCH   5   6
ENDBRANCH   4   5
ENDBRANCH   3   4
ENDBRANCH   2   3
ENDBRANCH   1   2
BRANCH   1  17
ATOM     17  C   UNL     1       5.748   9.303  35.792  1.00  0.00     0.000 C 
BRANCH  17  18
ATOM     18  C   UNL     1       5.163   7.924  36.179  1.00  0.00     0.000 C 
BRANCH  18  19
ATOM     19  C   UNL     1       5.173   6.930  35.005  1.00  0.00     0.000 C 
BRANCH  19  20
ATOM     20  C   UNL     1       4.879   5.486  35.444  1.00  0.00     0.000 C 
BRANCH  20  21
ATOM     21  C   UNL     1       5.675   4.448  34.638  1.00  0.00     0.000 C 
BRANCH  21  22
ATOM     22  C   UNL     1       6.515   3.552  35.562  1.00  0.00    -0.000 C 
BRANCH  22  23
ATOM     23  C   UNL     1       7.094   4.317  36.763  1.00  0.00    -0.000 C 
BRANCH  23  24
ATOM     24  C   UNL     1       8.632   4.367  36.747  1.00  0.00    -0.000 C 
BRANCH  24  25
ATOM     25  C   UNL     1       9.166   5.759  36.366  1.00  0.00    -0.000 C 
BRANCH  25  26
ATOM     26  C   UNL     1       8.658   6.265  34.996  1.00  0.00    -0.000 C 
BRANCH  26  27
ATOM     27  C   UNL     1       9.678   6.084  33.857  1.00  0.00    -0.000 C 
BRANCH  27  28
ATOM     28  C   UNL     1      10.786   5.051  34.140  1.00  0.00    -0.000 C 
BRANCH  28  29
ATOM     29  C   UNL     1      12.202   5.642  34.272  1.00  0.00    -0.003 C 
ATOM     30  C   UNL     1      13.298   4.576  34.259  1.00  0.00     0.004 C 
ENDBRANCH  28  29
ENDBRANCH  27  28
ENDBRANCH  26  27
ENDBRANCH  25  26
ENDBRANCH  24  25
ENDBRANCH  23  24
ENDBRANCH  22  23
ENDBRANCH  21  22
ENDBRANCH  20  21
ENDBRANCH  19  20
ENDBRANCH  18  19
ENDBRANCH  17  18
ENDBRANCH   1  17
TORSDOF 26
ENDMDL
MODEL 3
REMARK VINA RESULT:    -2.689      4.125     12.677
REMARK INTER + INTRA:          -8.797
REMARK INTER:                  -7.339
REMARK INTRA:                  -1.459
REMARK UNBOUND:                -2.021
REMARK SMILES CCCCCCCCCCCCCCCCCCCCCCCCCCCC(=O)[O-]
REMARK SMILES IDX 15 1 16 2 17 3 18 4 19 5 20 6 21 7 22 8 23 9 24 10 25 11
REMARK SMILES IDX 26 12 27 13 28 14 29 15 30 16 14 17 13 18 12 19 11 20 10 21
REMARK SMILES IDX 9 22 8 23 7 24 6 25 5 26 4 27 3 28 2 29 1 30
REMARK H PARENT
REMARK Flexibility Score: inf
ROOT
ATOM      1  C   UNL     1       6.565   9.670  33.798  1.00  0.00     0.000 C 
ENDROOT
BRANCH   1   2
ATOM      2  C   UNL     1       5.375   8.924  34.429  1.00  0.00     0.000 C 
BRANCH   2   3
ATOM      3  C   UNL     1       5.233   9.157  35.951  1.00  0.00     0.000 C 
BRANCH   3   4
ATOM      4  C   UNL     1       6.191   8.281  36.777  1.00  0.00     0.000 C 
BRANCH   4   5
ATOM      5  C   UNL     1       6.184   6.811  36.326  1.00  0.00     0.000 C 
BRANCH   5   6
ATOM      6  C   UNL     1       5.061   5.993  36.989  1.00  0.00     0.000 C 
BRANCH   6   7
ATOM      7  C   UNL     1       5.151   4.489  36.674  1.00  0.00     0.000 C 
BRANCH   7   8
ATOM      8  C   UNL     1       6.554   3.985  36.289  1.00  0.00     0.000 C 
BRANCH   8   9
ATOM      9  C   UNL     1       6.674   2.452  36.342  1.00  0.00     0.000 C 
BRANCH   9  10
ATOM     10  C   UNL     1       8.135   1.964  36.321  1.00  0.00     0.000 C 
BRANCH  10  11
ATOM     11  C   UNL     1       9.176   2.982  36.825  1.00  0.00     0.000 C 
BRANCH  11  12
ATOM     12  C   UNL     1      10.248   3.315  35.772  1.00  0.00     0.006 C 
BRANCH  12  13
ATOM     13  C   UNL     1      10.342   4.822  35.496  1.00  0.00     0.053 C 
BRANCH  13  14
ATOM     14  C   UNL     1      11.118   5.117  34.248  1.00  0.00     0.041 C 
ATOM     15  O   UNL     1      10.659   5.917  33.391  1.00  0.00    -0.550 OA
ATOM     16  O   UNL     1      12.340   4.495  34.025  1.00  0.00    -0.550 OA
ENDBRANCH  13  14
ENDBRANCH  12  13
ENDBRANCH  11  12
ENDBRANCH  10  11
ENDBRANCH   9  10
ENDBRANCH   8   9
ENDBRANCH   7   8
ENDBRANCH   6   7
ENDBRANCH   5   6
ENDBRANCH   4   5
ENDBRANCH   3   4
ENDBRANCH   2   3
ENDBRANCH   1   2
BRANCH   1  17
ATOM     17  C   UNL     1       6.169  10.826  32.865  1.00  0.00     0.000 C 
BRANCH  17  18
ATOM     18  C   UNL     1       4.894  11.576  33.318  1.00  0.00     0.000 C 
BRANCH  18  19
ATOM     19  C   UNL     1       5.052  12.224  34.703  1.00  0.00     0.000 C 
BRANCH  19  20
ATOM     20  C   UNL     1       5.294  13.740  34.628  1.00  0.00     0.000 C 
BRANCH  20  21
ATOM     21  C   UNL     1       4.960  14.460  35.943  1.00  0.00     0.000 C 
BRANCH  21  22
ATOM     22  C   UNL     1       6.226  15.033  36.601  1.00  0.00    -0.000 C 
BRANCH  22  23
ATOM     23  C   UNL     1       6.089  16.524  36.950  1.00  0.00    -0.000 C 
BRANCH  23  24
ATOM     24  C   UNL     1       4.908  17.195  36.226  1.00  0.00    -0.000 C 
BRANCH  24  25
ATOM     25  C   UNL     1       5.308  17.744  34.845  1.00  0.00    -0.000 C 
BRANCH  25  26
ATOM     26  C   UNL     1       6.769  18.245  34.774  1.00  0.00    -0.000 C 
BRANCH  26  27
ATOM     27  C   UNL     1       7.014  19.271  33.652  1.00  0.00    -0.000 C 
BRANCH  27  28
ATOM     28  C   UNL     1       6.156  20.547  33.746  1.00  0.00    -0.000 C 
BRANCH  28  29
ATOM     29  C   UNL     1       5.051  20.661  32.679  1.00  0.00    -0.003 C 
ATOM     30  C   UNL     1       5.603  20.774  31.258  1.00  0.00     0.004 C 
ENDBRANCH  28  29
ENDBRANCH  27  28
ENDBRANCH  26  27
ENDBRANCH  25  26
ENDBRANCH  24  25
ENDBRANCH  23  24
ENDBRANCH  22  23
ENDBRANCH  21  22
ENDBRANCH  20  21
ENDBRANCH  19  20
ENDBRANCH  18  19
ENDBRANCH  17  18
ENDBRANCH   1  17
TORSDOF 26
ENDMDL
MODEL 4
REMARK VINA RESULT:    -2.529      1.222      2.306
REMARK INTER + INTRA:          -8.395
REMARK INTER:                  -6.805
REMARK INTRA:                  -1.590
REMARK UNBOUND:                -2.021
REMARK SMILES CCCCCCCCCCCCCCCCCCCCCCCCCCCC(=O)[O-]
REMARK SMILES IDX 15 1 16 2 17 3 18 4 19 5 20 6 21 7 22 8 23 9 24 10 25 11
REMARK SMILES IDX 26 12 27 13 28 14 29 15 30 16 14 17 13 18 12 19 11 20 10 21
REMARK SMILES IDX 9 22 8 23 7 24 6 25 5 26 4 27 3 28 2 29 1 30
REMARK H PARENT
REMARK Flexibility Score: inf
ROOT
ATOM      1  C   UNL     1       7.145   9.213  34.512  1.00  0.00     0.000 C 
ENDROOT
BRANCH   1   2
ATOM      2  C   UNL     1       6.442   9.967  33.370  1.00  0.00     0.000 C 
BRANCH   2   3
ATOM      3  C   UNL     1       5.055  10.530  33.759  1.00  0.00     0.000 C 
BRANCH   3   4
ATOM      4  C   UNL     1       4.926  12.035  33.472  1.00  0.00     0.000 C 
BRANCH   4   5
ATOM      5  C   UNL     1       5.788  12.892  34.414  1.00  0.00     0.000 C 
BRANCH   5   6
ATOM      6  C   UNL     1       4.944  13.776  35.349  1.00  0.00     0.000 C 
BRANCH   6   7
ATOM      7  C   UNL     1       5.744  14.946  35.950  1.00  0.00     0.000 C 
BRANCH   7   8
ATOM      8  C   UNL     1       6.691  15.662  34.969  1.00  0.00     0.000 C 
BRANCH   8   9
ATOM      9  C   UNL     1       6.201  17.069  34.585  1.00  0.00     0.000 C 
BRANCH   9  10
ATOM     10  C   UNL     1       5.593  17.837  35.772  1.00  0.00     0.000 C 
BRANCH  10  11
ATOM     11  C   UNL     1       6.328  19.135  36.161  1.00  0.00     0.000 C 
BRANCH  11  12
ATOM     12  C   UNL     1       6.752  19.973  34.942  1.00  0.00     0.006 C 
BRANCH  12  13
ATOM     13  C   UNL     1       5.576  20.268  34.002  1.00  0.00     0.053 C 
BRANCH  13  14
ATOM     14  C   UNL     1       5.998  20.288  32.564  1.00  0.00     0.041 C 
ATOM     15  O   UNL     1       7.191  20.549  32.258  1.00  0.00    -0.550 OA
ATOM     16  O   UNL     1       5.069  20.035  31.562  1.00  0.00    -0.550 OA
ENDBRANCH  13  14
ENDBRANCH  12  13
ENDBRANCH  11  12
ENDBRANCH  10  11
ENDBRANCH   9  10
ENDBRANCH   8   9
ENDBRANCH   7   8
ENDBRANCH   6   7
ENDBRANCH   5   6
ENDBRANCH   4   5
ENDBRANCH   3   4
ENDBRANCH   2   3
ENDBRANCH   1   2
BRANCH   1  17
ATOM     17  C   UNL     1       6.433   9.308  35.872  1.00  0.00     0.000 C 
BRANCH  17  18
ATOM     18  C   UNL     1       6.192   7.934  36.540  1.00  0.00     0.000 C 
BRANCH  18  19
ATOM     19  C   UNL     1       4.975   7.200  35.954  1.00  0.00     0.000 C 
BRANCH  19  20
ATOM     20  C   UNL     1       4.878   5.738  36.421  1.00  0.00     0.000 C 
BRANCH  20  21
ATOM     21  C   UNL     1       5.412   4.746  35.377  1.00  0.00     0.000 C 
BRANCH  21  22
ATOM     22  C   UNL     1       6.708   4.074  35.861  1.00  0.00    -0.000 C 
BRANCH  22  23
ATOM     23  C   UNL     1       7.589   5.018  36.694  1.00  0.00    -0.000 C 
BRANCH  23  24
ATOM     24  C   UNL     1       9.020   4.485  36.878  1.00  0.00    -0.000 C 
BRANCH  24  25
ATOM     25  C   UNL     1       9.934   4.851  35.694  1.00  0.00    -0.000 C 
BRANCH  25  26
ATOM     26  C   UNL     1      10.706   3.646  35.109  1.00  0.00    -0.000 C 
BRANCH  26  27
ATOM     27  C   UNL     1      11.547   2.889  36.154  1.00  0.00    -0.000 C 
BRANCH  27  28
ATOM     28  C   UNL     1      10.789   1.784  36.915  1.00  0.00    -0.000 C 
BRANCH  28  29
ATOM     29  C   UNL     1       9.866   0.915  36.041  1.00  0.00    -0.003 C 
ATOM     30  C   UNL     1       8.411   0.929  36.512  1.00  0.00     0.004 C 
ENDBRANCH  28  29
ENDBRANCH  27  28
ENDBRANCH  26  27
ENDBRANCH  25  26
ENDBRANCH  24  25
ENDBRANCH  23  24
ENDBRANCH  22  23
ENDBRANCH  21  22
ENDBRANCH  20  21
ENDBRANCH  19  20
ENDBRANCH  18  19
ENDBRANCH  17  18
ENDBRANCH   1  17
TORSDOF 26
ENDMDL
MODEL 5
REMARK VINA RESULT:    -2.029      4.331     12.395
REMARK INTER + INTRA:          -7.134
REMARK INTER:                  -5.499
REMARK INTRA:                  -1.634
REMARK UNBOUND:                -2.021
REMARK SMILES CCCCCCCCCCCCCCCCCCCCCCCCCCCC(=O)[O-]
REMARK SMILES IDX 15 1 16 2 17 3 18 4 19 5 20 6 21 7 22 8 23 9 24 10 25 11
REMARK SMILES IDX 26 12 27 13 28 14 29 15 30 16 14 17 13 18 12 19 11 20 10 21
REMARK SMILES IDX 9 22 8 23 7 24 6 25 5 26 4 27 3 28 2 29 1 30
REMARK H PARENT
REMARK Flexibility Score: inf
ROOT
ATOM      1  C   UNL     1       8.501   6.571  35.466  1.00  0.00     0.000 C 
ENDROOT
BRANCH   1   2
ATOM      2  C   UNL     1       7.753   5.263  35.155  1.00  0.00     0.000 C 
BRANCH   2   3
ATOM      3  C   UNL     1       6.281   5.262  35.627  1.00  0.00     0.000 C 
BRANCH   3   4
ATOM      4  C   UNL     1       5.306   4.819  34.523  1.00  0.00     0.000 C 
BRANCH   4   5
ATOM      5  C   UNL     1       5.323   3.299  34.294  1.00  0.00     0.000 C 
BRANCH   5   6
ATOM      6  C   UNL     1       4.879   2.507  35.537  1.00  0.00     0.000 C 
BRANCH   6   7
ATOM      7  C   UNL     1       5.984   2.403  36.605  1.00  0.00     0.000 C 
BRANCH   7   8
ATOM      8  C   UNL     1       6.759   1.071  36.614  1.00  0.00     0.000 C 
BRANCH   8   9
ATOM      9  C   UNL     1       8.164   1.194  36.001  1.00  0.00     0.000 C 
BRANCH   9  10
ATOM     10  C   UNL     1       9.265   1.395  37.059  1.00  0.00     0.000 C 
BRANCH  10  11
ATOM     11  C   UNL     1      10.621   1.882  36.513  1.00  0.00     0.000 C 
BRANCH  11  12
ATOM     12  C   UNL     1      10.479   2.833  35.311  1.00  0.00     0.006 C 
BRANCH  12  13
ATOM     13  C   UNL     1      11.187   4.174  35.545  1.00  0.00     0.053 C 
BRANCH  13  14
ATOM     14  C   UNL     1      11.690   4.774  34.267  1.00  0.00     0.041 C 
ATOM     15  O   UNL     1      10.901   5.393  33.505  1.00  0.00    -0.550 OA
ATOM     16  O   UNL     1      13.025   4.634  33.910  1.00  0.00    -0.550 OA
ENDBRANCH  13  14
ENDBRANCH  12  13
ENDBRANCH  11  12
ENDBRANCH  10  11
ENDBRANCH   9  10
ENDBRANCH   8   9
ENDBRANCH   7   8
ENDBRANCH   6   7
ENDBRANCH   5   6
ENDBRANCH   4   5
ENDBRANCH   3   4
ENDBRANCH   2   3
ENDBRANCH   1   2
BRANCH   1  17
ATOM     17  C   UNL     1       7.963   7.338  36.686  1.00  0.00     0.000 C 
BRANCH  17  18
ATOM     18  C   UNL     1       7.384   8.729  36.334  1.00  0.00     0.000 C 
BRANCH  18  19
ATOM     19  C   UNL     1       6.113   8.637  35.474  1.00  0.00     0.000 C 
BRANCH  19  20
ATOM     20  C   UNL     1       6.180   9.518  34.215  1.00  0.00     0.000 C 
BRANCH  20  21
ATOM     21  C   UNL     1       5.497  10.880  34.409  1.00  0.00     0.000 C 
BRANCH  21  22
ATOM     22  C   UNL     1       5.021  11.062  35.859  1.00  0.00    -0.000 C 
BRANCH  22  23
ATOM     23  C   UNL     1       4.921  12.541  36.269  1.00  0.00    -0.000 C 
BRANCH  23  24
ATOM     24  C   UNL     1       5.187  13.499  35.095  1.00  0.00    -0.000 C 
BRANCH  24  25
ATOM     25  C   UNL     1       5.063  14.976  35.510  1.00  0.00    -0.000 C 
BRANCH  25  26
ATOM     26  C   UNL     1       5.386  15.971  34.372  1.00  0.00    -0.000 C 
BRANCH  26  27
ATOM     27  C   UNL     1       6.717  16.721  34.569  1.00  0.00    -0.000 C 
BRANCH  27  28
ATOM     28  C   UNL     1       6.610  18.256  34.495  1.00  0.00    -0.000 C 
BRANCH  28  29
ATOM     29  C   UNL     1       5.461  18.781  33.615  1.00  0.00    -0.003 C 
ATOM     30  C   UNL     1       5.533  20.290  33.376  1.00  0.00     0.004 C 
ENDBRANCH  28  29
ENDBRANCH  27  28
ENDBRANCH  26  27
ENDBRANCH  25  26
ENDBRANCH  24  25
ENDBRANCH  23  24
ENDBRANCH  22  23
ENDBRANCH  21  22
ENDBRANCH  20  21
ENDBRANCH  19  20
ENDBRANCH  18  19
ENDBRANCH  17  18
ENDBRANCH   1  17
TORSDOF 26
ENDMDL
MODEL 6
REMARK VINA RESULT:    -1.462      3.499      7.639
REMARK INTER + INTRA:          -5.706
REMARK INTER:                  -3.313
REMARK INTRA:                  -2.393
REMARK UNBOUND:                -2.021
REMARK SMILES CCCCCCCCCCCCCCCCCCCCCCCCCCCC(=O)[O-]
REMARK SMILES IDX 15 1 16 2 17 3 18 4 19 5 20 6 21 7 22 8 23 9 24 10 25 11
REMARK SMILES IDX 26 12 27 13 28 14 29 15 30 16 14 17 13 18 12 19 11 20 10 21
REMARK SMILES IDX 9 22 8 23 7 24 6 25 5 26 4 27 3 28 2 29 1 30
REMARK H PARENT
REMARK Flexibility Score: inf
ROOT
ATOM      1  C   UNL     1       8.450   4.526  36.402  1.00  0.00     0.000 C 
ENDROOT
BRANCH   1   2
ATOM      2  C   UNL     1       7.241   3.840  37.062  1.00  0.00     0.000 C 
BRANCH   2   3
ATOM      3  C   UNL     1       6.736   2.597  36.293  1.00  0.00     0.000 C 
BRANCH   3   4
ATOM      4  C   UNL     1       5.705   2.952  35.208  1.00  0.00     0.000 C 
BRANCH   4   5
ATOM      5  C   UNL     1       4.894   4.213  35.552  1.00  0.00     0.000 C 
BRANCH   5   6
ATOM      6  C   UNL     1       5.404   5.464  34.815  1.00  0.00     0.000 C 
BRANCH   6   7
ATOM      7  C   UNL     1       4.875   6.775  35.427  1.00  0.00     0.000 C 
BRANCH   7   8
ATOM      8  C   UNL     1       5.433   7.116  36.821  1.00  0.00     0.000 C 
BRANCH   8   9
ATOM      9  C   UNL     1       6.742   7.922  36.760  1.00  0.00     0.000 C 
BRANCH   9  10
ATOM     10  C   UNL     1       6.532   9.427  37.007  1.00  0.00     0.000 C 
BRANCH  10  11
ATOM     11  C   UNL     1       5.095   9.936  36.783  1.00  0.00     0.000 C 
BRANCH  11  12
ATOM     12  C   UNL     1       5.047  11.328  36.127  1.00  0.00     0.006 C 
BRANCH  12  13
ATOM     13  C   UNL     1       5.820  12.378  36.936  1.00  0.00     0.053 C 
BRANCH  13  14
ATOM     14  C   UNL     1       5.890  13.695  36.224  1.00  0.00     0.041 C 
ATOM     15  O   UNL     1       6.475  14.674  36.759  1.00  0.00    -0.550 OA
ATOM     16  O   UNL     1       5.296  13.845  34.977  1.00  0.00    -0.550 OA
ENDBRANCH  13  14
ENDBRANCH  12  13
ENDBRANCH  11  12
ENDBRANCH  10  11
ENDBRANCH   9  10
ENDBRANCH   8   9
ENDBRANCH   7   8
ENDBRANCH   6   7
ENDBRANCH   5   6
ENDBRANCH   4   5
ENDBRANCH   3   4
ENDBRANCH   2   3
ENDBRANCH   1   2
BRANCH   1  17
ATOM     17  C   UNL     1       9.816   3.977  36.847  1.00  0.00     0.000 C 
BRANCH  17  18
ATOM     18  C   UNL     1      10.198   2.644  36.162  1.00  0.00     0.000 C 
BRANCH  18  19
ATOM     19  C   UNL     1      10.892   1.666  37.124  1.00  0.00     0.000 C 
BRANCH  19  20
ATOM     20  C   UNL     1      12.338   1.346  36.709  1.00  0.00     0.000 C 
BRANCH  20  21
ATOM     21  C   UNL     1      13.145   2.604  36.353  1.00  0.00     0.000 C 
BRANCH  21  22
ATOM     22  C   UNL     1      12.938   3.000  34.882  1.00  0.00    -0.000 C 
BRANCH  22  23
ATOM     23  C   UNL     1      13.010   4.520  34.663  1.00  0.00    -0.000 C 
BRANCH  23  24
ATOM     24  C   UNL     1      12.064   5.003  33.549  1.00  0.00    -0.000 C 
BRANCH  24  25
ATOM     25  C   UNL     1      10.674   5.383  34.090  1.00  0.00    -0.000 C 
BRANCH  25  26
ATOM     26  C   UNL     1      10.124   6.708  33.514  1.00  0.00    -0.000 C 
BRANCH  26  27
ATOM     27  C   UNL     1       8.641   6.956  33.849  1.00  0.00    -0.000 C 
BRANCH  27  28
ATOM     28  C   UNL     1       8.204   8.432  33.789  1.00  0.00    -0.000 C 
BRANCH  28  29
ATOM     29  C   UNL     1       6.810   8.668  33.181  1.00  0.00    -0.003 C 
ATOM     30  C   UNL     1       6.376  10.134  33.233  1.00  0.00     0.004 C 
ENDBRANCH  28  29
ENDBRANCH  27  28
ENDBRANCH  26  27
ENDBRANCH  25  26
ENDBRANCH  24  25
ENDBRANCH  23  24
ENDBRANCH  22  23
ENDBRANCH  21  22
ENDBRANCH  20  21
ENDBRANCH  19  20
ENDBRANCH  18  19
ENDBRANCH  17  18
ENDBRANCH   1  17
TORSDOF 26
ENDMDL
MODEL 7
REMARK VINA RESULT:    -1.093      2.900      6.561
REMARK INTER + INTRA:          -4.774
REMARK INTER:                  -2.972
REMARK INTRA:                  -1.803
REMARK UNBOUND:                -2.021
REMARK SMILES CCCCCCCCCCCCCCCCCCCCCCCCCCCC(=O)[O-]
REMARK SMILES IDX 15 1 16 2 17 3 18 4 19 5 20 6 21 7 22 8 23 9 24 10 25 11
REMARK SMILES IDX 26 12 27 13 28 14 29 15 30 16 14 17 13 18 12 19 11 20 10 21
REMARK SMILES IDX 9 22 8 23 7 24 6 25 5 26 4 27 3 28 2 29 1 30
REMARK H PARENT
REMARK Flexibility Score: inf
ROOT
ATOM      1  C   UNL     1      10.173   5.091  34.313  1.00  0.00     0.000 C 
ENDROOT
BRANCH   1   2
ATOM      2  C   UNL     1      10.150   6.341  33.416  1.00  0.00     0.000 C 
BRANCH   2   3
ATOM      3  C   UNL     1       8.929   7.258  33.659  1.00  0.00     0.000 C 
BRANCH   3   4
ATOM      4  C   UNL     1       8.162   6.894  34.942  1.00  0.00     0.000 C 
BRANCH   4   5
ATOM      5  C   UNL     1       6.797   6.248  34.651  1.00  0.00     0.000 C 
BRANCH   5   6
ATOM      6  C   UNL     1       5.756   6.544  35.746  1.00  0.00     0.000 C 
BRANCH   6   7
ATOM      7  C   UNL     1       4.877   7.766  35.421  1.00  0.00     0.000 C 
BRANCH   7   8
ATOM      8  C   UNL     1       4.899   8.885  36.478  1.00  0.00     0.000 C 
BRANCH   8   9
ATOM      9  C   UNL     1       6.004   9.925  36.224  1.00  0.00     0.000 C 
BRANCH   9  10
ATOM     10  C   UNL     1       5.450  11.300  35.808  1.00  0.00     0.000 C 
BRANCH  10  11
ATOM     11  C   UNL     1       5.211  11.483  34.296  1.00  0.00     0.000 C 
BRANCH  11  12
ATOM     12  C   UNL     1       5.082  12.959  33.882  1.00  0.00     0.006 C 
BRANCH  12  13
ATOM     13  C   UNL     1       4.915  13.889  35.092  1.00  0.00     0.053 C 
BRANCH  13  14
ATOM     14  C   UNL     1       6.131  14.734  35.322  1.00  0.00     0.041 C 
ATOM     15  O   UNL     1       6.512  15.550  34.442  1.00  0.00    -0.550 OA
ATOM     16  O   UNL     1       6.853  14.608  36.503  1.00  0.00    -0.550 OA
ENDBRANCH  13  14
ENDBRANCH  12  13
ENDBRANCH  11  12
ENDBRANCH  10  11
ENDBRANCH   9  10
ENDBRANCH   8   9
ENDBRANCH   7   8
ENDBRANCH   6   7
ENDBRANCH   5   6
ENDBRANCH   4   5
ENDBRANCH   3   4
ENDBRANCH   2   3
ENDBRANCH   1   2
BRANCH   1  17
ATOM     17  C   UNL     1      11.460   4.257  34.211  1.00  0.00     0.000 C 
BRANCH  17  18
ATOM     18  C   UNL     1      12.094   3.930  35.584  1.00  0.00     0.000 C 
BRANCH  18  19
ATOM     19  C   UNL     1      13.145   2.811  35.496  1.00  0.00     0.000 C 
BRANCH  19  20
ATOM     20  C   UNL     1      13.106   1.860  36.704  1.00  0.00     0.000 C 
BRANCH  20  21
ATOM     21  C   UNL     1      11.681   1.409  37.057  1.00  0.00     0.000 C 
BRANCH  21  22
ATOM     22  C   UNL     1      10.879   1.059  35.792  1.00  0.00    -0.000 C 
BRANCH  22  23
ATOM     23  C   UNL     1       9.379   0.875  36.074  1.00  0.00    -0.000 C 
BRANCH  23  24
ATOM     24  C   UNL     1       8.648   2.212  36.289  1.00  0.00    -0.000 C 
BRANCH  24  25
ATOM     25  C   UNL     1       7.119   2.042  36.309  1.00  0.00    -0.000 C 
BRANCH  25  26
ATOM     26  C   UNL     1       6.360   3.154  35.548  1.00  0.00    -0.000 C 
BRANCH  26  27
ATOM     27  C   UNL     1       5.007   2.693  34.974  1.00  0.00    -0.000 C 
BRANCH  27  28
ATOM     28  C   UNL     1       5.099   1.560  33.934  1.00  0.00    -0.000 C 
BRANCH  28  29
ATOM     29  C   UNL     1       4.978   2.018  32.469  1.00  0.00    -0.003 C 
ATOM     30  C   UNL     1       5.293   0.906  31.467  1.00  0.00     0.004 C 
ENDBRANCH  28  29
ENDBRANCH  27  28
ENDBRANCH  26  27
ENDBRANCH  25  26
ENDBRANCH  24  25
ENDBRANCH  23  24
ENDBRANCH  22  23
ENDBRANCH  21  22
ENDBRANCH  20  21
ENDBRANCH  19  20
ENDBRANCH  18  19
ENDBRANCH  17  18
ENDBRANCH   1  17
TORSDOF 26
ENDMDL
MODEL 8
REMARK VINA RESULT:    -0.901      3.281     10.270
REMARK INTER + INTRA:          -4.292
REMARK INTER:                  -3.220
REMARK INTRA:                  -1.072
REMARK UNBOUND:                -2.021
REMARK SMILES CCCCCCCCCCCCCCCCCCCCCCCCCCCC(=O)[O-]
REMARK SMILES IDX 15 1 16 2 17 3 18 4 19 5 20 6 21 7 22 8 23 9 24 10 25 11
REMARK SMILES IDX 26 12 27 13 28 14 29 15 30 16 14 17 13 18 12 19 11 20 10 21
REMARK SMILES IDX 9 22 8 23 7 24 6 25 5 26 4 27 3 28 2 29 1 30
REMARK H PARENT
REMARK Flexibility Score: inf
ROOT
ATOM      1  C   UNL     1       8.939   3.739  36.186  1.00  0.00     0.000 C 
ENDROOT
BRANCH   1   2
ATOM      2  C   UNL     1       8.662   2.313  36.696  1.00  0.00     0.000 C 
BRANCH   2   3
ATOM      3  C   UNL     1       8.987   1.210  35.663  1.00  0.00     0.000 C 
BRANCH   3   4
ATOM      4  C   UNL     1      10.488   0.878  35.605  1.00  0.00     0.000 C 
BRANCH   4   5
ATOM      5  C   UNL     1      11.307   1.655  36.650  1.00  0.00     0.000 C 
BRANCH   5   6
ATOM      6  C   UNL     1      12.661   2.138  36.102  1.00  0.00     0.000 C 
BRANCH   6   7
ATOM      7  C   UNL     1      12.575   3.522  35.432  1.00  0.00     0.000 C 
BRANCH   7   8
ATOM      8  C   UNL     1      11.246   3.816  34.710  1.00  0.00     0.000 C 
BRANCH   8   9
ATOM      9  C   UNL     1      11.379   4.910  33.636  1.00  0.00     0.000 C 
BRANCH   9  10
ATOM     10  C   UNL     1      10.679   6.224  34.029  1.00  0.00     0.000 C 
BRANCH  10  11
ATOM     11  C   UNL     1       9.185   6.308  33.660  1.00  0.00     0.000 C 
BRANCH  11  12
ATOM     12  C   UNL     1       8.465   7.490  34.334  1.00  0.00     0.006 C 
BRANCH  12  13
ATOM     13  C   UNL     1       8.368   8.713  33.412  1.00  0.00     0.053 C 
BRANCH  13  14
ATOM     14  C   UNL     1       6.946   9.065  33.095  1.00  0.00     0.041 C 
ATOM     15  O   UNL     1       6.115   8.158  32.823  1.00  0.00    -0.550 OA
ATOM     16  O   UNL     1       6.543  10.395  33.083  1.00  0.00    -0.550 OA
ENDBRANCH  13  14
ENDBRANCH  12  13
ENDBRANCH  11  12
ENDBRANCH  10  11
ENDBRANCH   9  10
ENDBRANCH   8   9
ENDBRANCH   7   8
ENDBRANCH   6   7
ENDBRANCH   5   6
ENDBRANCH   4   5
ENDBRANCH   3   4
ENDBRANCH   2   3
ENDBRANCH   1   2
BRANCH   1  17
ATOM     17  C   UNL     1       8.451   4.857  37.122  1.00  0.00     0.000 C 
BRANCH  17  18
ATOM     18  C   UNL     1       6.915   5.035  37.122  1.00  0.00     0.000 C 
BRANCH  18  19
ATOM     19  C   UNL     1       6.294   4.799  35.736  1.00  0.00     0.000 C 
BRANCH  19  20
ATOM     20  C   UNL     1       4.879   5.387  35.607  1.00  0.00     0.000 C 
BRANCH  20  21
ATOM     21  C   UNL     1       4.888   6.897  35.322  1.00  0.00     0.000 C 
BRANCH  21  22
ATOM     22  C   UNL     1       5.175   7.702  36.600  1.00  0.00    -0.000 C 
BRANCH  22  23
ATOM     23  C   UNL     1       6.585   8.315  36.609  1.00  0.00    -0.000 C 
BRANCH  23  24
ATOM     24  C   UNL     1       6.586   9.792  37.040  1.00  0.00    -0.000 C 
BRANCH  24  25
ATOM     25  C   UNL     1       5.456  10.594  36.371  1.00  0.00    -0.000 C 
BRANCH  25  26
ATOM     26  C   UNL     1       5.590  12.124  36.548  1.00  0.00    -0.000 C 
BRANCH  26  27
ATOM     27  C   UNL     1       5.427  12.913  35.235  1.00  0.00    -0.000 C 
BRANCH  27  28
ATOM     28  C   UNL     1       5.638  14.434  35.366  1.00  0.00    -0.000 C 
BRANCH  28  29
ATOM     29  C   UNL     1       5.483  14.986  36.794  1.00  0.00    -0.003 C 
ATOM     30  C   UNL     1       5.244  16.497  36.828  1.00  0.00     0.004 C 
ENDBRANCH  28  29
ENDBRANCH  27  28
ENDBRANCH  26  27
ENDBRANCH  25  26
ENDBRANCH  24  25
ENDBRANCH  23  24
ENDBRANCH  22  23
ENDBRANCH  21  22
ENDBRANCH  20  21
ENDBRANCH  19  20
ENDBRANCH  18  19
ENDBRANCH  17  18
ENDBRANCH   1  17
TORSDOF 26
ENDMDL
