MODEL 1
REMARK VINA RESULT:    -5.332      0.000      0.000
REMARK INTER + INTRA:          -9.973
REMARK INTER:                  -9.073
REMARK INTRA:                  -0.900
REMARK UNBOUND:                -0.900
REMARK SMILES CCCCCCCCCCCCCC(=O)[O-]
REMARK SMILES IDX 8 1 9 2 10 3 11 4 12 5 13 6 14 7 15 8 16 9 7 10 6 11 5 12
REMARK SMILES IDX 4 13 3 14 2 15 1 16
REMARK H PARENT
REMARK Flexibility Score: inf
ROOT
ATOM      1  C   UNL     1      24.939  12.553  36.208  1.00  0.00     0.000 C 
ENDROOT
BRANCH   1   2
ATOM      2  C   UNL     1      26.246  12.987  35.527  1.00  0.00     0.000 C 
BRANCH   2   3
ATOM      3  C   UNL     1      27.066  11.768  35.088  1.00  0.00     0.000 C 
BRANCH   3   4
ATOM      4  C   UNL     1      27.955  12.108  33.883  1.00  0.00     0.000 C 
BRANCH   4   5
ATOM      5  C   UNL     1      27.407  13.273  33.039  1.00  0.00     0.006 C 
BRANCH   5   6
ATOM      6  C   UNL     1      27.008  12.875  31.607  1.00  0.00     0.053 C 
BRANCH   6   7
ATOM      7  C   UNL     1      28.075  12.089  30.906  1.00  0.00     0.041 C 
ATOM      8  O   UNL     1      29.133  12.654  30.524  1.00  0.00    -0.550 OA
ATOM      9  O   UNL     1      27.886  10.737  30.646  1.00  0.00    -0.550 OA
ENDBRANCH   6   7
ENDBRANCH   5   6
ENDBRANCH   4   5
ENDBRANCH   3   4
ENDBRANCH   2   3
ENDBRANCH   1   2
BRANCH   1  10
ATOM     10  C   UNL     1      24.520  11.124  35.831  1.00  0.00     0.000 C 
BRANCH  10  11
ATOM     11  C   UNL     1      23.135  11.068  35.168  1.00  0.00    -0.000 C 
BRANCH  11  12
ATOM     12  C   UNL     1      22.411  12.418  35.296  1.00  0.00    -0.000 C 
BRANCH  12  13
ATOM     13  C   UNL     1      20.903  12.259  35.544  1.00  0.00    -0.000 C 
BRANCH  13  14
ATOM     14  C   UNL     1      20.136  13.583  35.389  1.00  0.00    -0.000 C 
BRANCH  14  15
ATOM     15  C   UNL     1      20.546  14.356  34.126  1.00  0.00    -0.003 C 
ATOM     16  C   UNL     1      19.912  13.793  32.855  1.00  0.00     0.004 C 
ENDBRANCH  14  15
ENDBRANCH  13  14
ENDBRANCH  12  13
ENDBRANCH  11  12
ENDBRANCH  10  11
ENDBRANCH   1  10
TORSDOF 12
ENDMDL
MODEL 2
REMARK VINA RESULT:    -5.290      1.317      2.101
REMARK INTER + INTRA:          -9.902
REMARK INTER:                  -8.677
REMARK INTRA:                  -1.224
REMARK UNBOUND:                -0.900
REMARK SMILES CCCCCCCCCCCCCC(=O)[O-]
REMARK SMILES IDX 8 1 9 2 10 3 11 4 12 5 13 6 14 7 15 8 16 9 7 10 6 11 5 12
REMARK SMILES IDX 4 13 3 14 2 15 1 16
REMARK H PARENT
REMARK Flexibility Score: inf
ROOT
ATOM      1  C   UNL     1      23.459  11.311  34.981  1.00  0.00     0.000 C 
ENDROOT
BRANCH   1   2
ATOM      2  C   UNL     1      24.034  12.593  35.601  1.00  0.00     0.000 C 
BRANCH   2   3
ATOM      3  C   UNL     1      25.566  12.538  35.654  1.00  0.00     0.000 C 
BRANCH   3   4
ATOM      4  C   UNL     1      26.085  11.181  35.158  1.00  0.00     0.000 C 
BRANCH   4   5
ATOM      5  C   UNL     1      27.590  11.192  34.833  1.00  0.00     0.006 C 
BRANCH   5   6
ATOM      6  C   UNL     1      28.025  12.355  33.925  1.00  0.00     0.053 C 
BRANCH   6   7
ATOM      7  C   UNL     1      27.453  12.255  32.543  1.00  0.00     0.041 C 
ATOM      8  O   UNL     1      27.908  11.411  31.726  1.00  0.00    -0.550 OA
ATOM      9  O   UNL     1      26.438  13.116  32.145  1.00  0.00    -0.550 OA
ENDBRANCH   6   7
ENDBRANCH   5   6
ENDBRANCH   4   5
ENDBRANCH   3   4
ENDBRANCH   2   3
ENDBRANCH   1   2
BRANCH   1  10
ATOM     10  C   UNL     1      22.366  10.670  35.849  1.00  0.00     0.000 C 
BRANCH  10  11
ATOM     11  C   UNL     1      21.251  10.021  35.016  1.00  0.00    -0.000 C 
BRANCH  11  12
ATOM     12  C   UNL     1      20.061  10.980  34.850  1.00  0.00    -0.000 C 
BRANCH  12  13
ATOM     13  C   UNL     1      20.004  12.048  35.953  1.00  0.00    -0.000 C 
BRANCH  13  14
ATOM     14  C   UNL     1      19.600  13.432  35.416  1.00  0.00    -0.000 C 
BRANCH  14  15
ATOM     15  C   UNL     1      20.702  14.076  34.561  1.00  0.00    -0.003 C 
ATOM     16  C   UNL     1      20.297  14.235  33.096  1.00  0.00     0.004 C 
ENDBRANCH  14  15
ENDBRANCH  13  14
ENDBRANCH  12  13
ENDBRANCH  11  12
ENDBRANCH  10  11
ENDBRANCH   1  10
TORSDOF 12
ENDMDL
MODEL 3
REMARK VINA RESULT:    -5.274      1.277      1.654
REMARK INTER + INTRA:          -9.873
REMARK INTER:                  -8.650
REMARK INTRA:                  -1.223
REMARK UNBOUND:                -0.900
REMARK SMILES CCCCCCCCCCCCCC(=O)[O-]
REMARK SMILES IDX 8 1 9 2 10 3 11 4 12 5 13 6 14 7 15 8 16 9 7 10 6 11 5 12
REMARK SMILES IDX 4 13 3 14 2 15 1 16
REMARK H PARENT
REMARK Flexibility Score: inf
ROOT
ATOM      1  C   UNL     1      25.082  12.371  35.996  1.00  0.00     0.000 C 
ENDROOT
BRANCH   1   2
ATOM      2  C   UNL     1      25.738  11.087  35.466  1.00  0.00     0.000 C 
BRANCH   2   3
ATOM      3  C   UNL     1      27.104  11.387  34.838  1.00  0.00     0.000 C 
BRANCH   3   4
ATOM      4  C   UNL     1      27.354  12.900  34.763  1.00  0.00     0.000 C 
BRANCH   4   5
ATOM      5  C   UNL     1      27.371  13.438  33.320  1.00  0.00     0.006 C 
BRANCH   5   6
ATOM      6  C   UNL     1      26.869  12.430  32.271  1.00  0.00     0.053 C 
BRANCH   6   7
ATOM      7  C   UNL     1      27.929  12.046  31.284  1.00  0.00     0.041 C 
ATOM      8  O   UNL     1      28.868  12.841  31.017  1.00  0.00    -0.550 OA
ATOM      9  O   UNL     1      27.863  10.820  30.634  1.00  0.00    -0.550 OA
ENDBRANCH   6   7
ENDBRANCH   5   6
ENDBRANCH   4   5
ENDBRANCH   3   4
ENDBRANCH   2   3
ENDBRANCH   1   2
BRANCH   1  10
ATOM     10  C   UNL     1      23.665  12.585  35.442  1.00  0.00     0.000 C 
BRANCH  10  11
ATOM     11  C   UNL     1      23.450  11.899  34.084  1.00  0.00    -0.000 C 
BRANCH  11  12
ATOM     12  C   UNL     1      21.978  11.496  33.901  1.00  0.00    -0.000 C 
BRANCH  12  13
ATOM     13  C   UNL     1      21.488  10.533  34.993  1.00  0.00    -0.000 C 
BRANCH  13  14
ATOM     14  C   UNL     1      20.275  11.081  35.764  1.00  0.00    -0.000 C 
BRANCH  14  15
ATOM     15  C   UNL     1      20.036  12.575  35.500  1.00  0.00    -0.003 C 
ATOM     16  C   UNL     1      18.828  13.124  36.258  1.00  0.00     0.004 C 
ENDBRANCH  14  15
ENDBRANCH  13  14
ENDBRANCH  12  13
ENDBRANCH  11  12
ENDBRANCH  10  11
ENDBRANCH   1  10
TORSDOF 12
ENDMDL
MODEL 4
REMARK VINA RESULT:    -5.245      1.157      1.956
REMARK INTER + INTRA:          -9.825
REMARK INTER:                  -8.547
REMARK INTRA:                  -1.277
REMARK UNBOUND:                -0.900
REMARK SMILES CCCCCCCCCCCCCC(=O)[O-]
REMARK SMILES IDX 8 1 9 2 10 3 11 4 12 5 13 6 14 7 15 8 16 9 7 10 6 11 5 12
REMARK SMILES IDX 4 13 3 14 2 15 1 16
REMARK H PARENT
REMARK Flexibility Score: inf
ROOT
ATOM      1  C   UNL     1      24.773  11.368  35.944  1.00  0.00     0.000 C 
ENDROOT
BRANCH   1   2
ATOM      2  C   UNL     1      25.087  12.871  35.940  1.00  0.00     0.000 C 
BRANCH   2   3
ATOM      3  C   UNL     1      26.441  13.147  35.275  1.00  0.00     0.000 C 
BRANCH   3   4
ATOM      4  C   UNL     1      27.244  11.850  35.102  1.00  0.00     0.000 C 
BRANCH   4   5
ATOM      5  C   UNL     1      28.036  11.801  33.783  1.00  0.00     0.006 C 
BRANCH   5   6
ATOM      6  C   UNL     1      27.163  11.563  32.539  1.00  0.00     0.053 C 
BRANCH   6   7
ATOM      7  C   UNL     1      27.948  11.612  31.263  1.00  0.00     0.041 C 
ATOM      8  O   UNL     1      28.675  12.607  31.002  1.00  0.00    -0.550 OA
ATOM      9  O   UNL     1      27.853  10.573  30.346  1.00  0.00    -0.550 OA
ENDBRANCH   6   7
ENDBRANCH   5   6
ENDBRANCH   4   5
ENDBRANCH   3   4
ENDBRANCH   2   3
ENDBRANCH   1   2
BRANCH   1  10
ATOM     10  C   UNL     1      23.426  11.041  35.281  1.00  0.00     0.000 C 
BRANCH  10  11
ATOM     11  C   UNL     1      23.179  11.861  34.006  1.00  0.00    -0.000 C 
BRANCH  11  12
ATOM     12  C   UNL     1      21.707  12.292  33.908  1.00  0.00    -0.000 C 
BRANCH  12  13
ATOM     13  C   UNL     1      21.217  13.016  35.171  1.00  0.00    -0.000 C 
BRANCH  13  14
ATOM     14  C   UNL     1      20.044  12.290  35.852  1.00  0.00    -0.000 C 
BRANCH  14  15
ATOM     15  C   UNL     1      19.620  11.021  35.097  1.00  0.00    -0.003 C 
ATOM     16  C   UNL     1      19.911   9.741  35.881  1.00  0.00     0.004 C 
ENDBRANCH  14  15
ENDBRANCH  13  14
ENDBRANCH  12  13
ENDBRANCH  11  12
ENDBRANCH  10  11
ENDBRANCH   1  10
TORSDOF 12
ENDMDL
MODEL 5
REMARK VINA RESULT:    -5.204      3.871      7.213
REMARK INTER + INTRA:          -9.755
REMARK INTER:                  -8.628
REMARK INTRA:                  -1.127
REMARK UNBOUND:                -0.900
REMARK SMILES CCCCCCCCCCCCCC(=O)[O-]
REMARK SMILES IDX 8 1 9 2 10 3 11 4 12 5 13 6 14 7 15 8 16 9 7 10 6 11 5 12
REMARK SMILES IDX 4 13 3 14 2 15 1 16
REMARK H PARENT
REMARK Flexibility Score: inf
ROOT
ATOM      1  C   UNL     1      22.811  12.244  35.426  1.00  0.00     0.000 C 
ENDROOT
BRANCH   1   2
ATOM      2  C   UNL     1      22.530  12.206  33.916  1.00  0.00     0.000 C 
BRANCH   2   3
ATOM      3  C   UNL     1      21.329  13.090  33.559  1.00  0.00     0.000 C 
BRANCH   3   4
ATOM      4  C   UNL     1      20.795  13.820  34.799  1.00  0.00     0.000 C 
BRANCH   4   5
ATOM      5  C   UNL     1      19.335  13.460  35.129  1.00  0.00     0.006 C 
BRANCH   5   6
ATOM      6  C   UNL     1      19.189  12.305  36.136  1.00  0.00     0.053 C 
BRANCH   6   7
ATOM      7  C   UNL     1      19.245  10.957  35.483  1.00  0.00     0.041 C 
ATOM      8  O   UNL     1      18.525  10.705  34.482  1.00  0.00    -0.550 OA
ATOM      9  O   UNL     1      20.072   9.968  36.001  1.00  0.00    -0.550 OA
ENDBRANCH   6   7
ENDBRANCH   5   6
ENDBRANCH   4   5
ENDBRANCH   3   4
ENDBRANCH   2   3
ENDBRANCH   1   2
BRANCH   1  10
ATOM     10  C   UNL     1      24.274  12.584  35.748  1.00  0.00     0.000 C 
BRANCH  10  11
ATOM     11  C   UNL     1      25.162  11.336  35.859  1.00  0.00    -0.000 C 
BRANCH  11  12
ATOM     12  C   UNL     1      25.978  11.128  34.574  1.00  0.00    -0.000 C 
BRANCH  12  13
ATOM     13  C   UNL     1      27.490  11.282  34.801  1.00  0.00    -0.000 C 
BRANCH  13  14
ATOM     14  C   UNL     1      28.124  12.329  33.869  1.00  0.00    -0.000 C 
BRANCH  14  15
ATOM     15  C   UNL     1      27.341  13.650  33.849  1.00  0.00    -0.003 C 
ATOM     16  C   UNL     1      27.479  14.440  35.150  1.00  0.00     0.004 C 
ENDBRANCH  14  15
ENDBRANCH  13  14
ENDBRANCH  12  13
ENDBRANCH  11  12
ENDBRANCH  10  11
ENDBRANCH   1  10
TORSDOF 12
ENDMDL
MODEL 6
REMARK VINA RESULT:    -5.202      4.106      6.924
REMARK INTER + INTRA:          -9.751
REMARK INTER:                  -8.424
REMARK INTRA:                  -1.327
REMARK UNBOUND:                -0.900
REMARK SMILES CCCCCCCCCCCCCC(=O)[O-]
REMARK SMILES IDX 8 1 9 2 10 3 11 4 12 5 13 6 14 7 15 8 16 9 7 10 6 11 5 12
REMARK SMILES IDX 4 13 3 14 2 15 1 16
REMARK H PARENT
REMARK Flexibility Score: inf
ROOT
ATOM      1  C   UNL     1      25.620  11.170  35.412  1.00  0.00     0.000 C 
ENDROOT
BRANCH   1   2
ATOM      2  C   UNL     1      24.916  12.431  35.934  1.00  0.00     0.000 C 
BRANCH   2   3
ATOM      3  C   UNL     1      23.469  12.500  35.431  1.00  0.00     0.000 C 
BRANCH   3   4
ATOM      4  C   UNL     1      22.859  11.096  35.316  1.00  0.00     0.000 C 
BRANCH   4   5
ATOM      5  C   UNL     1      21.329  11.088  35.487  1.00  0.00     0.006 C 
BRANCH   5   6
ATOM      6  C   UNL     1      20.722  12.474  35.763  1.00  0.00     0.053 C 
BRANCH   6   7
ATOM      7  C   UNL     1      19.225  12.452  35.813  1.00  0.00     0.041 C 
ATOM      8  O   UNL     1      18.600  13.273  36.535  1.00  0.00    -0.550 OA
ATOM      9  O   UNL     1      18.518  11.502  35.086  1.00  0.00    -0.550 OA
ENDBRANCH   6   7
ENDBRANCH   5   6
ENDBRANCH   4   5
ENDBRANCH   3   4
ENDBRANCH   2   3
ENDBRANCH   1   2
BRANCH   1  10
ATOM     10  C   UNL     1      27.087  11.423  35.032  1.00  0.00     0.000 C 
BRANCH  10  11
ATOM     11  C   UNL     1      27.478  12.905  35.135  1.00  0.00    -0.000 C 
BRANCH  11  12
ATOM     12  C   UNL     1      27.736  13.502  33.743  1.00  0.00    -0.000 C 
BRANCH  12  13
ATOM     13  C   UNL     1      28.133  12.439  32.708  1.00  0.00    -0.000 C 
BRANCH  13  14
ATOM     14  C   UNL     1      27.365  12.588  31.382  1.00  0.00    -0.000 C 
BRANCH  14  15
ATOM     15  C   UNL     1      26.031  13.329  31.556  1.00  0.00    -0.003 C 
ATOM     16  C   UNL     1      24.881  12.395  31.933  1.00  0.00     0.004 C 
ENDBRANCH  14  15
ENDBRANCH  13  14
ENDBRANCH  12  13
ENDBRANCH  11  12
ENDBRANCH  10  11
ENDBRANCH   1  10
TORSDOF 12
ENDMDL
MODEL 7
REMARK VINA RESULT:    -5.160      3.821      7.196
REMARK INTER + INTRA:          -9.680
REMARK INTER:                  -8.566
REMARK INTRA:                  -1.114
REMARK UNBOUND:                -0.900
REMARK SMILES CCCCCCCCCCCCCC(=O)[O-]
REMARK SMILES IDX 8 1 9 2 10 3 11 4 12 5 13 6 14 7 15 8 16 9 7 10 6 11 5 12
REMARK SMILES IDX 4 13 3 14 2 15 1 16
REMARK H PARENT
REMARK Flexibility Score: inf
ROOT
ATOM      1  C   UNL     1      23.851  12.472  35.668  1.00  0.00     0.000 C 
ENDROOT
BRANCH   1   2
ATOM      2  C   UNL     1      23.701  11.727  34.332  1.00  0.00     0.000 C 
BRANCH   2   3
ATOM      3  C   UNL     1      22.303  11.109  34.204  1.00  0.00     0.000 C 
BRANCH   3   4
ATOM      4  C   UNL     1      21.888  10.411  35.506  1.00  0.00     0.000 C 
BRANCH   4   5
ATOM      5  C   UNL     1      20.367  10.426  35.742  1.00  0.00     0.006 C 
BRANCH   5   6
ATOM      6  C   UNL     1      19.636  11.576  35.028  1.00  0.00     0.053 C 
BRANCH   6   7
ATOM      7  C   UNL     1      19.607  12.837  35.838  1.00  0.00     0.041 C 
ATOM      8  O   UNL     1      18.735  12.998  36.732  1.00  0.00    -0.550 OA
ATOM      9  O   UNL     1      20.526  13.847  35.586  1.00  0.00    -0.550 OA
ENDBRANCH   6   7
ENDBRANCH   5   6
ENDBRANCH   4   5
ENDBRANCH   3   4
ENDBRANCH   2   3
ENDBRANCH   1   2
BRANCH   1  10
ATOM     10  C   UNL     1      25.279  12.395  36.231  1.00  0.00     0.000 C 
BRANCH  10  11
ATOM     11  C   UNL     1      26.277  11.784  35.236  1.00  0.00    -0.000 C 
BRANCH  11  12
ATOM     12  C   UNL     1      27.488  12.709  35.036  1.00  0.00    -0.000 C 
BRANCH  12  13
ATOM     13  C   UNL     1      27.250  13.766  33.947  1.00  0.00    -0.000 C 
BRANCH  13  14
ATOM     14  C   UNL     1      26.944  13.144  32.574  1.00  0.00    -0.000 C 
BRANCH  14  15
ATOM     15  C   UNL     1      28.080  12.239  32.072  1.00  0.00    -0.003 C 
ATOM     16  C   UNL     1      28.743  12.772  30.803  1.00  0.00     0.004 C 
ENDBRANCH  14  15
ENDBRANCH  13  14
ENDBRANCH  12  13
ENDBRANCH  11  12
ENDBRANCH  10  11
ENDBRANCH   1  10
TORSDOF 12
ENDMDL
MODEL 8
REMARK VINA RESULT:    -5.153      4.149      7.076
REMARK INTER + INTRA:          -9.668
REMARK INTER:                  -8.577
REMARK INTRA:                  -1.091
REMARK UNBOUND:                -0.900
REMARK SMILES CCCCCCCCCCCCCC(=O)[O-]
REMARK SMILES IDX 8 1 9 2 10 3 11 4 12 5 13 6 14 7 15 8 16 9 7 10 6 11 5 12
REMARK SMILES IDX 4 13 3 14 2 15 1 16
REMARK H PARENT
REMARK Flexibility Score: inf
ROOT
ATOM      1  C   UNL     1      25.237  11.340  35.858  1.00  0.00     0.000 C 
ENDROOT
BRANCH   1   2
ATOM      2  C   UNL     1      24.388  12.616  35.750  1.00  0.00     0.000 C 
BRANCH   2   3
ATOM      3  C   UNL     1      22.901  12.274  35.594  1.00  0.00     0.000 C 
BRANCH   3   4
ATOM      4  C   UNL     1      22.586  11.832  34.158  1.00  0.00     0.000 C 
BRANCH   4   5
ATOM      5  C   UNL     1      21.538  10.707  34.089  1.00  0.00     0.006 C 
BRANCH   5   6
ATOM      6  C   UNL     1      21.393   9.906  35.395  1.00  0.00     0.053 C 
BRANCH   6   7
ATOM      7  C   UNL     1      19.997   9.935  35.940  1.00  0.00     0.041 C 
ATOM      8  O   UNL     1      19.310  10.989  35.874  1.00  0.00    -0.550 OA
ATOM      9  O   UNL     1      19.464   8.806  36.549  1.00  0.00    -0.550 OA
ENDBRANCH   6   7
ENDBRANCH   5   6
ENDBRANCH   4   5
ENDBRANCH   3   4
ENDBRANCH   2   3
ENDBRANCH   1   2
BRANCH   1  10
ATOM     10  C   UNL     1      26.100  11.095  34.611  1.00  0.00     0.000 C 
BRANCH  10  11
ATOM     11  C   UNL     1      27.594  11.347  34.866  1.00  0.00    -0.000 C 
BRANCH  11  12
ATOM     12  C   UNL     1      27.963  12.808  34.563  1.00  0.00    -0.000 C 
BRANCH  12  13
ATOM     13  C   UNL     1      27.477  13.266  33.180  1.00  0.00    -0.000 C 
BRANCH  13  14
ATOM     14  C   UNL     1      28.274  12.624  32.031  1.00  0.00    -0.000 C 
BRANCH  14  15
ATOM     15  C   UNL     1      27.366  12.098  30.908  1.00  0.00    -0.003 C 
ATOM     16  C   UNL     1      27.568  10.608  30.634  1.00  0.00     0.004 C 
ENDBRANCH  14  15
ENDBRANCH  13  14
ENDBRANCH  12  13
ENDBRANCH  11  12
ENDBRANCH  10  11
ENDBRANCH   1  10
TORSDOF 12
ENDMDL
MODEL 9
REMARK VINA RESULT:    -4.969      1.325      2.247
REMARK INTER + INTRA:          -9.355
REMARK INTER:                  -8.013
REMARK INTRA:                  -1.342
REMARK UNBOUND:                -0.900
REMARK SMILES CCCCCCCCCCCCCC(=O)[O-]
REMARK SMILES IDX 8 1 9 2 10 3 11 4 12 5 13 6 14 7 15 8 16 9 7 10 6 11 5 12
REMARK SMILES IDX 4 13 3 14 2 15 1 16
REMARK H PARENT
REMARK Flexibility Score: inf
ROOT
ATOM      1  C   UNL     1      23.227  11.749  35.650  1.00  0.00     0.000 C 
ENDROOT
BRANCH   1   2
ATOM      2  C   UNL     1      24.187  11.621  34.457  1.00  0.00     0.000 C 
BRANCH   2   3
ATOM      3  C   UNL     1      25.621  11.361  34.933  1.00  0.00     0.000 C 
BRANCH   3   4
ATOM      4  C   UNL     1      26.308  12.669  35.350  1.00  0.00     0.000 C 
BRANCH   4   5
ATOM      5  C   UNL     1      27.500  13.039  34.449  1.00  0.00     0.006 C 
BRANCH   5   6
ATOM      6  C   UNL     1      27.116  13.311  32.984  1.00  0.00     0.053 C 
BRANCH   6   7
ATOM      7  C   UNL     1      27.806  12.391  32.024  1.00  0.00     0.041 C 
ATOM      8  O   UNL     1      27.547  11.159  32.025  1.00  0.00    -0.550 OA
ATOM      9  O   UNL     1      28.761  12.890  31.147  1.00  0.00    -0.550 OA
ENDBRANCH   6   7
ENDBRANCH   5   6
ENDBRANCH   4   5
ENDBRANCH   3   4
ENDBRANCH   2   3
ENDBRANCH   1   2
BRANCH   1  10
ATOM     10  C   UNL     1      21.977  10.868  35.502  1.00  0.00     0.000 C 
BRANCH  10  11
ATOM     11  C   UNL     1      20.678  11.687  35.452  1.00  0.00    -0.000 C 
BRANCH  11  12
ATOM     12  C   UNL     1      20.978  13.194  35.480  1.00  0.00    -0.000 C 
BRANCH  12  13
ATOM     13  C   UNL     1      20.495  13.917  34.214  1.00  0.00    -0.000 C 
BRANCH  13  14
ATOM     14  C   UNL     1      20.209  12.949  33.052  1.00  0.00    -0.000 C 
BRANCH  14  15
ATOM     15  C   UNL     1      21.403  12.811  32.095  1.00  0.00    -0.003 C 
ATOM     16  C   UNL     1      21.681  11.360  31.703  1.00  0.00     0.004 C 
ENDBRANCH  14  15
ENDBRANCH  13  14
ENDBRANCH  12  13
ENDBRANCH  11  12
ENDBRANCH  10  11
ENDBRANCH   1  10
TORSDOF 12
ENDMDL
