MODEL 1
REMARK VINA RESULT:    -3.456      0.000      0.000
REMARK INTER + INTRA:          -6.261
REMARK INTER:                  -5.476
REMARK INTRA:                  -0.785
REMARK UNBOUND:                -0.785
REMARK SMILES CCCCCCCCCCCC(=O)[O-]
REMARK SMILES IDX 7 1 8 2 9 3 10 4 11 5 12 6 13 7 14 8 6 9 5 10 4 11 3 12 2 13
REMARK SMILES IDX 1 14
REMARK H PARENT
REMARK Flexibility Score: inf
ROOT
ATOM      1  C   UNL     1      62.164  44.885  16.402  1.00  0.00     0.000 C 
ENDROOT
BRANCH   1   2
ATOM      2  C   UNL     1      61.740  44.495  17.830  1.00  0.00     0.000 C 
BRANCH   2   3
ATOM      3  C   UNL     1      60.276  44.026  17.912  1.00  0.00     0.000 C 
BRANCH   3   4
ATOM      4  C   UNL     1      59.324  44.889  17.062  1.00  0.00     0.006 C 
BRANCH   4   5
ATOM      5  C   UNL     1      58.149  44.102  16.457  1.00  0.00     0.053 C 
BRANCH   5   6
ATOM      6  C   UNL     1      57.204  44.973  15.691  1.00  0.00     0.041 C 
ATOM      7  O   UNL     1      56.151  44.488  15.198  1.00  0.00    -0.550 OA
ATOM      8  O   UNL     1      57.485  46.323  15.519  1.00  0.00    -0.550 OA
ENDBRANCH   5   6
ENDBRANCH   4   5
ENDBRANCH   3   4
ENDBRANCH   2   3
ENDBRANCH   1   2
BRANCH   1   9
ATOM      9  C   UNL     1      63.640  44.600  16.063  1.00  0.00     0.000 C 
BRANCH   9  10
ATOM     10  C   UNL     1      63.809  43.658  14.862  1.00  0.00    -0.000 C 
BRANCH  10  11
ATOM     11  C   UNL     1      64.803  42.536  15.180  1.00  0.00    -0.000 C 
BRANCH  11  12
ATOM     12  C   UNL     1      64.072  41.232  15.521  1.00  0.00    -0.000 C 
BRANCH  12  13
ATOM     13  C   UNL     1      64.448  40.740  16.923  1.00  0.00    -0.003 C 
ATOM     14  C   UNL     1      63.356  41.076  17.936  1.00  0.00     0.004 C 
ENDBRANCH  12  13
ENDBRANCH  11  12
ENDBRANCH  10  11
ENDBRANCH   9  10
ENDBRANCH   1   9
TORSDOF 10
ENDMDL
MODEL 2
REMARK VINA RESULT:    -3.434     10.927     13.154
REMARK INTER + INTRA:          -6.226
REMARK INTER:                  -5.294
REMARK INTRA:                  -0.932
REMARK UNBOUND:                -0.785
REMARK SMILES CCCCCCCCCCCC(=O)[O-]
REMARK SMILES IDX 7 1 8 2 9 3 10 4 11 5 12 6 13 7 14 8 6 9 5 10 4 11 3 12 2 13
REMARK SMILES IDX 1 14
REMARK H PARENT
REMARK Flexibility Score: inf
ROOT
ATOM      1  C   UNL     1      50.010  47.403  14.911  1.00  0.00     0.000 C 
ENDROOT
BRANCH   1   2
ATOM      2  C   UNL     1      50.284  46.076  14.179  1.00  0.00     0.000 C 
BRANCH   2   3
ATOM      3  C   UNL     1      50.237  44.856  15.116  1.00  0.00     0.000 C 
BRANCH   3   4
ATOM      4  C   UNL     1      49.027  43.941  14.844  1.00  0.00     0.006 C 
BRANCH   4   5
ATOM      5  C   UNL     1      47.672  44.663  14.941  1.00  0.00     0.053 C 
BRANCH   5   6
ATOM      6  C   UNL     1      46.513  43.755  14.672  1.00  0.00     0.041 C 
ATOM      7  O   UNL     1      46.664  42.729  13.957  1.00  0.00    -0.550 OA
ATOM      8  O   UNL     1      45.265  44.041  15.210  1.00  0.00    -0.550 OA
ENDBRANCH   5   6
ENDBRANCH   4   5
ENDBRANCH   3   4
ENDBRANCH   2   3
ENDBRANCH   1   2
BRANCH   1   9
ATOM      9  C   UNL     1      48.912  48.279  14.277  1.00  0.00     0.000 C 
BRANCH   9  10
ATOM     10  C   UNL     1      49.403  49.688  13.915  1.00  0.00    -0.000 C 
BRANCH  10  11
ATOM     11  C   UNL     1      49.914  49.738  12.471  1.00  0.00    -0.000 C 
BRANCH  11  12
ATOM     12  C   UNL     1      51.441  49.882  12.431  1.00  0.00    -0.000 C 
BRANCH  12  13
ATOM     13  C   UNL     1      52.105  48.573  11.989  1.00  0.00    -0.003 C 
ATOM     14  C   UNL     1      53.166  48.129  12.992  1.00  0.00     0.004 C 
ENDBRANCH  12  13
ENDBRANCH  11  12
ENDBRANCH  10  11
ENDBRANCH   9  10
ENDBRANCH   1   9
TORSDOF 10
ENDMDL
MODEL 3
REMARK VINA RESULT:    -3.349     12.409     14.475
REMARK INTER + INTRA:          -6.091
REMARK INTER:                  -5.463
REMARK INTRA:                  -0.628
REMARK UNBOUND:                -0.785
REMARK SMILES CCCCCCCCCCCC(=O)[O-]
REMARK SMILES IDX 7 1 8 2 9 3 10 4 11 5 12 6 13 7 14 8 6 9 5 10 4 11 3 12 2 13
REMARK SMILES IDX 1 14
REMARK H PARENT
REMARK Flexibility Score: inf
ROOT
ATOM      1  C   UNL     1      48.747  43.445  15.267  1.00  0.00     0.000 C 
ENDROOT
BRANCH   1   2
ATOM      2  C   UNL     1      47.570  42.927  14.420  1.00  0.00     0.000 C 
BRANCH   2   3
ATOM      3  C   UNL     1      46.294  43.771  14.589  1.00  0.00     0.000 C 
BRANCH   3   4
ATOM      4  C   UNL     1      45.197  43.040  15.388  1.00  0.00     0.006 C 
BRANCH   4   5
ATOM      5  C   UNL     1      45.217  41.512  15.209  1.00  0.00     0.053 C 
BRANCH   5   6
ATOM      6  C   UNL     1      45.529  40.787  16.480  1.00  0.00     0.041 C 
ATOM      7  O   UNL     1      46.043  41.402  17.452  1.00  0.00    -0.550 OA
ATOM      8  O   UNL     1      45.254  39.429  16.594  1.00  0.00    -0.550 OA
ENDBRANCH   5   6
ENDBRANCH   4   5
ENDBRANCH   3   4
ENDBRANCH   2   3
ENDBRANCH   1   2
BRANCH   1   9
ATOM      9  C   UNL     1      48.969  44.969  15.205  1.00  0.00     0.000 C 
BRANCH   9  10
ATOM     10  C   UNL     1      50.127  45.369  14.279  1.00  0.00    -0.000 C 
BRANCH  10  11
ATOM     11  C   UNL     1      50.366  46.882  14.320  1.00  0.00    -0.000 C 
BRANCH  11  12
ATOM     12  C   UNL     1      49.044  47.645  14.470  1.00  0.00    -0.000 C 
BRANCH  12  13
ATOM     13  C   UNL     1      49.118  49.015  13.785  1.00  0.00    -0.003 C 
ATOM     14  C   UNL     1      50.273  49.069  12.787  1.00  0.00     0.004 C 
ENDBRANCH  12  13
ENDBRANCH  11  12
ENDBRANCH  10  11
ENDBRANCH   9  10
ENDBRANCH   1   9
TORSDOF 10
ENDMDL
MODEL 4
REMARK VINA RESULT:    -3.345     11.607     13.722
REMARK INTER + INTRA:          -6.085
REMARK INTER:                  -5.443
REMARK INTRA:                  -0.641
REMARK UNBOUND:                -0.785
REMARK SMILES CCCCCCCCCCCC(=O)[O-]
REMARK SMILES IDX 7 1 8 2 9 3 10 4 11 5 12 6 13 7 14 8 6 9 5 10 4 11 3 12 2 13
REMARK SMILES IDX 1 14
REMARK H PARENT
REMARK Flexibility Score: inf
ROOT
ATOM      1  C   UNL     1      48.759  46.073  14.960  1.00  0.00     0.000 C 
ENDROOT
BRANCH   1   2
ATOM      2  C   UNL     1      50.150  45.673  14.433  1.00  0.00     0.000 C 
BRANCH   2   3
ATOM      3  C   UNL     1      50.872  46.827  13.714  1.00  0.00     0.000 C 
BRANCH   3   4
ATOM      4  C   UNL     1      50.048  48.130  13.701  1.00  0.00     0.006 C 
BRANCH   4   5
ATOM      5  C   UNL     1      50.908  49.405  13.670  1.00  0.00     0.053 C 
BRANCH   5   6
ATOM      6  C   UNL     1      51.877  49.419  12.530  1.00  0.00     0.041 C 
ATOM      7  O   UNL     1      53.115  49.502  12.751  1.00  0.00    -0.550 OA
ATOM      8  O   UNL     1      51.416  49.339  11.222  1.00  0.00    -0.550 OA
ENDBRANCH   5   6
ENDBRANCH   4   5
ENDBRANCH   3   4
ENDBRANCH   2   3
ENDBRANCH   1   2
BRANCH   1   9
ATOM      9  C   UNL     1      47.775  44.902  15.147  1.00  0.00     0.000 C 
BRANCH   9  10
ATOM     10  C   UNL     1      48.389  43.540  14.794  1.00  0.00    -0.000 C 
BRANCH  10  11
ATOM     11  C   UNL     1      47.316  42.565  14.297  1.00  0.00    -0.000 C 
BRANCH  11  12
ATOM     12  C   UNL     1      45.908  43.112  14.564  1.00  0.00    -0.000 C 
BRANCH  12  13
ATOM     13  C   UNL     1      45.092  42.136  15.419  1.00  0.00    -0.003 C 
ATOM     14  C   UNL     1      45.602  40.706  15.260  1.00  0.00     0.004 C 
ENDBRANCH  12  13
ENDBRANCH  11  12
ENDBRANCH  10  11
ENDBRANCH   9  10
ENDBRANCH   1   9
TORSDOF 10
ENDMDL
MODEL 5
REMARK VINA RESULT:    -3.340     10.280     12.467
REMARK INTER + INTRA:          -6.078
REMARK INTER:                  -4.898
REMARK INTRA:                  -1.180
REMARK UNBOUND:                -0.785
REMARK SMILES CCCCCCCCCCCC(=O)[O-]
REMARK SMILES IDX 7 1 8 2 9 3 10 4 11 5 12 6 13 7 14 8 6 9 5 10 4 11 3 12 2 13
REMARK SMILES IDX 1 14
REMARK H PARENT
REMARK Flexibility Score: inf
ROOT
ATOM      1  C   UNL     1      49.002  48.762  13.959  1.00  0.00     0.000 C 
ENDROOT
BRANCH   1   2
ATOM      2  C   UNL     1      49.695  49.992  13.342  1.00  0.00     0.000 C 
BRANCH   2   3
ATOM      3  C   UNL     1      50.128  49.765  11.883  1.00  0.00     0.000 C 
BRANCH   3   4
ATOM      4  C   UNL     1      51.608  49.354  11.757  1.00  0.00     0.006 C 
BRANCH   4   5
ATOM      5  C   UNL     1      52.500  49.902  12.884  1.00  0.00     0.053 C 
BRANCH   5   6
ATOM      6  C   UNL     1      53.681  49.026  13.162  1.00  0.00     0.041 C 
ATOM      7  O   UNL     1      54.770  49.532  13.542  1.00  0.00    -0.550 OA
ATOM      8  O   UNL     1      53.581  47.649  13.003  1.00  0.00    -0.550 OA
ENDBRANCH   5   6
ENDBRANCH   4   5
ENDBRANCH   3   4
ENDBRANCH   2   3
ENDBRANCH   1   2
BRANCH   1   9
ATOM      9  C   UNL     1      49.606  48.278  15.292  1.00  0.00     0.000 C 
BRANCH   9  10
ATOM     10  C   UNL     1      50.801  47.333  15.100  1.00  0.00    -0.000 C 
BRANCH  10  11
ATOM     11  C   UNL     1      50.430  46.153  14.195  1.00  0.00    -0.000 C 
BRANCH  11  12
ATOM     12  C   UNL     1      50.310  44.855  15.002  1.00  0.00    -0.000 C 
BRANCH  12  13
ATOM     13  C   UNL     1      48.978  44.151  14.719  1.00  0.00    -0.003 C 
ATOM     14  C   UNL     1      47.796  45.053  15.065  1.00  0.00     0.004 C 
ENDBRANCH  12  13
ENDBRANCH  11  12
ENDBRANCH  10  11
ENDBRANCH   9  10
ENDBRANCH   1   9
TORSDOF 10
ENDMDL
MODEL 6
REMARK VINA RESULT:    -3.330      8.523     12.635
REMARK INTER + INTRA:          -6.062
REMARK INTER:                  -5.469
REMARK INTRA:                  -0.593
REMARK UNBOUND:                -0.785
REMARK SMILES CCCCCCCCCCCC(=O)[O-]
REMARK SMILES IDX 7 1 8 2 9 3 10 4 11 5 12 6 13 7 14 8 6 9 5 10 4 11 3 12 2 13
REMARK SMILES IDX 1 14
REMARK H PARENT
REMARK Flexibility Score: inf
ROOT
ATOM      1  C   UNL     1      49.476  46.686  14.674  1.00  0.00     0.000 C 
ENDROOT
BRANCH   1   2
ATOM      2  C   UNL     1      50.255  47.773  13.910  1.00  0.00     0.000 C 
BRANCH   2   3
ATOM      3  C   UNL     1      51.375  47.196  13.026  1.00  0.00     0.000 C 
BRANCH   3   4
ATOM      4  C   UNL     1      52.646  48.069  13.027  1.00  0.00     0.006 C 
BRANCH   4   5
ATOM      5  C   UNL     1      53.650  47.697  14.132  1.00  0.00     0.053 C 
BRANCH   5   6
ATOM      6  C   UNL     1      55.072  47.806  13.680  1.00  0.00     0.041 C 
ATOM      7  O   UNL     1      55.737  46.767  13.424  1.00  0.00    -0.550 OA
ATOM      8  O   UNL     1      55.665  49.054  13.540  1.00  0.00    -0.550 OA
ENDBRANCH   5   6
ENDBRANCH   4   5
ENDBRANCH   3   4
ENDBRANCH   2   3
ENDBRANCH   1   2
BRANCH   1   9
ATOM      9  C   UNL     1      50.001  45.251  14.476  1.00  0.00     0.000 C 
BRANCH   9  10
ATOM     10  C   UNL     1      48.947  44.179  14.789  1.00  0.00    -0.000 C 
BRANCH  10  11
ATOM     11  C   UNL     1      47.569  44.811  15.015  1.00  0.00    -0.000 C 
BRANCH  11  12
ATOM     12  C   UNL     1      46.447  43.834  14.648  1.00  0.00    -0.000 C 
BRANCH  12  13
ATOM     13  C   UNL     1      47.017  42.522  14.097  1.00  0.00    -0.003 C 
ATOM     14  C   UNL     1      46.296  41.315  14.692  1.00  0.00     0.004 C 
ENDBRANCH  12  13
ENDBRANCH  11  12
ENDBRANCH  10  11
ENDBRANCH   9  10
ENDBRANCH   1   9
TORSDOF 10
ENDMDL
MODEL 7
REMARK VINA RESULT:    -3.272      1.188      1.601
REMARK INTER + INTRA:          -5.970
REMARK INTER:                  -5.225
REMARK INTRA:                  -0.745
REMARK UNBOUND:                -0.785
REMARK SMILES CCCCCCCCCCCC(=O)[O-]
REMARK SMILES IDX 7 1 8 2 9 3 10 4 11 5 12 6 13 7 14 8 6 9 5 10 4 11 3 12 2 13
REMARK SMILES IDX 1 14
REMARK H PARENT
REMARK Flexibility Score: inf
ROOT
ATOM      1  C   UNL     1      61.893  44.536  17.467  1.00  0.00     0.000 C 
ENDROOT
BRANCH   1   2
ATOM      2  C   UNL     1      60.404  44.347  17.122  1.00  0.00     0.000 C 
BRANCH   2   3
ATOM      3  C   UNL     1      59.557  45.596  17.423  1.00  0.00     0.000 C 
BRANCH   3   4
ATOM      4  C   UNL     1      58.183  45.567  16.725  1.00  0.00     0.006 C 
BRANCH   4   5
ATOM      5  C   UNL     1      58.028  44.420  15.712  1.00  0.00     0.053 C 
BRANCH   5   6
ATOM      6  C   UNL     1      56.921  43.479  16.071  1.00  0.00     0.041 C 
ATOM      7  O   UNL     1      55.729  43.763  15.781  1.00  0.00    -0.550 OA
ATOM      8  O   UNL     1      57.205  42.287  16.725  1.00  0.00    -0.550 OA
ENDBRANCH   5   6
ENDBRANCH   4   5
ENDBRANCH   3   4
ENDBRANCH   2   3
ENDBRANCH   1   2
BRANCH   1   9
ATOM      9  C   UNL     1      62.733  45.218  16.370  1.00  0.00     0.000 C 
BRANCH   9  10
ATOM     10  C   UNL     1      63.224  44.238  15.295  1.00  0.00    -0.000 C 
BRANCH  10  11
ATOM     11  C   UNL     1      64.287  43.289  15.861  1.00  0.00    -0.000 C 
BRANCH  11  12
ATOM     12  C   UNL     1      64.268  41.941  15.131  1.00  0.00    -0.000 C 
BRANCH  12  13
ATOM     13  C   UNL     1      64.393  40.777  16.121  1.00  0.00    -0.003 C 
ATOM     14  C   UNL     1      63.685  41.094  17.435  1.00  0.00     0.004 C 
ENDBRANCH  12  13
ENDBRANCH  11  12
ENDBRANCH  10  11
ENDBRANCH   9  10
ENDBRANCH   1   9
TORSDOF 10
ENDMDL
MODEL 8
REMARK VINA RESULT:    -3.234      9.756     12.476
REMARK INTER + INTRA:          -5.909
REMARK INTER:                  -4.824
REMARK INTRA:                  -1.086
REMARK UNBOUND:                -0.785
REMARK SMILES CCCCCCCCCCCC(=O)[O-]
REMARK SMILES IDX 7 1 8 2 9 3 10 4 11 5 12 6 13 7 14 8 6 9 5 10 4 11 3 12 2 13
REMARK SMILES IDX 1 14
REMARK H PARENT
REMARK Flexibility Score: inf
ROOT
ATOM      1  C   UNL     1      49.483  48.735  15.099  1.00  0.00     0.000 C 
ENDROOT
BRANCH   1   2
ATOM      2  C   UNL     1      49.443  48.740  13.559  1.00  0.00     0.000 C 
BRANCH   2   3
ATOM      3  C   UNL     1      50.820  49.005  12.925  1.00  0.00     0.000 C 
BRANCH   3   4
ATOM      4  C   UNL     1      51.617  47.711  12.667  1.00  0.00     0.006 C 
BRANCH   4   5
ATOM      5  C   UNL     1      53.066  47.766  13.178  1.00  0.00     0.053 C 
BRANCH   5   6
ATOM      6  C   UNL     1      53.154  47.724  14.671  1.00  0.00     0.041 C 
ATOM      7  O   UNL     1      52.925  46.652  15.290  1.00  0.00    -0.550 OA
ATOM      8  O   UNL     1      53.488  48.871  15.381  1.00  0.00    -0.550 OA
ENDBRANCH   5   6
ENDBRANCH   4   5
ENDBRANCH   3   4
ENDBRANCH   2   3
ENDBRANCH   1   2
BRANCH   1   9
ATOM      9  C   UNL     1      49.519  47.335  15.742  1.00  0.00     0.000 C 
BRANCH   9  10
ATOM     10  C   UNL     1      48.841  46.261  14.878  1.00  0.00    -0.000 C 
BRANCH  10  11
ATOM     11  C   UNL     1      49.777  45.069  14.649  1.00  0.00    -0.000 C 
BRANCH  11  12
ATOM     12  C   UNL     1      49.129  43.761  15.119  1.00  0.00    -0.000 C 
BRANCH  12  13
ATOM     13  C   UNL     1      47.613  43.785  14.892  1.00  0.00    -0.003 C 
ATOM     14  C   UNL     1      47.143  42.520  14.179  1.00  0.00     0.004 C 
ENDBRANCH  12  13
ENDBRANCH  11  12
ENDBRANCH  10  11
ENDBRANCH   9  10
ENDBRANCH   1   9
TORSDOF 10
ENDMDL
MODEL 9
REMARK VINA RESULT:    -3.225     11.406     13.738
REMARK INTER + INTRA:          -5.895
REMARK INTER:                  -4.292
REMARK INTRA:                  -1.603
REMARK UNBOUND:                -0.785
REMARK SMILES CCCCCCCCCCCC(=O)[O-]
REMARK SMILES IDX 7 1 8 2 9 3 10 4 11 5 12 6 13 7 14 8 6 9 5 10 4 11 3 12 2 13
REMARK SMILES IDX 1 14
REMARK H PARENT
REMARK Flexibility Score: inf
ROOT
ATOM      1  C   UNL     1      46.521  45.990  16.164  1.00  0.00     0.000 C 
ENDROOT
BRANCH   1   2
ATOM      2  C   UNL     1      47.677  45.971  17.182  1.00  0.00     0.000 C 
BRANCH   2   3
ATOM      3  C   UNL     1      49.044  46.267  16.540  1.00  0.00     0.000 C 
BRANCH   3   4
ATOM      4  C   UNL     1      48.974  46.359  15.003  1.00  0.00     0.006 C 
BRANCH   4   5
ATOM      5  C   UNL     1      50.260  45.898  14.297  1.00  0.00     0.053 C 
BRANCH   5   6
ATOM      6  C   UNL     1      51.132  47.041  13.882  1.00  0.00     0.041 C 
ATOM      7  O   UNL     1      51.539  47.129  12.693  1.00  0.00    -0.550 OA
ATOM      8  O   UNL     1      51.495  48.012  14.807  1.00  0.00    -0.550 OA
ENDBRANCH   5   6
ENDBRANCH   4   5
ENDBRANCH   3   4
ENDBRANCH   2   3
ENDBRANCH   1   2
BRANCH   1   9
ATOM      9  C   UNL     1      45.382  44.994  16.458  1.00  0.00     0.000 C 
BRANCH   9  10
ATOM     10  C   UNL     1      45.608  43.618  15.816  1.00  0.00    -0.000 C 
BRANCH  10  11
ATOM     11  C   UNL     1      46.368  43.747  14.491  1.00  0.00    -0.000 C 
BRANCH  11  12
ATOM     12  C   UNL     1      47.608  42.845  14.477  1.00  0.00    -0.000 C 
BRANCH  12  13
ATOM     13  C   UNL     1      47.913  42.305  15.879  1.00  0.00    -0.003 C 
ATOM     14  C   UNL     1      49.338  42.652  16.304  1.00  0.00     0.004 C 
ENDBRANCH  12  13
ENDBRANCH  11  12
ENDBRANCH  10  11
ENDBRANCH   9  10
ENDBRANCH   1   9
TORSDOF 10
ENDMDL
