MODEL 1
REMARK VINA RESULT:    -4.379      0.000      0.000
REMARK INTER + INTRA:          -4.507
REMARK INTER:                  -4.507
REMARK INTRA:                   0.000
REMARK UNBOUND:                 0.000
REMARK SMILES CC1(C)[C@@H]2CC[C@@](C)(C2)[C@@H]1O
REMARK SMILES IDX 1 1 2 2 4 3 5 4 6 5 7 6 9 7 10 8 8 9 3 10 11 11
REMARK H PARENT 11 12
REMARK Flexibility Score: inf
ROOT
ATOM      1  C   UNL     1     183.910 190.742 189.639  1.00  0.00     0.014 C 
ATOM      2  C   UNL     1     184.608 189.397 189.953  1.00  0.00    -0.006 C 
ATOM      3  C   UNL     1     184.254 188.933 191.409  1.00  0.00    -0.002 C 
ATOM      4  C   UNL     1     185.139 187.746 191.846  1.00  0.00     0.005 C 
ATOM      5  C   UNL     1     184.652 186.606 190.938  1.00  0.00     0.010 C 
ATOM      6  C   UNL     1     183.472 187.257 190.176  1.00  0.00    -0.006 C 
ATOM      7  C   UNL     1     182.931 188.213 191.216  1.00  0.00     0.013 C 
ATOM      8  C   UNL     1     183.999 188.237 189.096  1.00  0.00     0.126 C 
ATOM      9  C   UNL     1     182.441 186.251 189.655  1.00  0.00     0.014 C 
ATOM     10  C   UNL     1     186.129 189.602 189.729  1.00  0.00     0.014 C 
ENDROOT
BRANCH   8  11
ATOM     11  O   UNL     1     184.929 187.611 188.248  1.00  0.00    -0.392 OA
ATOM     12  H   UNL     1     184.729 186.639 188.280  1.00  0.00     0.211 HD
ENDBRANCH   8  11
TORSDOF 1
ENDMDL
MODEL 2
REMARK VINA RESULT:    -4.354      2.640      4.417
REMARK INTER + INTRA:          -4.481
REMARK INTER:                  -4.481
REMARK INTRA:                   0.000
REMARK UNBOUND:                 0.000
REMARK SMILES CC1(C)[C@@H]2CC[C@@](C)(C2)[C@@H]1O
REMARK SMILES IDX 1 1 2 2 4 3 5 4 6 5 7 6 9 7 10 8 8 9 3 10 11 11
REMARK H PARENT 11 12
REMARK Flexibility Score: inf
ROOT
ATOM      1  C   UNL     1     186.276 190.002 186.049  1.00  0.00     0.014 C 
ATOM      2  C   UNL     1     186.475 190.798 187.361  1.00  0.00    -0.006 C 
ATOM      3  C   UNL     1     185.495 192.021 187.405  1.00  0.00    -0.002 C 
ATOM      4  C   UNL     1     185.850 192.979 188.561  1.00  0.00     0.005 C 
ATOM      5  C   UNL     1     185.504 192.150 189.808  1.00  0.00     0.010 C 
ATOM      6  C   UNL     1     184.888 190.865 189.204  1.00  0.00    -0.006 C 
ATOM      7  C   UNL     1     184.221 191.406 187.958  1.00  0.00     0.013 C 
ATOM      8  C   UNL     1     185.996 189.966 188.598  1.00  0.00     0.126 C 
ATOM      9  C   UNL     1     183.936 190.129 190.152  1.00  0.00     0.014 C 
ATOM     10  C   UNL     1     187.969 191.209 187.430  1.00  0.00     0.014 C 
ENDROOT
BRANCH   8  11
ATOM     11  O   UNL     1     187.012 189.706 189.534  1.00  0.00    -0.392 OA
ATOM     12  H   UNL     1     187.139 188.722 189.545  1.00  0.00     0.211 HD
ENDBRANCH   8  11
TORSDOF 1
ENDMDL
MODEL 3
REMARK VINA RESULT:    -4.287      1.580      2.375
REMARK INTER + INTRA:          -4.412
REMARK INTER:                  -4.412
REMARK INTRA:                   0.000
REMARK UNBOUND:                 0.000
REMARK SMILES CC1(C)[C@@H]2CC[C@@](C)(C2)[C@@H]1O
REMARK SMILES IDX 1 1 2 2 4 3 5 4 6 5 7 6 9 7 10 8 8 9 3 10 11 11
REMARK H PARENT 11 12
REMARK Flexibility Score: inf
ROOT
ATOM      1  C   UNL     1     186.137 189.207 192.224  1.00  0.00     0.014 C 
ATOM      2  C   UNL     1     185.343 188.985 190.914  1.00  0.00    -0.006 C 
ATOM      3  C   UNL     1     185.513 187.505 190.425  1.00  0.00    -0.002 C 
ATOM      4  C   UNL     1     184.963 187.323 188.995  1.00  0.00     0.005 C 
ATOM      5  C   UNL     1     183.449 187.505 189.187  1.00  0.00     0.010 C 
ATOM      6  C   UNL     1     183.316 187.654 190.723  1.00  0.00    -0.006 C 
ATOM      7  C   UNL     1     184.442 186.770 191.212  1.00  0.00     0.013 C 
ATOM      8  C   UNL     1     183.802 189.055 191.175  1.00  0.00     0.126 C 
ATOM      9  C   UNL     1     181.937 187.267 191.265  1.00  0.00     0.014 C 
ATOM     10  C   UNL     1     185.848 190.031 189.885  1.00  0.00     0.014 C 
ENDROOT
BRANCH   8  11
ATOM     11  O   UNL     1     183.152 190.076 190.461  1.00  0.00    -0.392 OA
ATOM     12  H   UNL     1     183.470 190.010 189.523  1.00  0.00     0.211 HD
ENDBRANCH   8  11
TORSDOF 1
ENDMDL
MODEL 4
REMARK VINA RESULT:    -4.269      3.367      4.831
REMARK INTER + INTRA:          -4.394
REMARK INTER:                  -4.394
REMARK INTRA:                   0.000
REMARK UNBOUND:                 0.000
REMARK SMILES CC1(C)[C@@H]2CC[C@@](C)(C2)[C@@H]1O
REMARK SMILES IDX 1 1 2 2 4 3 5 4 6 5 7 6 9 7 10 8 8 9 3 10 11 11
REMARK H PARENT 11 12
REMARK Flexibility Score: inf
ROOT
ATOM      1  C   UNL     1     185.877 194.105 189.539  1.00  0.00     0.014 C 
ATOM      2  C   UNL     1     185.998 192.563 189.492  1.00  0.00    -0.006 C 
ATOM      3  C   UNL     1     184.701 191.938 188.871  1.00  0.00    -0.002 C 
ATOM      4  C   UNL     1     184.677 190.406 189.056  1.00  0.00     0.005 C 
ATOM      5  C   UNL     1     185.819 189.935 188.143  1.00  0.00     0.010 C 
ATOM      6  C   UNL     1     186.278 191.249 187.464  1.00  0.00    -0.006 C 
ATOM      7  C   UNL     1     184.976 192.016 187.380  1.00  0.00     0.013 C 
ATOM      8  C   UNL     1     187.087 192.119 188.460  1.00  0.00     0.126 C 
ATOM      9  C   UNL     1     186.968 191.040 186.113  1.00  0.00     0.014 C 
ATOM     10  C   UNL     1     186.279 192.078 190.939  1.00  0.00     0.014 C 
ENDROOT
BRANCH   8  11
ATOM     11  O   UNL     1     188.146 191.391 189.030  1.00  0.00    -0.392 OA
ATOM     12  H   UNL     1     188.363 190.664 188.391  1.00  0.00     0.211 HD
ENDBRANCH   8  11
TORSDOF 1
ENDMDL
MODEL 5
REMARK VINA RESULT:    -4.261      1.532      3.284
REMARK INTER + INTRA:          -4.386
REMARK INTER:                  -4.386
REMARK INTRA:                   0.000
REMARK UNBOUND:                 0.000
REMARK SMILES CC1(C)[C@@H]2CC[C@@](C)(C2)[C@@H]1O
REMARK SMILES IDX 1 1 2 2 4 3 5 4 6 5 7 6 9 7 10 8 8 9 3 10 11 11
REMARK H PARENT 11 12
REMARK Flexibility Score: inf
ROOT
ATOM      1  C   UNL     1     183.098 187.009 188.761  1.00  0.00     0.014 C 
ATOM      2  C   UNL     1     183.522 187.629 190.114  1.00  0.00    -0.006 C 
ATOM      3  C   UNL     1     184.885 187.016 190.585  1.00  0.00    -0.002 C 
ATOM      4  C   UNL     1     185.199 187.410 192.044  1.00  0.00     0.005 C 
ATOM      5  C   UNL     1     185.459 188.921 191.941  1.00  0.00     0.010 C 
ATOM      6  C   UNL     1     185.373 189.178 190.417  1.00  0.00    -0.006 C 
ATOM      7  C   UNL     1     185.905 187.876 189.859  1.00  0.00     0.013 C 
ATOM      8  C   UNL     1     183.897 189.139 189.943  1.00  0.00     0.126 C 
ATOM      9  C   UNL     1     186.144 190.418 189.953  1.00  0.00     0.014 C 
ATOM     10  C   UNL     1     182.362 187.387 191.116  1.00  0.00     0.014 C 
ENDROOT
BRANCH   8  11
ATOM     11  O   UNL     1     183.095 190.012 190.698  1.00  0.00    -0.392 OA
ATOM     12  H   UNL     1     182.660 189.459 191.398  1.00  0.00     0.211 HD
ENDBRANCH   8  11
TORSDOF 1
ENDMDL
MODEL 6
REMARK VINA RESULT:    -4.252      2.416      4.620
REMARK INTER + INTRA:          -4.376
REMARK INTER:                  -4.376
REMARK INTRA:                   0.000
REMARK UNBOUND:                 0.000
REMARK SMILES CC1(C)[C@@H]2CC[C@@](C)(C2)[C@@H]1O
REMARK SMILES IDX 1 1 2 2 4 3 5 4 6 5 7 6 9 7 10 8 8 9 3 10 11 11
REMARK H PARENT 11 12
REMARK Flexibility Score: inf
ROOT
ATOM      1  C   UNL     1     185.849 188.847 190.129  1.00  0.00     0.014 C 
ATOM      2  C   UNL     1     185.257 190.125 189.488  1.00  0.00    -0.006 C 
ATOM      3  C   UNL     1     186.251 191.325 189.659  1.00  0.00    -0.002 C 
ATOM      4  C   UNL     1     185.582 192.662 189.274  1.00  0.00     0.005 C 
ATOM      5  C   UNL     1     185.389 192.521 187.756  1.00  0.00     0.010 C 
ATOM      6  C   UNL     1     186.076 191.168 187.448  1.00  0.00    -0.006 C 
ATOM      7  C   UNL     1     187.187 191.153 188.475  1.00  0.00     0.013 C 
ATOM      8  C   UNL     1     185.191 189.990 187.930  1.00  0.00     0.126 C 
ATOM      9  C   UNL     1     186.561 191.034 186.002  1.00  0.00     0.014 C 
ATOM     10  C   UNL     1     183.876 190.375 190.148  1.00  0.00     0.014 C 
ENDROOT
BRANCH   8  11
ATOM     11  O   UNL     1     183.890 190.082 187.407  1.00  0.00    -0.392 OA
ATOM     12  H   UNL     1     183.637 191.040 187.449  1.00  0.00     0.211 HD
ENDBRANCH   8  11
TORSDOF 1
ENDMDL
MODEL 7
REMARK VINA RESULT:    -4.215      1.643      2.692
REMARK INTER + INTRA:          -4.338
REMARK INTER:                  -4.338
REMARK INTRA:                   0.000
REMARK UNBOUND:                 0.000
REMARK SMILES CC1(C)[C@@H]2CC[C@@](C)(C2)[C@@H]1O
REMARK SMILES IDX 1 1 2 2 4 3 5 4 6 5 7 6 9 7 10 8 8 9 3 10 11 11
REMARK H PARENT 11 12
REMARK Flexibility Score: inf
ROOT
ATOM      1  C   UNL     1     186.584 186.792 189.382  1.00  0.00     0.014 C 
ATOM      2  C   UNL     1     185.537 187.352 190.374  1.00  0.00    -0.006 C 
ATOM      3  C   UNL     1     184.696 188.484 189.689  1.00  0.00    -0.002 C 
ATOM      4  C   UNL     1     183.834 189.241 190.722  1.00  0.00     0.005 C 
ATOM      5  C   UNL     1     182.803 188.183 191.145  1.00  0.00     0.010 C 
ATOM      6  C   UNL     1     183.136 186.991 190.216  1.00  0.00    -0.006 C 
ATOM      7  C   UNL     1     183.611 187.703 188.968  1.00  0.00     0.013 C 
ATOM      8  C   UNL     1     184.434 186.285 190.684  1.00  0.00     0.126 C 
ATOM      9  C   UNL     1     181.958 186.040 189.981  1.00  0.00     0.014 C 
ATOM     10  C   UNL     1     186.305 187.835 191.633  1.00  0.00     0.014 C 
ENDROOT
BRANCH   8  11
ATOM     11  O   UNL     1     184.359 185.925 192.041  1.00  0.00    -0.392 OA
ATOM     12  H   UNL     1     183.582 186.414 192.419  1.00  0.00     0.211 HD
ENDBRANCH   8  11
TORSDOF 1
ENDMDL
MODEL 8
REMARK VINA RESULT:    -4.188      2.449      3.825
REMARK INTER + INTRA:          -4.310
REMARK INTER:                  -4.310
REMARK INTRA:                   0.000
REMARK UNBOUND:                 0.000
REMARK SMILES CC1(C)[C@@H]2CC[C@@](C)(C2)[C@@H]1O
REMARK SMILES IDX 1 1 2 2 4 3 5 4 6 5 7 6 9 7 10 8 8 9 3 10 11 11
REMARK H PARENT 11 12
REMARK Flexibility Score: inf
ROOT
ATOM      1  C   UNL     1     186.748 190.840 190.674  1.00  0.00     0.014 C 
ATOM      2  C   UNL     1     185.795 191.076 189.477  1.00  0.00    -0.006 C 
ATOM      3  C   UNL     1     186.462 190.576 188.149  1.00  0.00    -0.002 C 
ATOM      4  C   UNL     1     185.660 191.038 186.914  1.00  0.00     0.005 C 
ATOM      5  C   UNL     1     184.359 190.229 187.033  1.00  0.00     0.010 C 
ATOM      6  C   UNL     1     184.629 189.323 188.259  1.00  0.00    -0.006 C 
ATOM      7  C   UNL     1     186.121 189.096 188.143  1.00  0.00     0.013 C 
ATOM      8  C   UNL     1     184.540 190.145 189.570  1.00  0.00     0.126 C 
ATOM      9  C   UNL     1     183.801 188.035 188.272  1.00  0.00     0.014 C 
ATOM     10  C   UNL     1     185.447 192.588 189.456  1.00  0.00     0.014 C 
ENDROOT
BRANCH   8  11
ATOM     11  O   UNL     1     183.322 190.842 189.654  1.00  0.00    -0.392 OA
ATOM     12  H   UNL     1     182.608 190.186 189.443  1.00  0.00     0.211 HD
ENDBRANCH   8  11
TORSDOF 1
ENDMDL
MODEL 9
REMARK VINA RESULT:    -4.072      1.716      2.916
REMARK INTER + INTRA:          -4.191
REMARK INTER:                  -4.191
REMARK INTRA:                   0.000
REMARK UNBOUND:                 0.000
REMARK SMILES CC1(C)[C@@H]2CC[C@@](C)(C2)[C@@H]1O
REMARK SMILES IDX 1 1 2 2 4 3 5 4 6 5 7 6 9 7 10 8 8 9 3 10 11 11
REMARK H PARENT 11 12
REMARK Flexibility Score: inf
ROOT
ATOM      1  C   UNL     1     186.394 191.156 189.942  1.00  0.00     0.014 C 
ATOM      2  C   UNL     1     185.163 190.409 189.373  1.00  0.00    -0.006 C 
ATOM      3  C   UNL     1     185.627 189.267 188.403  1.00  0.00    -0.002 C 
ATOM      4  C   UNL     1     184.433 188.685 187.618  1.00  0.00     0.005 C 
ATOM      5  C   UNL     1     183.622 187.971 188.710  1.00  0.00     0.010 C 
ATOM      6  C   UNL     1     184.515 188.140 189.964  1.00  0.00    -0.006 C 
ATOM      7  C   UNL     1     185.900 188.115 189.354  1.00  0.00     0.013 C 
ATOM      8  C   UNL     1     184.435 189.595 190.494  1.00  0.00     0.126 C 
ATOM      9  C   UNL     1     184.286 187.072 191.037  1.00  0.00     0.014 C 
ATOM     10  C   UNL     1     184.259 191.466 188.686  1.00  0.00     0.014 C 
ENDROOT
BRANCH   8  11
ATOM     11  O   UNL     1     183.103 189.989 190.706  1.00  0.00    -0.392 OA
ATOM     12  H   UNL     1     182.774 190.346 189.841  1.00  0.00     0.211 HD
ENDBRANCH   8  11
TORSDOF 1
ENDMDL
