MODEL 1
REMARK VINA RESULT:    -6.449      0.000      0.000
REMARK INTER + INTRA:          -6.749
REMARK INTER:                  -7.014
REMARK INTRA:                   0.265
REMARK UNBOUND:                 0.265
REMARK SMILES C[C@H]1[C@H](C)CC[C@]2(C(=O)[O-])CC[C@]3(C)C(=CC[C@@H]4[C@]5(C)CC[C@@H](O)C(C)(C)[C@H]5CC[C@]43C)[C@@H]12
REMARK SMILES IDX 7 1 6 2 11 3 33 4 5 5 12 6 15 7 2 8 3 9 13 10 16 11 1 12
REMARK SMILES IDX 4 13 14 14 31 15 17 16 18 17 30 18 32 19 19 20 29 21 28 22
REMARK SMILES IDX 21 23 20 24 25 25 22 26 23 27 26 28 27 29 8 30 9 31 10 32
REMARK SMILES IDX 24 33
REMARK H PARENT 24 34
REMARK Flexibility Score: inf
ROOT
ATOM      1  C   UNL     1    -105.279  90.878 203.457  1.00  0.00     0.017 C 
ATOM      2  C   UNL     1    -104.154  91.899 203.189  1.00  0.00     0.014 C 
ATOM      3  C   UNL     1    -106.501  91.093 202.464  1.00  0.00     0.014 C 
ATOM      4  C   UNL     1    -105.778  91.103 204.904  1.00  0.00     0.030 C 
ATOM      5  C   UNL     1    -103.023  91.826 204.265  1.00  0.00     0.004 C 
ATOM      6  C   UNL     1    -107.905  91.538 203.045  1.00  0.00     0.013 C 
ATOM      7  C   UNL     1    -107.127  90.424 205.110  1.00  0.00    -0.063 C 
ATOM      8  C   UNL     1    -104.799  91.258 206.108  1.00  0.00    -0.003 C 
ATOM      9  C   UNL     1    -103.565  92.130 205.690  1.00  0.00    -0.011 C 
ATOM     10  C   UNL     1    -108.309  91.224 204.573  1.00  0.00    -0.006 C 
ATOM     11  C   UNL     1    -107.155  89.092 204.867  1.00  0.00    -0.027 C 
ATOM     12  C   UNL     1    -104.396  89.992 206.875  1.00  0.00     0.008 C 
ATOM     13  C   UNL     1    -103.894  93.664 205.798  1.00  0.00     0.008 C 
ATOM     14  C   UNL     1    -108.421  92.605 205.302  1.00  0.00     0.017 C 
ATOM     15  C   UNL     1    -109.737  90.460 204.799  1.00  0.00    -0.020 C 
ATOM     16  C   UNL     1    -108.292  88.415 204.143  1.00  0.00     0.032 C 
ATOM     17  C   UNL     1    -109.580  88.886 204.828  1.00  0.00     0.006 C 
ATOM     18  C   UNL     1    -110.415  90.755 206.196  1.00  0.00     0.008 C 
ATOM     19  C   UNL     1    -110.696  90.996 203.688  1.00  0.00     0.012 C 
ATOM     20  C   UNL     1    -110.909  87.979 204.803  1.00  0.00    -0.025 C 
ATOM     21  C   UNL     1    -111.357  89.637 206.786  1.00  0.00     0.005 C 
ATOM     22  C   UNL     1    -111.976  88.726 205.688  1.00  0.00     0.003 C 
ATOM     23  C   UNL     1    -111.579  87.734 203.429  1.00  0.00     0.010 C 
ATOM     24  C   UNL     1    -110.487  86.575 205.358  1.00  0.00     0.012 C 
ATOM     25  C   UNL     1    -113.342  87.978 205.959  1.00  0.00    -0.006 C 
ATOM     26  C   UNL     1    -112.953  87.008 203.533  1.00  0.00     0.033 C 
ATOM     27  C   UNL     1    -113.965  87.667 204.554  1.00  0.00     0.120 C 
ATOM     28  C   UNL     1    -113.220  86.697 206.823  1.00  0.00     0.014 C 
ATOM     29  C   UNL     1    -114.300  88.912 206.758  1.00  0.00     0.014 C 
ENDROOT
BRANCH   1  30
ATOM     30  C   UNL     1    -104.669  89.496 203.174  1.00  0.00     0.048 C 
ATOM     31  O   UNL     1    -103.697  89.066 203.845  1.00  0.00    -0.550 OA
ATOM     32  O   UNL     1    -105.087  88.748 202.073  1.00  0.00    -0.550 OA
ENDBRANCH   1  30
BRANCH  27  33
ATOM     33  O   UNL     1    -115.125  86.864 204.686  1.00  0.00    -0.393 OA
ATOM     34  H   UNL     1    -115.412  86.958 205.624  1.00  0.00     0.210 HD
ENDBRANCH  27  33
TORSDOF 2
ENDMDL
MODEL 2
REMARK VINA RESULT:    -6.144      5.731      9.223
REMARK INTER + INTRA:          -6.418
REMARK INTER:                  -6.670
REMARK INTRA:                   0.252
REMARK UNBOUND:                 0.265
REMARK SMILES C[C@H]1[C@H](C)CC[C@]2(C(=O)[O-])CC[C@]3(C)C(=CC[C@@H]4[C@]5(C)CC[C@@H](O)C(C)(C)[C@H]5CC[C@]43C)[C@@H]12
REMARK SMILES IDX 7 1 6 2 11 3 33 4 5 5 12 6 15 7 2 8 3 9 13 10 16 11 1 12
REMARK SMILES IDX 4 13 14 14 31 15 17 16 18 17 30 18 32 19 19 20 29 21 28 22
REMARK SMILES IDX 21 23 20 24 25 25 22 26 23 27 26 28 27 29 8 30 9 31 10 32
REMARK SMILES IDX 24 33
REMARK H PARENT 24 34
REMARK Flexibility Score: inf
ROOT
ATOM      1  C   UNL     1     -96.877  88.390 202.539  1.00  0.00     0.017 C 
ATOM      2  C   UNL     1     -95.479  87.757 202.378  1.00  0.00     0.014 C 
ATOM      3  C   UNL     1     -97.428  88.202 204.018  1.00  0.00     0.014 C 
ATOM      4  C   UNL     1     -97.833  87.663 201.564  1.00  0.00     0.030 C 
ATOM      5  C   UNL     1     -94.994  87.768 200.893  1.00  0.00     0.004 C 
ATOM      6  C   UNL     1     -98.718  87.316 204.260  1.00  0.00     0.013 C 
ATOM      7  C   UNL     1     -99.284  87.945 201.937  1.00  0.00    -0.063 C 
ATOM      8  C   UNL     1     -97.457  87.393 200.075  1.00  0.00    -0.003 C 
ATOM      9  C   UNL     1     -95.952  86.965 199.969  1.00  0.00    -0.011 C 
ATOM     10  C   UNL     1     -99.802  87.091 203.089  1.00  0.00    -0.006 C 
ATOM     11  C   UNL     1     -99.638  89.253 201.964  1.00  0.00    -0.027 C 
ATOM     12  C   UNL     1     -97.847  88.448 199.031  1.00  0.00     0.008 C 
ATOM     13  C   UNL     1     -95.779  85.430 200.261  1.00  0.00     0.008 C 
ATOM     14  C   UNL     1     -99.754  85.571 202.718  1.00  0.00     0.017 C 
ATOM     15  C   UNL     1    -101.355  87.429 203.471  1.00  0.00    -0.020 C 
ATOM     16  C   UNL     1    -100.518  89.841 203.038  1.00  0.00     0.032 C 
ATOM     17  C   UNL     1    -101.745  88.926 203.138  1.00  0.00     0.006 C 
ATOM     18  C   UNL     1    -102.420  86.612 202.636  1.00  0.00     0.008 C 
ATOM     19  C   UNL     1    -101.530  87.032 204.972  1.00  0.00     0.012 C 
ATOM     20  C   UNL     1    -103.156  89.490 203.667  1.00  0.00    -0.025 C 
ATOM     21  C   UNL     1    -103.829  87.285 202.416  1.00  0.00     0.005 C 
ATOM     22  C   UNL     1    -104.190  88.311 203.528  1.00  0.00     0.003 C 
ATOM     23  C   UNL     1    -103.229  89.960 205.141  1.00  0.00     0.010 C 
ATOM     24  C   UNL     1    -103.487  90.738 202.777  1.00  0.00     0.012 C 
ATOM     25  C   UNL     1    -105.704  88.635 203.843  1.00  0.00    -0.006 C 
ATOM     26  C   UNL     1    -104.672  90.310 205.607  1.00  0.00     0.033 C 
ATOM     27  C   UNL     1    -105.745  89.185 205.311  1.00  0.00     0.120 C 
ATOM     28  C   UNL     1    -106.378  89.615 202.850  1.00  0.00     0.014 C 
ATOM     29  C   UNL     1    -106.548  87.328 203.754  1.00  0.00     0.014 C 
ENDROOT
BRANCH   1  30
ATOM     30  C   UNL     1     -96.689  89.894 202.285  1.00  0.00     0.048 C 
ATOM     31  O   UNL     1     -96.320  90.321 201.163  1.00  0.00    -0.550 OA
ATOM     32  O   UNL     1     -96.785  90.809 203.335  1.00  0.00    -0.550 OA
ENDBRANCH   1  30
BRANCH  27  33
ATOM     33  O   UNL     1    -107.044  89.645 205.638  1.00  0.00    -0.393 OA
ATOM     34  H   UNL     1    -106.963  90.619 205.761  1.00  0.00     0.210 HD
ENDBRANCH  27  33
TORSDOF 2
ENDMDL
MODEL 3
REMARK VINA RESULT:    -6.041      4.357     10.172
REMARK INTER + INTRA:          -6.305
REMARK INTER:                  -6.721
REMARK INTRA:                   0.416
REMARK UNBOUND:                 0.265
REMARK SMILES C[C@H]1[C@H](C)CC[C@]2(C(=O)[O-])CC[C@]3(C)C(=CC[C@@H]4[C@]5(C)CC[C@@H](O)C(C)(C)[C@H]5CC[C@]43C)[C@@H]12
REMARK SMILES IDX 7 1 6 2 11 3 33 4 5 5 12 6 15 7 2 8 3 9 13 10 16 11 1 12
REMARK SMILES IDX 4 13 14 14 31 15 17 16 18 17 30 18 32 19 19 20 29 21 28 22
REMARK SMILES IDX 21 23 20 24 25 25 22 26 23 27 26 28 27 29 8 30 9 31 10 32
REMARK SMILES IDX 24 33
REMARK H PARENT 24 34
REMARK Flexibility Score: inf
ROOT
ATOM      1  C   UNL     1    -106.011  87.907 204.615  1.00  0.00     0.017 C 
ATOM      2  C   UNL     1    -107.468  88.339 204.881  1.00  0.00     0.014 C 
ATOM      3  C   UNL     1    -104.998  88.681 205.563  1.00  0.00     0.014 C 
ATOM      4  C   UNL     1    -105.681  88.265 203.146  1.00  0.00     0.030 C 
ATOM      5  C   UNL     1    -108.464  87.730 203.843  1.00  0.00     0.004 C 
ATOM      6  C   UNL     1    -103.940  89.672 204.924  1.00  0.00     0.013 C 
ATOM      7  C   UNL     1    -104.172  88.240 202.923  1.00  0.00    -0.063 C 
ATOM      8  C   UNL     1    -106.642  87.921 201.968  1.00  0.00    -0.003 C 
ATOM      9  C   UNL     1    -108.129  88.178 202.393  1.00  0.00    -0.011 C 
ATOM     10  C   UNL     1    -103.458  89.501 203.397  1.00  0.00    -0.006 C 
ATOM     11  C   UNL     1    -103.558  87.068 203.210  1.00  0.00    -0.027 C 
ATOM     12  C   UNL     1    -106.455  86.574 201.257  1.00  0.00     0.008 C 
ATOM     13  C   UNL     1    -108.510  89.694 202.224  1.00  0.00     0.008 C 
ATOM     14  C   UNL     1    -103.975  90.757 202.619  1.00  0.00     0.017 C 
ATOM     15  C   UNL     1    -101.842  89.434 203.154  1.00  0.00    -0.020 C 
ATOM     16  C   UNL     1    -102.230  86.992 203.923  1.00  0.00     0.032 C 
ATOM     17  C   UNL     1    -101.290  87.952 203.183  1.00  0.00     0.006 C 
ATOM     18  C   UNL     1    -101.380  89.936 201.728  1.00  0.00     0.008 C 
ATOM     19  C   UNL     1    -101.204  90.385 204.216  1.00  0.00     0.012 C 
ATOM     20  C   UNL     1     -99.697  87.724 203.198  1.00  0.00    -0.025 C 
ATOM     21  C   UNL     1    -100.049  89.322 201.148  1.00  0.00     0.005 C 
ATOM     22  C   UNL     1     -99.079  88.824 202.257  1.00  0.00     0.003 C 
ATOM     23  C   UNL     1     -98.971  87.859 204.559  1.00  0.00     0.010 C 
ATOM     24  C   UNL     1     -99.463  86.255 202.704  1.00  0.00     0.012 C 
ATOM     25  C   UNL     1     -97.527  88.742 201.970  1.00  0.00    -0.006 C 
ATOM     26  C   UNL     1     -97.420  87.808 204.439  1.00  0.00     0.033 C 
ATOM     27  C   UNL     1     -96.813  88.799 203.366  1.00  0.00     0.120 C 
ATOM     28  C   UNL     1     -97.082  87.502 201.155  1.00  0.00     0.014 C 
ATOM     29  C   UNL     1     -97.088  89.967 201.112  1.00  0.00     0.014 C 
ENDROOT
BRANCH   1  30
ATOM     30  C   UNL     1    -105.947  86.412 204.962  1.00  0.00     0.048 C 
ATOM     31  O   UNL     1    -106.852  85.620 204.596  1.00  0.00    -0.550 OA
ATOM     32  O   UNL     1    -104.956  85.923 205.815  1.00  0.00    -0.550 OA
ENDBRANCH   1  30
BRANCH  27  33
ATOM     33  O   UNL     1     -95.420  88.584 203.226  1.00  0.00    -0.393 OA
ATOM     34  H   UNL     1     -95.181  87.915 203.909  1.00  0.00     0.210 HD
ENDBRANCH  27  33
TORSDOF 2
ENDMDL
MODEL 4
REMARK VINA RESULT:    -6.013      4.327      6.652
REMARK INTER + INTRA:          -6.275
REMARK INTER:                  -6.533
REMARK INTRA:                   0.257
REMARK UNBOUND:                 0.265
REMARK SMILES C[C@H]1[C@H](C)CC[C@]2(C(=O)[O-])CC[C@]3(C)C(=CC[C@@H]4[C@]5(C)CC[C@@H](O)C(C)(C)[C@H]5CC[C@]43C)[C@@H]12
REMARK SMILES IDX 7 1 6 2 11 3 33 4 5 5 12 6 15 7 2 8 3 9 13 10 16 11 1 12
REMARK SMILES IDX 4 13 14 14 31 15 17 16 18 17 30 18 32 19 19 20 29 21 28 22
REMARK SMILES IDX 21 23 20 24 25 25 22 26 23 27 26 28 27 29 8 30 9 31 10 32
REMARK SMILES IDX 24 33
REMARK H PARENT 24 34
REMARK Flexibility Score: inf
ROOT
ATOM      1  C   UNL     1    -100.720  88.334 204.334  1.00  0.00     0.017 C 
ATOM      2  C   UNL     1     -99.713  88.063 205.471  1.00  0.00     0.014 C 
ATOM      3  C   UNL     1    -101.758  89.467 204.741  1.00  0.00     0.014 C 
ATOM      4  C   UNL     1    -101.500  87.022 204.079  1.00  0.00     0.030 C 
ATOM      5  C   UNL     1     -98.798  86.833 205.168  1.00  0.00     0.004 C 
ATOM      6  C   UNL     1    -103.291  89.100 204.884  1.00  0.00     0.013 C 
ATOM      7  C   UNL     1    -102.760  87.305 203.269  1.00  0.00    -0.063 C 
ATOM      8  C   UNL     1    -100.788  85.643 203.943  1.00  0.00    -0.003 C 
ATOM      9  C   UNL     1     -99.627  85.529 204.992  1.00  0.00    -0.011 C 
ATOM     10  C   UNL     1    -103.921  87.841 204.100  1.00  0.00    -0.006 C 
ATOM     11  C   UNL     1    -102.562  87.907 202.071  1.00  0.00    -0.027 C 
ATOM     12  C   UNL     1    -100.363  85.186 202.541  1.00  0.00     0.008 C 
ATOM     13  C   UNL     1    -100.175  85.077 206.394  1.00  0.00     0.008 C 
ATOM     14  C   UNL     1    -104.349  86.801 205.189  1.00  0.00     0.017 C 
ATOM     15  C   UNL     1    -105.250  88.145 203.197  1.00  0.00    -0.020 C 
ATOM     16  C   UNL     1    -103.446  89.015 201.556  1.00  0.00     0.032 C 
ATOM     17  C   UNL     1    -104.889  88.518 201.703  1.00  0.00     0.006 C 
ATOM     18  C   UNL     1    -106.205  86.899 203.010  1.00  0.00     0.008 C 
ATOM     19  C   UNL     1    -106.054  89.243 203.964  1.00  0.00     0.012 C 
ATOM     20  C   UNL     1    -106.056  89.075 200.745  1.00  0.00    -0.025 C 
ATOM     21  C   UNL     1    -107.079  86.856 201.699  1.00  0.00     0.005 C 
ATOM     22  C   UNL     1    -107.358  88.269 201.111  1.00  0.00     0.003 C 
ATOM     23  C   UNL     1    -106.426  90.574 200.869  1.00  0.00     0.010 C 
ATOM     24  C   UNL     1    -105.557  88.852 199.275  1.00  0.00     0.012 C 
ATOM     25  C   UNL     1    -108.637  88.513 200.214  1.00  0.00    -0.006 C 
ATOM     26  C   UNL     1    -107.684  90.971 200.043  1.00  0.00     0.033 C 
ATOM     27  C   UNL     1    -108.946  90.049 200.289  1.00  0.00     0.120 C 
ATOM     28  C   UNL     1    -108.503  88.031 198.748  1.00  0.00     0.014 C 
ATOM     29  C   UNL     1    -109.842  87.712 200.792  1.00  0.00     0.014 C 
ENDROOT
BRANCH   1  30
ATOM     30  C   UNL     1     -99.887  88.850 203.150  1.00  0.00     0.048 C 
ATOM     31  O   UNL     1     -99.037  88.116 202.586  1.00  0.00    -0.550 OA
ATOM     32  O   UNL     1     -99.953  90.190 202.765  1.00  0.00    -0.550 OA
ENDBRANCH   1  30
BRANCH  27  33
ATOM     33  O   UNL     1    -109.990  90.394 199.397  1.00  0.00    -0.393 OA
ATOM     34  H   UNL     1    -110.138  89.599 198.834  1.00  0.00     0.210 HD
ENDBRANCH  27  33
TORSDOF 2
ENDMDL
MODEL 5
REMARK VINA RESULT:    -5.937      1.815      8.093
REMARK INTER + INTRA:          -6.193
REMARK INTER:                  -6.448
REMARK INTRA:                   0.255
REMARK UNBOUND:                 0.265
REMARK SMILES C[C@H]1[C@H](C)CC[C@]2(C(=O)[O-])CC[C@]3(C)C(=CC[C@@H]4[C@]5(C)CC[C@@H](O)C(C)(C)[C@H]5CC[C@]43C)[C@@H]12
REMARK SMILES IDX 7 1 6 2 11 3 33 4 5 5 12 6 15 7 2 8 3 9 13 10 16 11 1 12
REMARK SMILES IDX 4 13 14 14 31 15 17 16 18 17 30 18 32 19 19 20 29 21 28 22
REMARK SMILES IDX 21 23 20 24 25 25 22 26 23 27 26 28 27 29 8 30 9 31 10 32
REMARK SMILES IDX 24 33
REMARK H PARENT 24 34
REMARK Flexibility Score: inf
ROOT
ATOM      1  C   UNL     1    -112.012  88.277 203.646  1.00  0.00     0.017 C 
ATOM      2  C   UNL     1    -113.076  87.199 203.352  1.00  0.00     0.014 C 
ATOM      3  C   UNL     1    -111.042  88.483 202.405  1.00  0.00     0.014 C 
ATOM      4  C   UNL     1    -111.172  87.786 204.849  1.00  0.00     0.030 C 
ATOM      5  C   UNL     1    -113.926  86.848 204.615  1.00  0.00     0.004 C 
ATOM      6  C   UNL     1    -109.508  88.119 202.549  1.00  0.00     0.013 C 
ATOM      7  C   UNL     1    -109.875  88.583 204.949  1.00  0.00    -0.063 C 
ATOM      8  C   UNL     1    -111.825  87.208 206.142  1.00  0.00    -0.003 C 
ATOM      9  C   UNL     1    -113.042  86.293 205.768  1.00  0.00    -0.011 C 
ATOM     10  C   UNL     1    -108.787  88.113 203.990  1.00  0.00    -0.006 C 
ATOM     11  C   UNL     1    -110.022  89.924 205.067  1.00  0.00    -0.027 C 
ATOM     12  C   UNL     1    -112.146  88.183 207.283  1.00  0.00     0.008 C 
ATOM     13  C   UNL     1    -112.565  84.842 205.395  1.00  0.00     0.008 C 
ATOM     14  C   UNL     1    -108.389  86.629 204.288  1.00  0.00     0.017 C 
ATOM     15  C   UNL     1    -107.418  88.997 204.115  1.00  0.00    -0.020 C 
ATOM     16  C   UNL     1    -109.148  90.911 204.333  1.00  0.00     0.032 C 
ATOM     17  C   UNL     1    -107.700  90.479 204.592  1.00  0.00     0.006 C 
ATOM     18  C   UNL     1    -106.409  88.478 205.216  1.00  0.00     0.008 C 
ATOM     19  C   UNL     1    -106.701  88.887 202.731  1.00  0.00     0.012 C 
ATOM     20  C   UNL     1    -106.497  91.547 204.539  1.00  0.00    -0.025 C 
ATOM     21  C   UNL     1    -105.456  89.546 205.877  1.00  0.00     0.005 C 
ATOM     22  C   UNL     1    -105.192  90.772 204.958  1.00  0.00     0.003 C 
ATOM     23  C   UNL     1    -106.190  92.208 203.172  1.00  0.00     0.010 C 
ATOM     24  C   UNL     1    -106.898  92.703 205.520  1.00  0.00     0.012 C 
ATOM     25  C   UNL     1    -103.871  91.622 205.134  1.00  0.00    -0.006 C 
ATOM     26  C   UNL     1    -104.899  93.078 203.183  1.00  0.00     0.033 C 
ATOM     27  C   UNL     1    -103.623  92.346 203.765  1.00  0.00     0.120 C 
ATOM     28  C   UNL     1    -103.898  92.628 206.312  1.00  0.00     0.014 C 
ATOM     29  C   UNL     1    -102.676  90.672 205.444  1.00  0.00     0.014 C 
ENDROOT
BRANCH   1  30
ATOM     30  C   UNL     1    -112.789  89.583 203.871  1.00  0.00     0.048 C 
ATOM     31  O   UNL     1    -113.571  89.714 204.845  1.00  0.00    -0.550 OA
ATOM     32  O   UNL     1    -112.754  90.602 202.917  1.00  0.00    -0.550 OA
ENDBRANCH   1  30
BRANCH  27  33
ATOM     33  O   UNL     1    -102.538  93.252 203.867  1.00  0.00    -0.393 OA
ATOM     34  H   UNL     1    -101.878  92.818 204.455  1.00  0.00     0.210 HD
ENDBRANCH  27  33
TORSDOF 2
ENDMDL
MODEL 6
REMARK VINA RESULT:    -5.764      3.951      6.100
REMARK INTER + INTRA:          -6.005
REMARK INTER:                  -6.587
REMARK INTRA:                   0.582
REMARK UNBOUND:                 0.265
REMARK SMILES C[C@H]1[C@H](C)CC[C@]2(C(=O)[O-])CC[C@]3(C)C(=CC[C@@H]4[C@]5(C)CC[C@@H](O)C(C)(C)[C@H]5CC[C@]43C)[C@@H]12
REMARK SMILES IDX 7 1 6 2 11 3 33 4 5 5 12 6 15 7 2 8 3 9 13 10 16 11 1 12
REMARK SMILES IDX 4 13 14 14 31 15 17 16 18 17 30 18 32 19 19 20 29 21 28 22
REMARK SMILES IDX 21 23 20 24 25 25 22 26 23 27 26 28 27 29 8 30 9 31 10 32
REMARK SMILES IDX 24 33
REMARK H PARENT 24 34
REMARK Flexibility Score: inf
ROOT
ATOM      1  C   UNL     1     -99.375  88.540 203.309  1.00  0.00     0.017 C 
ATOM      2  C   UNL     1     -97.914  88.967 203.558  1.00  0.00     0.014 C 
ATOM      3  C   UNL     1    -100.186  89.675 202.546  1.00  0.00     0.014 C 
ATOM      4  C   UNL     1    -100.035  88.310 204.689  1.00  0.00     0.030 C 
ATOM      5  C   UNL     1     -97.147  87.950 204.462  1.00  0.00     0.004 C 
ATOM      6  C   UNL     1    -101.396  90.389 203.277  1.00  0.00     0.013 C 
ATOM      7  C   UNL     1    -101.553  88.277 204.552  1.00  0.00    -0.063 C 
ATOM      8  C   UNL     1     -99.343  87.483 205.815  1.00  0.00    -0.003 C 
ATOM      9  C   UNL     1     -97.810  87.810 205.861  1.00  0.00    -0.011 C 
ATOM     10  C   UNL     1    -102.195  89.658 204.469  1.00  0.00    -0.006 C 
ATOM     11  C   UNL     1    -102.042  87.345 203.700  1.00  0.00    -0.027 C 
ATOM     12  C   UNL     1     -99.629  85.976 205.880  1.00  0.00     0.008 C 
ATOM     13  C   UNL     1     -97.536  89.116 206.691  1.00  0.00     0.008 C 
ATOM     14  C   UNL     1    -101.911  90.480 205.771  1.00  0.00     0.017 C 
ATOM     15  C   UNL     1    -103.820  89.584 204.308  1.00  0.00    -0.020 C 
ATOM     16  C   UNL     1    -103.177  87.623 202.745  1.00  0.00     0.032 C 
ATOM     17  C   UNL     1    -104.293  88.263 203.579  1.00  0.00     0.006 C 
ATOM     18  C   UNL     1    -104.604  89.509 205.679  1.00  0.00     0.008 C 
ATOM     19  C   UNL     1    -104.247  90.907 203.595  1.00  0.00     0.012 C 
ATOM     20  C   UNL     1    -105.834  88.141 203.129  1.00  0.00    -0.025 C 
ATOM     21  C   UNL     1    -106.005  88.786 205.666  1.00  0.00     0.005 C 
ATOM     22  C   UNL     1    -106.687  88.814 204.269  1.00  0.00     0.003 C 
ATOM     23  C   UNL     1    -106.248  88.836 201.809  1.00  0.00     0.010 C 
ATOM     24  C   UNL     1    -106.113  86.609 202.941  1.00  0.00     0.012 C 
ATOM     25  C   UNL     1    -108.260  88.706 204.155  1.00  0.00    -0.006 C 
ATOM     26  C   UNL     1    -107.785  88.821 201.559  1.00  0.00     0.033 C 
ATOM     27  C   UNL     1    -108.651  89.342 202.776  1.00  0.00     0.120 C 
ATOM     28  C   UNL     1    -108.824  87.270 204.298  1.00  0.00     0.014 C 
ATOM     29  C   UNL     1    -108.925  89.516 205.308  1.00  0.00     0.014 C 
ENDROOT
BRANCH   1  30
ATOM     30  C   UNL     1     -99.303  87.307 202.396  1.00  0.00     0.048 C 
ATOM     31  O   UNL     1     -99.638  86.170 202.813  1.00  0.00    -0.550 OA
ATOM     32  O   UNL     1     -98.727  87.395 201.127  1.00  0.00    -0.550 OA
ENDBRANCH   1  30
BRANCH  27  33
ATOM     33  O   UNL     1    -110.031  89.160 202.513  1.00  0.00    -0.393 OA
ATOM     34  H   UNL     1    -110.442  90.051 202.604  1.00  0.00     0.210 HD
ENDBRANCH  27  33
TORSDOF 2
ENDMDL
MODEL 7
REMARK VINA RESULT:    -5.667      2.265      4.161
REMARK INTER + INTRA:          -5.899
REMARK INTER:                  -6.158
REMARK INTRA:                   0.258
REMARK UNBOUND:                 0.265
REMARK SMILES C[C@H]1[C@H](C)CC[C@]2(C(=O)[O-])CC[C@]3(C)C(=CC[C@@H]4[C@]5(C)CC[C@@H](O)C(C)(C)[C@H]5CC[C@]43C)[C@@H]12
REMARK SMILES IDX 7 1 6 2 11 3 33 4 5 5 12 6 15 7 2 8 3 9 13 10 16 11 1 12
REMARK SMILES IDX 4 13 14 14 31 15 17 16 18 17 30 18 32 19 19 20 29 21 28 22
REMARK SMILES IDX 21 23 20 24 25 25 22 26 23 27 26 28 27 29 8 30 9 31 10 32
REMARK SMILES IDX 24 33
REMARK H PARENT 24 34
REMARK Flexibility Score: inf
ROOT
ATOM      1  C   UNL     1    -105.117  88.162 203.462  1.00  0.00     0.017 C 
ATOM      2  C   UNL     1    -104.019  87.350 202.745  1.00  0.00     0.014 C 
ATOM      3  C   UNL     1    -106.003  87.233 204.398  1.00  0.00     0.014 C 
ATOM      4  C   UNL     1    -106.030  88.774 202.373  1.00  0.00     0.030 C 
ATOM      5  C   UNL     1    -103.252  88.202 201.684  1.00  0.00     0.004 C 
ATOM      6  C   UNL     1    -107.538  87.032 204.065  1.00  0.00     0.013 C 
ATOM      7  C   UNL     1    -107.343  89.249 202.989  1.00  0.00    -0.063 C 
ATOM      8  C   UNL     1    -105.458  89.502 201.119  1.00  0.00    -0.003 C 
ATOM      9  C   UNL     1    -104.204  88.733 200.575  1.00  0.00    -0.011 C 
ATOM     10  C   UNL     1    -108.356  88.132 203.218  1.00  0.00    -0.006 C 
ATOM     11  C   UNL     1    -107.225  90.156 203.988  1.00  0.00    -0.027 C 
ATOM     12  C   UNL     1    -105.231  91.017 201.206  1.00  0.00     0.008 C 
ATOM     13  C   UNL     1    -104.633  87.536 199.650  1.00  0.00     0.008 C 
ATOM     14  C   UNL     1    -108.750  87.455 201.863  1.00  0.00     0.017 C 
ATOM     15  C   UNL     1    -109.743  88.674 203.890  1.00  0.00    -0.020 C 
ATOM     16  C   UNL     1    -108.062  90.105 205.242  1.00  0.00     0.032 C 
ATOM     17  C   UNL     1    -109.517  89.960 204.783  1.00  0.00     0.006 C 
ATOM     18  C   UNL     1    -110.817  89.176 202.845  1.00  0.00     0.008 C 
ATOM     19  C   UNL     1    -110.362  87.457 204.651  1.00  0.00     0.012 C 
ATOM     20  C   UNL     1    -110.730  90.481 205.704  1.00  0.00    -0.025 C 
ATOM     21  C   UNL     1    -111.829  90.283 203.331  1.00  0.00     0.005 C 
ATOM     22  C   UNL     1    -112.049  90.267 204.871  1.00  0.00     0.003 C 
ATOM     23  C   UNL     1    -110.953  89.766 207.060  1.00  0.00     0.010 C 
ATOM     24  C   UNL     1    -110.415  91.982 206.030  1.00  0.00     0.012 C 
ATOM     25  C   UNL     1    -113.392  90.832 205.483  1.00  0.00    -0.006 C 
ATOM     26  C   UNL     1    -112.255  90.213 207.787  1.00  0.00     0.033 C 
ATOM     27  C   UNL     1    -113.557  90.158 206.890  1.00  0.00     0.120 C 
ATOM     28  C   UNL     1    -113.461  92.377 205.583  1.00  0.00     0.014 C 
ATOM     29  C   UNL     1    -114.591  90.434 204.571  1.00  0.00     0.014 C 
ENDROOT
BRANCH   1  30
ATOM     30  C   UNL     1    -104.378  89.174 204.351  1.00  0.00     0.048 C 
ATOM     31  O   UNL     1    -103.649  90.067 203.851  1.00  0.00    -0.550 OA
ATOM     32  O   UNL     1    -104.383  89.035 205.740  1.00  0.00    -0.550 OA
ENDBRANCH   1  30
BRANCH  27  33
ATOM     33  O   UNL     1    -114.660  90.712 207.585  1.00  0.00    -0.393 OA
ATOM     34  H   UNL     1    -115.456  90.241 207.247  1.00  0.00     0.210 HD
ENDBRANCH  27  33
TORSDOF 2
ENDMDL
MODEL 8
REMARK VINA RESULT:    -5.602      1.900      3.824
REMARK INTER + INTRA:          -5.828
REMARK INTER:                  -6.135
REMARK INTRA:                   0.307
REMARK UNBOUND:                 0.265
REMARK SMILES C[C@H]1[C@H](C)CC[C@]2(C(=O)[O-])CC[C@]3(C)C(=CC[C@@H]4[C@]5(C)CC[C@@H](O)C(C)(C)[C@H]5CC[C@]43C)[C@@H]12
REMARK SMILES IDX 7 1 6 2 11 3 33 4 5 5 12 6 15 7 2 8 3 9 13 10 16 11 1 12
REMARK SMILES IDX 4 13 14 14 31 15 17 16 18 17 30 18 32 19 19 20 29 21 28 22
REMARK SMILES IDX 21 23 20 24 25 25 22 26 23 27 26 28 27 29 8 30 9 31 10 32
REMARK SMILES IDX 24 33
REMARK H PARENT 24 34
REMARK Flexibility Score: inf
ROOT
ATOM      1  C   UNL     1    -103.878  89.130 205.115  1.00  0.00     0.017 C 
ATOM      2  C   UNL     1    -102.367  88.840 205.005  1.00  0.00     0.014 C 
ATOM      3  C   UNL     1    -104.657  87.897 205.747  1.00  0.00     0.014 C 
ATOM      4  C   UNL     1    -104.412  89.365 203.682  1.00  0.00     0.030 C 
ATOM      5  C   UNL     1    -101.606  89.959 204.223  1.00  0.00     0.004 C 
ATOM      6  C   UNL     1    -105.718  87.116 204.869  1.00  0.00     0.013 C 
ATOM      7  C   UNL     1    -105.934  89.263 203.661  1.00  0.00    -0.063 C 
ATOM      8  C   UNL     1    -103.687  90.298 202.665  1.00  0.00    -0.003 C 
ATOM      9  C   UNL     1    -102.134  90.105 202.769  1.00  0.00    -0.011 C 
ATOM     10  C   UNL     1    -106.455  87.830 203.626  1.00  0.00    -0.006 C 
ATOM     11  C   UNL     1    -106.588  90.111 204.491  1.00  0.00    -0.027 C 
ATOM     12  C   UNL     1    -104.098  91.776 202.625  1.00  0.00     0.008 C 
ATOM     13  C   UNL     1    -101.662  88.866 201.925  1.00  0.00     0.008 C 
ATOM     14  C   UNL     1    -105.969  87.095 202.333  1.00  0.00     0.017 C 
ATOM     15  C   UNL     1    -108.088  87.758 203.619  1.00  0.00    -0.020 C 
ATOM     16  C   UNL     1    -107.784  89.694 205.311  1.00  0.00     0.032 C 
ATOM     17  C   UNL     1    -108.749  89.000 204.342  1.00  0.00     0.006 C 
ATOM     18  C   UNL     1    -108.733  87.828 202.177  1.00  0.00     0.008 C 
ATOM     19  C   UNL     1    -108.465  86.373 204.235  1.00  0.00     0.012 C 
ATOM     20  C   UNL     1    -110.331  88.971 204.632  1.00  0.00    -0.025 C 
ATOM     21  C   UNL     1    -110.187  88.429 202.070  1.00  0.00     0.005 C 
ATOM     22  C   UNL     1    -111.002  88.280 203.386  1.00  0.00     0.003 C 
ATOM     23  C   UNL     1    -110.813  88.184 205.876  1.00  0.00     0.010 C 
ATOM     24  C   UNL     1    -110.763  90.463 204.845  1.00  0.00     0.012 C 
ATOM     25  C   UNL     1    -112.581  88.249 203.338  1.00  0.00    -0.006 C 
ATOM     26  C   UNL     1    -112.362  88.057 205.965  1.00  0.00     0.033 C 
ATOM     27  C   UNL     1    -113.051  87.520 204.645  1.00  0.00     0.120 C 
ATOM     28  C   UNL     1    -113.254  89.636 203.189  1.00  0.00     0.014 C 
ATOM     29  C   UNL     1    -113.051  87.438 202.094  1.00  0.00     0.014 C 
ENDROOT
BRANCH   1  30
ATOM     30  C   UNL     1    -104.008  90.323 206.074  1.00  0.00     0.048 C 
ATOM     31  O   UNL     1    -104.510  90.184 207.218  1.00  0.00    -0.550 OA
ATOM     32  O   UNL     1    -103.705  91.616 205.645  1.00  0.00    -0.550 OA
ENDBRANCH   1  30
BRANCH  27  33
ATOM     33  O   UNL     1    -114.461  87.571 204.769  1.00  0.00    -0.393 OA
ATOM     34  H   UNL     1    -114.711  86.804 205.334  1.00  0.00     0.210 HD
ENDBRANCH  27  33
TORSDOF 2
ENDMDL
MODEL 9
REMARK VINA RESULT:    -5.589      2.236      7.912
REMARK INTER + INTRA:          -5.814
REMARK INTER:                  -6.073
REMARK INTRA:                   0.258
REMARK UNBOUND:                 0.265
REMARK SMILES C[C@H]1[C@H](C)CC[C@]2(C(=O)[O-])CC[C@]3(C)C(=CC[C@@H]4[C@]5(C)CC[C@@H](O)C(C)(C)[C@H]5CC[C@]43C)[C@@H]12
REMARK SMILES IDX 7 1 6 2 11 3 33 4 5 5 12 6 15 7 2 8 3 9 13 10 16 11 1 12
REMARK SMILES IDX 4 13 14 14 31 15 17 16 18 17 30 18 32 19 19 20 29 21 28 22
REMARK SMILES IDX 21 23 20 24 25 25 22 26 23 27 26 28 27 29 8 30 9 31 10 32
REMARK SMILES IDX 24 33
REMARK H PARENT 24 34
REMARK Flexibility Score: inf
ROOT
ATOM      1  C   UNL     1    -111.955  89.601 204.129  1.00  0.00     0.017 C 
ATOM      2  C   UNL     1    -113.460  89.274 204.222  1.00  0.00     0.014 C 
ATOM      3  C   UNL     1    -111.338  89.094 202.755  1.00  0.00     0.014 C 
ATOM      4  C   UNL     1    -111.245  88.862 205.288  1.00  0.00     0.030 C 
ATOM      5  C   UNL     1    -114.049  89.598 205.632  1.00  0.00     0.004 C 
ATOM      6  C   UNL     1    -110.238  87.955 202.771  1.00  0.00     0.013 C 
ATOM      7  C   UNL     1    -109.742  88.807 205.038  1.00  0.00    -0.063 C 
ATOM      8  C   UNL     1    -111.784  88.892 206.750  1.00  0.00    -0.003 C 
ATOM      9  C   UNL     1    -113.349  88.776 206.750  1.00  0.00    -0.011 C 
ATOM     10  C   UNL     1    -109.317  87.708 204.070  1.00  0.00    -0.006 C 
ATOM     11  C   UNL     1    -109.132  90.005 204.878  1.00  0.00    -0.027 C 
ATOM     12  C   UNL     1    -111.274  89.999 207.683  1.00  0.00     0.008 C 
ATOM     13  C   UNL     1    -113.803  87.274 206.645  1.00  0.00     0.008 C 
ATOM     14  C   UNL     1    -109.699  86.297 204.630  1.00  0.00     0.017 C 
ATOM     15  C   UNL     1    -107.702  87.687 203.815  1.00  0.00    -0.020 C 
ATOM     16  C   UNL     1    -108.068  90.251 203.837  1.00  0.00     0.032 C 
ATOM     17  C   UNL     1    -107.047  89.117 203.989  1.00  0.00     0.006 C 
ATOM     18  C   UNL     1    -106.893  86.819 204.860  1.00  0.00     0.008 C 
ATOM     19  C   UNL     1    -107.492  87.045 202.407  1.00  0.00     0.012 C 
ATOM     20  C   UNL     1    -105.514  89.321 203.545  1.00  0.00    -0.025 C 
ATOM     21  C   UNL     1    -105.399  87.240 205.139  1.00  0.00     0.005 C 
ATOM     22  C   UNL     1    -104.753  88.002 203.947  1.00  0.00     0.003 C 
ATOM     23  C   UNL     1    -105.232  89.543 202.039  1.00  0.00     0.010 C 
ATOM     24  C   UNL     1    -105.011  90.603 204.294  1.00  0.00     0.012 C 
ATOM     25  C   UNL     1    -103.184  87.985 203.756  1.00  0.00    -0.006 C 
ATOM     26  C   UNL     1    -103.715  89.541 201.688  1.00  0.00     0.033 C 
ATOM     27  C   UNL     1    -102.917  88.292 202.241  1.00  0.00     0.120 C 
ATOM     28  C   UNL     1    -102.407  88.958 204.678  1.00  0.00     0.014 C 
ATOM     29  C   UNL     1    -102.630  86.571 204.105  1.00  0.00     0.014 C 
ENDROOT
BRANCH   1  30
ATOM     30  C   UNL     1    -111.856  91.134 204.163  1.00  0.00     0.048 C 
ATOM     31  O   UNL     1    -112.223  91.786 205.172  1.00  0.00    -0.550 OA
ATOM     32  O   UNL     1    -111.491  91.847 203.019  1.00  0.00    -0.550 OA
ENDBRANCH   1  30
BRANCH  27  33
ATOM     33  O   UNL     1    -101.530  88.445 201.997  1.00  0.00    -0.393 OA
ATOM     34  H   UNL     1    -101.161  87.533 201.959  1.00  0.00     0.210 HD
ENDBRANCH  27  33
TORSDOF 2
ENDMDL
