MODEL 1
REMARK VINA RESULT:    -5.965      0.000      0.000
REMARK INTER + INTRA:          -7.536
REMARK INTER:                  -7.185
REMARK INTRA:                  -0.351
REMARK UNBOUND:                -0.351
REMARK SMILES O=c1c(O)c(-c2ccc(O)cc2O)oc2cc(O)cc(O)c12
REMARK SMILES IDX 5 1 3 2 2 3 1 4 22 5 20 6 19 7 17 8 16 9 15 10 14 11 6 12
REMARK SMILES IDX 8 13 7 14 9 15 11 16 12 17 10 18 13 20 4 22 21 24 18 26
REMARK H PARENT 10 19 13 21 4 23 21 25 18 27
REMARK Flexibility Score: inf
ROOT
ATOM      1  C   UNL     1      35.185  50.146  16.917  1.00  0.00     0.184 A 
ATOM      2  C   UNL     1      35.857  48.913  16.972  1.00  0.00     0.208 A 
ATOM      3  C   UNL     1      37.110  48.847  17.602  1.00  0.00     0.238 A 
ATOM      4  O   UNL     1      37.680  47.730  17.697  1.00  0.00    -0.285 OA
ATOM      5  C   UNL     1      37.684  50.019  18.151  1.00  0.00     0.111 A 
ATOM      6  C   UNL     1      38.965  50.076  18.778  1.00  0.00     0.134 A 
ATOM      7  C   UNL     1      39.377  51.262  19.399  1.00  0.00     0.093 A 
ATOM      8  C   UNL     1      38.582  52.410  19.361  1.00  0.00     0.123 A 
ATOM      9  C   UNL     1      37.356  52.380  18.701  1.00  0.00     0.094 A 
ATOM     10  C   UNL     1      36.901  51.202  18.103  1.00  0.00     0.146 A 
ATOM     11  O   UNL     1      35.722  51.214  17.495  1.00  0.00    -0.451 OA
ENDROOT
BRANCH   1  12
ATOM     12  C   UNL     1      33.872  50.291  16.246  1.00  0.00     0.063 A 
ATOM     13  C   UNL     1      32.492  50.110  14.250  1.00  0.00     0.047 A 
ATOM     14  C   UNL     1      33.723  49.948  14.890  1.00  0.00     0.020 A 
ATOM     15  C   UNL     1      31.396  50.628  14.950  1.00  0.00     0.119 A 
ATOM     16  C   UNL     1      31.539  50.986  16.294  1.00  0.00     0.093 A 
ATOM     17  C   UNL     1      32.770  50.824  16.946  1.00  0.00     0.130 A 
BRANCH  15  18
ATOM     18  O   UNL     1      30.165  50.795  14.321  1.00  0.00    -0.508 OA
ATOM     19  H   UNL     1      29.430  50.102  14.402  1.00  0.00     0.293 HD
ENDBRANCH  15  18
BRANCH  17  20
ATOM     20  O   UNL     1      32.895  51.179  18.289  1.00  0.00    -0.507 OA
ATOM     21  H   UNL     1      32.559  52.070  18.638  1.00  0.00     0.293 HD
ENDBRANCH  17  20
ENDBRANCH   1  12
BRANCH   2  22
ATOM     22  O   UNL     1      35.264  47.767  16.433  1.00  0.00    -0.502 OA
ATOM     23  H   UNL     1      34.261  47.640  16.397  1.00  0.00     0.293 HD
ENDBRANCH   2  22
BRANCH   6  24
ATOM     24  O   UNL     1      39.875  49.015  18.792  1.00  0.00    -0.507 OA
ATOM     25  H   UNL     1      40.745  48.997  18.283  1.00  0.00     0.293 HD
ENDBRANCH   6  24
BRANCH   8  26
ATOM     26  O   UNL     1      39.006  53.590  19.969  1.00  0.00    -0.508 OA
ATOM     27  H   UNL     1      38.510  53.988  20.757  1.00  0.00     0.293 HD
ENDBRANCH   8  26
TORSDOF 6
ENDMDL
MODEL 2
REMARK VINA RESULT:    -5.652      2.279      8.004
REMARK INTER + INTRA:          -7.159
REMARK INTER:                  -7.062
REMARK INTRA:                  -0.097
REMARK UNBOUND:                -0.351
REMARK SMILES O=c1c(O)c(-c2ccc(O)cc2O)oc2cc(O)cc(O)c12
REMARK SMILES IDX 5 1 3 2 2 3 1 4 22 5 20 6 19 7 17 8 16 9 15 10 14 11 6 12
REMARK SMILES IDX 8 13 7 14 9 15 11 16 12 17 10 18 13 20 4 22 21 24 18 26
REMARK H PARENT 10 19 13 21 4 23 21 25 18 27
REMARK Flexibility Score: inf
ROOT
ATOM      1  C   UNL     1      32.665  50.492  15.540  1.00  0.00     0.184 A 
ATOM      2  C   UNL     1      31.716  51.214  16.283  1.00  0.00     0.208 A 
ATOM      3  C   UNL     1      30.501  51.570  15.676  1.00  0.00     0.238 A 
ATOM      4  O   UNL     1      29.634  52.167  16.364  1.00  0.00    -0.285 OA
ATOM      5  C   UNL     1      30.259  51.217  14.326  1.00  0.00     0.111 A 
ATOM      6  C   UNL     1      29.080  51.559  13.597  1.00  0.00     0.134 A 
ATOM      7  C   UNL     1      28.893  51.046  12.308  1.00  0.00     0.093 A 
ATOM      8  C   UNL     1      29.871  50.257  11.696  1.00  0.00     0.123 A 
ATOM      9  C   UNL     1      31.050  49.967  12.378  1.00  0.00     0.094 A 
ATOM     10  C   UNL     1      31.250  50.433  13.678  1.00  0.00     0.146 A 
ATOM     11  O   UNL     1      32.384  50.123  14.296  1.00  0.00    -0.451 OA
ENDROOT
BRANCH   1  12
ATOM     12  C   UNL     1      33.976  50.106  16.111  1.00  0.00     0.063 A 
ATOM     13  C   UNL     1      35.951  50.660  17.422  1.00  0.00     0.047 A 
ATOM     14  C   UNL     1      34.702  51.013  16.905  1.00  0.00     0.020 A 
ATOM     15  C   UNL     1      36.498  49.402  17.144  1.00  0.00     0.119 A 
ATOM     16  C   UNL     1      35.790  48.499  16.345  1.00  0.00     0.093 A 
ATOM     17  C   UNL     1      34.534  48.844  15.824  1.00  0.00     0.130 A 
BRANCH  15  18
ATOM     18  O   UNL     1      37.743  49.040  17.654  1.00  0.00    -0.508 OA
ATOM     19  H   UNL     1      38.463  49.731  17.830  1.00  0.00     0.293 HD
ENDBRANCH  15  18
BRANCH  17  20
ATOM     20  O   UNL     1      33.837  47.931  15.034  1.00  0.00    -0.507 OA
ATOM     21  H   UNL     1      32.825  47.939  14.977  1.00  0.00     0.293 HD
ENDBRANCH  17  20
ENDBRANCH   1  12
BRANCH   2  22
ATOM     22  O   UNL     1      31.972  51.541  17.618  1.00  0.00    -0.502 OA
ATOM     23  H   UNL     1      32.891  51.814  17.944  1.00  0.00     0.293 HD
ENDBRANCH   2  22
BRANCH   6  24
ATOM     24  O   UNL     1      28.086  52.414  14.080  1.00  0.00    -0.507 OA
ATOM     25  H   UNL     1      27.270  52.699  13.561  1.00  0.00     0.293 HD
ENDBRANCH   6  24
BRANCH   8  26
ATOM     26  O   UNL     1      29.682  49.765  10.406  1.00  0.00    -0.508 OA
ATOM     27  H   UNL     1      28.797  49.868   9.924  1.00  0.00     0.293 HD
ENDBRANCH   8  26
TORSDOF 6
ENDMDL
MODEL 3
REMARK VINA RESULT:    -5.397      3.014      8.736
REMARK INTER + INTRA:          -6.852
REMARK INTER:                  -6.767
REMARK INTRA:                  -0.085
REMARK UNBOUND:                -0.351
REMARK SMILES O=c1c(O)c(-c2ccc(O)cc2O)oc2cc(O)cc(O)c12
REMARK SMILES IDX 5 1 3 2 2 3 1 4 22 5 20 6 19 7 17 8 16 9 15 10 14 11 6 12
REMARK SMILES IDX 8 13 7 14 9 15 11 16 12 17 10 18 13 20 4 22 21 24 18 26
REMARK H PARENT 10 19 13 21 4 23 21 25 18 27
REMARK Flexibility Score: inf
ROOT
ATOM      1  C   UNL     1      31.451  50.910  14.911  1.00  0.00     0.184 A 
ATOM      2  C   UNL     1      30.593  52.022  14.868  1.00  0.00     0.208 A 
ATOM      3  C   UNL     1      29.655  52.119  13.828  1.00  0.00     0.238 A 
ATOM      4  O   UNL     1      28.853  53.088  13.827  1.00  0.00    -0.285 OA
ATOM      5  C   UNL     1      29.600  51.113  12.834  1.00  0.00     0.111 A 
ATOM      6  C   UNL     1      28.716  51.128  11.713  1.00  0.00     0.134 A 
ATOM      7  C   UNL     1      28.659  50.017  10.863  1.00  0.00     0.093 A 
ATOM      8  C   UNL     1      29.502  48.918  11.055  1.00  0.00     0.123 A 
ATOM      9  C   UNL     1      30.409  48.920  12.112  1.00  0.00     0.094 A 
ATOM     10  C   UNL     1      30.463  49.998  12.998  1.00  0.00     0.146 A 
ATOM     11  O   UNL     1      31.334  49.953  13.999  1.00  0.00    -0.451 OA
ENDROOT
BRANCH   1  12
ATOM     12  C   UNL     1      32.481  50.758  15.966  1.00  0.00     0.063 A 
ATOM     13  C   UNL     1      33.155  50.946  18.297  1.00  0.00     0.047 A 
ATOM     14  C   UNL     1      32.178  51.063  17.306  1.00  0.00     0.020 A 
ATOM     15  C   UNL     1      34.452  50.534  17.963  1.00  0.00     0.119 A 
ATOM     16  C   UNL     1      34.765  50.242  16.632  1.00  0.00     0.093 A 
ATOM     17  C   UNL     1      33.789  50.355  15.630  1.00  0.00     0.130 A 
BRANCH  15  18
ATOM     18  O   UNL     1      35.434  50.415  18.943  1.00  0.00    -0.508 OA
ATOM     19  H   UNL     1      36.330  50.879  18.853  1.00  0.00     0.293 HD
ENDBRANCH  15  18
BRANCH  17  20
ATOM     20  O   UNL     1      34.115  50.054  14.308  1.00  0.00    -0.507 OA
ATOM     21  H   UNL     1      33.610  49.348  13.783  1.00  0.00     0.293 HD
ENDBRANCH  17  20
ENDBRANCH   1  12
BRANCH   2  22
ATOM     22  O   UNL     1      30.658  52.997  15.868  1.00  0.00    -0.502 OA
ATOM     23  H   UNL     1      30.866  52.773  16.833  1.00  0.00     0.293 HD
ENDBRANCH   2  22
BRANCH   6  24
ATOM     24  O   UNL     1      27.900  52.213  11.377  1.00  0.00    -0.507 OA
ATOM     25  H   UNL     1      27.907  52.684  10.486  1.00  0.00     0.293 HD
ENDBRANCH   6  24
BRANCH   8  26
ATOM     26  O   UNL     1      29.450  47.823  10.195  1.00  0.00    -0.508 OA
ATOM     27  H   UNL     1      29.080  47.906   9.255  1.00  0.00     0.293 HD
ENDBRANCH   8  26
TORSDOF 6
ENDMDL
MODEL 4
REMARK VINA RESULT:    -5.379      2.245      3.320
REMARK INTER + INTRA:          -6.830
REMARK INTER:                  -6.761
REMARK INTRA:                  -0.069
REMARK UNBOUND:                -0.351
REMARK SMILES O=c1c(O)c(-c2ccc(O)cc2O)oc2cc(O)cc(O)c12
REMARK SMILES IDX 5 1 3 2 2 3 1 4 22 5 20 6 19 7 17 8 16 9 15 10 14 11 6 12
REMARK SMILES IDX 8 13 7 14 9 15 11 16 12 17 10 18 13 20 4 22 21 24 18 26
REMARK H PARENT 10 19 13 21 4 23 21 25 18 27
REMARK Flexibility Score: inf
ROOT
ATOM      1  C   UNL     1      32.907  50.576  16.154  1.00  0.00     0.184 A 
ATOM      2  C   UNL     1      34.215  50.157  15.861  1.00  0.00     0.208 A 
ATOM      3  C   UNL     1      35.173  50.144  16.887  1.00  0.00     0.238 A 
ATOM      4  O   UNL     1      36.328  49.714  16.631  1.00  0.00    -0.285 OA
ATOM      5  C   UNL     1      34.815  50.568  18.190  1.00  0.00     0.111 A 
ATOM      6  C   UNL     1      35.714  50.632  19.297  1.00  0.00     0.134 A 
ATOM      7  C   UNL     1      35.220  50.945  20.570  1.00  0.00     0.093 A 
ATOM      8  C   UNL     1      33.871  51.258  20.763  1.00  0.00     0.123 A 
ATOM      9  C   UNL     1      32.999  51.255  19.678  1.00  0.00     0.094 A 
ATOM     10  C   UNL     1      33.454  50.912  18.403  1.00  0.00     0.146 A 
ATOM     11  O   UNL     1      32.586  50.910  17.398  1.00  0.00    -0.451 OA
ENDROOT
BRANCH   1  12
ATOM     12  C   UNL     1      31.854  50.638  15.113  1.00  0.00     0.063 A 
ATOM     13  C   UNL     1      30.764  49.686  13.157  1.00  0.00     0.047 A 
ATOM     14  C   UNL     1      31.739  49.615  14.155  1.00  0.00     0.020 A 
ATOM     15  C   UNL     1      29.899  50.786  13.094  1.00  0.00     0.119 A 
ATOM     16  C   UNL     1      30.016  51.814  14.034  1.00  0.00     0.093 A 
ATOM     17  C   UNL     1      30.990  51.750  15.041  1.00  0.00     0.130 A 
BRANCH  15  18
ATOM     18  O   UNL     1      28.925  50.867  12.102  1.00  0.00    -0.508 OA
ATOM     19  H   UNL     1      28.737  50.090  11.479  1.00  0.00     0.293 HD
ENDBRANCH  15  18
BRANCH  17  20
ATOM     20  O   UNL     1      31.089  52.780  15.976  1.00  0.00    -0.507 OA
ATOM     21  H   UNL     1      31.435  53.698  15.721  1.00  0.00     0.293 HD
ENDBRANCH  17  20
ENDBRANCH   1  12
BRANCH   2  22
ATOM     22  O   UNL     1      34.543  49.731  14.570  1.00  0.00    -0.502 OA
ATOM     23  H   UNL     1      33.841  49.559  13.860  1.00  0.00     0.293 HD
ENDBRANCH   2  22
BRANCH   6  24
ATOM     24  O   UNL     1      37.093  50.428  19.196  1.00  0.00    -0.507 OA
ATOM     25  H   UNL     1      37.565  49.567  19.424  1.00  0.00     0.293 HD
ENDBRANCH   6  24
BRANCH   8  26
ATOM     26  O   UNL     1      33.392  51.583  22.030  1.00  0.00    -0.508 OA
ATOM     27  H   UNL     1      33.779  52.354  22.562  1.00  0.00     0.293 HD
ENDBRANCH   8  26
TORSDOF 6
ENDMDL
MODEL 5
REMARK VINA RESULT:    -5.332      3.920      9.440
REMARK INTER + INTRA:          -6.774
REMARK INTER:                  -6.587
REMARK INTRA:                  -0.186
REMARK UNBOUND:                -0.351
REMARK SMILES O=c1c(O)c(-c2ccc(O)cc2O)oc2cc(O)cc(O)c12
REMARK SMILES IDX 5 1 3 2 2 3 1 4 22 5 20 6 19 7 17 8 16 9 15 10 14 11 6 12
REMARK SMILES IDX 8 13 7 14 9 15 11 16 12 17 10 18 13 20 4 22 21 24 18 26
REMARK H PARENT 10 19 13 21 4 23 21 25 18 27
REMARK Flexibility Score: inf
ROOT
ATOM      1  C   UNL     1      30.192  51.750  14.899  1.00  0.00     0.184 A 
ATOM      2  C   UNL     1      29.521  52.242  16.031  1.00  0.00     0.208 A 
ATOM      3  C   UNL     1      28.289  52.894  15.864  1.00  0.00     0.238 A 
ATOM      4  O   UNL     1      27.667  53.281  16.887  1.00  0.00    -0.285 OA
ATOM      5  C   UNL     1      27.753  53.063  14.565  1.00  0.00     0.111 A 
ATOM      6  C   UNL     1      26.532  53.742  14.274  1.00  0.00     0.134 A 
ATOM      7  C   UNL     1      26.034  53.738  12.965  1.00  0.00     0.093 A 
ATOM      8  C   UNL     1      26.747  53.135  11.925  1.00  0.00     0.123 A 
ATOM      9  C   UNL     1      27.968  52.521  12.189  1.00  0.00     0.094 A 
ATOM     10  C   UNL     1      28.473  52.477  13.490  1.00  0.00     0.146 A 
ATOM     11  O   UNL     1      29.635  51.871  13.700  1.00  0.00    -0.451 OA
ENDROOT
BRANCH   1  12
ATOM     12  C   UNL     1      31.507  51.075  15.002  1.00  0.00     0.063 A 
ATOM     13  C   UNL     1      33.784  51.012  15.859  1.00  0.00     0.047 A 
ATOM     14  C   UNL     1      32.536  51.633  15.783  1.00  0.00     0.020 A 
ATOM     15  C   UNL     1      34.028  49.831  15.147  1.00  0.00     0.119 A 
ATOM     16  C   UNL     1      33.016  49.276  14.357  1.00  0.00     0.093 A 
ATOM     17  C   UNL     1      31.758  49.893  14.277  1.00  0.00     0.130 A 
BRANCH  15  18
ATOM     18  O   UNL     1      35.269  49.203  15.215  1.00  0.00    -0.508 OA
ATOM     19  H   UNL     1      36.111  49.719  15.444  1.00  0.00     0.293 HD
ENDBRANCH  15  18
BRANCH  17  20
ATOM     20  O   UNL     1      30.757  49.324  13.490  1.00  0.00    -0.507 OA
ATOM     21  H   UNL     1      29.785  49.329  13.780  1.00  0.00     0.293 HD
ENDBRANCH  17  20
ENDBRANCH   1  12
BRANCH   2  22
ATOM     22  O   UNL     1      30.064  52.052  17.306  1.00  0.00    -0.502 OA
ATOM     23  H   UNL     1      30.282  51.134  17.673  1.00  0.00     0.293 HD
ENDBRANCH   2  22
BRANCH   6  24
ATOM     24  O   UNL     1      25.790  54.454  15.221  1.00  0.00    -0.507 OA
ATOM     25  H   UNL     1      25.858  55.448  15.376  1.00  0.00     0.293 HD
ENDBRANCH   6  24
BRANCH   8  26
ATOM     26  O   UNL     1      26.252  53.149  10.622  1.00  0.00    -0.508 OA
ATOM     27  H   UNL     1      25.888  52.310  10.185  1.00  0.00     0.293 HD
ENDBRANCH   8  26
TORSDOF 6
ENDMDL
MODEL 6
REMARK VINA RESULT:    -5.322      4.073      9.694
REMARK INTER + INTRA:          -6.761
REMARK INTER:                  -6.281
REMARK INTRA:                  -0.480
REMARK UNBOUND:                -0.351
REMARK SMILES O=c1c(O)c(-c2ccc(O)cc2O)oc2cc(O)cc(O)c12
REMARK SMILES IDX 5 1 3 2 2 3 1 4 22 5 20 6 19 7 17 8 16 9 15 10 14 11 6 12
REMARK SMILES IDX 8 13 7 14 9 15 11 16 12 17 10 18 13 20 4 22 21 24 18 26
REMARK H PARENT 10 19 13 21 4 23 21 25 18 27
REMARK Flexibility Score: inf
ROOT
ATOM      1  C   UNL     1      29.861  49.643  13.969  1.00  0.00     0.184 A 
ATOM      2  C   UNL     1      29.509  49.790  12.617  1.00  0.00     0.208 A 
ATOM      3  C   UNL     1      28.263  49.312  12.181  1.00  0.00     0.238 A 
ATOM      4  O   UNL     1      27.931  49.497  10.981  1.00  0.00    -0.285 OA
ATOM      5  C   UNL     1      27.394  48.674  13.099  1.00  0.00     0.111 A 
ATOM      6  C   UNL     1      26.124  48.116  12.759  1.00  0.00     0.134 A 
ATOM      7  C   UNL     1      25.294  47.624  13.773  1.00  0.00     0.093 A 
ATOM      8  C   UNL     1      25.713  47.611  15.106  1.00  0.00     0.123 A 
ATOM      9  C   UNL     1      26.974  48.099  15.439  1.00  0.00     0.094 A 
ATOM     10  C   UNL     1      27.811  48.630  14.455  1.00  0.00     0.146 A 
ATOM     11  O   UNL     1      29.000  49.096  14.817  1.00  0.00    -0.451 OA
ENDROOT
BRANCH   1  12
ATOM     12  C   UNL     1      31.170  50.103  14.490  1.00  0.00     0.063 A 
ATOM     13  C   UNL     1      33.574  49.800  14.717  1.00  0.00     0.047 A 
ATOM     14  C   UNL     1      32.344  49.383  14.204  1.00  0.00     0.020 A 
ATOM     15  C   UNL     1      33.648  50.937  15.532  1.00  0.00     0.119 A 
ATOM     16  C   UNL     1      32.485  51.651  15.832  1.00  0.00     0.093 A 
ATOM     17  C   UNL     1      31.245  51.240  15.320  1.00  0.00     0.130 A 
BRANCH  15  18
ATOM     18  O   UNL     1      34.869  51.361  16.050  1.00  0.00    -0.508 OA
ATOM     19  H   UNL     1      35.304  50.890  16.835  1.00  0.00     0.293 HD
ENDBRANCH  15  18
BRANCH  17  20
ATOM     20  O   UNL     1      30.094  51.968  15.622  1.00  0.00    -0.507 OA
ATOM     21  H   UNL     1      29.766  52.717  15.024  1.00  0.00     0.293 HD
ENDBRANCH  17  20
ENDBRANCH   1  12
BRANCH   2  22
ATOM     22  O   UNL     1      30.379  50.434  11.731  1.00  0.00    -0.502 OA
ATOM     23  H   UNL     1      31.240  50.010  11.411  1.00  0.00     0.293 HD
ENDBRANCH   2  22
BRANCH   6  24
ATOM     24  O   UNL     1      25.650  47.997  11.450  1.00  0.00    -0.507 OA
ATOM     25  H   UNL     1      24.786  48.391  11.113  1.00  0.00     0.293 HD
ENDBRANCH   6  24
BRANCH   8  26
ATOM     26  O   UNL     1      24.885  47.105  16.107  1.00  0.00    -0.508 OA
ATOM     27  H   UNL     1      25.095  47.244  17.089  1.00  0.00     0.293 HD
ENDBRANCH   8  26
TORSDOF 6
ENDMDL
MODEL 7
REMARK VINA RESULT:    -5.321      3.953      8.777
REMARK INTER + INTRA:          -6.761
REMARK INTER:                  -6.410
REMARK INTRA:                  -0.351
REMARK UNBOUND:                -0.351
REMARK SMILES O=c1c(O)c(-c2ccc(O)cc2O)oc2cc(O)cc(O)c12
REMARK SMILES IDX 5 1 3 2 2 3 1 4 22 5 20 6 19 7 17 8 16 9 15 10 14 11 6 12
REMARK SMILES IDX 8 13 7 14 9 15 11 16 12 17 10 18 13 20 4 22 21 24 18 26
REMARK H PARENT 10 19 13 21 4 23 21 25 18 27
REMARK Flexibility Score: inf
ROOT
ATOM      1  C   UNL     1      29.836  51.334  16.462  1.00  0.00     0.184 A 
ATOM      2  C   UNL     1      29.085  52.283  15.748  1.00  0.00     0.208 A 
ATOM      3  C   UNL     1      27.824  52.660  16.235  1.00  0.00     0.238 A 
ATOM      4  O   UNL     1      27.180  53.551  15.622  1.00  0.00    -0.285 OA
ATOM      5  C   UNL     1      27.321  52.069  17.419  1.00  0.00     0.111 A 
ATOM      6  C   UNL     1      26.039  52.347  17.984  1.00  0.00     0.134 A 
ATOM      7  C   UNL     1      25.699  51.800  19.227  1.00  0.00     0.093 A 
ATOM      8  C   UNL     1      26.569  50.934  19.896  1.00  0.00     0.123 A 
ATOM      9  C   UNL     1      27.797  50.611  19.325  1.00  0.00     0.094 A 
ATOM     10  C   UNL     1      28.180  51.169  18.104  1.00  0.00     0.146 A 
ATOM     11  O   UNL     1      29.364  50.843  17.601  1.00  0.00    -0.451 OA
ENDROOT
BRANCH   1  12
ATOM     12  C   UNL     1      31.164  50.873  15.990  1.00  0.00     0.063 A 
ATOM     13  C   UNL     1      32.549  49.827  14.285  1.00  0.00     0.047 A 
ATOM     14  C   UNL     1      31.304  50.286  14.720  1.00  0.00     0.020 A 
ATOM     15  C   UNL     1      33.670  49.936  15.118  1.00  0.00     0.119 A 
ATOM     16  C   UNL     1      33.537  50.506  16.388  1.00  0.00     0.093 A 
ATOM     17  C   UNL     1      32.290  50.971  16.831  1.00  0.00     0.130 A 
BRANCH  15  18
ATOM     18  O   UNL     1      34.916  49.480  14.695  1.00  0.00    -0.508 OA
ATOM     19  H   UNL     1      35.644  50.123  14.403  1.00  0.00     0.293 HD
ENDBRANCH  15  18
BRANCH  17  20
ATOM     20  O   UNL     1      32.175  51.543  18.098  1.00  0.00    -0.507 OA
ATOM     21  H   UNL     1      31.761  51.039  18.874  1.00  0.00     0.293 HD
ENDBRANCH  17  20
ENDBRANCH   1  12
BRANCH   2  22
ATOM     22  O   UNL     1      29.607  52.862  14.587  1.00  0.00    -0.502 OA
ATOM     23  H   UNL     1      29.664  53.864  14.458  1.00  0.00     0.293 HD
ENDBRANCH   2  22
BRANCH   6  24
ATOM     24  O   UNL     1      25.062  53.123  17.355  1.00  0.00    -0.507 OA
ATOM     25  H   UNL     1      25.220  53.701  16.544  1.00  0.00     0.293 HD
ENDBRANCH   6  24
BRANCH   8  26
ATOM     26  O   UNL     1      26.215  50.382  21.126  1.00  0.00    -0.508 OA
ATOM     27  H   UNL     1      25.480  50.785  21.696  1.00  0.00     0.293 HD
ENDBRANCH   8  26
TORSDOF 6
ENDMDL
MODEL 8
REMARK VINA RESULT:    -5.299      4.426     10.011
REMARK INTER + INTRA:          -6.734
REMARK INTER:                  -6.443
REMARK INTRA:                  -0.291
REMARK UNBOUND:                -0.351
REMARK SMILES O=c1c(O)c(-c2ccc(O)cc2O)oc2cc(O)cc(O)c12
REMARK SMILES IDX 5 1 3 2 2 3 1 4 22 5 20 6 19 7 17 8 16 9 15 10 14 11 6 12
REMARK SMILES IDX 8 13 7 14 9 15 11 16 12 17 10 18 13 20 4 22 21 24 18 26
REMARK H PARENT 10 19 13 21 4 23 21 25 18 27
REMARK Flexibility Score: inf
ROOT
ATOM      1  C   UNL     1      29.294  51.274  14.324  1.00  0.00     0.184 A 
ATOM      2  C   UNL     1      28.345  51.137  15.351  1.00  0.00     0.208 A 
ATOM      3  C   UNL     1      27.026  51.557  15.120  1.00  0.00     0.238 A 
ATOM      4  O   UNL     1      26.169  51.379  16.024  1.00  0.00    -0.285 OA
ATOM      5  C   UNL     1      26.676  52.127  13.873  1.00  0.00     0.111 A 
ATOM      6  C   UNL     1      25.379  52.622  13.542  1.00  0.00     0.134 A 
ATOM      7  C   UNL     1      25.114  53.047  12.235  1.00  0.00     0.093 A 
ATOM      8  C   UNL     1      26.118  53.055  11.262  1.00  0.00     0.123 A 
ATOM      9  C   UNL     1      27.402  52.629  11.591  1.00  0.00     0.094 A 
ATOM     10  C   UNL     1      27.688  52.165  12.877  1.00  0.00     0.146 A 
ATOM     11  O   UNL     1      28.922  51.756  13.144  1.00  0.00    -0.451 OA
ENDROOT
BRANCH   1  12
ATOM     12  C   UNL     1      30.709  50.875  14.508  1.00  0.00     0.063 A 
ATOM     13  C   UNL     1      32.532  49.317  14.092  1.00  0.00     0.047 A 
ATOM     14  C   UNL     1      31.206  49.709  13.896  1.00  0.00     0.020 A 
ATOM     15  C   UNL     1      33.378  50.076  14.910  1.00  0.00     0.119 A 
ATOM     16  C   UNL     1      32.889  51.228  15.533  1.00  0.00     0.093 A 
ATOM     17  C   UNL     1      31.559  51.630  15.341  1.00  0.00     0.130 A 
BRANCH  15  18
ATOM     18  O   UNL     1      34.702  49.693  15.113  1.00  0.00    -0.508 OA
ATOM     19  H   UNL     1      34.943  48.748  15.387  1.00  0.00     0.293 HD
ENDBRANCH  15  18
BRANCH  17  20
ATOM     20  O   UNL     1      31.088  52.786  15.964  1.00  0.00    -0.507 OA
ATOM     21  H   UNL     1      30.752  52.775  16.921  1.00  0.00     0.293 HD
ENDBRANCH  17  20
ENDBRANCH   1  12
BRANCH   2  22
ATOM     22  O   UNL     1      28.711  50.560  16.571  1.00  0.00    -0.502 OA
ATOM     23  H   UNL     1      28.258  50.801  17.444  1.00  0.00     0.293 HD
ENDBRANCH   2  22
BRANCH   6  24
ATOM     24  O   UNL     1      24.333  52.744  14.462  1.00  0.00    -0.507 OA
ATOM     25  H   UNL     1      23.405  53.069  14.239  1.00  0.00     0.293 HD
ENDBRANCH   6  24
BRANCH   8  26
ATOM     26  O   UNL     1      25.849  53.495   9.967  1.00  0.00    -0.508 OA
ATOM     27  H   UNL     1      24.903  53.536   9.608  1.00  0.00     0.293 HD
ENDBRANCH   8  26
TORSDOF 6
ENDMDL
MODEL 9
REMARK VINA RESULT:    -5.284      4.174      7.815
REMARK INTER + INTRA:          -6.716
REMARK INTER:                  -6.288
REMARK INTRA:                  -0.428
REMARK UNBOUND:                -0.351
REMARK SMILES O=c1c(O)c(-c2ccc(O)cc2O)oc2cc(O)cc(O)c12
REMARK SMILES IDX 5 1 3 2 2 3 1 4 22 5 20 6 19 7 17 8 16 9 15 10 14 11 6 12
REMARK SMILES IDX 8 13 7 14 9 15 11 16 12 17 10 18 13 20 4 22 21 24 18 26
REMARK H PARENT 10 19 13 21 4 23 21 25 18 27
REMARK Flexibility Score: inf
ROOT
ATOM      1  C   UNL     1      29.974  49.330  12.316  1.00  0.00     0.184 A 
ATOM      2  C   UNL     1      29.220  50.452  12.698  1.00  0.00     0.208 A 
ATOM      3  C   UNL     1      29.718  51.297  13.703  1.00  0.00     0.238 A 
ATOM      4  O   UNL     1      29.064  52.330  14.001  1.00  0.00    -0.285 OA
ATOM      5  C   UNL     1      30.953  50.999  14.326  1.00  0.00     0.111 A 
ATOM      6  C   UNL     1      31.535  51.764  15.382  1.00  0.00     0.134 A 
ATOM      7  C   UNL     1      32.822  51.449  15.834  1.00  0.00     0.093 A 
ATOM      8  C   UNL     1      33.522  50.357  15.314  1.00  0.00     0.123 A 
ATOM      9  C   UNL     1      32.939  49.570  14.325  1.00  0.00     0.094 A 
ATOM     10  C   UNL     1      31.672  49.880  13.827  1.00  0.00     0.146 A 
ATOM     11  O   UNL     1      31.158  49.110  12.876  1.00  0.00    -0.451 OA
ENDROOT
BRANCH   1  12
ATOM     12  C   UNL     1      29.497  48.383  11.280  1.00  0.00     0.063 A 
ATOM     13  C   UNL     1      29.047  47.862   8.946  1.00  0.00     0.047 A 
ATOM     14  C   UNL     1      29.522  48.742   9.920  1.00  0.00     0.020 A 
ATOM     15  C   UNL     1      28.529  46.614   9.316  1.00  0.00     0.119 A 
ATOM     16  C   UNL     1      28.488  46.254  10.667  1.00  0.00     0.093 A 
ATOM     17  C   UNL     1      28.964  47.132  11.652  1.00  0.00     0.130 A 
BRANCH  15  18
ATOM     18  O   UNL     1      28.052  45.729   8.353  1.00  0.00    -0.508 OA
ATOM     19  H   UNL     1      27.765  46.049   7.436  1.00  0.00     0.293 HD
ENDBRANCH  15  18
BRANCH  17  20
ATOM     20  O   UNL     1      28.923  46.756  12.994  1.00  0.00    -0.507 OA
ATOM     21  H   UNL     1      29.038  45.790  13.280  1.00  0.00     0.293 HD
ENDBRANCH  17  20
ENDBRANCH   1  12
BRANCH   2  22
ATOM     22  O   UNL     1      28.008  50.733  12.060  1.00  0.00    -0.502 OA
ATOM     23  H   UNL     1      27.830  51.614  11.596  1.00  0.00     0.293 HD
ENDBRANCH   2  22
BRANCH   6  24
ATOM     24  O   UNL     1      30.883  52.815  16.033  1.00  0.00    -0.507 OA
ATOM     25  H   UNL     1      30.231  53.447  15.596  1.00  0.00     0.293 HD
ENDBRANCH   6  24
BRANCH   8  26
ATOM     26  O   UNL     1      34.796  50.042  15.782  1.00  0.00    -0.508 OA
ATOM     27  H   UNL     1      34.933  49.563  16.665  1.00  0.00     0.293 HD
ENDBRANCH   8  26
TORSDOF 6
ENDMDL
