MODEL 1
REMARK VINA RESULT:    -6.657      0.000      0.000
REMARK INTER + INTRA:          -7.304
REMARK INTER:                  -7.241
REMARK INTRA:                  -0.063
REMARK UNBOUND:                -0.063
REMARK SMILES COc1cc2ccc(=O)oc2cc1O
REMARK SMILES IDX 3 1 13 2 12 3 11 4 5 5 4 6 6 7 7 8 8 9 9 10 10 11 2 12 1 13
REMARK SMILES IDX 14 14
REMARK H PARENT 14 15
REMARK Flexibility Score: inf
ROOT
ATOM      1  C   UNL     1      44.444  59.376  49.104  1.00  0.00     0.161 A 
ATOM      2  C   UNL     1      44.979  58.215  48.522  1.00  0.00     0.161 A 
ATOM      3  C   UNL     1      44.131  57.243  47.973  1.00  0.00     0.098 A 
ATOM      4  C   UNL     1      42.746  57.421  47.999  1.00  0.00     0.142 A 
ATOM      5  C   UNL     1      42.200  58.584  48.581  1.00  0.00     0.022 A 
ATOM      6  C   UNL     1      43.046  59.557  49.130  1.00  0.00     0.062 A 
ATOM      7  C   UNL     1      40.809  58.735  48.591  1.00  0.00     0.019 A 
ATOM      8  C   UNL     1      40.008  57.739  48.032  1.00  0.00     0.094 A 
ATOM      9  C   UNL     1      40.620  56.613  47.473  1.00  0.00     0.336 A 
ATOM     10  O   UNL     1      39.915  55.702  46.964  1.00  0.00    -0.246 OA
ATOM     11  O   UNL     1      41.946  56.495  47.476  1.00  0.00    -0.423 OA
ENDROOT
BRANCH   1  12
ATOM     12  O   UNL     1      45.331  60.322  49.641  1.00  0.00    -0.493 OA
ATOM     13  C   UNL     1      45.545  61.623  49.103  1.00  0.00     0.278 C 
ENDBRANCH   1  12
BRANCH   2  14
ATOM     14  O   UNL     1      46.362  58.034  48.496  1.00  0.00    -0.504 OA
ATOM     15  H   UNL     1      46.990  58.678  48.962  1.00  0.00     0.293 HD
ENDBRANCH   2  14
TORSDOF 2
ENDMDL
MODEL 2
REMARK VINA RESULT:    -6.624      1.689      5.014
REMARK INTER + INTRA:          -7.269
REMARK INTER:                  -7.206
REMARK INTRA:                  -0.063
REMARK UNBOUND:                -0.063
REMARK SMILES COc1cc2ccc(=O)oc2cc1O
REMARK SMILES IDX 3 1 13 2 12 3 11 4 5 5 4 6 6 7 7 8 8 9 9 10 10 11 2 12 1 13
REMARK SMILES IDX 14 14
REMARK H PARENT 14 15
REMARK Flexibility Score: inf
ROOT
ATOM      1  C   UNL     1      41.151  57.345  46.563  1.00  0.00     0.161 A 
ATOM      2  C   UNL     1      42.341  57.389  45.819  1.00  0.00     0.161 A 
ATOM      3  C   UNL     1      43.384  58.245  46.200  1.00  0.00     0.098 A 
ATOM      4  C   UNL     1      43.247  59.063  47.324  1.00  0.00     0.142 A 
ATOM      5  C   UNL     1      42.056  59.025  48.078  1.00  0.00     0.022 A 
ATOM      6  C   UNL     1      41.013  58.170  47.698  1.00  0.00     0.062 A 
ATOM      7  C   UNL     1      41.950  59.855  49.199  1.00  0.00     0.019 A 
ATOM      8  C   UNL     1      43.015  60.690  49.537  1.00  0.00     0.094 A 
ATOM      9  C   UNL     1      44.166  60.674  48.742  1.00  0.00     0.336 A 
ATOM     10  O   UNL     1      45.138  61.420  49.030  1.00  0.00    -0.246 OA
ATOM     11  O   UNL     1      44.241  59.874  47.681  1.00  0.00    -0.423 OA
ENDROOT
BRANCH   1  12
ATOM     12  O   UNL     1      40.134  56.472  46.145  1.00  0.00    -0.493 OA
ATOM     13  C   UNL     1      39.692  55.338  46.883  1.00  0.00     0.278 C 
ENDBRANCH   1  12
BRANCH   2  14
ATOM     14  O   UNL     1      42.479  56.574  44.696  1.00  0.00    -0.504 OA
ATOM     15  H   UNL     1      43.200  56.741  44.004  1.00  0.00     0.293 HD
ENDBRANCH   2  14
TORSDOF 2
ENDMDL
MODEL 3
REMARK VINA RESULT:    -6.578      2.020      2.959
REMARK INTER + INTRA:          -7.218
REMARK INTER:                  -7.155
REMARK INTRA:                  -0.063
REMARK UNBOUND:                -0.063
REMARK SMILES COc1cc2ccc(=O)oc2cc1O
REMARK SMILES IDX 3 1 13 2 12 3 11 4 5 5 4 6 6 7 7 8 8 9 9 10 10 11 2 12 1 13
REMARK SMILES IDX 14 14
REMARK H PARENT 14 15
REMARK Flexibility Score: inf
ROOT
ATOM      1  C   UNL     1      44.495  59.467  49.197  1.00  0.00     0.161 A 
ATOM      2  C   UNL     1      43.336  60.256  49.270  1.00  0.00     0.161 A 
ATOM      3  C   UNL     1      42.303  60.087  48.337  1.00  0.00     0.098 A 
ATOM      4  C   UNL     1      42.419  59.130  47.326  1.00  0.00     0.142 A 
ATOM      5  C   UNL     1      43.579  58.332  47.245  1.00  0.00     0.022 A 
ATOM      6  C   UNL     1      44.612  58.501  48.177  1.00  0.00     0.062 A 
ATOM      7  C   UNL     1      43.664  57.382  46.222  1.00  0.00     0.019 A 
ATOM      8  C   UNL     1      42.610  57.252  45.318  1.00  0.00     0.094 A 
ATOM      9  C   UNL     1      41.491  58.078  45.460  1.00  0.00     0.336 A 
ATOM     10  O   UNL     1      40.529  57.976  44.655  1.00  0.00    -0.246 OA
ATOM     11  O   UNL     1      41.435  58.973  46.443  1.00  0.00    -0.423 OA
ENDROOT
BRANCH   1  12
ATOM     12  O   UNL     1      45.503  59.671  50.152  1.00  0.00    -0.493 OA
ATOM     13  C   UNL     1      45.863  58.730  51.158  1.00  0.00     0.278 C 
ENDBRANCH   1  12
BRANCH   2  14
ATOM     14  O   UNL     1      43.219  61.213  50.278  1.00  0.00    -0.504 OA
ATOM     15  H   UNL     1      43.843  61.221  51.077  1.00  0.00     0.293 HD
ENDBRANCH   2  14
TORSDOF 2
ENDMDL
MODEL 4
REMARK VINA RESULT:    -6.549      1.265      5.453
REMARK INTER + INTRA:          -7.187
REMARK INTER:                  -7.122
REMARK INTRA:                  -0.065
REMARK UNBOUND:                -0.063
REMARK SMILES COc1cc2ccc(=O)oc2cc1O
REMARK SMILES IDX 3 1 13 2 12 3 11 4 5 5 4 6 6 7 7 8 8 9 9 10 10 11 2 12 1 13
REMARK SMILES IDX 14 14
REMARK H PARENT 14 15
REMARK Flexibility Score: inf
ROOT
ATOM      1  C   UNL     1      40.880  56.817  47.314  1.00  0.00     0.161 A 
ATOM      2  C   UNL     1      40.376  57.830  48.146  1.00  0.00     0.161 A 
ATOM      3  C   UNL     1      41.250  58.647  48.876  1.00  0.00     0.098 A 
ATOM      4  C   UNL     1      42.631  58.461  48.783  1.00  0.00     0.142 A 
ATOM      5  C   UNL     1      43.147  57.447  47.949  1.00  0.00     0.022 A 
ATOM      6  C   UNL     1      42.274  56.629  47.219  1.00  0.00     0.062 A 
ATOM      7  C   UNL     1      44.534  57.285  47.875  1.00  0.00     0.019 A 
ATOM      8  C   UNL     1      45.362  58.124  48.622  1.00  0.00     0.094 A 
ATOM      9  C   UNL     1      44.780  59.108  49.426  1.00  0.00     0.336 A 
ATOM     10  O   UNL     1      45.509  59.875  50.108  1.00  0.00    -0.246 OA
ATOM     11  O   UNL     1      43.456  59.240  49.478  1.00  0.00    -0.423 OA
ENDROOT
BRANCH   1  12
ATOM     12  O   UNL     1      39.968  56.023  46.601  1.00  0.00    -0.493 OA
ATOM     13  C   UNL     1      39.583  54.704  46.975  1.00  0.00     0.278 C 
ENDBRANCH   1  12
BRANCH   2  14
ATOM     14  O   UNL     1      38.997  58.017  48.242  1.00  0.00    -0.504 OA
ATOM     15  H   UNL     1      38.429  58.201  47.424  1.00  0.00     0.293 HD
ENDBRANCH   2  14
TORSDOF 2
ENDMDL
MODEL 5
REMARK VINA RESULT:    -6.444      1.786      2.667
REMARK INTER + INTRA:          -7.072
REMARK INTER:                  -7.009
REMARK INTRA:                  -0.063
REMARK UNBOUND:                -0.063
REMARK SMILES COc1cc2ccc(=O)oc2cc1O
REMARK SMILES IDX 3 1 13 2 12 3 11 4 5 5 4 6 6 7 7 8 8 9 9 10 10 11 2 12 1 13
REMARK SMILES IDX 14 14
REMARK H PARENT 14 15
REMARK Flexibility Score: inf
ROOT
ATOM      1  C   UNL     1      44.362  60.629  48.826  1.00  0.00     0.161 A 
ATOM      2  C   UNL     1      43.127  60.698  49.490  1.00  0.00     0.161 A 
ATOM      3  C   UNL     1      42.039  59.934  49.045  1.00  0.00     0.098 A 
ATOM      4  C   UNL     1      42.175  59.096  47.935  1.00  0.00     0.142 A 
ATOM      5  C   UNL     1      43.412  59.020  47.262  1.00  0.00     0.022 A 
ATOM      6  C   UNL     1      44.500  59.783  47.706  1.00  0.00     0.062 A 
ATOM      7  C   UNL     1      43.517  58.172  46.155  1.00  0.00     0.019 A 
ATOM      8  C   UNL     1      42.406  57.432  45.751  1.00  0.00     0.094 A 
ATOM      9  C   UNL     1      41.212  57.559  46.467  1.00  0.00     0.336 A 
ATOM     10  O   UNL     1      40.197  56.900  46.119  1.00  0.00    -0.246 OA
ATOM     11  O   UNL     1      41.139  58.373  47.517  1.00  0.00    -0.423 OA
ENDROOT
BRANCH   1  12
ATOM     12  O   UNL     1      45.424  61.411  49.307  1.00  0.00    -0.493 OA
ATOM     13  C   UNL     1      46.004  62.504  48.604  1.00  0.00     0.278 C 
ENDBRANCH   1  12
BRANCH   2  14
ATOM     14  O   UNL     1      42.989  61.534  50.598  1.00  0.00    -0.504 OA
ATOM     15  H   UNL     1      42.606  62.468  50.513  1.00  0.00     0.293 HD
ENDBRANCH   2  14
TORSDOF 2
ENDMDL
MODEL 6
REMARK VINA RESULT:    -6.285      1.295      1.481
REMARK INTER + INTRA:          -6.900
REMARK INTER:                  -6.835
REMARK INTRA:                  -0.065
REMARK UNBOUND:                -0.063
REMARK SMILES COc1cc2ccc(=O)oc2cc1O
REMARK SMILES IDX 3 1 13 2 12 3 11 4 5 5 4 6 6 7 7 8 8 9 9 10 10 11 2 12 1 13
REMARK SMILES IDX 14 14
REMARK H PARENT 14 15
REMARK Flexibility Score: inf
ROOT
ATOM      1  C   UNL     1      44.859  58.572  49.706  1.00  0.00     0.161 A 
ATOM      2  C   UNL     1      45.367  57.944  48.557  1.00  0.00     0.161 A 
ATOM      3  C   UNL     1      44.497  57.476  47.562  1.00  0.00     0.098 A 
ATOM      4  C   UNL     1      43.116  57.630  47.706  1.00  0.00     0.142 A 
ATOM      5  C   UNL     1      42.597  58.259  48.856  1.00  0.00     0.022 A 
ATOM      6  C   UNL     1      43.465  58.727  49.851  1.00  0.00     0.062 A 
ATOM      7  C   UNL     1      41.210  58.400  48.970  1.00  0.00     0.019 A 
ATOM      8  C   UNL     1      40.386  57.917  47.953  1.00  0.00     0.094 A 
ATOM      9  C   UNL     1      40.973  57.304  46.841  1.00  0.00     0.336 A 
ATOM     10  O   UNL     1      40.247  56.861  45.913  1.00  0.00    -0.246 OA
ATOM     11  O   UNL     1      42.295  57.184  46.758  1.00  0.00    -0.423 OA
ENDROOT
BRANCH   1  12
ATOM     12  O   UNL     1      45.767  59.025  50.676  1.00  0.00    -0.493 OA
ATOM     13  C   UNL     1      45.954  58.420  51.951  1.00  0.00     0.278 C 
ENDBRANCH   1  12
BRANCH   2  14
ATOM     14  O   UNL     1      46.745  57.789  48.413  1.00  0.00    -0.504 OA
ATOM     15  H   UNL     1      47.347  58.573  48.188  1.00  0.00     0.293 HD
ENDBRANCH   2  14
TORSDOF 2
ENDMDL
MODEL 7
REMARK VINA RESULT:    -6.196      1.790      4.962
REMARK INTER + INTRA:          -6.803
REMARK INTER:                  -6.757
REMARK INTRA:                  -0.046
REMARK UNBOUND:                -0.063
REMARK SMILES COc1cc2ccc(=O)oc2cc1O
REMARK SMILES IDX 3 1 13 2 12 3 11 4 5 5 4 6 6 7 7 8 8 9 9 10 10 11 2 12 1 13
REMARK SMILES IDX 14 14
REMARK H PARENT 14 15
REMARK Flexibility Score: inf
ROOT
ATOM      1  C   UNL     1      41.171  57.751  46.408  1.00  0.00     0.161 A 
ATOM      2  C   UNL     1      41.293  56.740  47.375  1.00  0.00     0.161 A 
ATOM      3  C   UNL     1      42.214  56.869  48.423  1.00  0.00     0.098 A 
ATOM      4  C   UNL     1      43.021  58.006  48.515  1.00  0.00     0.142 A 
ATOM      5  C   UNL     1      42.905  59.027  47.549  1.00  0.00     0.022 A 
ATOM      6  C   UNL     1      41.985  58.899  46.500  1.00  0.00     0.062 A 
ATOM      7  C   UNL     1      43.725  60.154  47.668  1.00  0.00     0.019 A 
ATOM      8  C   UNL     1      44.627  60.235  48.730  1.00  0.00     0.094 A 
ATOM      9  C   UNL     1      44.686  59.184  49.650  1.00  0.00     0.336 A 
ATOM     10  O   UNL     1      45.493  59.238  50.615  1.00  0.00    -0.246 OA
ATOM     11  O   UNL     1      43.894  58.123  49.513  1.00  0.00    -0.423 OA
ENDROOT
BRANCH   1  12
ATOM     12  O   UNL     1      40.235  57.579  45.376  1.00  0.00    -0.493 OA
ATOM     13  C   UNL     1      40.246  58.300  44.149  1.00  0.00     0.278 C 
ENDBRANCH   1  12
BRANCH   2  14
ATOM     14  O   UNL     1      40.489  55.603  47.285  1.00  0.00    -0.504 OA
ATOM     15  H   UNL     1      40.647  54.897  46.576  1.00  0.00     0.293 HD
ENDBRANCH   2  14
TORSDOF 2
ENDMDL
MODEL 8
REMARK VINA RESULT:    -6.132      2.246      4.898
REMARK INTER + INTRA:          -6.733
REMARK INTER:                  -6.668
REMARK INTRA:                  -0.065
REMARK UNBOUND:                -0.063
REMARK SMILES COc1cc2ccc(=O)oc2cc1O
REMARK SMILES IDX 3 1 13 2 12 3 11 4 5 5 4 6 6 7 7 8 8 9 9 10 10 11 2 12 1 13
REMARK SMILES IDX 14 14
REMARK H PARENT 14 15
REMARK Flexibility Score: inf
ROOT
ATOM      1  C   UNL     1      41.364  58.022  45.546  1.00  0.00     0.161 A 
ATOM      2  C   UNL     1      42.587  57.356  45.370  1.00  0.00     0.161 A 
ATOM      3  C   UNL     1      43.659  57.602  46.239  1.00  0.00     0.098 A 
ATOM      4  C   UNL     1      43.520  58.513  47.288  1.00  0.00     0.142 A 
ATOM      5  C   UNL     1      42.294  59.187  47.473  1.00  0.00     0.022 A 
ATOM      6  C   UNL     1      41.222  58.942  46.605  1.00  0.00     0.062 A 
ATOM      7  C   UNL     1      42.185  60.092  48.533  1.00  0.00     0.019 A 
ATOM      8  C   UNL     1      43.281  60.303  49.370  1.00  0.00     0.094 A 
ATOM      9  C   UNL     1      44.464  59.599  49.126  1.00  0.00     0.336 A 
ATOM     10  O   UNL     1      45.465  59.774  49.869  1.00  0.00    -0.246 OA
ATOM     11  O   UNL     1      44.541  58.742  48.110  1.00  0.00    -0.423 OA
ENDROOT
BRANCH   1  12
ATOM     12  O   UNL     1      40.317  57.744  44.652  1.00  0.00    -0.493 OA
ATOM     13  C   UNL     1      39.852  58.643  43.651  1.00  0.00     0.278 C 
ENDBRANCH   1  12
BRANCH   2  14
ATOM     14  O   UNL     1      42.729  56.446  44.322  1.00  0.00    -0.504 OA
ATOM     15  H   UNL     1      42.114  55.647  44.227  1.00  0.00     0.293 HD
ENDBRANCH   2  14
TORSDOF 2
ENDMDL
MODEL 9
REMARK VINA RESULT:    -5.376      2.254      5.083
REMARK INTER + INTRA:          -5.911
REMARK INTER:                  -5.851
REMARK INTRA:                  -0.060
REMARK UNBOUND:                -0.063
REMARK SMILES COc1cc2ccc(=O)oc2cc1O
REMARK SMILES IDX 3 1 13 2 12 3 11 4 5 5 4 6 6 7 7 8 8 9 9 10 10 11 2 12 1 13
REMARK SMILES IDX 14 14
REMARK H PARENT 14 15
REMARK Flexibility Score: inf
ROOT
ATOM      1  C   UNL     1      42.476  57.513  45.940  1.00  0.00     0.161 A 
ATOM      2  C   UNL     1      41.216  57.696  46.533  1.00  0.00     0.161 A 
ATOM      3  C   UNL     1      41.055  58.608  47.587  1.00  0.00     0.098 A 
ATOM      4  C   UNL     1      42.147  59.342  48.055  1.00  0.00     0.142 A 
ATOM      5  C   UNL     1      43.416  59.165  47.465  1.00  0.00     0.022 A 
ATOM      6  C   UNL     1      43.578  58.254  46.412  1.00  0.00     0.062 A 
ATOM      7  C   UNL     1      44.489  59.915  47.955  1.00  0.00     0.019 A 
ATOM      8  C   UNL     1      44.278  60.809  49.005  1.00  0.00     0.094 A 
ATOM      9  C   UNL     1      42.992  60.932  49.540  1.00  0.00     0.336 A 
ATOM     10  O   UNL     1      42.780  61.732  50.489  1.00  0.00    -0.246 OA
ATOM     11  O   UNL     1      41.988  60.206  49.055  1.00  0.00    -0.423 OA
ENDROOT
BRANCH   1  12
ATOM     12  O   UNL     1      42.590  56.591  44.888  1.00  0.00    -0.493 OA
ATOM     13  C   UNL     1      42.553  56.934  43.507  1.00  0.00     0.278 C 
ENDBRANCH   1  12
BRANCH   2  14
ATOM     14  O   UNL     1      40.124  56.963  46.068  1.00  0.00    -0.504 OA
ATOM     15  H   UNL     1      39.404  57.390  45.497  1.00  0.00     0.293 HD
ENDBRANCH   2  14
TORSDOF 2
ENDMDL
