MODEL 1
REMARK VINA RESULT:    -5.893      0.000      0.000
REMARK INTER + INTRA:         -17.302
REMARK INTER:                 -13.471
REMARK INTRA:                  -3.831
REMARK UNBOUND:                -3.831
REMARK SMILES CCCCCCCCCCCCCCCCCCCCCCCC(=O)[O-]
REMARK SMILES IDX 13 1 14 2 15 3 16 4 17 5 18 6 19 7 20 8 21 9 22 10 23 11
REMARK SMILES IDX 24 12 25 13 26 14 12 15 11 16 10 17 9 18 8 19 7 20 6 21 5 22
REMARK SMILES IDX 4 23 3 24 2 25 1 26
REMARK H PARENT
REMARK Flexibility Score: inf
ROOT
ATOM      1  C   UNL     1     104.186  19.415 197.457  1.00  0.00     0.000 C 
ENDROOT
BRANCH   1   2
ATOM      2  C   UNL     1     105.495  20.088 197.008  1.00  0.00     0.000 C 
BRANCH   2   3
ATOM      3  C   UNL     1     106.539  20.175 198.136  1.00  0.00     0.000 C 
BRANCH   3   4
ATOM      4  C   UNL     1     107.011  21.615 198.395  1.00  0.00     0.000 C 
BRANCH   4   5
ATOM      5  C   UNL     1     106.385  22.224 199.663  1.00  0.00     0.000 C 
BRANCH   5   6
ATOM      6  C   UNL     1     105.160  23.111 199.352  1.00  0.00     0.000 C 
BRANCH   6   7
ATOM      7  C   UNL     1     104.144  23.202 200.507  1.00  0.00     0.000 C 
BRANCH   7   8
ATOM      8  C   UNL     1     102.681  22.933 200.112  1.00  0.00     0.000 C 
BRANCH   8   9
ATOM      9  C   UNL     1     101.642  23.871 200.760  1.00  0.00     0.000 C 
BRANCH   9  10
ATOM     10  C   UNL     1     100.297  23.969 200.021  1.00  0.00     0.006 C 
BRANCH  10  11
ATOM     11  C   UNL     1     100.264  23.140 198.730  1.00  0.00     0.053 C 
BRANCH  11  12
ATOM     12  C   UNL     1      98.852  22.830 198.344  1.00  0.00     0.041 C 
ATOM     13  O   UNL     1      98.609  21.932 197.494  1.00  0.00    -0.550 OA
ATOM     14  O   UNL     1      97.804  23.556 198.898  1.00  0.00    -0.550 OA
ENDBRANCH  11  12
ENDBRANCH  10  11
ENDBRANCH   9  10
ENDBRANCH   8   9
ENDBRANCH   7   8
ENDBRANCH   6   7
ENDBRANCH   5   6
ENDBRANCH   4   5
ENDBRANCH   3   4
ENDBRANCH   2   3
ENDBRANCH   1   2
BRANCH   1  15
ATOM     15  C   UNL     1     102.950  20.333 197.458  1.00  0.00     0.000 C 
BRANCH  15  16
ATOM     16  C   UNL     1     101.727  19.688 196.785  1.00  0.00     0.000 C 
BRANCH  16  17
ATOM     17  C   UNL     1     101.190  20.521 195.608  1.00  0.00     0.000 C 
BRANCH  17  18
ATOM     18  C   UNL     1     101.974  21.830 195.401  1.00  0.00    -0.000 C 
BRANCH  18  19
ATOM     19  C   UNL     1     101.814  22.404 193.984  1.00  0.00    -0.000 C 
BRANCH  19  20
ATOM     20  C   UNL     1     103.131  22.719 193.249  1.00  0.00    -0.000 C 
BRANCH  20  21
ATOM     21  C   UNL     1     104.362  21.990 193.829  1.00  0.00    -0.000 C 
BRANCH  21  22
ATOM     22  C   UNL     1     105.406  22.965 194.403  1.00  0.00    -0.000 C 
BRANCH  22  23
ATOM     23  C   UNL     1     104.973  23.587 195.743  1.00  0.00    -0.000 C 
BRANCH  23  24
ATOM     24  C   UNL     1     105.833  24.775 196.216  1.00  0.00    -0.000 C 
BRANCH  24  25
ATOM     25  C   UNL     1     105.033  25.820 197.008  1.00  0.00    -0.003 C 
ATOM     26  C   UNL     1     103.555  25.446 197.070  1.00  0.00     0.004 C 
ENDBRANCH  24  25
ENDBRANCH  23  24
ENDBRANCH  22  23
ENDBRANCH  21  22
ENDBRANCH  20  21
ENDBRANCH  19  20
ENDBRANCH  18  19
ENDBRANCH  17  18
ENDBRANCH  16  17
ENDBRANCH  15  16
ENDBRANCH   1  15
TORSDOF 22
ENDMDL
MODEL 2
REMARK VINA RESULT:    -5.819      3.377      6.247
REMARK INTER + INTRA:         -17.135
REMARK INTER:                 -12.778
REMARK INTRA:                  -4.357
REMARK UNBOUND:                -3.831
REMARK SMILES CCCCCCCCCCCCCCCCCCCCCCCC(=O)[O-]
REMARK SMILES IDX 13 1 14 2 15 3 16 4 17 5 18 6 19 7 20 8 21 9 22 10 23 11
REMARK SMILES IDX 24 12 25 13 26 14 12 15 11 16 10 17 9 18 8 19 7 20 6 21 5 22
REMARK SMILES IDX 4 23 3 24 2 25 1 26
REMARK H PARENT
REMARK Flexibility Score: inf
ROOT
ATOM      1  C   UNL     1     105.037  25.322 195.749  1.00  0.00     0.000 C 
ENDROOT
BRANCH   1   2
ATOM      2  C   UNL     1     104.381  25.408 197.139  1.00  0.00     0.000 C 
BRANCH   2   3
ATOM      3  C   UNL     1     102.862  25.157 197.098  1.00  0.00     0.000 C 
BRANCH   3   4
ATOM      4  C   UNL     1     102.381  24.256 198.246  1.00  0.00     0.000 C 
BRANCH   4   5
ATOM      5  C   UNL     1     103.387  23.142 198.586  1.00  0.00     0.000 C 
BRANCH   5   6
ATOM      6  C   UNL     1     103.886  23.218 200.045  1.00  0.00     0.000 C 
BRANCH   6   7
ATOM      7  C   UNL     1     105.421  23.246 200.181  1.00  0.00     0.000 C 
BRANCH   7   8
ATOM      8  C   UNL     1     106.193  22.678 198.977  1.00  0.00     0.000 C 
BRANCH   8   9
ATOM      9  C   UNL     1     106.824  21.287 199.197  1.00  0.00     0.000 C 
BRANCH   9  10
ATOM     10  C   UNL     1     107.360  20.603 197.929  1.00  0.00     0.006 C 
BRANCH  10  11
ATOM     11  C   UNL     1     108.361  21.475 197.159  1.00  0.00     0.053 C 
BRANCH  11  12
ATOM     12  C   UNL     1     109.133  20.645 196.182  1.00  0.00     0.041 C 
ATOM     13  O   UNL     1     110.287  20.231 196.473  1.00  0.00    -0.550 OA
ATOM     14  O   UNL     1     108.592  20.354 194.935  1.00  0.00    -0.550 OA
ENDBRANCH  11  12
ENDBRANCH  10  11
ENDBRANCH   9  10
ENDBRANCH   8   9
ENDBRANCH   7   8
ENDBRANCH   6   7
ENDBRANCH   5   6
ENDBRANCH   4   5
ENDBRANCH   3   4
ENDBRANCH   2   3
ENDBRANCH   1   2
BRANCH   1  15
ATOM     15  C   UNL     1     106.029  24.158 195.570  1.00  0.00     0.000 C 
BRANCH  15  16
ATOM     16  C   UNL     1     105.331  22.791 195.461  1.00  0.00     0.000 C 
BRANCH  16  17
ATOM     17  C   UNL     1     105.575  22.108 194.105  1.00  0.00     0.000 C 
BRANCH  17  18
ATOM     18  C   UNL     1     104.320  22.093 193.213  1.00  0.00    -0.000 C 
BRANCH  18  19
ATOM     19  C   UNL     1     103.168  22.932 193.791  1.00  0.00    -0.000 C 
BRANCH  19  20
ATOM     20  C   UNL     1     101.813  22.204 193.894  1.00  0.00    -0.000 C 
BRANCH  20  21
ATOM     21  C   UNL     1     100.912  22.717 195.038  1.00  0.00    -0.000 C 
BRANCH  21  22
ATOM     22  C   UNL     1     100.882  21.754 196.239  1.00  0.00    -0.000 C 
BRANCH  22  23
ATOM     23  C   UNL     1     101.243  20.307 195.857  1.00  0.00    -0.000 C 
BRANCH  23  24
ATOM     24  C   UNL     1     102.075  19.547 196.908  1.00  0.00    -0.000 C 
BRANCH  24  25
ATOM     25  C   UNL     1     103.569  19.901 196.865  1.00  0.00    -0.003 C 
ATOM     26  C   UNL     1     104.426  18.712 197.291  1.00  0.00     0.004 C 
ENDBRANCH  24  25
ENDBRANCH  23  24
ENDBRANCH  22  23
ENDBRANCH  21  22
ENDBRANCH  20  21
ENDBRANCH  19  20
ENDBRANCH  18  19
ENDBRANCH  17  18
ENDBRANCH  16  17
ENDBRANCH  15  16
ENDBRANCH   1  15
TORSDOF 22
ENDMDL
MODEL 3
REMARK VINA RESULT:    -5.810      3.788      6.575
REMARK INTER + INTRA:         -17.113
REMARK INTER:                 -13.323
REMARK INTRA:                  -3.790
REMARK UNBOUND:                -3.831
REMARK SMILES CCCCCCCCCCCCCCCCCCCCCCCC(=O)[O-]
REMARK SMILES IDX 13 1 14 2 15 3 16 4 17 5 18 6 19 7 20 8 21 9 22 10 23 11
REMARK SMILES IDX 24 12 25 13 26 14 12 15 11 16 10 17 9 18 8 19 7 20 6 21 5 22
REMARK SMILES IDX 4 23 3 24 2 25 1 26
REMARK H PARENT
REMARK Flexibility Score: inf
ROOT
ATOM      1  C   UNL     1     102.215  21.827 195.135  1.00  0.00     0.000 C 
ENDROOT
BRANCH   1   2
ATOM      2  C   UNL     1     100.932  21.028 195.427  1.00  0.00     0.000 C 
BRANCH   2   3
ATOM      3  C   UNL     1     100.901  20.451 196.854  1.00  0.00     0.000 C 
BRANCH   3   4
ATOM      4  C   UNL     1     101.736  19.169 196.992  1.00  0.00     0.000 C 
BRANCH   4   5
ATOM      5  C   UNL     1     102.989  19.369 197.864  1.00  0.00     0.000 C 
BRANCH   5   6
ATOM      6  C   UNL     1     104.289  19.410 197.033  1.00  0.00     0.000 C 
BRANCH   6   7
ATOM      7  C   UNL     1     105.381  18.443 197.532  1.00  0.00     0.000 C 
BRANCH   7   8
ATOM      8  C   UNL     1     106.699  19.114 197.963  1.00  0.00     0.000 C 
BRANCH   8   9
ATOM      9  C   UNL     1     106.735  20.649 197.809  1.00  0.00     0.000 C 
BRANCH   9  10
ATOM     10  C   UNL     1     108.072  21.224 197.312  1.00  0.00     0.006 C 
BRANCH  10  11
ATOM     11  C   UNL     1     108.699  20.392 196.185  1.00  0.00     0.053 C 
BRANCH  11  12
ATOM     12  C   UNL     1     110.180  20.597 196.146  1.00  0.00     0.041 C 
ATOM     13  O   UNL     1     110.711  21.523 196.815  1.00  0.00    -0.550 OA
ATOM     14  O   UNL     1     110.974  19.785 195.344  1.00  0.00    -0.550 OA
ENDBRANCH  11  12
ENDBRANCH  10  11
ENDBRANCH   9  10
ENDBRANCH   8   9
ENDBRANCH   7   8
ENDBRANCH   6   7
ENDBRANCH   5   6
ENDBRANCH   4   5
ENDBRANCH   3   4
ENDBRANCH   2   3
ENDBRANCH   1   2
BRANCH   1  15
ATOM     15  C   UNL     1     102.292  22.437 193.723  1.00  0.00     0.000 C 
BRANCH  15  16
ATOM     16  C   UNL     1     103.713  22.889 193.345  1.00  0.00     0.000 C 
BRANCH  16  17
ATOM     17  C   UNL     1     104.803  22.101 194.091  1.00  0.00     0.000 C 
BRANCH  17  18
ATOM     18  C   UNL     1     105.487  22.932 195.192  1.00  0.00    -0.000 C 
BRANCH  18  19
ATOM     19  C   UNL     1     105.224  24.440 195.053  1.00  0.00    -0.000 C 
BRANCH  19  20
ATOM     20  C   UNL     1     105.745  25.308 196.215  1.00  0.00    -0.000 C 
BRANCH  20  21
ATOM     21  C   UNL     1     104.688  25.604 197.301  1.00  0.00    -0.000 C 
BRANCH  21  22
ATOM     22  C   UNL     1     103.295  25.067 196.925  1.00  0.00    -0.000 C 
BRANCH  22  23
ATOM     23  C   UNL     1     102.710  24.120 197.988  1.00  0.00    -0.000 C 
BRANCH  23  24
ATOM     24  C   UNL     1     103.659  22.998 198.452  1.00  0.00    -0.000 C 
BRANCH  24  25
ATOM     25  C   UNL     1     104.098  23.149 199.916  1.00  0.00    -0.003 C 
ATOM     26  C   UNL     1     105.613  23.301 200.020  1.00  0.00     0.004 C 
ENDBRANCH  24  25
ENDBRANCH  23  24
ENDBRANCH  22  23
ENDBRANCH  21  22
ENDBRANCH  20  21
ENDBRANCH  19  20
ENDBRANCH  18  19
ENDBRANCH  17  18
ENDBRANCH  16  17
ENDBRANCH  15  16
ENDBRANCH   1  15
TORSDOF 22
ENDMDL
MODEL 4
REMARK VINA RESULT:    -5.782      1.851      5.062
REMARK INTER + INTRA:         -17.050
REMARK INTER:                 -13.054
REMARK INTRA:                  -3.996
REMARK UNBOUND:                -3.831
REMARK SMILES CCCCCCCCCCCCCCCCCCCCCCCC(=O)[O-]
REMARK SMILES IDX 13 1 14 2 15 3 16 4 17 5 18 6 19 7 20 8 21 9 22 10 23 11
REMARK SMILES IDX 24 12 25 13 26 14 12 15 11 16 10 17 9 18 8 19 7 20 6 21 5 22
REMARK SMILES IDX 4 23 3 24 2 25 1 26
REMARK H PARENT
REMARK Flexibility Score: inf
ROOT
ATOM      1  C   UNL     1     103.138  22.290 194.975  1.00  0.00     0.000 C 
ENDROOT
BRANCH   1   2
ATOM      2  C   UNL     1     103.548  22.458 193.500  1.00  0.00     0.000 C 
BRANCH   2   3
ATOM      3  C   UNL     1     104.959  21.917 193.208  1.00  0.00     0.000 C 
BRANCH   3   4
ATOM      4  C   UNL     1     105.797  21.731 194.482  1.00  0.00     0.000 C 
BRANCH   4   5
ATOM      5  C   UNL     1     107.071  20.903 194.237  1.00  0.00     0.000 C 
BRANCH   5   6
ATOM      6  C   UNL     1     107.708  20.392 195.547  1.00  0.00     0.000 C 
BRANCH   6   7
ATOM      7  C   UNL     1     107.297  21.195 196.797  1.00  0.00     0.000 C 
BRANCH   7   8
ATOM      8  C   UNL     1     106.481  20.408 197.839  1.00  0.00     0.000 C 
BRANCH   8   9
ATOM      9  C   UNL     1     106.549  18.873 197.702  1.00  0.00     0.000 C 
BRANCH   9  10
ATOM     10  C   UNL     1     105.189  18.167 197.569  1.00  0.00     0.006 C 
BRANCH  10  11
ATOM     11  C   UNL     1     104.210  18.925 196.661  1.00  0.00     0.053 C 
BRANCH  11  12
ATOM     12  C   UNL     1     102.896  19.113 197.352  1.00  0.00     0.041 C 
ATOM     13  O   UNL     1     102.034  18.193 197.338  1.00  0.00    -0.550 OA
ATOM     14  O   UNL     1     102.608  20.317 197.984  1.00  0.00    -0.550 OA
ENDBRANCH  11  12
ENDBRANCH  10  11
ENDBRANCH   9  10
ENDBRANCH   8   9
ENDBRANCH   7   8
ENDBRANCH   6   7
ENDBRANCH   5   6
ENDBRANCH   4   5
ENDBRANCH   3   4
ENDBRANCH   2   3
ENDBRANCH   1   2
BRANCH   1  15
ATOM     15  C   UNL     1     101.624  22.372 195.242  1.00  0.00     0.000 C 
BRANCH  15  16
ATOM     16  C   UNL     1     101.270  23.345 196.380  1.00  0.00     0.000 C 
BRANCH  16  17
ATOM     17  C   UNL     1     100.026  22.905 197.170  1.00  0.00     0.000 C 
BRANCH  17  18
ATOM     18  C   UNL     1     100.246  22.944 198.693  1.00  0.00    -0.000 C 
BRANCH  18  19
ATOM     19  C   UNL     1     101.515  23.713 199.094  1.00  0.00    -0.000 C 
BRANCH  19  20
ATOM     20  C   UNL     1     102.146  23.288 200.434  1.00  0.00    -0.000 C 
BRANCH  20  21
ATOM     21  C   UNL     1     103.686  23.179 200.395  1.00  0.00    -0.000 C 
BRANCH  21  22
ATOM     22  C   UNL     1     104.229  23.048 198.961  1.00  0.00    -0.000 C 
BRANCH  22  23
ATOM     23  C   UNL     1     105.153  24.213 198.561  1.00  0.00    -0.000 C 
BRANCH  23  24
ATOM     24  C   UNL     1     104.719  24.981 197.297  1.00  0.00    -0.000 C 
BRANCH  24  25
ATOM     25  C   UNL     1     105.709  24.832 196.132  1.00  0.00    -0.003 C 
ATOM     26  C   UNL     1     105.215  25.577 194.896  1.00  0.00     0.004 C 
ENDBRANCH  24  25
ENDBRANCH  23  24
ENDBRANCH  22  23
ENDBRANCH  21  22
ENDBRANCH  20  21
ENDBRANCH  19  20
ENDBRANCH  18  19
ENDBRANCH  17  18
ENDBRANCH  16  17
ENDBRANCH  15  16
ENDBRANCH   1  15
TORSDOF 22
ENDMDL
MODEL 5
REMARK VINA RESULT:    -5.735      3.670      6.882
REMARK INTER + INTRA:         -16.942
REMARK INTER:                 -13.266
REMARK INTRA:                  -3.676
REMARK UNBOUND:                -3.831
REMARK SMILES CCCCCCCCCCCCCCCCCCCCCCCC(=O)[O-]
REMARK SMILES IDX 13 1 14 2 15 3 16 4 17 5 18 6 19 7 20 8 21 9 22 10 23 11
REMARK SMILES IDX 24 12 25 13 26 14 12 15 11 16 10 17 9 18 8 19 7 20 6 21 5 22
REMARK SMILES IDX 4 23 3 24 2 25 1 26
REMARK H PARENT
REMARK Flexibility Score: inf
ROOT
ATOM      1  C   UNL     1     103.226  22.632 193.428  1.00  0.00     0.000 C 
ENDROOT
BRANCH   1   2
ATOM      2  C   UNL     1     101.958  22.118 194.133  1.00  0.00     0.000 C 
BRANCH   2   3
ATOM      3  C   UNL     1     102.164  21.891 195.642  1.00  0.00     0.000 C 
BRANCH   3   4
ATOM      4  C   UNL     1     101.258  20.784 196.202  1.00  0.00     0.000 C 
BRANCH   4   5
ATOM      5  C   UNL     1     102.009  19.823 197.142  1.00  0.00     0.000 C 
BRANCH   5   6
ATOM      6  C   UNL     1     103.528  20.097 197.179  1.00  0.00     0.000 C 
BRANCH   6   7
ATOM      7  C   UNL     1     104.379  18.857 197.517  1.00  0.00     0.000 C 
BRANCH   7   8
ATOM      8  C   UNL     1     105.901  19.062 197.410  1.00  0.00     0.000 C 
BRANCH   8   9
ATOM      9  C   UNL     1     106.341  20.348 196.681  1.00  0.00     0.000 C 
BRANCH   9  10
ATOM     10  C   UNL     1     107.790  20.789 196.949  1.00  0.00     0.006 C 
BRANCH  10  11
ATOM     11  C   UNL     1     108.756  20.377 195.829  1.00  0.00     0.053 C 
BRANCH  11  12
ATOM     12  C   UNL     1     110.165  20.711 196.205  1.00  0.00     0.041 C 
ATOM     13  O   UNL     1     110.397  21.578 197.090  1.00  0.00    -0.550 OA
ATOM     14  O   UNL     1     111.225  20.090 195.555  1.00  0.00    -0.550 OA
ENDBRANCH  11  12
ENDBRANCH  10  11
ENDBRANCH   9  10
ENDBRANCH   8   9
ENDBRANCH   7   8
ENDBRANCH   6   7
ENDBRANCH   5   6
ENDBRANCH   4   5
ENDBRANCH   3   4
ENDBRANCH   2   3
ENDBRANCH   1   2
BRANCH   1  15
ATOM     15  C   UNL     1     104.551  22.118 194.020  1.00  0.00     0.000 C 
BRANCH  15  16
ATOM     16  C   UNL     1     105.347  23.217 194.746  1.00  0.00     0.000 C 
BRANCH  16  17
ATOM     17  C   UNL     1     104.805  24.628 194.460  1.00  0.00     0.000 C 
BRANCH  17  18
ATOM     18  C   UNL     1     104.966  25.580 195.659  1.00  0.00    -0.000 C 
BRANCH  18  19
ATOM     19  C   UNL     1     104.154  25.136 196.887  1.00  0.00    -0.000 C 
BRANCH  19  20
ATOM     20  C   UNL     1     104.986  24.807 198.141  1.00  0.00    -0.000 C 
BRANCH  20  21
ATOM     21  C   UNL     1     105.007  23.307 198.504  1.00  0.00    -0.000 C 
BRANCH  21  22
ATOM     22  C   UNL     1     104.818  23.065 200.013  1.00  0.00    -0.000 C 
BRANCH  22  23
ATOM     23  C   UNL     1     103.365  23.270 200.477  1.00  0.00    -0.000 C 
BRANCH  23  24
ATOM     24  C   UNL     1     102.296  22.635 199.566  1.00  0.00    -0.000 C 
BRANCH  24  25
ATOM     25  C   UNL     1     101.230  23.638 199.099  1.00  0.00    -0.003 C 
ATOM     26  C   UNL     1     100.408  24.150 200.278  1.00  0.00     0.004 C 
ENDBRANCH  24  25
ENDBRANCH  23  24
ENDBRANCH  22  23
ENDBRANCH  21  22
ENDBRANCH  20  21
ENDBRANCH  19  20
ENDBRANCH  18  19
ENDBRANCH  17  18
ENDBRANCH  16  17
ENDBRANCH  15  16
ENDBRANCH   1  15
TORSDOF 22
ENDMDL
MODEL 6
REMARK VINA RESULT:    -5.717      1.740      4.702
REMARK INTER + INTRA:         -16.901
REMARK INTER:                 -12.595
REMARK INTRA:                  -4.306
REMARK UNBOUND:                -3.831
REMARK SMILES CCCCCCCCCCCCCCCCCCCCCCCC(=O)[O-]
REMARK SMILES IDX 13 1 14 2 15 3 16 4 17 5 18 6 19 7 20 8 21 9 22 10 23 11
REMARK SMILES IDX 24 12 25 13 26 14 12 15 11 16 10 17 9 18 8 19 7 20 6 21 5 22
REMARK SMILES IDX 4 23 3 24 2 25 1 26
REMARK H PARENT
REMARK Flexibility Score: inf
ROOT
ATOM      1  C   UNL     1     107.223  19.403 197.515  1.00  0.00     0.000 C 
ENDROOT
BRANCH   1   2
ATOM      2  C   UNL     1     105.797  18.821 197.535  1.00  0.00     0.000 C 
BRANCH   2   3
ATOM      3  C   UNL     1     104.861  19.499 196.519  1.00  0.00     0.000 C 
BRANCH   3   4
ATOM      4  C   UNL     1     103.629  20.134 197.182  1.00  0.00     0.000 C 
BRANCH   4   5
ATOM      5  C   UNL     1     102.407  19.197 197.181  1.00  0.00     0.000 C 
BRANCH   5   6
ATOM      6  C   UNL     1     101.177  19.827 196.494  1.00  0.00     0.000 C 
BRANCH   6   7
ATOM      7  C   UNL     1     101.513  21.027 195.587  1.00  0.00     0.000 C 
BRANCH   7   8
ATOM      8  C   UNL     1     100.973  22.384 196.074  1.00  0.00     0.000 C 
BRANCH   8   9
ATOM      9  C   UNL     1      99.903  22.306 197.182  1.00  0.00     0.000 C 
BRANCH   9  10
ATOM     10  C   UNL     1     100.226  23.098 198.460  1.00  0.00     0.006 C 
BRANCH  10  11
ATOM     11  C   UNL     1     101.600  22.749 199.047  1.00  0.00     0.053 C 
BRANCH  11  12
ATOM     12  C   UNL     1     101.728  23.292 200.436  1.00  0.00     0.041 C 
ATOM     13  O   UNL     1     100.783  23.948 200.951  1.00  0.00    -0.550 OA
ATOM     14  O   UNL     1     102.904  23.101 201.152  1.00  0.00    -0.550 OA
ENDBRANCH  11  12
ENDBRANCH  10  11
ENDBRANCH   9  10
ENDBRANCH   8   9
ENDBRANCH   7   8
ENDBRANCH   6   7
ENDBRANCH   5   6
ENDBRANCH   4   5
ENDBRANCH   3   4
ENDBRANCH   2   3
ENDBRANCH   1   2
BRANCH   1  15
ATOM     15  C   UNL     1     107.316  20.876 197.078  1.00  0.00     0.000 C 
BRANCH  15  16
ATOM     16  C   UNL     1     108.022  21.763 198.117  1.00  0.00     0.000 C 
BRANCH  16  17
ATOM     17  C   UNL     1     107.294  21.784 199.471  1.00  0.00     0.000 C 
BRANCH  17  18
ATOM     18  C   UNL     1     105.812  22.183 199.343  1.00  0.00    -0.000 C 
BRANCH  18  19
ATOM     19  C   UNL     1     105.588  23.697 199.486  1.00  0.00    -0.000 C 
BRANCH  19  20
ATOM     20  C   UNL     1     105.200  24.430 198.187  1.00  0.00    -0.000 C 
BRANCH  20  21
ATOM     21  C   UNL     1     104.592  23.510 197.106  1.00  0.00    -0.000 C 
BRANCH  21  22
ATOM     22  C   UNL     1     105.170  23.788 195.706  1.00  0.00    -0.000 C 
BRANCH  22  23
ATOM     23  C   UNL     1     104.155  23.537 194.577  1.00  0.00    -0.000 C 
BRANCH  23  24
ATOM     24  C   UNL     1     104.498  22.359 193.644  1.00  0.00    -0.000 C 
BRANCH  24  25
ATOM     25  C   UNL     1     105.942  21.861 193.810  1.00  0.00    -0.003 C 
ATOM     26  C   UNL     1     106.202  20.638 192.935  1.00  0.00     0.004 C 
ENDBRANCH  24  25
ENDBRANCH  23  24
ENDBRANCH  22  23
ENDBRANCH  21  22
ENDBRANCH  20  21
ENDBRANCH  19  20
ENDBRANCH  18  19
ENDBRANCH  17  18
ENDBRANCH  16  17
ENDBRANCH  15  16
ENDBRANCH   1  15
TORSDOF 22
ENDMDL
MODEL 7
REMARK VINA RESULT:    -5.662      1.779      4.352
REMARK INTER + INTRA:         -16.775
REMARK INTER:                 -12.885
REMARK INTRA:                  -3.889
REMARK UNBOUND:                -3.831
REMARK SMILES CCCCCCCCCCCCCCCCCCCCCCCC(=O)[O-]
REMARK SMILES IDX 13 1 14 2 15 3 16 4 17 5 18 6 19 7 20 8 21 9 22 10 23 11
REMARK SMILES IDX 24 12 25 13 26 14 12 15 11 16 10 17 9 18 8 19 7 20 6 21 5 22
REMARK SMILES IDX 4 23 3 24 2 25 1 26
REMARK H PARENT
REMARK Flexibility Score: inf
ROOT
ATOM      1  C   UNL     1     106.961  20.628 194.703  1.00  0.00     0.000 C 
ENDROOT
BRANCH   1   2
ATOM      2  C   UNL     1     108.429  20.570 195.164  1.00  0.00     0.000 C 
BRANCH   2   3
ATOM      3  C   UNL     1     108.570  20.301 196.673  1.00  0.00     0.000 C 
BRANCH   3   4
ATOM      4  C   UNL     1     107.906  21.388 197.533  1.00  0.00     0.000 C 
BRANCH   4   5
ATOM      5  C   UNL     1     106.605  20.905 198.198  1.00  0.00     0.000 C 
BRANCH   5   6
ATOM      6  C   UNL     1     106.487  19.366 198.222  1.00  0.00     0.000 C 
BRANCH   6   7
ATOM      7  C   UNL     1     105.228  18.823 197.518  1.00  0.00     0.000 C 
BRANCH   7   8
ATOM      8  C   UNL     1     104.246  19.898 197.018  1.00  0.00     0.000 C 
BRANCH   8   9
ATOM      9  C   UNL     1     102.785  19.719 197.480  1.00  0.00     0.000 C 
BRANCH   9  10
ATOM     10  C   UNL     1     101.843  20.886 197.138  1.00  0.00     0.006 C 
BRANCH  10  11
ATOM     11  C   UNL     1     101.519  20.972 195.641  1.00  0.00     0.053 C 
BRANCH  11  12
ATOM     12  C   UNL     1     101.120  22.366 195.272  1.00  0.00     0.041 C 
ATOM     13  O   UNL     1     100.861  23.211 196.171  1.00  0.00    -0.550 OA
ATOM     14  O   UNL     1     101.001  22.726 193.934  1.00  0.00    -0.550 OA
ENDBRANCH  11  12
ENDBRANCH  10  11
ENDBRANCH   9  10
ENDBRANCH   8   9
ENDBRANCH   7   8
ENDBRANCH   6   7
ENDBRANCH   5   6
ENDBRANCH   4   5
ENDBRANCH   3   4
ENDBRANCH   2   3
ENDBRANCH   1   2
BRANCH   1  15
ATOM     15  C   UNL     1     106.758  21.035 193.232  1.00  0.00     0.000 C 
BRANCH  15  16
ATOM     16  C   UNL     1     105.368  21.638 192.965  1.00  0.00     0.000 C 
BRANCH  16  17
ATOM     17  C   UNL     1     104.729  22.236 194.231  1.00  0.00     0.000 C 
BRANCH  17  18
ATOM     18  C   UNL     1     104.403  23.733 194.081  1.00  0.00    -0.000 C 
BRANCH  18  19
ATOM     19  C   UNL     1     105.223  24.621 195.031  1.00  0.00    -0.000 C 
BRANCH  19  20
ATOM     20  C   UNL     1     105.589  23.976 196.382  1.00  0.00    -0.000 C 
BRANCH  20  21
ATOM     21  C   UNL     1     104.793  24.538 197.580  1.00  0.00    -0.000 C 
BRANCH  21  22
ATOM     22  C   UNL     1     103.976  23.452 198.303  1.00  0.00    -0.000 C 
BRANCH  22  23
ATOM     23  C   UNL     1     104.273  23.381 199.811  1.00  0.00    -0.000 C 
BRANCH  23  24
ATOM     24  C   UNL     1     103.065  23.015 200.695  1.00  0.00    -0.000 C 
BRANCH  24  25
ATOM     25  C   UNL     1     101.727  23.078 199.944  1.00  0.00    -0.003 C 
ATOM     26  C   UNL     1     100.952  24.340 200.311  1.00  0.00     0.004 C 
ENDBRANCH  24  25
ENDBRANCH  23  24
ENDBRANCH  22  23
ENDBRANCH  21  22
ENDBRANCH  20  21
ENDBRANCH  19  20
ENDBRANCH  18  19
ENDBRANCH  17  18
ENDBRANCH  16  17
ENDBRANCH  15  16
ENDBRANCH   1  15
TORSDOF 22
ENDMDL
MODEL 8
REMARK VINA RESULT:    -5.638      2.861      5.918
REMARK INTER + INTRA:         -16.720
REMARK INTER:                 -12.844
REMARK INTRA:                  -3.876
REMARK UNBOUND:                -3.831
REMARK SMILES CCCCCCCCCCCCCCCCCCCCCCCC(=O)[O-]
REMARK SMILES IDX 13 1 14 2 15 3 16 4 17 5 18 6 19 7 20 8 21 9 22 10 23 11
REMARK SMILES IDX 24 12 25 13 26 14 12 15 11 16 10 17 9 18 8 19 7 20 6 21 5 22
REMARK SMILES IDX 4 23 3 24 2 25 1 26
REMARK H PARENT
REMARK Flexibility Score: inf
ROOT
ATOM      1  C   UNL     1     101.853  22.334 195.282  1.00  0.00     0.000 C 
ENDROOT
BRANCH   1   2
ATOM      2  C   UNL     1     101.788  22.272 193.745  1.00  0.00     0.000 C 
BRANCH   2   3
ATOM      3  C   UNL     1     103.014  22.912 193.070  1.00  0.00     0.000 C 
BRANCH   3   4
ATOM      4  C   UNL     1     104.321  22.627 193.825  1.00  0.00     0.000 C 
BRANCH   4   5
ATOM      5  C   UNL     1     105.255  21.675 193.056  1.00  0.00     0.000 C 
BRANCH   5   6
ATOM      6  C   UNL     1     106.364  21.081 193.951  1.00  0.00     0.000 C 
BRANCH   6   7
ATOM      7  C   UNL     1     106.053  21.145 195.459  1.00  0.00     0.000 C 
BRANCH   7   8
ATOM      8  C   UNL     1     105.140  20.022 195.985  1.00  0.00     0.000 C 
BRANCH   8   9
ATOM      9  C   UNL     1     105.502  19.483 197.384  1.00  0.00     0.000 C 
BRANCH   9  10
ATOM     10  C   UNL     1     106.940  19.773 197.846  1.00  0.00     0.006 C 
BRANCH  10  11
ATOM     11  C   UNL     1     107.012  20.291 199.289  1.00  0.00     0.053 C 
BRANCH  11  12
ATOM     12  C   UNL     1     107.561  21.682 199.318  1.00  0.00     0.041 C 
ATOM     13  O   UNL     1     107.065  22.544 200.092  1.00  0.00    -0.550 OA
ATOM     14  O   UNL     1     108.600  22.039 198.465  1.00  0.00    -0.550 OA
ENDBRANCH  11  12
ENDBRANCH  10  11
ENDBRANCH   9  10
ENDBRANCH   8   9
ENDBRANCH   7   8
ENDBRANCH   6   7
ENDBRANCH   5   6
ENDBRANCH   4   5
ENDBRANCH   3   4
ENDBRANCH   2   3
ENDBRANCH   1   2
BRANCH   1  15
ATOM     15  C   UNL     1     101.333  21.078 196.005  1.00  0.00     0.000 C 
BRANCH  15  16
ATOM     16  C   UNL     1     100.626  21.403 197.333  1.00  0.00     0.000 C 
BRANCH  16  17
ATOM     17  C   UNL     1     100.423  22.913 197.541  1.00  0.00     0.000 C 
BRANCH  17  18
ATOM     18  C   UNL     1      99.941  23.257 198.963  1.00  0.00    -0.000 C 
BRANCH  18  19
ATOM     19  C   UNL     1     101.041  23.892 199.829  1.00  0.00    -0.000 C 
BRANCH  19  20
ATOM     20  C   UNL     1     102.069  22.904 200.414  1.00  0.00    -0.000 C 
BRANCH  20  21
ATOM     21  C   UNL     1     103.534  23.243 200.064  1.00  0.00    -0.000 C 
BRANCH  21  22
ATOM     22  C   UNL     1     103.972  22.636 198.719  1.00  0.00    -0.000 C 
BRANCH  22  23
ATOM     23  C   UNL     1     104.067  23.680 197.591  1.00  0.00    -0.000 C 
BRANCH  23  24
ATOM     24  C   UNL     1     105.478  24.251 197.351  1.00  0.00    -0.000 C 
BRANCH  24  25
ATOM     25  C   UNL     1     105.465  25.718 196.898  1.00  0.00    -0.003 C 
ATOM     26  C   UNL     1     105.114  25.830 195.417  1.00  0.00     0.004 C 
ENDBRANCH  24  25
ENDBRANCH  23  24
ENDBRANCH  22  23
ENDBRANCH  21  22
ENDBRANCH  20  21
ENDBRANCH  19  20
ENDBRANCH  18  19
ENDBRANCH  17  18
ENDBRANCH  16  17
ENDBRANCH  15  16
ENDBRANCH   1  15
TORSDOF 22
ENDMDL
MODEL 9
REMARK VINA RESULT:    -5.636      4.046      7.074
REMARK INTER + INTRA:         -16.717
REMARK INTER:                 -12.922
REMARK INTRA:                  -3.795
REMARK UNBOUND:                -3.831
REMARK SMILES CCCCCCCCCCCCCCCCCCCCCCCC(=O)[O-]
REMARK SMILES IDX 13 1 14 2 15 3 16 4 17 5 18 6 19 7 20 8 21 9 22 10 23 11
REMARK SMILES IDX 24 12 25 13 26 14 12 15 11 16 10 17 9 18 8 19 7 20 6 21 5 22
REMARK SMILES IDX 4 23 3 24 2 25 1 26
REMARK H PARENT
REMARK Flexibility Score: inf
ROOT
ATOM      1  C   UNL     1      99.888  23.203 198.676  1.00  0.00     0.000 C 
ENDROOT
BRANCH   1   2
ATOM      2  C   UNL     1     100.184  22.190 197.555  1.00  0.00     0.000 C 
BRANCH   2   3
ATOM      3  C   UNL     1     101.422  22.567 196.722  1.00  0.00     0.000 C 
BRANCH   3   4
ATOM      4  C   UNL     1     102.127  21.341 196.121  1.00  0.00     0.000 C 
BRANCH   4   5
ATOM      5  C   UNL     1     102.993  20.593 197.151  1.00  0.00     0.000 C 
BRANCH   5   6
ATOM      6  C   UNL     1     104.427  20.332 196.641  1.00  0.00     0.000 C 
BRANCH   6   7
ATOM      7  C   UNL     1     105.313  19.557 197.635  1.00  0.00     0.000 C 
BRANCH   7   8
ATOM      8  C   UNL     1     106.616  20.270 198.041  1.00  0.00     0.000 C 
BRANCH   8   9
ATOM      9  C   UNL     1     107.396  20.923 196.881  1.00  0.00     0.000 C 
BRANCH   9  10
ATOM     10  C   UNL     1     108.892  20.572 196.819  1.00  0.00     0.006 C 
BRANCH  10  11
ATOM     11  C   UNL     1     109.366  20.231 195.400  1.00  0.00     0.053 C 
BRANCH  11  12
ATOM     12  C   UNL     1     110.858  20.133 195.357  1.00  0.00     0.041 C 
ATOM     13  O   UNL     1     111.426  19.476 194.444  1.00  0.00    -0.550 OA
ATOM     14  O   UNL     1     111.624  20.741 196.346  1.00  0.00    -0.550 OA
ENDBRANCH  11  12
ENDBRANCH  10  11
ENDBRANCH   9  10
ENDBRANCH   8   9
ENDBRANCH   7   8
ENDBRANCH   6   7
ENDBRANCH   5   6
ENDBRANCH   4   5
ENDBRANCH   3   4
ENDBRANCH   2   3
ENDBRANCH   1   2
BRANCH   1  15
ATOM     15  C   UNL     1     101.113  23.981 199.189  1.00  0.00     0.000 C 
BRANCH  15  16
ATOM     16  C   UNL     1     101.421  23.700 200.670  1.00  0.00     0.000 C 
BRANCH  16  17
ATOM     17  C   UNL     1     102.873  23.247 200.897  1.00  0.00     0.000 C 
BRANCH  17  18
ATOM     18  C   UNL     1     103.579  22.839 199.591  1.00  0.00    -0.000 C 
BRANCH  18  19
ATOM     19  C   UNL     1     104.994  23.428 199.468  1.00  0.00    -0.000 C 
BRANCH  19  20
ATOM     20  C   UNL     1     105.417  23.829 198.041  1.00  0.00    -0.000 C 
BRANCH  20  21
ATOM     21  C   UNL     1     104.504  24.893 197.393  1.00  0.00    -0.000 C 
BRANCH  21  22
ATOM     22  C   UNL     1     104.865  25.157 195.920  1.00  0.00    -0.000 C 
BRANCH  22  23
ATOM     23  C   UNL     1     104.375  24.048 194.973  1.00  0.00    -0.000 C 
BRANCH  23  24
ATOM     24  C   UNL     1     105.437  22.996 194.598  1.00  0.00    -0.000 C 
BRANCH  24  25
ATOM     25  C   UNL     1     104.968  22.032 193.498  1.00  0.00    -0.003 C 
ATOM     26  C   UNL     1     106.085  21.070 193.102  1.00  0.00     0.004 C 
ENDBRANCH  24  25
ENDBRANCH  23  24
ENDBRANCH  22  23
ENDBRANCH  21  22
ENDBRANCH  20  21
ENDBRANCH  19  20
ENDBRANCH  18  19
ENDBRANCH  17  18
ENDBRANCH  16  17
ENDBRANCH  15  16
ENDBRANCH   1  15
TORSDOF 22
ENDMDL
