MODEL 1
REMARK VINA RESULT:    -4.415      0.000      0.000
REMARK INTER + INTRA:          -7.640
REMARK INTER:                  -6.996
REMARK INTRA:                  -0.644
REMARK UNBOUND:                -0.644
REMARK SMILES CCCCCCCCCCCC(=O)[O-]
REMARK SMILES IDX 7 1 8 2 9 3 10 4 11 5 12 6 13 7 14 8 6 9 5 10 4 11 3 12 2 13
REMARK SMILES IDX 1 14
REMARK H PARENT
REMARK Flexibility Score: inf
ROOT
ATOM      1  C   UNL     1      44.533  26.344   2.517  1.00  0.00     0.000 C 
ENDROOT
BRANCH   1   2
ATOM      2  C   UNL     1      44.397  27.876   2.491  1.00  0.00     0.000 C 
BRANCH   2   3
ATOM      3  C   UNL     1      43.072  28.340   1.861  1.00  0.00     0.000 C 
BRANCH   3   4
ATOM      4  C   UNL     1      42.583  27.390   0.753  1.00  0.00     0.006 C 
BRANCH   4   5
ATOM      5  C   UNL     1      43.042  27.825  -0.644  1.00  0.00     0.053 C 
BRANCH   5   6
ATOM      6  C   UNL     1      44.151  26.943  -1.127  1.00  0.00     0.041 C 
ATOM      7  O   UNL     1      43.890  25.879  -1.746  1.00  0.00    -0.550 OA
ATOM      8  O   UNL     1      45.473  27.324  -0.937  1.00  0.00    -0.550 OA
ENDBRANCH   5   6
ENDBRANCH   4   5
ENDBRANCH   3   4
ENDBRANCH   2   3
ENDBRANCH   1   2
BRANCH   1   9
ATOM      9  C   UNL     1      45.301  25.840   3.752  1.00  0.00     0.000 C 
BRANCH   9  10
ATOM     10  C   UNL     1      45.954  26.982   4.549  1.00  0.00    -0.000 C 
BRANCH  10  11
ATOM     11  C   UNL     1      45.963  26.717   6.065  1.00  0.00    -0.000 C 
BRANCH  11  12
ATOM     12  C   UNL     1      45.822  28.005   6.890  1.00  0.00    -0.000 C 
BRANCH  12  13
ATOM     13  C   UNL     1      45.382  27.739   8.338  1.00  0.00    -0.003 C 
ATOM     14  C   UNL     1      45.338  26.242   8.632  1.00  0.00     0.004 C 
ENDBRANCH  12  13
ENDBRANCH  11  12
ENDBRANCH  10  11
ENDBRANCH   9  10
ENDBRANCH   1   9
TORSDOF 10
ENDMDL
MODEL 2
REMARK VINA RESULT:    -4.238      0.819      1.584
REMARK INTER + INTRA:          -7.360
REMARK INTER:                  -6.558
REMARK INTRA:                  -0.802
REMARK UNBOUND:                -0.644
REMARK SMILES CCCCCCCCCCCC(=O)[O-]
REMARK SMILES IDX 7 1 8 2 9 3 10 4 11 5 12 6 13 7 14 8 6 9 5 10 4 11 3 12 2 13
REMARK SMILES IDX 1 14
REMARK H PARENT
REMARK Flexibility Score: inf
ROOT
ATOM      1  C   UNL     1      45.113  27.568   2.931  1.00  0.00     0.000 C 
ENDROOT
BRANCH   1   2
ATOM      2  C   UNL     1      44.034  28.390   2.206  1.00  0.00     0.000 C 
BRANCH   2   3
ATOM      3  C   UNL     1      42.770  27.566   1.902  1.00  0.00     0.000 C 
BRANCH   3   4
ATOM      4  C   UNL     1      42.408  27.573   0.407  1.00  0.00     0.006 C 
BRANCH   4   5
ATOM      5  C   UNL     1      43.505  28.198  -0.465  1.00  0.00     0.053 C 
BRANCH   5   6
ATOM      6  C   UNL     1      44.439  27.142  -0.966  1.00  0.00     0.041 C 
ATOM      7  O   UNL     1      45.683  27.277  -0.826  1.00  0.00    -0.550 OA
ATOM      8  O   UNL     1      43.932  25.984  -1.543  1.00  0.00    -0.550 OA
ENDBRANCH   5   6
ENDBRANCH   4   5
ENDBRANCH   3   4
ENDBRANCH   2   3
ENDBRANCH   1   2
BRANCH   1   9
ATOM      9  C   UNL     1      44.820  26.057   2.910  1.00  0.00     0.000 C 
BRANCH   9  10
ATOM     10  C   UNL     1      45.851  25.244   3.711  1.00  0.00    -0.000 C 
BRANCH  10  11
ATOM     11  C   UNL     1      46.968  26.123   4.301  1.00  0.00    -0.000 C 
BRANCH  11  12
ATOM     12  C   UNL     1      47.047  26.028   5.832  1.00  0.00    -0.000 C 
BRANCH  12  13
ATOM     13  C   UNL     1      45.973  26.872   6.536  1.00  0.00    -0.003 C 
ATOM     14  C   UNL     1      45.651  26.311   7.917  1.00  0.00     0.004 C 
ENDBRANCH  12  13
ENDBRANCH  11  12
ENDBRANCH  10  11
ENDBRANCH   9  10
ENDBRANCH   1   9
TORSDOF 10
ENDMDL
MODEL 3
REMARK VINA RESULT:    -4.113      1.669      3.193
REMARK INTER + INTRA:          -7.162
REMARK INTER:                  -6.202
REMARK INTRA:                  -0.960
REMARK UNBOUND:                -0.644
REMARK SMILES CCCCCCCCCCCC(=O)[O-]
REMARK SMILES IDX 7 1 8 2 9 3 10 4 11 5 12 6 13 7 14 8 6 9 5 10 4 11 3 12 2 13
REMARK SMILES IDX 1 14
REMARK H PARENT
REMARK Flexibility Score: inf
ROOT
ATOM      1  C   UNL     1      42.272  28.519   1.036  1.00  0.00     0.000 C 
ENDROOT
BRANCH   1   2
ATOM      2  C   UNL     1      42.256  29.967   0.518  1.00  0.00     0.000 C 
BRANCH   2   3
ATOM      3  C   UNL     1      42.858  30.095  -0.893  1.00  0.00     0.000 C 
BRANCH   3   4
ATOM      4  C   UNL     1      42.694  28.809  -1.722  1.00  0.00     0.006 C 
BRANCH   4   5
ATOM      5  C   UNL     1      44.008  28.347  -2.365  1.00  0.00     0.053 C 
BRANCH   5   6
ATOM      6  C   UNL     1      44.582  27.192  -1.607  1.00  0.00     0.041 C 
ATOM      7  O   UNL     1      45.678  27.314  -1.001  1.00  0.00    -0.550 OA
ATOM      8  O   UNL     1      43.880  25.995  -1.529  1.00  0.00    -0.550 OA
ENDBRANCH   5   6
ENDBRANCH   4   5
ENDBRANCH   3   4
ENDBRANCH   2   3
ENDBRANCH   1   2
BRANCH   1   9
ATOM      9  C   UNL     1      43.508  28.214   1.900  1.00  0.00     0.000 C 
BRANCH   9  10
ATOM     10  C   UNL     1      43.815  26.709   1.981  1.00  0.00    -0.000 C 
BRANCH  10  11
ATOM     11  C   UNL     1      45.221  26.421   2.538  1.00  0.00    -0.000 C 
BRANCH  11  12
ATOM     12  C   UNL     1      45.190  25.511   3.775  1.00  0.00    -0.000 C 
BRANCH  12  13
ATOM     13  C   UNL     1      46.041  26.054   4.934  1.00  0.00    -0.003 C 
ATOM     14  C   UNL     1      46.068  27.579   4.928  1.00  0.00     0.004 C 
ENDBRANCH  12  13
ENDBRANCH  11  12
ENDBRANCH  10  11
ENDBRANCH   9  10
ENDBRANCH   1   9
TORSDOF 10
ENDMDL
MODEL 4
REMARK VINA RESULT:    -4.031      2.202      3.876
REMARK INTER + INTRA:          -7.032
REMARK INTER:                  -6.289
REMARK INTRA:                  -0.743
REMARK UNBOUND:                -0.644
REMARK SMILES CCCCCCCCCCCC(=O)[O-]
REMARK SMILES IDX 7 1 8 2 9 3 10 4 11 5 12 6 13 7 14 8 6 9 5 10 4 11 3 12 2 13
REMARK SMILES IDX 1 14
REMARK H PARENT
REMARK Flexibility Score: inf
ROOT
ATOM      1  C   UNL     1      42.408  27.574   0.401  1.00  0.00     0.000 C 
ENDROOT
BRANCH   1   2
ATOM      2  C   UNL     1      43.394  26.783  -0.475  1.00  0.00     0.000 C 
BRANCH   2   3
ATOM      3  C   UNL     1      44.067  27.662  -1.545  1.00  0.00     0.000 C 
BRANCH   3   4
ATOM      4  C   UNL     1      43.057  28.523  -2.321  1.00  0.00     0.006 C 
BRANCH   4   5
ATOM      5  C   UNL     1      43.465  28.741  -3.784  1.00  0.00     0.053 C 
BRANCH   5   6
ATOM      6  C   UNL     1      42.856  27.691  -4.658  1.00  0.00     0.041 C 
ATOM      7  O   UNL     1      43.408  26.566  -4.775  1.00  0.00    -0.550 OA
ATOM      8  O   UNL     1      41.650  27.937  -5.302  1.00  0.00    -0.550 OA
ENDBRANCH   5   6
ENDBRANCH   4   5
ENDBRANCH   3   4
ENDBRANCH   2   3
ENDBRANCH   1   2
BRANCH   1   9
ATOM      9  C   UNL     1      42.805  27.570   1.888  1.00  0.00     0.000 C 
BRANCH   9  10
ATOM     10  C   UNL     1      44.079  28.387   2.163  1.00  0.00    -0.000 C 
BRANCH  10  11
ATOM     11  C   UNL     1      45.227  27.524   2.716  1.00  0.00    -0.000 C 
BRANCH  11  12
ATOM     12  C   UNL     1      44.823  26.054   2.902  1.00  0.00    -0.000 C 
BRANCH  12  13
ATOM     13  C   UNL     1      45.729  25.309   3.894  1.00  0.00    -0.003 C 
ATOM     14  C   UNL     1      45.969  26.141   5.150  1.00  0.00     0.004 C 
ENDBRANCH  12  13
ENDBRANCH  11  12
ENDBRANCH  10  11
ENDBRANCH   9  10
ENDBRANCH   1   9
TORSDOF 10
ENDMDL
MODEL 5
REMARK VINA RESULT:    -4.013      3.896      7.366
REMARK INTER + INTRA:          -7.003
REMARK INTER:                  -6.346
REMARK INTRA:                  -0.656
REMARK UNBOUND:                -0.644
REMARK SMILES CCCCCCCCCCCC(=O)[O-]
REMARK SMILES IDX 7 1 8 2 9 3 10 4 11 5 12 6 13 7 14 8 6 9 5 10 4 11 3 12 2 13
REMARK SMILES IDX 1 14
REMARK H PARENT
REMARK Flexibility Score: inf
ROOT
ATOM      1  C   UNL     1      44.749  25.970   3.088  1.00  0.00     0.000 C 
ENDROOT
BRANCH   1   2
ATOM      2  C   UNL     1      45.744  25.899   4.259  1.00  0.00     0.000 C 
BRANCH   2   3
ATOM      3  C   UNL     1      46.283  27.284   4.659  1.00  0.00     0.000 C 
BRANCH   3   4
ATOM      4  C   UNL     1      46.061  27.594   6.149  1.00  0.00     0.006 C 
BRANCH   4   5
ATOM      5  C   UNL     1      45.895  26.327   6.999  1.00  0.00     0.053 C 
BRANCH   5   6
ATOM      6  C   UNL     1      45.478  26.684   8.391  1.00  0.00     0.041 C 
ATOM      7  O   UNL     1      45.078  27.848   8.654  1.00  0.00    -0.550 OA
ATOM      8  O   UNL     1      45.482  25.715   9.387  1.00  0.00    -0.550 OA
ENDBRANCH   5   6
ENDBRANCH   4   5
ENDBRANCH   3   4
ENDBRANCH   2   3
ENDBRANCH   1   2
BRANCH   1   9
ATOM      9  C   UNL     1      45.062  27.120   2.115  1.00  0.00     0.000 C 
BRANCH   9  10
ATOM     10  C   UNL     1      43.963  28.197   2.099  1.00  0.00    -0.000 C 
BRANCH  10  11
ATOM     11  C   UNL     1      42.611  27.655   1.600  1.00  0.00    -0.000 C 
BRANCH  11  12
ATOM     12  C   UNL     1      42.714  27.002   0.213  1.00  0.00    -0.000 C 
BRANCH  12  13
ATOM     13  C   UNL     1      43.068  28.008  -0.893  1.00  0.00    -0.003 C 
ATOM     14  C   UNL     1      44.140  27.449  -1.823  1.00  0.00     0.004 C 
ENDBRANCH  12  13
ENDBRANCH  11  12
ENDBRANCH  10  11
ENDBRANCH   9  10
ENDBRANCH   1   9
TORSDOF 10
ENDMDL
MODEL 6
REMARK VINA RESULT:    -3.904      2.978      4.524
REMARK INTER + INTRA:          -6.830
REMARK INTER:                  -6.076
REMARK INTRA:                  -0.754
REMARK UNBOUND:                -0.644
REMARK SMILES CCCCCCCCCCCC(=O)[O-]
REMARK SMILES IDX 7 1 8 2 9 3 10 4 11 5 12 6 13 7 14 8 6 9 5 10 4 11 3 12 2 13
REMARK SMILES IDX 1 14
REMARK H PARENT
REMARK Flexibility Score: inf
ROOT
ATOM      1  C   UNL     1      44.165  27.111  -0.518  1.00  0.00     0.000 C 
ENDROOT
BRANCH   1   2
ATOM      2  C   UNL     1      44.196  27.958  -1.802  1.00  0.00     0.000 C 
BRANCH   2   3
ATOM      3  C   UNL     1      42.866  28.690  -2.057  1.00  0.00     0.000 C 
BRANCH   3   4
ATOM      4  C   UNL     1      42.904  29.550  -3.332  1.00  0.00     0.006 C 
BRANCH   4   5
ATOM      5  C   UNL     1      43.648  28.866  -4.486  1.00  0.00     0.053 C 
BRANCH   5   6
ATOM      6  C   UNL     1      42.800  27.791  -5.089  1.00  0.00     0.041 C 
ATOM      7  O   UNL     1      43.125  26.582  -4.962  1.00  0.00    -0.550 OA
ATOM      8  O   UNL     1      41.624  28.123  -5.750  1.00  0.00    -0.550 OA
ENDBRANCH   5   6
ENDBRANCH   4   5
ENDBRANCH   3   4
ENDBRANCH   2   3
ENDBRANCH   1   2
BRANCH   1   9
ATOM      9  C   UNL     1      42.797  27.152   0.185  1.00  0.00     0.000 C 
BRANCH   9  10
ATOM     10  C   UNL     1      42.912  27.462   1.687  1.00  0.00    -0.000 C 
BRANCH  10  11
ATOM     11  C   UNL     1      44.198  28.234   2.034  1.00  0.00    -0.000 C 
BRANCH  11  12
ATOM     12  C   UNL     1      45.103  27.463   3.008  1.00  0.00    -0.000 C 
BRANCH  12  13
ATOM     13  C   UNL     1      44.832  25.951   3.002  1.00  0.00    -0.003 C 
ATOM     14  C   UNL     1      46.071  25.169   3.426  1.00  0.00     0.004 C 
ENDBRANCH  12  13
ENDBRANCH  11  12
ENDBRANCH  10  11
ENDBRANCH   9  10
ENDBRANCH   1   9
TORSDOF 10
ENDMDL
MODEL 7
REMARK VINA RESULT:    -3.682      1.822      3.322
REMARK INTER + INTRA:          -6.479
REMARK INTER:                  -5.541
REMARK INTRA:                  -0.938
REMARK UNBOUND:                -0.644
REMARK SMILES CCCCCCCCCCCC(=O)[O-]
REMARK SMILES IDX 7 1 8 2 9 3 10 4 11 5 12 6 13 7 14 8 6 9 5 10 4 11 3 12 2 13
REMARK SMILES IDX 1 14
REMARK H PARENT
REMARK Flexibility Score: inf
ROOT
ATOM      1  C   UNL     1      46.067  26.430   5.856  1.00  0.00     0.000 C 
ENDROOT
BRANCH   1   2
ATOM      2  C   UNL     1      46.819  26.865   4.587  1.00  0.00     0.000 C 
BRANCH   2   3
ATOM      3  C   UNL     1      46.518  28.323   4.194  1.00  0.00     0.000 C 
BRANCH   3   4
ATOM      4  C   UNL     1      45.269  28.447   3.305  1.00  0.00     0.006 C 
BRANCH   4   5
ATOM      5  C   UNL     1      45.589  28.300   1.811  1.00  0.00     0.053 C 
BRANCH   5   6
ATOM      6  C   UNL     1      44.958  27.060   1.262  1.00  0.00     0.041 C 
ATOM      7  O   UNL     1      44.963  26.842   0.022  1.00  0.00    -0.550 OA
ATOM      8  O   UNL     1      44.410  26.119   2.125  1.00  0.00    -0.550 OA
ENDBRANCH   5   6
ENDBRANCH   4   5
ENDBRANCH   3   4
ENDBRANCH   2   3
ENDBRANCH   1   2
BRANCH   1   9
ATOM      9  C   UNL     1      46.993  26.309   7.080  1.00  0.00     0.000 C 
BRANCH   9  10
ATOM     10  C   UNL     1      46.248  25.842   8.341  1.00  0.00    -0.000 C 
BRANCH  10  11
ATOM     11  C   UNL     1      45.208  26.867   8.828  1.00  0.00    -0.000 C 
BRANCH  11  12
ATOM     12  C   UNL     1      45.835  28.228   9.165  1.00  0.00    -0.000 C 
BRANCH  12  13
ATOM     13  C   UNL     1      44.958  29.412   8.727  1.00  0.00    -0.003 C 
ATOM     14  C   UNL     1      45.296  29.849   7.305  1.00  0.00     0.004 C 
ENDBRANCH  12  13
ENDBRANCH  11  12
ENDBRANCH  10  11
ENDBRANCH   9  10
ENDBRANCH   1   9
TORSDOF 10
ENDMDL
MODEL 8
REMARK VINA RESULT:    -3.657      3.752      6.055
REMARK INTER + INTRA:          -6.439
REMARK INTER:                  -5.546
REMARK INTRA:                  -0.892
REMARK UNBOUND:                -0.644
REMARK SMILES CCCCCCCCCCCC(=O)[O-]
REMARK SMILES IDX 7 1 8 2 9 3 10 4 11 5 12 6 13 7 14 8 6 9 5 10 4 11 3 12 2 13
REMARK SMILES IDX 1 14
REMARK H PARENT
REMARK Flexibility Score: inf
ROOT
ATOM      1  C   UNL     1      44.131  27.240  -1.921  1.00  0.00     0.000 C 
ENDROOT
BRANCH   1   2
ATOM      2  C   UNL     1      44.823  27.108  -3.288  1.00  0.00     0.000 C 
BRANCH   2   3
ATOM      3  C   UNL     1      43.847  26.706  -4.407  1.00  0.00     0.000 C 
BRANCH   3   4
ATOM      4  C   UNL     1      44.204  27.347  -5.759  1.00  0.00     0.006 C 
BRANCH   4   5
ATOM      5  C   UNL     1      43.964  28.862  -5.778  1.00  0.00     0.053 C 
BRANCH   5   6
ATOM      6  C   UNL     1      42.532  29.167  -5.470  1.00  0.00     0.041 C 
ATOM      7  O   UNL     1      42.240  30.016  -4.588  1.00  0.00    -0.550 OA
ATOM      8  O   UNL     1      41.519  28.550  -6.194  1.00  0.00    -0.550 OA
ENDBRANCH   5   6
ENDBRANCH   4   5
ENDBRANCH   3   4
ENDBRANCH   2   3
ENDBRANCH   1   2
BRANCH   1   9
ATOM      9  C   UNL     1      43.657  28.676  -1.634  1.00  0.00     0.000 C 
BRANCH   9  10
ATOM     10  C   UNL     1      42.693  28.753  -0.438  1.00  0.00    -0.000 C 
BRANCH  10  11
ATOM     11  C   UNL     1      42.559  27.408   0.300  1.00  0.00    -0.000 C 
BRANCH  11  12
ATOM     12  C   UNL     1      42.889  27.521   1.796  1.00  0.00    -0.000 C 
BRANCH  12  13
ATOM     13  C   UNL     1      44.121  26.695   2.196  1.00  0.00    -0.003 C 
ATOM     14  C   UNL     1      45.397  27.525   2.086  1.00  0.00     0.004 C 
ENDBRANCH  12  13
ENDBRANCH  11  12
ENDBRANCH  10  11
ENDBRANCH   9  10
ENDBRANCH   1   9
TORSDOF 10
ENDMDL
MODEL 9
REMARK VINA RESULT:    -3.637      3.271      7.771
REMARK INTER + INTRA:          -6.407
REMARK INTER:                  -5.600
REMARK INTRA:                  -0.806
REMARK UNBOUND:                -0.644
REMARK SMILES CCCCCCCCCCCC(=O)[O-]
REMARK SMILES IDX 7 1 8 2 9 3 10 4 11 5 12 6 13 7 14 8 6 9 5 10 4 11 3 12 2 13
REMARK SMILES IDX 1 14
REMARK H PARENT
REMARK Flexibility Score: inf
ROOT
ATOM      1  C   UNL     1      42.827  28.511  -0.841  1.00  0.00     0.000 C 
ENDROOT
BRANCH   1   2
ATOM      2  C   UNL     1      42.762  27.238   0.020  1.00  0.00     0.000 C 
BRANCH   2   3
ATOM      3  C   UNL     1      42.856  27.540   1.526  1.00  0.00     0.000 C 
BRANCH   3   4
ATOM      4  C   UNL     1      44.007  26.782   2.208  1.00  0.00     0.006 C 
BRANCH   4   5
ATOM      5  C   UNL     1      45.295  27.612   2.291  1.00  0.00     0.053 C 
BRANCH   5   6
ATOM      6  C   UNL     1      46.446  26.849   1.715  1.00  0.00     0.041 C 
ATOM      7  O   UNL     1      47.032  25.971   2.400  1.00  0.00    -0.550 OA
ATOM      8  O   UNL     1      46.838  27.073   0.401  1.00  0.00    -0.550 OA
ENDBRANCH   5   6
ENDBRANCH   4   5
ENDBRANCH   3   4
ENDBRANCH   2   3
ENDBRANCH   1   2
BRANCH   1   9
ATOM      9  C   UNL     1      44.045  28.527  -1.782  1.00  0.00     0.000 C 
BRANCH   9  10
ATOM     10  C   UNL     1      44.478  27.115  -2.213  1.00  0.00    -0.000 C 
BRANCH  10  11
ATOM     11  C   UNL     1      43.863  26.693  -3.559  1.00  0.00    -0.000 C 
BRANCH  11  12
ATOM     12  C   UNL     1      43.608  27.888  -4.491  1.00  0.00    -0.000 C 
BRANCH  12  13
ATOM     13  C   UNL     1      42.288  27.765  -5.267  1.00  0.00    -0.003 C 
ATOM     14  C   UNL     1      42.174  28.851  -6.333  1.00  0.00     0.004 C 
ENDBRANCH  12  13
ENDBRANCH  11  12
ENDBRANCH  10  11
ENDBRANCH   9  10
ENDBRANCH   1   9
TORSDOF 10
ENDMDL
