MODEL 1
REMARK VINA RESULT:    -3.272      0.000      0.000
REMARK INTER + INTRA:         -10.520
REMARK INTER:                  -7.097
REMARK INTRA:                  -3.423
REMARK UNBOUND:                -3.423
REMARK SMILES CCCCCCCCCCCCCCCCCCCCCC(=O)[O-]
REMARK SMILES IDX 12 1 11 2 10 3 9 4 8 5 7 6 6 7 5 8 4 9 3 10 2 11 1 12 13 13
REMARK SMILES IDX 14 14 15 15 16 16 17 17 18 18 19 19 20 20 21 21 22 22 23 23
REMARK SMILES IDX 24 24
REMARK H PARENT
REMARK Flexibility Score: inf
ROOT
ATOM      1  C   UNL     1      61.576  31.758  58.049  1.00  0.00     0.000 C 
ENDROOT
BRANCH   1   2
ATOM      2  C   UNL     1      61.540  33.027  57.178  1.00  0.00     0.000 C 
BRANCH   2   3
ATOM      3  C   UNL     1      60.421  33.997  57.592  1.00  0.00     0.000 C 
BRANCH   3   4
ATOM      4  C   UNL     1      60.943  35.410  57.892  1.00  0.00    -0.000 C 
BRANCH   4   5
ATOM      5  C   UNL     1      60.368  35.940  59.210  1.00  0.00    -0.000 C 
BRANCH   5   6
ATOM      6  C   UNL     1      61.168  35.424  60.412  1.00  0.00    -0.000 C 
BRANCH   6   7
ATOM      7  C   UNL     1      62.199  36.463  60.876  1.00  0.00    -0.000 C 
BRANCH   7   8
ATOM      8  C   UNL     1      63.648  35.940  60.819  1.00  0.00    -0.000 C 
BRANCH   8   9
ATOM      9  C   UNL     1      63.772  34.406  60.903  1.00  0.00    -0.000 C 
BRANCH   9  10
ATOM     10  C   UNL     1      64.335  33.764  59.613  1.00  0.00    -0.000 C 
BRANCH  10  11
ATOM     11  C   UNL     1      64.552  34.774  58.475  1.00  0.00    -0.003 C 
ATOM     12  C   UNL     1      66.027  35.095  58.246  1.00  0.00     0.004 C 
ENDBRANCH  10  11
ENDBRANCH   9  10
ENDBRANCH   8   9
ENDBRANCH   7   8
ENDBRANCH   6   7
ENDBRANCH   5   6
ENDBRANCH   4   5
ENDBRANCH   3   4
ENDBRANCH   2   3
ENDBRANCH   1   2
BRANCH   1  13
ATOM     13  C   UNL     1      60.525  31.792  59.178  1.00  0.00     0.000 C 
BRANCH  13  14
ATOM     14  C   UNL     1      61.134  31.848  60.591  1.00  0.00     0.000 C 
BRANCH  14  15
ATOM     15  C   UNL     1      60.906  30.590  61.448  1.00  0.00     0.000 C 
BRANCH  15  16
ATOM     16  C   UNL     1      62.184  29.750  61.617  1.00  0.00     0.000 C 
BRANCH  16  17
ATOM     17  C   UNL     1      62.206  28.511  60.706  1.00  0.00     0.000 C 
BRANCH  17  18
ATOM     18  C   UNL     1      63.291  28.594  59.619  1.00  0.00     0.000 C 
BRANCH  18  19
ATOM     19  C   UNL     1      64.220  29.806  59.804  1.00  0.00     0.000 C 
BRANCH  19  20
ATOM     20  C   UNL     1      65.685  29.485  59.469  1.00  0.00     0.006 C 
BRANCH  20  21
ATOM     21  C   UNL     1      66.143  28.209  60.181  1.00  0.00     0.053 C 
BRANCH  21  22
ATOM     22  C   UNL     1      67.541  28.365  60.691  1.00  0.00     0.041 C 
ATOM     23  O   UNL     1      67.809  28.102  61.893  1.00  0.00    -0.550 OA
ATOM     24  O   UNL     1      68.559  28.744  59.826  1.00  0.00    -0.550 OA
ENDBRANCH  21  22
ENDBRANCH  20  21
ENDBRANCH  19  20
ENDBRANCH  18  19
ENDBRANCH  17  18
ENDBRANCH  16  17
ENDBRANCH  15  16
ENDBRANCH  14  15
ENDBRANCH  13  14
ENDBRANCH   1  13
TORSDOF 20
ENDMDL
MODEL 2
REMARK VINA RESULT:    -3.269      1.213      3.505
REMARK INTER + INTRA:         -10.515
REMARK INTER:                  -7.196
REMARK INTRA:                  -3.319
REMARK UNBOUND:                -3.423
REMARK SMILES CCCCCCCCCCCCCCCCCCCCCC(=O)[O-]
REMARK SMILES IDX 12 1 11 2 10 3 9 4 8 5 7 6 6 7 5 8 4 9 3 10 2 11 1 12 13 13
REMARK SMILES IDX 14 14 15 15 16 16 17 17 18 18 19 19 20 20 21 21 22 22 23 23
REMARK SMILES IDX 24 24
REMARK H PARENT
REMARK Flexibility Score: inf
ROOT
ATOM      1  C   UNL     1      63.974  32.941  59.171  1.00  0.00     0.000 C 
ENDROOT
BRANCH   1   2
ATOM      2  C   UNL     1      64.000  33.103  60.702  1.00  0.00     0.000 C 
BRANCH   2   3
ATOM      3  C   UNL     1      64.487  34.493  61.140  1.00  0.00     0.000 C 
BRANCH   3   4
ATOM      4  C   UNL     1      63.917  35.623  60.269  1.00  0.00    -0.000 C 
BRANCH   4   5
ATOM      5  C   UNL     1      62.798  36.372  61.004  1.00  0.00    -0.000 C 
BRANCH   5   6
ATOM      6  C   UNL     1      61.416  35.897  60.539  1.00  0.00    -0.000 C 
BRANCH   6   7
ATOM      7  C   UNL     1      61.252  36.077  59.023  1.00  0.00    -0.000 C 
BRANCH   7   8
ATOM      8  C   UNL     1      59.803  36.403  58.609  1.00  0.00    -0.000 C 
BRANCH   8   9
ATOM      9  C   UNL     1      59.064  35.241  57.917  1.00  0.00    -0.000 C 
BRANCH   9  10
ATOM     10  C   UNL     1      59.944  34.470  56.906  1.00  0.00    -0.000 C 
BRANCH  10  11
ATOM     11  C   UNL     1      59.441  33.046  56.621  1.00  0.00    -0.003 C 
ATOM     12  C   UNL     1      58.308  32.624  57.554  1.00  0.00     0.004 C 
ENDBRANCH  10  11
ENDBRANCH   9  10
ENDBRANCH   8   9
ENDBRANCH   7   8
ENDBRANCH   6   7
ENDBRANCH   5   6
ENDBRANCH   4   5
ENDBRANCH   3   4
ENDBRANCH   2   3
ENDBRANCH   1   2
BRANCH   1  13
ATOM     13  C   UNL     1      62.622  32.399  58.661  1.00  0.00     0.000 C 
BRANCH  13  14
ATOM     14  C   UNL     1      61.485  32.498  59.695  1.00  0.00     0.000 C 
BRANCH  14  15
ATOM     15  C   UNL     1      60.753  31.175  59.984  1.00  0.00     0.000 C 
BRANCH  15  16
ATOM     16  C   UNL     1      60.795  30.788  61.472  1.00  0.00     0.000 C 
BRANCH  16  17
ATOM     17  C   UNL     1      61.804  29.665  61.766  1.00  0.00     0.000 C 
BRANCH  17  18
ATOM     18  C   UNL     1      62.456  29.107  60.488  1.00  0.00     0.000 C 
BRANCH  18  19
ATOM     19  C   UNL     1      63.992  29.161  60.538  1.00  0.00     0.000 C 
BRANCH  19  20
ATOM     20  C   UNL     1      64.648  28.476  59.328  1.00  0.00     0.006 C 
BRANCH  20  21
ATOM     21  C   UNL     1      65.787  27.554  59.772  1.00  0.00     0.053 C 
BRANCH  21  22
ATOM     22  C   UNL     1      66.954  28.356  60.255  1.00  0.00     0.041 C 
ATOM     23  O   UNL     1      67.585  29.099  59.457  1.00  0.00    -0.550 OA
ATOM     24  O   UNL     1      67.311  28.327  61.596  1.00  0.00    -0.550 OA
ENDBRANCH  21  22
ENDBRANCH  20  21
ENDBRANCH  19  20
ENDBRANCH  18  19
ENDBRANCH  17  18
ENDBRANCH  16  17
ENDBRANCH  15  16
ENDBRANCH  14  15
ENDBRANCH  13  14
ENDBRANCH   1  13
TORSDOF 20
ENDMDL
MODEL 3
REMARK VINA RESULT:    -3.255      1.158      2.740
REMARK INTER + INTRA:         -10.483
REMARK INTER:                  -6.950
REMARK INTRA:                  -3.534
REMARK UNBOUND:                -3.423
REMARK SMILES CCCCCCCCCCCCCCCCCCCCCC(=O)[O-]
REMARK SMILES IDX 12 1 11 2 10 3 9 4 8 5 7 6 6 7 5 8 4 9 3 10 2 11 1 12 13 13
REMARK SMILES IDX 14 14 15 15 16 16 17 17 18 18 19 19 20 20 21 21 22 22 23 23
REMARK SMILES IDX 24 24
REMARK H PARENT
REMARK Flexibility Score: inf
ROOT
ATOM      1  C   UNL     1      64.175  33.070  59.564  1.00  0.00     0.000 C 
ENDROOT
BRANCH   1   2
ATOM      2  C   UNL     1      64.141  33.592  61.013  1.00  0.00     0.000 C 
BRANCH   2   3
ATOM      3  C   UNL     1      64.516  35.079  61.113  1.00  0.00     0.000 C 
BRANCH   3   4
ATOM      4  C   UNL     1      63.684  35.964  60.172  1.00  0.00    -0.000 C 
BRANCH   4   5
ATOM      5  C   UNL     1      62.487  36.576  60.909  1.00  0.00    -0.000 C 
BRANCH   5   6
ATOM      6  C   UNL     1      61.188  35.838  60.564  1.00  0.00    -0.000 C 
BRANCH   6   7
ATOM      7  C   UNL     1      60.564  36.392  59.275  1.00  0.00    -0.000 C 
BRANCH   7   8
ATOM      8  C   UNL     1      59.902  35.301  58.411  1.00  0.00    -0.000 C 
BRANCH   8   9
ATOM      9  C   UNL     1      60.839  34.663  57.366  1.00  0.00    -0.000 C 
BRANCH   9  10
ATOM     10  C   UNL     1      61.926  35.632  56.845  1.00  0.00    -0.000 C 
BRANCH  10  11
ATOM     11  C   UNL     1      63.260  34.938  56.527  1.00  0.00    -0.003 C 
ATOM     12  C   UNL     1      64.444  35.901  56.547  1.00  0.00     0.004 C 
ENDBRANCH  10  11
ENDBRANCH   9  10
ENDBRANCH   8   9
ENDBRANCH   7   8
ENDBRANCH   6   7
ENDBRANCH   5   6
ENDBRANCH   4   5
ENDBRANCH   3   4
ENDBRANCH   2   3
ENDBRANCH   1   2
BRANCH   1  13
ATOM     13  C   UNL     1      62.913  32.259  59.205  1.00  0.00     0.000 C 
BRANCH  13  14
ATOM     14  C   UNL     1      61.772  32.401  60.229  1.00  0.00     0.000 C 
BRANCH  14  15
ATOM     15  C   UNL     1      60.941  31.125  60.458  1.00  0.00     0.000 C 
BRANCH  15  16
ATOM     16  C   UNL     1      61.428  30.313  61.671  1.00  0.00     0.000 C 
BRANCH  16  17
ATOM     17  C   UNL     1      61.915  28.905  61.287  1.00  0.00     0.000 C 
BRANCH  17  18
ATOM     18  C   UNL     1      62.037  28.716  59.765  1.00  0.00     0.000 C 
BRANCH  18  19
ATOM     19  C   UNL     1      63.497  28.581  59.302  1.00  0.00     0.000 C 
BRANCH  19  20
ATOM     20  C   UNL     1      64.483  28.474  60.476  1.00  0.00     0.006 C 
BRANCH  20  21
ATOM     21  C   UNL     1      65.786  29.217  60.167  1.00  0.00     0.053 C 
BRANCH  21  22
ATOM     22  C   UNL     1      66.969  28.357  60.482  1.00  0.00     0.041 C 
ATOM     23  O   UNL     1      67.397  28.278  61.664  1.00  0.00    -0.550 OA
ATOM     24  O   UNL     1      67.563  27.598  59.483  1.00  0.00    -0.550 OA
ENDBRANCH  21  22
ENDBRANCH  20  21
ENDBRANCH  19  20
ENDBRANCH  18  19
ENDBRANCH  17  18
ENDBRANCH  16  17
ENDBRANCH  15  16
ENDBRANCH  14  15
ENDBRANCH  13  14
ENDBRANCH   1  13
TORSDOF 20
ENDMDL
MODEL 4
REMARK VINA RESULT:    -3.227      1.877      2.664
REMARK INTER + INTRA:         -10.423
REMARK INTER:                  -6.279
REMARK INTRA:                  -4.144
REMARK UNBOUND:                -3.423
REMARK SMILES CCCCCCCCCCCCCCCCCCCCCC(=O)[O-]
REMARK SMILES IDX 12 1 11 2 10 3 9 4 8 5 7 6 6 7 5 8 4 9 3 10 2 11 1 12 13 13
REMARK SMILES IDX 14 14 15 15 16 16 17 17 18 18 19 19 20 20 21 21 22 22 23 23
REMARK SMILES IDX 24 24
REMARK H PARENT
REMARK Flexibility Score: inf
ROOT
ATOM      1  C   UNL     1      62.133  31.799  56.988  1.00  0.00     0.000 C 
ENDROOT
BRANCH   1   2
ATOM      2  C   UNL     1      62.655  32.622  58.180  1.00  0.00     0.000 C 
BRANCH   2   3
ATOM      3  C   UNL     1      61.563  33.496  58.818  1.00  0.00     0.000 C 
BRANCH   3   4
ATOM      4  C   UNL     1      61.880  33.871  60.274  1.00  0.00    -0.000 C 
BRANCH   4   5
ATOM      5  C   UNL     1      61.736  35.381  60.495  1.00  0.00    -0.000 C 
BRANCH   5   6
ATOM      6  C   UNL     1      63.061  36.002  60.952  1.00  0.00    -0.000 C 
BRANCH   6   7
ATOM      7  C   UNL     1      64.117  34.919  61.215  1.00  0.00    -0.000 C 
BRANCH   7   8
ATOM      8  C   UNL     1      65.541  35.358  60.820  1.00  0.00    -0.000 C 
BRANCH   8   9
ATOM      9  C   UNL     1      65.633  36.048  59.444  1.00  0.00    -0.000 C 
BRANCH   9  10
ATOM     10  C   UNL     1      65.347  35.095  58.260  1.00  0.00    -0.000 C 
BRANCH  10  11
ATOM     11  C   UNL     1      64.801  35.814  57.016  1.00  0.00    -0.003 C 
ATOM     12  C   UNL     1      63.329  36.196  57.156  1.00  0.00     0.004 C 
ENDBRANCH  10  11
ENDBRANCH   9  10
ENDBRANCH   8   9
ENDBRANCH   7   8
ENDBRANCH   6   7
ENDBRANCH   5   6
ENDBRANCH   4   5
ENDBRANCH   3   4
ENDBRANCH   2   3
ENDBRANCH   1   2
BRANCH   1  13
ATOM     13  C   UNL     1      60.921  30.923  57.366  1.00  0.00     0.000 C 
BRANCH  13  14
ATOM     14  C   UNL     1      61.303  29.511  57.849  1.00  0.00     0.000 C 
BRANCH  14  15
ATOM     15  C   UNL     1      60.762  29.131  59.239  1.00  0.00     0.000 C 
BRANCH  15  16
ATOM     16  C   UNL     1      60.362  30.359  60.074  1.00  0.00     0.000 C 
BRANCH  16  17
ATOM     17  C   UNL     1      61.106  30.431  61.419  1.00  0.00     0.000 C 
BRANCH  17  18
ATOM     18  C   UNL     1      62.460  29.701  61.385  1.00  0.00     0.000 C 
BRANCH  18  19
ATOM     19  C   UNL     1      63.628  30.641  61.041  1.00  0.00     0.000 C 
BRANCH  19  20
ATOM     20  C   UNL     1      64.887  29.881  60.592  1.00  0.00     0.006 C 
BRANCH  20  21
ATOM     21  C   UNL     1      64.644  29.154  59.266  1.00  0.00     0.053 C 
BRANCH  21  22
ATOM     22  C   UNL     1      65.214  29.937  58.126  1.00  0.00     0.041 C 
ATOM     23  O   UNL     1      66.025  30.876  58.345  1.00  0.00    -0.550 OA
ATOM     24  O   UNL     1      64.895  29.595  56.819  1.00  0.00    -0.550 OA
ENDBRANCH  21  22
ENDBRANCH  20  21
ENDBRANCH  19  20
ENDBRANCH  18  19
ENDBRANCH  17  18
ENDBRANCH  16  17
ENDBRANCH  15  16
ENDBRANCH  14  15
ENDBRANCH  13  14
ENDBRANCH   1  13
TORSDOF 20
ENDMDL
MODEL 5
REMARK VINA RESULT:    -3.177     10.120     12.693
REMARK INTER + INTRA:         -10.315
REMARK INTER:                  -6.736
REMARK INTRA:                  -3.579
REMARK UNBOUND:                -3.423
REMARK SMILES CCCCCCCCCCCCCCCCCCCCCC(=O)[O-]
REMARK SMILES IDX 12 1 11 2 10 3 9 4 8 5 7 6 6 7 5 8 4 9 3 10 2 11 1 12 13 13
REMARK SMILES IDX 14 14 15 15 16 16 17 17 18 18 19 19 20 20 21 21 22 22 23 23
REMARK SMILES IDX 24 24
REMARK H PARENT
REMARK Flexibility Score: inf
ROOT
ATOM      1  C   UNL     1      59.108  25.642  50.572  1.00  0.00     0.000 C 
ENDROOT
BRANCH   1   2
ATOM      2  C   UNL     1      57.827  25.875  49.750  1.00  0.00     0.000 C 
BRANCH   2   3
ATOM      3  C   UNL     1      57.053  27.124  50.203  1.00  0.00     0.000 C 
BRANCH   3   4
ATOM      4  C   UNL     1      57.158  27.368  51.716  1.00  0.00    -0.000 C 
BRANCH   4   5
ATOM      5  C   UNL     1      56.340  28.597  52.132  1.00  0.00    -0.000 C 
BRANCH   5   6
ATOM      6  C   UNL     1      55.763  29.318  50.908  1.00  0.00    -0.000 C 
BRANCH   6   7
ATOM      7  C   UNL     1      54.231  29.396  50.985  1.00  0.00    -0.000 C 
BRANCH   7   8
ATOM      8  C   UNL     1      53.536  28.817  49.736  1.00  0.00    -0.000 C 
BRANCH   8   9
ATOM      9  C   UNL     1      52.982  27.390  49.923  1.00  0.00    -0.000 C 
BRANCH   9  10
ATOM     10  C   UNL     1      53.687  26.338  49.036  1.00  0.00    -0.000 C 
BRANCH  10  11
ATOM     11  C   UNL     1      53.990  25.024  49.773  1.00  0.00    -0.003 C 
ATOM     12  C   UNL     1      54.081  25.205  51.286  1.00  0.00     0.004 C 
ENDBRANCH  10  11
ENDBRANCH   9  10
ENDBRANCH   8   9
ENDBRANCH   7   8
ENDBRANCH   6   7
ENDBRANCH   5   6
ENDBRANCH   4   5
ENDBRANCH   3   4
ENDBRANCH   2   3
ENDBRANCH   1   2
BRANCH   1  13
ATOM     13  C   UNL     1      60.388  25.880  49.744  1.00  0.00     0.000 C 
BRANCH  13  14
ATOM     14  C   UNL     1      60.961  27.303  49.884  1.00  0.00     0.000 C 
BRANCH  14  15
ATOM     15  C   UNL     1      60.420  28.324  48.868  1.00  0.00     0.000 C 
BRANCH  15  16
ATOM     16  C   UNL     1      59.671  29.487  49.542  1.00  0.00     0.000 C 
BRANCH  16  17
ATOM     17  C   UNL     1      60.009  29.626  51.036  1.00  0.00     0.000 C 
BRANCH  17  18
ATOM     18  C   UNL     1      61.050  30.726  51.307  1.00  0.00     0.000 C 
BRANCH  18  19
ATOM     19  C   UNL     1      62.407  30.156  51.755  1.00  0.00     0.000 C 
BRANCH  19  20
ATOM     20  C   UNL     1      63.525  30.418  50.733  1.00  0.00     0.006 C 
BRANCH  20  21
ATOM     21  C   UNL     1      64.182  29.107  50.292  1.00  0.00     0.053 C 
BRANCH  21  22
ATOM     22  C   UNL     1      64.322  29.064  48.803  1.00  0.00     0.041 C 
ATOM     23  O   UNL     1      63.978  28.034  48.165  1.00  0.00    -0.550 OA
ATOM     24  O   UNL     1      64.777  30.180  48.115  1.00  0.00    -0.550 OA
ENDBRANCH  21  22
ENDBRANCH  20  21
ENDBRANCH  19  20
ENDBRANCH  18  19
ENDBRANCH  17  18
ENDBRANCH  16  17
ENDBRANCH  15  16
ENDBRANCH  14  15
ENDBRANCH  13  14
ENDBRANCH   1  13
TORSDOF 20
ENDMDL
MODEL 6
REMARK VINA RESULT:    -3.153     10.642     13.250
REMARK INTER + INTRA:         -10.263
REMARK INTER:                  -7.125
REMARK INTRA:                  -3.138
REMARK UNBOUND:                -3.423
REMARK SMILES CCCCCCCCCCCCCCCCCCCCCC(=O)[O-]
REMARK SMILES IDX 12 1 11 2 10 3 9 4 8 5 7 6 6 7 5 8 4 9 3 10 2 11 1 12 13 13
REMARK SMILES IDX 14 14 15 15 16 16 17 17 18 18 19 19 20 20 21 21 22 22 23 23
REMARK SMILES IDX 24 24
REMARK H PARENT
REMARK Flexibility Score: inf
ROOT
ATOM      1  C   UNL     1      57.111  27.369  53.115  1.00  0.00     0.000 C 
ENDROOT
BRANCH   1   2
ATOM      2  C   UNL     1      58.307  27.949  52.339  1.00  0.00     0.000 C 
BRANCH   2   3
ATOM      3  C   UNL     1      58.021  29.349  51.773  1.00  0.00     0.000 C 
BRANCH   3   4
ATOM      4  C   UNL     1      58.149  29.407  50.243  1.00  0.00    -0.000 C 
BRANCH   4   5
ATOM      5  C   UNL     1      59.616  29.537  49.820  1.00  0.00    -0.000 C 
BRANCH   5   6
ATOM      6  C   UNL     1      60.039  28.369  48.921  1.00  0.00    -0.000 C 
BRANCH   6   7
ATOM      7  C   UNL     1      61.374  27.770  49.386  1.00  0.00    -0.000 C 
BRANCH   7   8
ATOM      8  C   UNL     1      61.196  26.546  50.307  1.00  0.00    -0.000 C 
BRANCH   8   9
ATOM      9  C   UNL     1      60.333  25.420  49.705  1.00  0.00    -0.000 C 
BRANCH   9  10
ATOM     10  C   UNL     1      60.640  24.026  50.302  1.00  0.00    -0.000 C 
BRANCH  10  11
ATOM     11  C   UNL     1      61.675  23.231  49.491  1.00  0.00    -0.003 C 
ATOM     12  C   UNL     1      61.189  21.830  49.129  1.00  0.00     0.004 C 
ENDBRANCH  10  11
ENDBRANCH   9  10
ENDBRANCH   8   9
ENDBRANCH   7   8
ENDBRANCH   6   7
ENDBRANCH   5   6
ENDBRANCH   4   5
ENDBRANCH   3   4
ENDBRANCH   2   3
ENDBRANCH   1   2
BRANCH   1  13
ATOM     13  C   UNL     1      56.372  26.272  52.319  1.00  0.00     0.000 C 
BRANCH  13  14
ATOM     14  C   UNL     1      57.099  25.846  51.030  1.00  0.00     0.000 C 
BRANCH  14  15
ATOM     15  C   UNL     1      56.379  26.224  49.723  1.00  0.00     0.000 C 
BRANCH  15  16
ATOM     16  C   UNL     1      54.885  25.857  49.744  1.00  0.00     0.000 C 
BRANCH  16  17
ATOM     17  C   UNL     1      53.973  27.061  49.456  1.00  0.00     0.000 C 
BRANCH  17  18
ATOM     18  C   UNL     1      54.650  28.405  49.776  1.00  0.00     0.000 C 
BRANCH  18  19
ATOM     19  C   UNL     1      53.701  29.392  50.477  1.00  0.00     0.000 C 
BRANCH  19  20
ATOM     20  C   UNL     1      54.451  30.480  51.260  1.00  0.00     0.006 C 
BRANCH  20  21
ATOM     21  C   UNL     1      53.790  30.732  52.619  1.00  0.00     0.053 C 
BRANCH  21  22
ATOM     22  C   UNL     1      54.493  29.967  53.695  1.00  0.00     0.041 C 
ATOM     23  O   UNL     1      55.492  30.467  54.277  1.00  0.00    -0.550 OA
ATOM     24  O   UNL     1      54.013  28.728  54.095  1.00  0.00    -0.550 OA
ENDBRANCH  21  22
ENDBRANCH  20  21
ENDBRANCH  19  20
ENDBRANCH  18  19
ENDBRANCH  17  18
ENDBRANCH  16  17
ENDBRANCH  15  16
ENDBRANCH  14  15
ENDBRANCH  13  14
ENDBRANCH   1  13
TORSDOF 20
ENDMDL
MODEL 7
REMARK VINA RESULT:    -3.143      2.489      6.173
REMARK INTER + INTRA:         -10.240
REMARK INTER:                  -6.096
REMARK INTRA:                  -4.144
REMARK UNBOUND:                -3.423
REMARK SMILES CCCCCCCCCCCCCCCCCCCCCC(=O)[O-]
REMARK SMILES IDX 12 1 11 2 10 3 9 4 8 5 7 6 6 7 5 8 4 9 3 10 2 11 1 12 13 13
REMARK SMILES IDX 14 14 15 15 16 16 17 17 18 18 19 19 20 20 21 21 22 22 23 23
REMARK SMILES IDX 24 24
REMARK H PARENT
REMARK Flexibility Score: inf
ROOT
ATOM      1  C   UNL     1      64.239  34.026  60.990  1.00  0.00     0.000 C 
ENDROOT
BRANCH   1   2
ATOM      2  C   UNL     1      63.784  32.652  60.463  1.00  0.00     0.000 C 
BRANCH   2   3
ATOM      3  C   UNL     1      62.905  32.763  59.207  1.00  0.00     0.000 C 
BRANCH   3   4
ATOM      4  C   UNL     1      61.542  32.074  59.376  1.00  0.00    -0.000 C 
BRANCH   4   5
ATOM      5  C   UNL     1      61.250  31.788  60.853  1.00  0.00    -0.000 C 
BRANCH   5   6
ATOM      6  C   UNL     1      60.774  30.344  61.054  1.00  0.00    -0.000 C 
BRANCH   6   7
ATOM      7  C   UNL     1      61.690  29.353  60.321  1.00  0.00    -0.000 C 
BRANCH   7   8
ATOM      8  C   UNL     1      62.992  29.057  61.090  1.00  0.00    -0.000 C 
BRANCH   8   9
ATOM      9  C   UNL     1      64.245  28.945  60.198  1.00  0.00    -0.000 C 
BRANCH   9  10
ATOM     10  C   UNL     1      63.918  28.870  58.688  1.00  0.00    -0.000 C 
BRANCH  10  11
ATOM     11  C   UNL     1      64.688  29.898  57.845  1.00  0.00    -0.003 C 
ATOM     12  C   UNL     1      65.959  30.390  58.534  1.00  0.00     0.004 C 
ENDBRANCH  10  11
ENDBRANCH   9  10
ENDBRANCH   8   9
ENDBRANCH   7   8
ENDBRANCH   6   7
ENDBRANCH   5   6
ENDBRANCH   4   5
ENDBRANCH   3   4
ENDBRANCH   2   3
ENDBRANCH   1   2
BRANCH   1  13
ATOM     13  C   UNL     1      63.698  35.190  60.135  1.00  0.00     0.000 C 
BRANCH  13  14
ATOM     14  C   UNL     1      63.287  36.426  60.958  1.00  0.00     0.000 C 
BRANCH  14  15
ATOM     15  C   UNL     1      61.817  36.852  60.800  1.00  0.00     0.000 C 
BRANCH  15  16
ATOM     16  C   UNL     1      60.902  35.682  60.397  1.00  0.00     0.000 C 
BRANCH  16  17
ATOM     17  C   UNL     1      60.021  36.010  59.179  1.00  0.00     0.000 C 
BRANCH  17  18
ATOM     18  C   UNL     1      60.488  35.292  57.901  1.00  0.00     0.000 C 
BRANCH  18  19
ATOM     19  C   UNL     1      61.611  36.050  57.175  1.00  0.00     0.000 C 
BRANCH  19  20
ATOM     20  C   UNL     1      62.618  35.109  56.495  1.00  0.00     0.006 C 
BRANCH  20  21
ATOM     21  C   UNL     1      64.040  35.669  56.586  1.00  0.00     0.053 C 
BRANCH  21  22
ATOM     22  C   UNL     1      65.047  34.575  56.429  1.00  0.00     0.041 C 
ATOM     23  O   UNL     1      65.682  34.150  57.431  1.00  0.00    -0.550 OA
ATOM     24  O   UNL     1      65.245  33.983  55.188  1.00  0.00    -0.550 OA
ENDBRANCH  21  22
ENDBRANCH  20  21
ENDBRANCH  19  20
ENDBRANCH  18  19
ENDBRANCH  17  18
ENDBRANCH  16  17
ENDBRANCH  15  16
ENDBRANCH  14  15
ENDBRANCH  13  14
ENDBRANCH   1  13
TORSDOF 20
ENDMDL
MODEL 8
REMARK VINA RESULT:    -3.131      9.876     12.207
REMARK INTER + INTRA:         -10.215
REMARK INTER:                  -7.403
REMARK INTRA:                  -2.812
REMARK UNBOUND:                -3.423
REMARK SMILES CCCCCCCCCCCCCCCCCCCCCC(=O)[O-]
REMARK SMILES IDX 12 1 11 2 10 3 9 4 8 5 7 6 6 7 5 8 4 9 3 10 2 11 1 12 13 13
REMARK SMILES IDX 14 14 15 15 16 16 17 17 18 18 19 19 20 20 21 21 22 22 23 23
REMARK SMILES IDX 24 24
REMARK H PARENT
REMARK Flexibility Score: inf
ROOT
ATOM      1  C   UNL     1      57.507  30.562  52.794  1.00  0.00     0.000 C 
ENDROOT
BRANCH   1   2
ATOM      2  C   UNL     1      56.418  29.586  52.312  1.00  0.00     0.000 C 
BRANCH   2   3
ATOM      3  C   UNL     1      55.097  30.294  51.975  1.00  0.00     0.000 C 
BRANCH   3   4
ATOM      4  C   UNL     1      54.415  29.714  50.727  1.00  0.00    -0.000 C 
BRANCH   4   5
ATOM      5  C   UNL     1      55.303  28.660  50.056  1.00  0.00    -0.000 C 
BRANCH   5   6
ATOM      6  C   UNL     1      54.487  27.429  49.643  1.00  0.00    -0.000 C 
BRANCH   6   7
ATOM      7  C   UNL     1      55.348  26.158  49.680  1.00  0.00    -0.000 C 
BRANCH   7   8
ATOM      8  C   UNL     1      56.715  26.377  50.358  1.00  0.00    -0.000 C 
BRANCH   8   9
ATOM      9  C   UNL     1      56.794  25.860  51.808  1.00  0.00    -0.000 C 
BRANCH   9  10
ATOM     10  C   UNL     1      58.242  25.727  52.333  1.00  0.00    -0.000 C 
BRANCH  10  11
ATOM     11  C   UNL     1      59.092  24.726  51.533  1.00  0.00    -0.003 C 
ATOM     12  C   UNL     1      59.436  23.474  52.335  1.00  0.00     0.004 C 
ENDBRANCH  10  11
ENDBRANCH   9  10
ENDBRANCH   8   9
ENDBRANCH   7   8
ENDBRANCH   6   7
ENDBRANCH   5   6
ENDBRANCH   4   5
ENDBRANCH   3   4
ENDBRANCH   2   3
ENDBRANCH   1   2
BRANCH   1  13
ATOM     13  C   UNL     1      58.804  30.449  51.964  1.00  0.00     0.000 C 
BRANCH  13  14
ATOM     14  C   UNL     1      58.866  29.191  51.079  1.00  0.00     0.000 C 
BRANCH  14  15
ATOM     15  C   UNL     1      58.893  29.462  49.564  1.00  0.00     0.000 C 
BRANCH  15  16
ATOM     16  C   UNL     1      60.007  28.683  48.844  1.00  0.00     0.000 C 
BRANCH  16  17
ATOM     17  C   UNL     1      60.205  27.268  49.412  1.00  0.00     0.000 C 
BRANCH  17  18
ATOM     18  C   UNL     1      61.688  26.920  49.630  1.00  0.00     0.000 C 
BRANCH  18  19
ATOM     19  C   UNL     1      62.593  28.164  49.618  1.00  0.00     0.000 C 
BRANCH  19  20
ATOM     20  C   UNL     1      63.671  28.101  48.525  1.00  0.00     0.006 C 
BRANCH  20  21
ATOM     21  C   UNL     1      64.964  28.778  48.990  1.00  0.00     0.053 C 
BRANCH  21  22
ATOM     22  C   UNL     1      65.129  30.108  48.326  1.00  0.00     0.041 C 
ATOM     23  O   UNL     1      66.016  30.270  47.446  1.00  0.00    -0.550 OA
ATOM     24  O   UNL     1      64.269  31.153  48.636  1.00  0.00    -0.550 OA
ENDBRANCH  21  22
ENDBRANCH  20  21
ENDBRANCH  19  20
ENDBRANCH  18  19
ENDBRANCH  17  18
ENDBRANCH  16  17
ENDBRANCH  15  16
ENDBRANCH  14  15
ENDBRANCH  13  14
ENDBRANCH   1  13
TORSDOF 20
ENDMDL
MODEL 9
REMARK VINA RESULT:    -3.127      4.191      6.190
REMARK INTER + INTRA:         -10.205
REMARK INTER:                  -6.641
REMARK INTRA:                  -3.564
REMARK UNBOUND:                -3.423
REMARK SMILES CCCCCCCCCCCCCCCCCCCCCC(=O)[O-]
REMARK SMILES IDX 12 1 11 2 10 3 9 4 8 5 7 6 6 7 5 8 4 9 3 10 2 11 1 12 13 13
REMARK SMILES IDX 14 14 15 15 16 16 17 17 18 18 19 19 20 20 21 21 22 22 23 23
REMARK SMILES IDX 24 24
REMARK H PARENT
REMARK Flexibility Score: inf
ROOT
ATOM      1  C   UNL     1      63.290  30.351  61.207  1.00  0.00     0.000 C 
ENDROOT
BRANCH   1   2
ATOM      2  C   UNL     1      61.855  30.001  61.643  1.00  0.00     0.000 C 
BRANCH   2   3
ATOM      3  C   UNL     1      60.810  30.968  61.064  1.00  0.00     0.000 C 
BRANCH   3   4
ATOM      4  C   UNL     1      60.162  30.438  59.776  1.00  0.00    -0.000 C 
BRANCH   4   5
ATOM      5  C   UNL     1      60.248  31.476  58.651  1.00  0.00    -0.000 C 
BRANCH   5   6
ATOM      6  C   UNL     1      61.663  31.541  58.065  1.00  0.00    -0.000 C 
BRANCH   6   7
ATOM      7  C   UNL     1      62.301  32.916  58.314  1.00  0.00    -0.000 C 
BRANCH   7   8
ATOM      8  C   UNL     1      63.841  32.871  58.326  1.00  0.00    -0.000 C 
BRANCH   8   9
ATOM      9  C   UNL     1      64.489  33.631  59.501  1.00  0.00    -0.000 C 
BRANCH   9  10
ATOM     10  C   UNL     1      63.507  33.919  60.661  1.00  0.00    -0.000 C 
BRANCH  10  11
ATOM     11  C   UNL     1      63.273  35.418  60.903  1.00  0.00    -0.003 C 
ATOM     12  C   UNL     1      61.839  35.846  60.601  1.00  0.00     0.004 C 
ENDBRANCH  10  11
ENDBRANCH   9  10
ENDBRANCH   8   9
ENDBRANCH   7   8
ENDBRANCH   6   7
ENDBRANCH   5   6
ENDBRANCH   4   5
ENDBRANCH   3   4
ENDBRANCH   2   3
ENDBRANCH   1   2
BRANCH   1  13
ATOM     13  C   UNL     1      64.052  29.124  60.663  1.00  0.00     0.000 C 
BRANCH  13  14
ATOM     14  C   UNL     1      63.962  28.966  59.134  1.00  0.00     0.000 C 
BRANCH  14  15
ATOM     15  C   UNL     1      62.858  28.012  58.644  1.00  0.00     0.000 C 
BRANCH  15  16
ATOM     16  C   UNL     1      62.616  26.840  59.611  1.00  0.00     0.000 C 
BRANCH  16  17
ATOM     17  C   UNL     1      61.173  26.795  60.142  1.00  0.00     0.000 C 
BRANCH  17  18
ATOM     18  C   UNL     1      60.127  26.802  59.014  1.00  0.00     0.000 C 
BRANCH  18  19
ATOM     19  C   UNL     1      58.699  27.034  59.534  1.00  0.00     0.000 C 
BRANCH  19  20
ATOM     20  C   UNL     1      58.623  27.048  61.069  1.00  0.00     0.006 C 
BRANCH  20  21
ATOM     21  C   UNL     1      57.562  26.066  61.574  1.00  0.00     0.053 C 
BRANCH  21  22
ATOM     22  C   UNL     1      56.305  26.791  61.937  1.00  0.00     0.041 C 
ATOM     23  O   UNL     1      55.270  26.145  62.249  1.00  0.00    -0.550 OA
ATOM     24  O   UNL     1      56.291  28.178  61.987  1.00  0.00    -0.550 OA
ENDBRANCH  21  22
ENDBRANCH  20  21
ENDBRANCH  19  20
ENDBRANCH  18  19
ENDBRANCH  17  18
ENDBRANCH  16  17
ENDBRANCH  15  16
ENDBRANCH  14  15
ENDBRANCH  13  14
ENDBRANCH   1  13
TORSDOF 20
ENDMDL
