MODEL 1
REMARK VINA RESULT:    -4.294      0.000      0.000
REMARK INTER + INTRA:         -10.249
REMARK INTER:                  -8.311
REMARK INTRA:                  -1.938
REMARK UNBOUND:                -1.938
REMARK SMILES CCCCCCCCCCCCCCCCCC(=O)[O-]
REMARK SMILES IDX 10 1 11 2 12 3 13 4 14 5 15 6 16 7 17 8 18 9 19 10 20 11
REMARK SMILES IDX 9 12 8 13 7 14 6 15 5 16 4 17 3 18 2 19 1 20
REMARK H PARENT
REMARK Flexibility Score: inf
ROOT
ATOM      1  C   UNL     1      43.924  28.208  16.019  1.00  0.00     0.000 C 
ENDROOT
BRANCH   1   2
ATOM      2  C   UNL     1      45.380  28.695  16.025  1.00  0.00     0.000 C 
BRANCH   2   3
ATOM      3  C   UNL     1      45.744  29.516  14.776  1.00  0.00     0.000 C 
BRANCH   3   4
ATOM      4  C   UNL     1      47.017  29.019  14.058  1.00  0.00     0.000 C 
BRANCH   4   5
ATOM      5  C   UNL     1      48.221  29.945  14.304  1.00  0.00     0.000 C 
BRANCH   5   6
ATOM      6  C   UNL     1      47.828  31.260  14.996  1.00  0.00     0.000 C 
BRANCH   6   7
ATOM      7  C   UNL     1      48.695  32.448  14.545  1.00  0.00     0.006 C 
BRANCH   7   8
ATOM      8  C   UNL     1      50.099  32.408  15.164  1.00  0.00     0.053 C 
BRANCH   8   9
ATOM      9  C   UNL     1      51.149  32.108  14.138  1.00  0.00     0.041 C 
ATOM     10  O   UNL     1      51.944  31.146  14.306  1.00  0.00    -0.550 OA
ATOM     11  O   UNL     1      51.225  32.869  12.978  1.00  0.00    -0.550 OA
ENDBRANCH   8   9
ENDBRANCH   7   8
ENDBRANCH   6   7
ENDBRANCH   5   6
ENDBRANCH   4   5
ENDBRANCH   3   4
ENDBRANCH   2   3
ENDBRANCH   1   2
BRANCH   1  12
ATOM     12  C   UNL     1      43.573  27.502  17.332  1.00  0.00     0.000 C 
BRANCH  12  13
ATOM     13  C   UNL     1      43.255  26.019  17.091  1.00  0.00    -0.000 C 
BRANCH  13  14
ATOM     14  C   UNL     1      44.310  25.081  17.699  1.00  0.00    -0.000 C 
BRANCH  14  15
ATOM     15  C   UNL     1      45.198  25.785  18.740  1.00  0.00    -0.000 C 
BRANCH  15  16
ATOM     16  C   UNL     1      46.691  25.720  18.378  1.00  0.00    -0.000 C 
BRANCH  16  17
ATOM     17  C   UNL     1      46.942  25.019  17.032  1.00  0.00    -0.000 C 
BRANCH  17  18
ATOM     18  C   UNL     1      47.618  25.936  15.997  1.00  0.00    -0.000 C 
BRANCH  18  19
ATOM     19  C   UNL     1      48.641  26.925  16.584  1.00  0.00    -0.003 C 
ATOM     20  C   UNL     1      50.009  26.292  16.834  1.00  0.00     0.004 C 
ENDBRANCH  18  19
ENDBRANCH  17  18
ENDBRANCH  16  17
ENDBRANCH  15  16
ENDBRANCH  14  15
ENDBRANCH  13  14
ENDBRANCH  12  13
ENDBRANCH   1  12
TORSDOF 16
ENDMDL
MODEL 2
REMARK VINA RESULT:    -4.290      4.074      7.653
REMARK INTER + INTRA:         -10.241
REMARK INTER:                  -8.258
REMARK INTRA:                  -1.983
REMARK UNBOUND:                -1.938
REMARK SMILES CCCCCCCCCCCCCCCCCC(=O)[O-]
REMARK SMILES IDX 10 1 11 2 12 3 13 4 14 5 15 6 16 7 17 8 18 9 19 10 20 11
REMARK SMILES IDX 9 12 8 13 7 14 6 15 5 16 4 17 3 18 2 19 1 20
REMARK H PARENT
REMARK Flexibility Score: inf
ROOT
ATOM      1  C   UNL     1      47.785  30.719  14.786  1.00  0.00     0.000 C 
ENDROOT
BRANCH   1   2
ATOM      2  C   UNL     1      46.261  30.574  14.907  1.00  0.00     0.000 C 
BRANCH   2   3
ATOM      3  C   UNL     1      45.784  29.118  14.773  1.00  0.00     0.000 C 
BRANCH   3   4
ATOM      4  C   UNL     1      46.547  28.130  15.680  1.00  0.00     0.000 C 
BRANCH   4   5
ATOM      5  C   UNL     1      45.631  27.483  16.734  1.00  0.00     0.000 C 
BRANCH   5   6
ATOM      6  C   UNL     1      44.167  27.930  16.602  1.00  0.00     0.000 C 
BRANCH   6   7
ATOM      7  C   UNL     1      43.224  27.151  17.537  1.00  0.00     0.006 C 
BRANCH   7   8
ATOM      8  C   UNL     1      43.198  25.650  17.212  1.00  0.00     0.053 C 
BRANCH   8   9
ATOM      9  C   UNL     1      43.514  24.816  18.416  1.00  0.00     0.041 C 
ATOM     10  O   UNL     1      43.726  25.365  19.530  1.00  0.00    -0.550 OA
ATOM     11  O   UNL     1      43.537  23.431  18.315  1.00  0.00    -0.550 OA
ENDBRANCH   8   9
ENDBRANCH   7   8
ENDBRANCH   6   7
ENDBRANCH   5   6
ENDBRANCH   4   5
ENDBRANCH   3   4
ENDBRANCH   2   3
ENDBRANCH   1   2
BRANCH   1  12
ATOM     12  C   UNL     1      48.246  32.105  15.247  1.00  0.00     0.000 C 
BRANCH  12  13
ATOM     13  C   UNL     1      49.729  32.329  14.918  1.00  0.00    -0.000 C 
BRANCH  13  14
ATOM     14  C   UNL     1      49.994  32.405  13.406  1.00  0.00    -0.000 C 
BRANCH  14  15
ATOM     15  C   UNL     1      51.024  31.365  12.931  1.00  0.00    -0.000 C 
BRANCH  15  16
ATOM     16  C   UNL     1      50.390  30.264  12.065  1.00  0.00    -0.000 C 
BRANCH  16  17
ATOM     17  C   UNL     1      50.235  28.934  12.821  1.00  0.00    -0.000 C 
BRANCH  17  18
ATOM     18  C   UNL     1      51.089  28.870  14.100  1.00  0.00    -0.000 C 
BRANCH  18  19
ATOM     19  C   UNL     1      50.348  28.345  15.342  1.00  0.00    -0.003 C 
ATOM     20  C   UNL     1      50.695  29.115  16.616  1.00  0.00     0.004 C 
ENDBRANCH  18  19
ENDBRANCH  17  18
ENDBRANCH  16  17
ENDBRANCH  15  16
ENDBRANCH  14  15
ENDBRANCH  13  14
ENDBRANCH  12  13
ENDBRANCH   1  12
TORSDOF 16
ENDMDL
MODEL 3
REMARK VINA RESULT:    -4.283      3.541      7.379
REMARK INTER + INTRA:         -10.226
REMARK INTER:                  -8.225
REMARK INTRA:                  -2.001
REMARK UNBOUND:                -1.938
REMARK SMILES CCCCCCCCCCCCCCCCCC(=O)[O-]
REMARK SMILES IDX 10 1 11 2 12 3 13 4 14 5 15 6 16 7 17 8 18 9 19 10 20 11
REMARK SMILES IDX 9 12 8 13 7 14 6 15 5 16 4 17 3 18 2 19 1 20
REMARK H PARENT
REMARK Flexibility Score: inf
ROOT
ATOM      1  C   UNL     1      47.800  27.728  15.086  1.00  0.00     0.000 C 
ENDROOT
BRANCH   1   2
ATOM      2  C   UNL     1      46.508  27.914  15.893  1.00  0.00     0.000 C 
BRANCH   2   3
ATOM      3  C   UNL     1      45.506  28.865  15.214  1.00  0.00     0.000 C 
BRANCH   3   4
ATOM      4  C   UNL     1      44.044  28.636  15.650  1.00  0.00     0.000 C 
BRANCH   4   5
ATOM      5  C   UNL     1      43.944  27.746  16.902  1.00  0.00     0.000 C 
BRANCH   5   6
ATOM      6  C   UNL     1      42.860  26.664  16.776  1.00  0.00     0.000 C 
BRANCH   6   7
ATOM      7  C   UNL     1      43.261  25.343  17.456  1.00  0.00     0.006 C 
BRANCH   7   8
ATOM      8  C   UNL     1      43.689  25.551  18.915  1.00  0.00     0.053 C 
BRANCH   8   9
ATOM      9  C   UNL     1      45.047  24.975  19.182  1.00  0.00     0.041 C 
ATOM     10  O   UNL     1      45.329  24.519  20.322  1.00  0.00    -0.550 OA
ATOM     11  O   UNL     1      45.986  24.908  18.161  1.00  0.00    -0.550 OA
ENDBRANCH   8   9
ENDBRANCH   7   8
ENDBRANCH   6   7
ENDBRANCH   5   6
ENDBRANCH   4   5
ENDBRANCH   3   4
ENDBRANCH   2   3
ENDBRANCH   1   2
BRANCH   1  12
ATOM     12  C   UNL     1      47.640  28.263  13.659  1.00  0.00     0.000 C 
BRANCH  12  13
ATOM     13  C   UNL     1      48.895  29.031  13.216  1.00  0.00    -0.000 C 
BRANCH  13  14
ATOM     14  C   UNL     1      50.182  28.475  13.847  1.00  0.00    -0.000 C 
BRANCH  14  15
ATOM     15  C   UNL     1      51.154  29.584  14.283  1.00  0.00    -0.000 C 
BRANCH  15  16
ATOM     16  C   UNL     1      51.057  29.892  15.787  1.00  0.00    -0.000 C 
BRANCH  16  17
ATOM     17  C   UNL     1      50.403  31.255  16.069  1.00  0.00    -0.000 C 
BRANCH  17  18
ATOM     18  C   UNL     1      50.332  32.154  14.822  1.00  0.00    -0.000 C 
BRANCH  18  19
ATOM     19  C   UNL     1      48.906  32.505  14.362  1.00  0.00    -0.003 C 
ATOM     20  C   UNL     1      47.823  31.870  15.234  1.00  0.00     0.004 C 
ENDBRANCH  18  19
ENDBRANCH  17  18
ENDBRANCH  16  17
ENDBRANCH  15  16
ENDBRANCH  14  15
ENDBRANCH  13  14
ENDBRANCH  12  13
ENDBRANCH   1  12
TORSDOF 16
ENDMDL
MODEL 4
REMARK VINA RESULT:    -4.278      2.860      6.761
REMARK INTER + INTRA:         -10.217
REMARK INTER:                  -8.207
REMARK INTRA:                  -2.011
REMARK UNBOUND:                -1.938
REMARK SMILES CCCCCCCCCCCCCCCCCC(=O)[O-]
REMARK SMILES IDX 10 1 11 2 12 3 13 4 14 5 15 6 16 7 17 8 18 9 19 10 20 11
REMARK SMILES IDX 9 12 8 13 7 14 6 15 5 16 4 17 3 18 2 19 1 20
REMARK H PARENT
REMARK Flexibility Score: inf
ROOT
ATOM      1  C   UNL     1      45.390  28.956  15.071  1.00  0.00     0.000 C 
ENDROOT
BRANCH   1   2
ATOM      2  C   UNL     1      43.966  28.593  15.513  1.00  0.00     0.000 C 
BRANCH   2   3
ATOM      3  C   UNL     1      43.934  27.718  16.778  1.00  0.00     0.000 C 
BRANCH   3   4
ATOM      4  C   UNL     1      42.792  26.680  16.784  1.00  0.00     0.000 C 
BRANCH   4   5
ATOM      5  C   UNL     1      43.200  25.373  17.486  1.00  0.00     0.000 C 
BRANCH   5   6
ATOM      6  C   UNL     1      44.045  25.614  18.747  1.00  0.00     0.000 C 
BRANCH   6   7
ATOM      7  C   UNL     1      45.281  24.700  18.815  1.00  0.00     0.006 C 
BRANCH   7   8
ATOM      8  C   UNL     1      46.482  25.293  18.066  1.00  0.00     0.053 C 
BRANCH   8   9
ATOM      9  C   UNL     1      47.499  25.862  19.008  1.00  0.00     0.041 C 
ATOM     10  O   UNL     1      47.453  25.581  20.235  1.00  0.00    -0.550 OA
ATOM     11  O   UNL     1      48.518  26.672  18.525  1.00  0.00    -0.550 OA
ENDBRANCH   8   9
ENDBRANCH   7   8
ENDBRANCH   6   7
ENDBRANCH   5   6
ENDBRANCH   4   5
ENDBRANCH   3   4
ENDBRANCH   2   3
ENDBRANCH   1   2
BRANCH   1  12
ATOM     12  C   UNL     1      46.435  28.238  15.932  1.00  0.00     0.000 C 
BRANCH  12  13
ATOM     13  C   UNL     1      47.757  28.073  15.167  1.00  0.00    -0.000 C 
BRANCH  13  14
ATOM     14  C   UNL     1      47.570  28.131  13.643  1.00  0.00    -0.000 C 
BRANCH  14  15
ATOM     15  C   UNL     1      48.759  28.794  12.926  1.00  0.00    -0.000 C 
BRANCH  15  16
ATOM     16  C   UNL     1      49.656  29.589  13.888  1.00  0.00    -0.000 C 
BRANCH  16  17
ATOM     17  C   UNL     1      50.159  30.906  13.274  1.00  0.00    -0.000 C 
BRANCH  17  18
ATOM     18  C   UNL     1      49.546  32.150  13.942  1.00  0.00    -0.000 C 
BRANCH  18  19
ATOM     19  C   UNL     1      48.849  31.881  15.287  1.00  0.00    -0.003 C 
ATOM     20  C   UNL     1      47.333  32.066  15.223  1.00  0.00     0.004 C 
ENDBRANCH  18  19
ENDBRANCH  17  18
ENDBRANCH  16  17
ENDBRANCH  15  16
ENDBRANCH  14  15
ENDBRANCH  13  14
ENDBRANCH  12  13
ENDBRANCH   1  12
TORSDOF 16
ENDMDL
MODEL 5
REMARK VINA RESULT:    -4.270      3.938      7.312
REMARK INTER + INTRA:         -10.202
REMARK INTER:                  -8.122
REMARK INTRA:                  -2.080
REMARK UNBOUND:                -1.938
REMARK SMILES CCCCCCCCCCCCCCCCCC(=O)[O-]
REMARK SMILES IDX 10 1 11 2 12 3 13 4 14 5 15 6 16 7 17 8 18 9 19 10 20 11
REMARK SMILES IDX 9 12 8 13 7 14 6 15 5 16 4 17 3 18 2 19 1 20
REMARK H PARENT
REMARK Flexibility Score: inf
ROOT
ATOM      1  C   UNL     1      48.514  32.423  14.689  1.00  0.00     0.000 C 
ENDROOT
BRANCH   1   2
ATOM      2  C   UNL     1      47.301  31.671  15.252  1.00  0.00     0.000 C 
BRANCH   2   3
ATOM      3  C   UNL     1      47.264  30.191  14.832  1.00  0.00     0.000 C 
BRANCH   3   4
ATOM      4  C   UNL     1      45.862  29.702  14.412  1.00  0.00     0.000 C 
BRANCH   4   5
ATOM      5  C   UNL     1      45.108  29.034  15.576  1.00  0.00     0.000 C 
BRANCH   5   6
ATOM      6  C   UNL     1      45.851  27.814  16.143  1.00  0.00     0.000 C 
BRANCH   6   7
ATOM      7  C   UNL     1      45.205  27.273  17.431  1.00  0.00     0.006 C 
BRANCH   7   8
ATOM      8  C   UNL     1      43.675  27.213  17.329  1.00  0.00     0.053 C 
BRANCH   8   9
ATOM      9  C   UNL     1      43.162  25.815  17.498  1.00  0.00     0.041 C 
ATOM     10  O   UNL     1      42.609  25.222  16.534  1.00  0.00    -0.550 OA
ATOM     11  O   UNL     1      43.327  25.156  18.709  1.00  0.00    -0.550 OA
ENDBRANCH   8   9
ENDBRANCH   7   8
ENDBRANCH   6   7
ENDBRANCH   5   6
ENDBRANCH   4   5
ENDBRANCH   3   4
ENDBRANCH   2   3
ENDBRANCH   1   2
BRANCH   1  12
ATOM     12  C   UNL     1      49.795  32.050  15.443  1.00  0.00     0.000 C 
BRANCH  12  13
ATOM     13  C   UNL     1      50.845  31.464  14.487  1.00  0.00    -0.000 C 
BRANCH  13  14
ATOM     14  C   UNL     1      50.535  31.767  13.012  1.00  0.00    -0.000 C 
BRANCH  14  15
ATOM     15  C   UNL     1      50.393  30.491  12.163  1.00  0.00    -0.000 C 
BRANCH  15  16
ATOM     16  C   UNL     1      50.838  29.229  12.921  1.00  0.00    -0.000 C 
BRANCH  16  17
ATOM     17  C   UNL     1      49.738  28.156  12.976  1.00  0.00    -0.000 C 
BRANCH  17  18
ATOM     18  C   UNL     1      50.043  27.039  13.991  1.00  0.00    -0.000 C 
BRANCH  18  19
ATOM     19  C   UNL     1      49.279  27.155  15.322  1.00  0.00    -0.003 C 
ATOM     20  C   UNL     1      49.973  28.070  16.331  1.00  0.00     0.004 C 
ENDBRANCH  18  19
ENDBRANCH  17  18
ENDBRANCH  16  17
ENDBRANCH  15  16
ENDBRANCH  14  15
ENDBRANCH  13  14
ENDBRANCH  12  13
ENDBRANCH   1  12
TORSDOF 16
ENDMDL
MODEL 6
REMARK VINA RESULT:    -4.216      3.758      7.192
REMARK INTER + INTRA:         -10.098
REMARK INTER:                  -8.177
REMARK INTRA:                  -1.921
REMARK UNBOUND:                -1.938
REMARK SMILES CCCCCCCCCCCCCCCCCC(=O)[O-]
REMARK SMILES IDX 10 1 11 2 12 3 13 4 14 5 15 6 16 7 17 8 18 9 19 10 20 11
REMARK SMILES IDX 9 12 8 13 7 14 6 15 5 16 4 17 3 18 2 19 1 20
REMARK H PARENT
REMARK Flexibility Score: inf
ROOT
ATOM      1  C   UNL     1      47.440  31.352  14.893  1.00  0.00     0.000 C 
ENDROOT
BRANCH   1   2
ATOM      2  C   UNL     1      47.955  29.983  14.427  1.00  0.00     0.000 C 
BRANCH   2   3
ATOM      3  C   UNL     1      46.822  28.992  14.109  1.00  0.00     0.000 C 
BRANCH   3   4
ATOM      4  C   UNL     1      45.515  29.279  14.878  1.00  0.00     0.000 C 
BRANCH   4   5
ATOM      5  C   UNL     1      45.323  28.324  16.070  1.00  0.00     0.000 C 
BRANCH   5   6
ATOM      6  C   UNL     1      43.847  27.973  16.318  1.00  0.00     0.000 C 
BRANCH   6   7
ATOM      7  C   UNL     1      43.627  27.254  17.660  1.00  0.00     0.006 C 
BRANCH   7   8
ATOM      8  C   UNL     1      44.880  26.497  18.124  1.00  0.00     0.053 C 
BRANCH   8   9
ATOM      9  C   UNL     1      44.539  25.383  19.065  1.00  0.00     0.041 C 
ATOM     10  O   UNL     1      43.390  25.315  19.577  1.00  0.00    -0.550 OA
ATOM     11  O   UNL     1      45.478  24.399  19.347  1.00  0.00    -0.550 OA
ENDBRANCH   8   9
ENDBRANCH   7   8
ENDBRANCH   6   7
ENDBRANCH   5   6
ENDBRANCH   4   5
ENDBRANCH   3   4
ENDBRANCH   2   3
ENDBRANCH   1   2
BRANCH   1  12
ATOM     12  C   UNL     1      48.575  32.380  14.944  1.00  0.00     0.000 C 
BRANCH  12  13
ATOM     13  C   UNL     1      49.624  32.095  13.859  1.00  0.00    -0.000 C 
BRANCH  13  14
ATOM     14  C   UNL     1      51.023  31.836  14.441  1.00  0.00    -0.000 C 
BRANCH  14  15
ATOM     15  C   UNL     1      51.004  31.656  15.969  1.00  0.00    -0.000 C 
BRANCH  15  16
ATOM     16  C   UNL     1      51.129  30.182  16.388  1.00  0.00    -0.000 C 
BRANCH  16  17
ATOM     17  C   UNL     1      51.552  29.271  15.223  1.00  0.00    -0.000 C 
BRANCH  17  18
ATOM     18  C   UNL     1      50.844  27.905  15.244  1.00  0.00    -0.000 C 
BRANCH  18  19
ATOM     19  C   UNL     1      50.366  27.449  16.634  1.00  0.00    -0.003 C 
ATOM     20  C   UNL     1      48.863  27.179  16.691  1.00  0.00     0.004 C 
ENDBRANCH  18  19
ENDBRANCH  17  18
ENDBRANCH  16  17
ENDBRANCH  15  16
ENDBRANCH  14  15
ENDBRANCH  13  14
ENDBRANCH  12  13
ENDBRANCH   1  12
TORSDOF 16
ENDMDL
MODEL 7
REMARK VINA RESULT:    -4.207      1.007      1.970
REMARK INTER + INTRA:         -10.080
REMARK INTER:                  -8.034
REMARK INTRA:                  -2.046
REMARK UNBOUND:                -1.938
REMARK SMILES CCCCCCCCCCCCCCCCCC(=O)[O-]
REMARK SMILES IDX 10 1 11 2 12 3 13 4 14 5 15 6 16 7 17 8 18 9 19 10 20 11
REMARK SMILES IDX 9 12 8 13 7 14 6 15 5 16 4 17 3 18 2 19 1 20
REMARK H PARENT
REMARK Flexibility Score: inf
ROOT
ATOM      1  C   UNL     1      42.852  26.132  16.785  1.00  0.00     0.000 C 
ENDROOT
BRANCH   1   2
ATOM      2  C   UNL     1      43.569  27.426  17.195  1.00  0.00     0.000 C 
BRANCH   2   3
ATOM      3  C   UNL     1      44.016  28.273  15.990  1.00  0.00     0.000 C 
BRANCH   3   4
ATOM      4  C   UNL     1      45.510  28.657  16.024  1.00  0.00     0.000 C 
BRANCH   4   5
ATOM      5  C   UNL     1      45.970  29.317  14.711  1.00  0.00     0.000 C 
BRANCH   5   6
ATOM      6  C   UNL     1      46.546  30.725  14.924  1.00  0.00     0.000 C 
BRANCH   6   7
ATOM      7  C   UNL     1      48.064  30.786  14.679  1.00  0.00     0.006 C 
BRANCH   7   8
ATOM      8  C   UNL     1      48.692  32.067  15.246  1.00  0.00     0.053 C 
BRANCH   8   9
ATOM      9  C   UNL     1      50.176  32.093  15.047  1.00  0.00     0.041 C 
ATOM     10  O   UNL     1      50.661  32.454  13.942  1.00  0.00    -0.550 OA
ATOM     11  O   UNL     1      51.025  31.756  16.094  1.00  0.00    -0.550 OA
ENDBRANCH   8   9
ENDBRANCH   7   8
ENDBRANCH   6   7
ENDBRANCH   5   6
ENDBRANCH   4   5
ENDBRANCH   3   4
ENDBRANCH   2   3
ENDBRANCH   1   2
BRANCH   1  12
ATOM     12  C   UNL     1      43.279  24.960  17.674  1.00  0.00     0.000 C 
BRANCH  12  13
ATOM     13  C   UNL     1      44.135  25.447  18.853  1.00  0.00    -0.000 C 
BRANCH  13  14
ATOM     14  C   UNL     1      45.411  24.612  19.042  1.00  0.00    -0.000 C 
BRANCH  14  15
ATOM     15  C   UNL     1      46.659  25.482  19.272  1.00  0.00    -0.000 C 
BRANCH  15  16
ATOM     16  C   UNL     1      47.107  26.215  17.997  1.00  0.00    -0.000 C 
BRANCH  16  17
ATOM     17  C   UNL     1      47.042  25.320  16.748  1.00  0.00    -0.000 C 
BRANCH  17  18
ATOM     18  C   UNL     1      48.051  25.734  15.662  1.00  0.00    -0.000 C 
BRANCH  18  19
ATOM     19  C   UNL     1      48.763  27.074  15.922  1.00  0.00    -0.003 C 
ATOM     20  C   UNL     1      49.685  27.494  14.778  1.00  0.00     0.004 C 
ENDBRANCH  18  19
ENDBRANCH  17  18
ENDBRANCH  16  17
ENDBRANCH  15  16
ENDBRANCH  14  15
ENDBRANCH  13  14
ENDBRANCH  12  13
ENDBRANCH   1  12
TORSDOF 16
ENDMDL
MODEL 8
REMARK VINA RESULT:    -4.175      2.618      6.063
REMARK INTER + INTRA:         -10.018
REMARK INTER:                  -7.779
REMARK INTRA:                  -2.239
REMARK UNBOUND:                -1.938
REMARK SMILES CCCCCCCCCCCCCCCCCC(=O)[O-]
REMARK SMILES IDX 10 1 11 2 12 3 13 4 14 5 15 6 16 7 17 8 18 9 19 10 20 11
REMARK SMILES IDX 9 12 8 13 7 14 6 15 5 16 4 17 3 18 2 19 1 20
REMARK H PARENT
REMARK Flexibility Score: inf
ROOT
ATOM      1  C   UNL     1      43.993  28.260  15.981  1.00  0.00     0.000 C 
ENDROOT
BRANCH   1   2
ATOM      2  C   UNL     1      44.610  27.506  17.167  1.00  0.00     0.000 C 
BRANCH   2   3
ATOM      3  C   UNL     1      43.822  26.241  17.550  1.00  0.00     0.000 C 
BRANCH   3   4
ATOM      4  C   UNL     1      44.647  24.942  17.440  1.00  0.00     0.000 C 
BRANCH   4   5
ATOM      5  C   UNL     1      46.099  25.134  17.914  1.00  0.00     0.000 C 
BRANCH   5   6
ATOM      6  C   UNL     1      47.125  24.904  16.793  1.00  0.00     0.000 C 
BRANCH   6   7
ATOM      7  C   UNL     1      48.451  25.643  17.044  1.00  0.00     0.006 C 
BRANCH   7   8
ATOM      8  C   UNL     1      48.278  26.838  17.992  1.00  0.00     0.053 C 
BRANCH   8   9
ATOM      9  C   UNL     1      49.264  26.801  19.119  1.00  0.00     0.041 C 
ATOM     10  O   UNL     1      49.627  27.868  19.680  1.00  0.00    -0.550 OA
ATOM     11  O   UNL     1      49.753  25.582  19.575  1.00  0.00    -0.550 OA
ENDBRANCH   8   9
ENDBRANCH   7   8
ENDBRANCH   6   7
ENDBRANCH   5   6
ENDBRANCH   4   5
ENDBRANCH   3   4
ENDBRANCH   2   3
ENDBRANCH   1   2
BRANCH   1  12
ATOM     12  C   UNL     1      45.058  29.051  15.214  1.00  0.00     0.000 C 
BRANCH  12  13
ATOM     13  C   UNL     1      46.416  28.335  15.265  1.00  0.00    -0.000 C 
BRANCH  13  14
ATOM     14  C   UNL     1      47.148  28.357  13.914  1.00  0.00    -0.000 C 
BRANCH  14  15
ATOM     15  C   UNL     1      48.575  27.791  14.004  1.00  0.00    -0.000 C 
BRANCH  15  16
ATOM     16  C   UNL     1      49.646  28.895  13.999  1.00  0.00    -0.000 C 
BRANCH  16  17
ATOM     17  C   UNL     1      49.149  30.196  13.349  1.00  0.00    -0.000 C 
BRANCH  17  18
ATOM     18  C   UNL     1      49.899  31.442  13.854  1.00  0.00    -0.000 C 
BRANCH  18  19
ATOM     19  C   UNL     1      49.022  32.465  14.597  1.00  0.00    -0.003 C 
ATOM     20  C   UNL     1      47.725  31.861  15.136  1.00  0.00     0.004 C 
ENDBRANCH  18  19
ENDBRANCH  17  18
ENDBRANCH  16  17
ENDBRANCH  15  16
ENDBRANCH  14  15
ENDBRANCH  13  14
ENDBRANCH  12  13
ENDBRANCH   1  12
TORSDOF 16
ENDMDL
MODEL 9
REMARK VINA RESULT:    -4.163      1.601      2.950
REMARK INTER + INTRA:          -9.994
REMARK INTER:                  -7.960
REMARK INTRA:                  -2.034
REMARK UNBOUND:                -1.938
REMARK SMILES CCCCCCCCCCCCCCCCCC(=O)[O-]
REMARK SMILES IDX 10 1 11 2 12 3 13 4 14 5 15 6 16 7 17 8 18 9 19 10 20 11
REMARK SMILES IDX 9 12 8 13 7 14 6 15 5 16 4 17 3 18 2 19 1 20
REMARK H PARENT
REMARK Flexibility Score: inf
ROOT
ATOM      1  C   UNL     1      45.901  29.426  14.806  1.00  0.00     0.000 C 
ENDROOT
BRANCH   1   2
ATOM      2  C   UNL     1      47.123  28.893  14.046  1.00  0.00     0.000 C 
BRANCH   2   3
ATOM      3  C   UNL     1      48.209  28.326  14.978  1.00  0.00     0.000 C 
BRANCH   3   4
ATOM      4  C   UNL     1      49.642  28.488  14.429  1.00  0.00     0.000 C 
BRANCH   4   5
ATOM      5  C   UNL     1      49.676  28.497  12.889  1.00  0.00     0.000 C 
BRANCH   5   6
ATOM      6  C   UNL     1      50.163  29.836  12.314  1.00  0.00     0.000 C 
BRANCH   6   7
ATOM      7  C   UNL     1      50.726  30.775  13.395  1.00  0.00     0.006 C 
BRANCH   7   8
ATOM      8  C   UNL     1      49.870  32.037  13.568  1.00  0.00     0.053 C 
BRANCH   8   9
ATOM      9  C   UNL     1      49.180  32.062  14.898  1.00  0.00     0.041 C 
ATOM     10  O   UNL     1      47.965  32.384  14.976  1.00  0.00    -0.550 OA
ATOM     11  O   UNL     1      49.870  31.694  16.046  1.00  0.00    -0.550 OA
ENDBRANCH   8   9
ENDBRANCH   7   8
ENDBRANCH   6   7
ENDBRANCH   5   6
ENDBRANCH   4   5
ENDBRANCH   3   4
ENDBRANCH   2   3
ENDBRANCH   1   2
BRANCH   1  12
ATOM     12  C   UNL     1      45.527  28.501  15.969  1.00  0.00     0.000 C 
BRANCH  12  13
ATOM     13  C   UNL     1      44.014  28.238  15.996  1.00  0.00    -0.000 C 
BRANCH  13  14
ATOM     14  C   UNL     1      43.565  27.501  17.268  1.00  0.00    -0.000 C 
BRANCH  14  15
ATOM     15  C   UNL     1      42.919  26.137  16.966  1.00  0.00    -0.000 C 
BRANCH  15  16
ATOM     16  C   UNL     1      43.597  24.985  17.725  1.00  0.00    -0.000 C 
BRANCH  16  17
ATOM     17  C   UNL     1      44.379  25.469  18.957  1.00  0.00    -0.000 C 
BRANCH  17  18
ATOM     18  C   UNL     1      45.842  24.992  18.962  1.00  0.00    -0.000 C 
BRANCH  18  19
ATOM     19  C   UNL     1      46.801  25.844  18.112  1.00  0.00    -0.003 C 
ATOM     20  C   UNL     1      47.143  25.199  16.769  1.00  0.00     0.004 C 
ENDBRANCH  18  19
ENDBRANCH  17  18
ENDBRANCH  16  17
ENDBRANCH  15  16
ENDBRANCH  14  15
ENDBRANCH  13  14
ENDBRANCH  12  13
ENDBRANCH   1  12
TORSDOF 16
ENDMDL
