MODEL 1
REMARK VINA RESULT:    -5.480      0.000      0.000
REMARK INTER + INTRA:         -17.561
REMARK INTER:                 -13.808
REMARK INTRA:                  -3.753
REMARK UNBOUND:                -3.753
REMARK SMILES CCCCCCCCCCCCCCCCCCCCCCCCCCCC(=O)[O-]
REMARK SMILES IDX 15 1 16 2 17 3 18 4 19 5 20 6 21 7 22 8 23 9 24 10 25 11
REMARK SMILES IDX 26 12 27 13 28 14 29 15 30 16 14 17 13 18 12 19 11 20 10 21
REMARK SMILES IDX 9 22 8 23 7 24 6 25 5 26 4 27 3 28 2 29 1 30
REMARK H PARENT
REMARK Flexibility Score: inf
ROOT
ATOM      1  C   UNL     1     -19.613  40.687  91.804  1.00  0.00     0.000 C 
ENDROOT
BRANCH   1   2
ATOM      2  C   UNL     1     -21.099  40.860  91.439  1.00  0.00     0.000 C 
BRANCH   2   3
ATOM      3  C   UNL     1     -21.310  41.711  90.173  1.00  0.00     0.000 C 
BRANCH   3   4
ATOM      4  C   UNL     1     -22.354  42.839  90.286  1.00  0.00     0.000 C 
BRANCH   4   5
ATOM      5  C   UNL     1     -22.864  43.381  88.934  1.00  0.00     0.000 C 
BRANCH   5   6
ATOM      6  C   UNL     1     -22.354  44.801  88.627  1.00  0.00     0.000 C 
BRANCH   6   7
ATOM      7  C   UNL     1     -22.978  45.402  87.349  1.00  0.00     0.000 C 
BRANCH   7   8
ATOM      8  C   UNL     1     -23.984  46.540  87.616  1.00  0.00     0.000 C 
BRANCH   8   9
ATOM      9  C   UNL     1     -25.431  46.257  87.178  1.00  0.00     0.000 C 
BRANCH   9  10
ATOM     10  C   UNL     1     -26.239  45.500  88.251  1.00  0.00     0.000 C 
BRANCH  10  11
ATOM     11  C   UNL     1     -25.848  45.880  89.690  1.00  0.00     0.000 C 
BRANCH  11  12
ATOM     12  C   UNL     1     -26.488  45.020  90.800  1.00  0.00     0.006 C 
BRANCH  12  13
ATOM     13  C   UNL     1     -26.584  43.519  90.466  1.00  0.00     0.053 C 
BRANCH  13  14
ATOM     14  C   UNL     1     -27.984  43.085  90.151  1.00  0.00     0.041 C 
ATOM     15  O   UNL     1     -28.941  43.429  90.896  1.00  0.00    -0.550 OA
ATOM     16  O   UNL     1     -28.242  42.336  89.008  1.00  0.00    -0.550 OA
ENDBRANCH  13  14
ENDBRANCH  12  13
ENDBRANCH  11  12
ENDBRANCH  10  11
ENDBRANCH   9  10
ENDBRANCH   8   9
ENDBRANCH   7   8
ENDBRANCH   6   7
ENDBRANCH   5   6
ENDBRANCH   4   5
ENDBRANCH   3   4
ENDBRANCH   2   3
ENDBRANCH   1   2
BRANCH   1  17
ATOM     17  C   UNL     1     -18.678  40.894  90.600  1.00  0.00     0.000 C 
BRANCH  17  18
ATOM     18  C   UNL     1     -17.901  39.639  90.164  1.00  0.00     0.000 C 
BRANCH  18  19
ATOM     19  C   UNL     1     -18.671  38.335  90.443  1.00  0.00     0.000 C 
BRANCH  19  20
ATOM     20  C   UNL     1     -19.249  37.705  89.166  1.00  0.00     0.000 C 
BRANCH  20  21
ATOM     21  C   UNL     1     -20.571  38.365  88.731  1.00  0.00     0.000 C 
BRANCH  21  22
ATOM     22  C   UNL     1     -20.606  38.654  87.216  1.00  0.00    -0.000 C 
BRANCH  22  23
ATOM     23  C   UNL     1     -20.998  40.105  86.869  1.00  0.00    -0.000 C 
BRANCH  23  24
ATOM     24  C   UNL     1     -19.850  41.123  86.949  1.00  0.00    -0.000 C 
BRANCH  24  25
ATOM     25  C   UNL     1     -20.266  42.521  86.464  1.00  0.00    -0.000 C 
BRANCH  25  26
ATOM     26  C   UNL     1     -19.106  43.222  85.744  1.00  0.00    -0.000 C 
BRANCH  26  27
ATOM     27  C   UNL     1     -19.471  44.675  85.403  1.00  0.00    -0.000 C 
BRANCH  27  28
ATOM     28  C   UNL     1     -20.827  44.797  84.682  1.00  0.00    -0.000 C 
BRANCH  28  29
ATOM     29  C   UNL     1     -20.997  46.078  83.844  1.00  0.00    -0.003 C 
ATOM     30  C   UNL     1     -19.927  46.232  82.762  1.00  0.00     0.004 C 
ENDBRANCH  28  29
ENDBRANCH  27  28
ENDBRANCH  26  27
ENDBRANCH  25  26
ENDBRANCH  24  25
ENDBRANCH  23  24
ENDBRANCH  22  23
ENDBRANCH  21  22
ENDBRANCH  20  21
ENDBRANCH  19  20
ENDBRANCH  18  19
ENDBRANCH  17  18
ENDBRANCH   1  17
TORSDOF 26
ENDMDL
MODEL 2
REMARK VINA RESULT:    -5.258      4.917      8.831
REMARK INTER + INTRA:         -17.002
REMARK INTER:                 -14.127
REMARK INTRA:                  -2.875
REMARK UNBOUND:                -3.753
REMARK SMILES CCCCCCCCCCCCCCCCCCCCCCCCCCCC(=O)[O-]
REMARK SMILES IDX 15 1 16 2 17 3 18 4 19 5 20 6 21 7 22 8 23 9 24 10 25 11
REMARK SMILES IDX 26 12 27 13 28 14 29 15 30 16 14 17 13 18 12 19 11 20 10 21
REMARK SMILES IDX 9 22 8 23 7 24 6 25 5 26 4 27 3 28 2 29 1 30
REMARK H PARENT
REMARK Flexibility Score: inf
ROOT
ATOM      1  C   UNL     1     -19.109  40.672  90.476  1.00  0.00     0.000 C 
ENDROOT
BRANCH   1   2
ATOM      2  C   UNL     1     -20.127  39.819  91.255  1.00  0.00     0.000 C 
BRANCH   2   3
ATOM      3  C   UNL     1     -20.302  38.407  90.668  1.00  0.00     0.000 C 
BRANCH   3   4
ATOM      4  C   UNL     1     -19.100  37.854  89.876  1.00  0.00     0.000 C 
BRANCH   4   5
ATOM      5  C   UNL     1     -19.422  37.446  88.423  1.00  0.00     0.000 C 
BRANCH   5   6
ATOM      6  C   UNL     1     -20.758  38.024  87.919  1.00  0.00     0.000 C 
BRANCH   6   7
ATOM      7  C   UNL     1     -20.623  38.773  86.577  1.00  0.00     0.000 C 
BRANCH   7   8
ATOM      8  C   UNL     1     -19.326  38.453  85.806  1.00  0.00     0.000 C 
BRANCH   8   9
ATOM      9  C   UNL     1     -19.517  37.688  84.485  1.00  0.00     0.000 C 
BRANCH   9  10
ATOM     10  C   UNL     1     -18.282  36.847  84.102  1.00  0.00     0.000 C 
BRANCH  10  11
ATOM     11  C   UNL     1     -17.322  37.574  83.145  1.00  0.00     0.000 C 
BRANCH  11  12
ATOM     12  C   UNL     1     -16.591  36.672  82.128  1.00  0.00     0.006 C 
BRANCH  12  13
ATOM     13  C   UNL     1     -17.369  35.405  81.726  1.00  0.00     0.053 C 
BRANCH  13  14
ATOM     14  C   UNL     1     -17.886  35.466  80.319  1.00  0.00     0.041 C 
ATOM     15  O   UNL     1     -17.871  34.438  79.589  1.00  0.00    -0.550 OA
ATOM     16  O   UNL     1     -18.426  36.648  79.825  1.00  0.00    -0.550 OA
ENDBRANCH  13  14
ENDBRANCH  12  13
ENDBRANCH  11  12
ENDBRANCH  10  11
ENDBRANCH   9  10
ENDBRANCH   8   9
ENDBRANCH   7   8
ENDBRANCH   6   7
ENDBRANCH   5   6
ENDBRANCH   4   5
ENDBRANCH   3   4
ENDBRANCH   2   3
ENDBRANCH   1   2
BRANCH   1  17
ATOM     17  C   UNL     1     -19.685  41.231  89.163  1.00  0.00     0.000 C 
BRANCH  17  18
ATOM     18  C   UNL     1     -21.078  41.875  89.294  1.00  0.00     0.000 C 
BRANCH  18  19
ATOM     19  C   UNL     1     -21.765  42.090  87.934  1.00  0.00     0.000 C 
BRANCH  19  20
ATOM     20  C   UNL     1     -22.992  43.010  88.031  1.00  0.00     0.000 C 
BRANCH  20  21
ATOM     21  C   UNL     1     -22.792  44.155  89.042  1.00  0.00     0.000 C 
BRANCH  21  22
ATOM     22  C   UNL     1     -22.531  45.507  88.345  1.00  0.00    -0.000 C 
BRANCH  22  23
ATOM     23  C   UNL     1     -22.292  45.387  86.826  1.00  0.00    -0.000 C 
BRANCH  23  24
ATOM     24  C   UNL     1     -21.747  46.656  86.154  1.00  0.00    -0.000 C 
BRANCH  24  25
ATOM     25  C   UNL     1     -21.482  46.461  84.652  1.00  0.00    -0.000 C 
BRANCH  25  26
ATOM     26  C   UNL     1     -20.042  46.852  84.292  1.00  0.00    -0.000 C 
BRANCH  26  27
ATOM     27  C   UNL     1     -19.441  45.861  83.283  1.00  0.00    -0.000 C 
BRANCH  27  28
ATOM     28  C   UNL     1     -18.212  45.116  83.837  1.00  0.00    -0.000 C 
BRANCH  28  29
ATOM     29  C   UNL     1     -18.289  44.775  85.336  1.00  0.00    -0.003 C 
ATOM     30  C   UNL     1     -19.199  43.581  85.632  1.00  0.00     0.004 C 
ENDBRANCH  28  29
ENDBRANCH  27  28
ENDBRANCH  26  27
ENDBRANCH  25  26
ENDBRANCH  24  25
ENDBRANCH  23  24
ENDBRANCH  22  23
ENDBRANCH  21  22
ENDBRANCH  20  21
ENDBRANCH  19  20
ENDBRANCH  18  19
ENDBRANCH  17  18
ENDBRANCH   1  17
TORSDOF 26
ENDMDL
MODEL 3
REMARK VINA RESULT:    -5.168      3.682      4.879
REMARK INTER + INTRA:         -16.776
REMARK INTER:                 -14.138
REMARK INTRA:                  -2.638
REMARK UNBOUND:                -3.753
REMARK SMILES CCCCCCCCCCCCCCCCCCCCCCCCCCCC(=O)[O-]
REMARK SMILES IDX 15 1 16 2 17 3 18 4 19 5 20 6 21 7 22 8 23 9 24 10 25 11
REMARK SMILES IDX 26 12 27 13 28 14 29 15 30 16 14 17 13 18 12 19 11 20 10 21
REMARK SMILES IDX 9 22 8 23 7 24 6 25 5 26 4 27 3 28 2 29 1 30
REMARK H PARENT
REMARK Flexibility Score: inf
ROOT
ATOM      1  C   UNL     1     -22.043  41.943  87.861  1.00  0.00     0.000 C 
ENDROOT
BRANCH   1   2
ATOM      2  C   UNL     1     -22.852  43.236  88.079  1.00  0.00     0.000 C 
BRANCH   2   3
ATOM      3  C   UNL     1     -22.232  44.159  89.144  1.00  0.00     0.000 C 
BRANCH   3   4
ATOM      4  C   UNL     1     -21.795  45.553  88.654  1.00  0.00     0.000 C 
BRANCH   4   5
ATOM      5  C   UNL     1     -21.665  45.683  87.121  1.00  0.00     0.000 C 
BRANCH   5   6
ATOM      6  C   UNL     1     -22.267  46.992  86.577  1.00  0.00     0.000 C 
BRANCH   6   7
ATOM      7  C   UNL     1     -23.673  46.802  85.971  1.00  0.00     0.000 C 
BRANCH   7   8
ATOM      8  C   UNL     1     -24.824  46.991  86.981  1.00  0.00     0.000 C 
BRANCH   8   9
ATOM      9  C   UNL     1     -25.556  45.702  87.395  1.00  0.00     0.000 C 
BRANCH   9  10
ATOM     10  C   UNL     1     -26.339  45.862  88.714  1.00  0.00     0.000 C 
BRANCH  10  11
ATOM     11  C   UNL     1     -25.508  45.516  89.962  1.00  0.00     0.000 C 
BRANCH  11  12
ATOM     12  C   UNL     1     -25.645  44.065  90.468  1.00  0.00     0.006 C 
BRANCH  12  13
ATOM     13  C   UNL     1     -26.886  43.811  91.345  1.00  0.00     0.053 C 
BRANCH  13  14
ATOM     14  C   UNL     1     -27.929  42.990  90.648  1.00  0.00     0.041 C 
ATOM     15  O   UNL     1     -27.677  42.448  89.537  1.00  0.00    -0.550 OA
ATOM     16  O   UNL     1     -29.169  42.785  91.243  1.00  0.00    -0.550 OA
ENDBRANCH  13  14
ENDBRANCH  12  13
ENDBRANCH  11  12
ENDBRANCH  10  11
ENDBRANCH   9  10
ENDBRANCH   8   9
ENDBRANCH   7   8
ENDBRANCH   6   7
ENDBRANCH   5   6
ENDBRANCH   4   5
ENDBRANCH   3   4
ENDBRANCH   2   3
ENDBRANCH   1   2
BRANCH   1  17
ATOM     17  C   UNL     1     -20.597  42.055  88.376  1.00  0.00     0.000 C 
BRANCH  17  18
ATOM     18  C   UNL     1     -20.142  40.890  89.275  1.00  0.00     0.000 C 
BRANCH  18  19
ATOM     19  C   UNL     1     -20.933  39.594  89.017  1.00  0.00     0.000 C 
BRANCH  19  20
ATOM     20  C   UNL     1     -20.136  38.569  88.196  1.00  0.00     0.000 C 
BRANCH  20  21
ATOM     21  C   UNL     1     -19.581  39.165  86.888  1.00  0.00     0.000 C 
BRANCH  21  22
ATOM     22  C   UNL     1     -20.024  38.359  85.648  1.00  0.00    -0.000 C 
BRANCH  22  23
ATOM     23  C   UNL     1     -18.892  38.115  84.630  1.00  0.00    -0.000 C 
BRANCH  23  24
ATOM     24  C   UNL     1     -19.152  36.974  83.633  1.00  0.00    -0.000 C 
BRANCH  24  25
ATOM     25  C   UNL     1     -17.866  36.230  83.240  1.00  0.00    -0.000 C 
BRANCH  25  26
ATOM     26  C   UNL     1     -17.168  36.922  82.062  1.00  0.00    -0.000 C 
BRANCH  26  27
ATOM     27  C   UNL     1     -16.871  35.920  80.935  1.00  0.00    -0.000 C 
BRANCH  27  28
ATOM     28  C   UNL     1     -18.093  35.654  80.035  1.00  0.00    -0.000 C 
BRANCH  28  29
ATOM     29  C   UNL     1     -18.930  36.903  79.702  1.00  0.00    -0.003 C 
ATOM     30  C   UNL     1     -18.790  37.346  78.245  1.00  0.00     0.004 C 
ENDBRANCH  28  29
ENDBRANCH  27  28
ENDBRANCH  26  27
ENDBRANCH  25  26
ENDBRANCH  24  25
ENDBRANCH  23  24
ENDBRANCH  22  23
ENDBRANCH  21  22
ENDBRANCH  20  21
ENDBRANCH  19  20
ENDBRANCH  18  19
ENDBRANCH  17  18
ENDBRANCH   1  17
TORSDOF 26
ENDMDL
MODEL 4
REMARK VINA RESULT:    -5.159      2.999      7.952
REMARK INTER + INTRA:         -16.752
REMARK INTER:                 -13.248
REMARK INTRA:                  -3.504
REMARK UNBOUND:                -3.753
REMARK SMILES CCCCCCCCCCCCCCCCCCCCCCCCCCCC(=O)[O-]
REMARK SMILES IDX 15 1 16 2 17 3 18 4 19 5 20 6 21 7 22 8 23 9 24 10 25 11
REMARK SMILES IDX 26 12 27 13 28 14 29 15 30 16 14 17 13 18 12 19 11 20 10 21
REMARK SMILES IDX 9 22 8 23 7 24 6 25 5 26 4 27 3 28 2 29 1 30
REMARK H PARENT
REMARK Flexibility Score: inf
ROOT
ATOM      1  C   UNL     1     -21.440  40.980  91.531  1.00  0.00     0.000 C 
ENDROOT
BRANCH   1   2
ATOM      2  C   UNL     1     -20.037  40.586  92.028  1.00  0.00     0.000 C 
BRANCH   2   3
ATOM      3  C   UNL     1     -18.911  41.069  91.095  1.00  0.00     0.000 C 
BRANCH   3   4
ATOM      4  C   UNL     1     -18.205  39.975  90.271  1.00  0.00     0.000 C 
BRANCH   4   5
ATOM      5  C   UNL     1     -18.499  38.532  90.732  1.00  0.00     0.000 C 
BRANCH   5   6
ATOM      6  C   UNL     1     -19.328  37.733  89.709  1.00  0.00     0.000 C 
BRANCH   6   7
ATOM      7  C   UNL     1     -20.276  38.621  88.876  1.00  0.00     0.000 C 
BRANCH   7   8
ATOM      8  C   UNL     1     -20.210  38.359  87.357  1.00  0.00     0.000 C 
BRANCH   8   9
ATOM      9  C   UNL     1     -19.779  39.562  86.499  1.00  0.00     0.000 C 
BRANCH   9  10
ATOM     10  C   UNL     1     -19.786  40.887  87.288  1.00  0.00     0.000 C 
BRANCH  10  11
ATOM     11  C   UNL     1     -20.423  42.054  86.514  1.00  0.00     0.000 C 
BRANCH  11  12
ATOM     12  C   UNL     1     -19.431  42.988  85.789  1.00  0.00     0.006 C 
BRANCH  12  13
ATOM     13  C   UNL     1     -19.762  44.488  85.913  1.00  0.00     0.053 C 
BRANCH  13  14
ATOM     14  C   UNL     1     -19.210  45.297  84.778  1.00  0.00     0.041 C 
ATOM     15  O   UNL     1     -19.655  46.454  84.543  1.00  0.00    -0.550 OA
ATOM     16  O   UNL     1     -18.172  44.794  84.002  1.00  0.00    -0.550 OA
ENDBRANCH  13  14
ENDBRANCH  12  13
ENDBRANCH  11  12
ENDBRANCH  10  11
ENDBRANCH   9  10
ENDBRANCH   8   9
ENDBRANCH   7   8
ENDBRANCH   6   7
ENDBRANCH   5   6
ENDBRANCH   4   5
ENDBRANCH   3   4
ENDBRANCH   2   3
ENDBRANCH   1   2
BRANCH   1  17
ATOM     17  C   UNL     1     -21.395  41.888  90.289  1.00  0.00     0.000 C 
BRANCH  17  18
ATOM     18  C   UNL     1     -22.472  42.987  90.256  1.00  0.00     0.000 C 
BRANCH  18  19
ATOM     19  C   UNL     1     -22.551  43.704  88.896  1.00  0.00     0.000 C 
BRANCH  19  20
ATOM     20  C   UNL     1     -21.715  44.993  88.859  1.00  0.00     0.000 C 
BRANCH  20  21
ATOM     21  C   UNL     1     -22.499  46.187  88.282  1.00  0.00     0.000 C 
BRANCH  21  22
ATOM     22  C   UNL     1     -23.067  45.887  86.879  1.00  0.00    -0.000 C 
BRANCH  22  23
ATOM     23  C   UNL     1     -24.462  46.496  86.630  1.00  0.00    -0.000 C 
BRANCH  23  24
ATOM     24  C   UNL     1     -25.627  45.738  87.287  1.00  0.00    -0.000 C 
BRANCH  24  25
ATOM     25  C   UNL     1     -26.322  46.559  88.384  1.00  0.00    -0.000 C 
BRANCH  25  26
ATOM     26  C   UNL     1     -25.604  46.396  89.731  1.00  0.00    -0.000 C 
BRANCH  26  27
ATOM     27  C   UNL     1     -26.425  45.517  90.687  1.00  0.00    -0.000 C 
BRANCH  27  28
ATOM     28  C   UNL     1     -26.392  44.025  90.303  1.00  0.00    -0.000 C 
BRANCH  28  29
ATOM     29  C   UNL     1     -27.337  43.129  91.124  1.00  0.00    -0.003 C 
ATOM     30  C   UNL     1     -28.805  43.281  90.721  1.00  0.00     0.004 C 
ENDBRANCH  28  29
ENDBRANCH  27  28
ENDBRANCH  26  27
ENDBRANCH  25  26
ENDBRANCH  24  25
ENDBRANCH  23  24
ENDBRANCH  22  23
ENDBRANCH  21  22
ENDBRANCH  20  21
ENDBRANCH  19  20
ENDBRANCH  18  19
ENDBRANCH  17  18
ENDBRANCH   1  17
TORSDOF 26
ENDMDL
MODEL 5
REMARK VINA RESULT:    -5.137      1.773      4.538
REMARK INTER + INTRA:         -16.699
REMARK INTER:                 -13.541
REMARK INTRA:                  -3.158
REMARK UNBOUND:                -3.753
REMARK SMILES CCCCCCCCCCCCCCCCCCCCCCCCCCCC(=O)[O-]
REMARK SMILES IDX 15 1 16 2 17 3 18 4 19 5 20 6 21 7 22 8 23 9 24 10 25 11
REMARK SMILES IDX 26 12 27 13 28 14 29 15 30 16 14 17 13 18 12 19 11 20 10 21
REMARK SMILES IDX 9 22 8 23 7 24 6 25 5 26 4 27 3 28 2 29 1 30
REMARK H PARENT
REMARK Flexibility Score: inf
ROOT
ATOM      1  C   UNL     1     -21.316  42.288  86.963  1.00  0.00     0.000 C 
ENDROOT
BRANCH   1   2
ATOM      2  C   UNL     1     -19.850  42.106  86.529  1.00  0.00     0.000 C 
BRANCH   2   3
ATOM      3  C   UNL     1     -19.299  43.316  85.754  1.00  0.00     0.000 C 
BRANCH   3   4
ATOM      4  C   UNL     1     -20.000  44.662  86.019  1.00  0.00     0.000 C 
BRANCH   4   5
ATOM      5  C   UNL     1     -20.773  45.233  84.811  1.00  0.00     0.000 C 
BRANCH   5   6
ATOM      6  C   UNL     1     -21.745  46.363  85.201  1.00  0.00     0.000 C 
BRANCH   6   7
ATOM      7  C   UNL     1     -21.595  46.807  86.671  1.00  0.00     0.000 C 
BRANCH   7   8
ATOM      8  C   UNL     1     -22.885  46.664  87.505  1.00  0.00     0.000 C 
BRANCH   8   9
ATOM      9  C   UNL     1     -22.926  45.452  88.453  1.00  0.00     0.000 C 
BRANCH   9  10
ATOM     10  C   UNL     1     -24.132  44.529  88.183  1.00  0.00     0.000 C 
BRANCH  10  11
ATOM     11  C   UNL     1     -25.415  44.975  88.905  1.00  0.00     0.000 C 
BRANCH  11  12
ATOM     12  C   UNL     1     -25.740  44.218  90.209  1.00  0.00     0.006 C 
BRANCH  12  13
ATOM     13  C   UNL     1     -27.166  44.453  90.743  1.00  0.00     0.053 C 
BRANCH  13  14
ATOM     14  C   UNL     1     -28.085  43.301  90.465  1.00  0.00     0.041 C 
ATOM     15  O   UNL     1     -29.200  43.219  91.049  1.00  0.00    -0.550 OA
ATOM     16  O   UNL     1     -27.731  42.337  89.528  1.00  0.00    -0.550 OA
ENDBRANCH  13  14
ENDBRANCH  12  13
ENDBRANCH  11  12
ENDBRANCH  10  11
ENDBRANCH   9  10
ENDBRANCH   8   9
ENDBRANCH   7   8
ENDBRANCH   6   7
ENDBRANCH   5   6
ENDBRANCH   4   5
ENDBRANCH   3   4
ENDBRANCH   2   3
ENDBRANCH   1   2
BRANCH   1  17
ATOM     17  C   UNL     1     -21.540  41.954  88.449  1.00  0.00     0.000 C 
BRANCH  17  18
ATOM     18  C   UNL     1     -20.263  41.582  89.225  1.00  0.00     0.000 C 
BRANCH  18  19
ATOM     19  C   UNL     1     -20.560  40.856  90.550  1.00  0.00     0.000 C 
BRANCH  19  20
ATOM     20  C   UNL     1     -19.309  40.689  91.425  1.00  0.00     0.000 C 
BRANCH  20  21
ATOM     21  C   UNL     1     -19.050  39.220  91.809  1.00  0.00     0.000 C 
BRANCH  21  22
ATOM     22  C   UNL     1     -18.382  38.429  90.666  1.00  0.00    -0.000 C 
BRANCH  22  23
ATOM     23  C   UNL     1     -19.383  37.699  89.748  1.00  0.00    -0.000 C 
BRANCH  23  24
ATOM     24  C   UNL     1     -19.390  38.176  88.287  1.00  0.00    -0.000 C 
BRANCH  24  25
ATOM     25  C   UNL     1     -20.805  38.230  87.690  1.00  0.00    -0.000 C 
BRANCH  25  26
ATOM     26  C   UNL     1     -20.759  38.584  86.197  1.00  0.00    -0.000 C 
BRANCH  26  27
ATOM     27  C   UNL     1     -19.390  38.237  85.593  1.00  0.00    -0.000 C 
BRANCH  27  28
ATOM     28  C   UNL     1     -19.501  37.526  84.231  1.00  0.00    -0.000 C 
BRANCH  28  29
ATOM     29  C   UNL     1     -18.153  37.247  83.539  1.00  0.00    -0.003 C 
ATOM     30  C   UNL     1     -17.427  36.029  84.114  1.00  0.00     0.004 C 
ENDBRANCH  28  29
ENDBRANCH  27  28
ENDBRANCH  26  27
ENDBRANCH  25  26
ENDBRANCH  24  25
ENDBRANCH  23  24
ENDBRANCH  22  23
ENDBRANCH  21  22
ENDBRANCH  20  21
ENDBRANCH  19  20
ENDBRANCH  18  19
ENDBRANCH  17  18
ENDBRANCH   1  17
TORSDOF 26
ENDMDL
MODEL 6
REMARK VINA RESULT:    -5.079      1.106      5.272
REMARK INTER + INTRA:         -16.551
REMARK INTER:                 -13.091
REMARK INTRA:                  -3.460
REMARK UNBOUND:                -3.753
REMARK SMILES CCCCCCCCCCCCCCCCCCCCCCCCCCCC(=O)[O-]
REMARK SMILES IDX 15 1 16 2 17 3 18 4 19 5 20 6 21 7 22 8 23 9 24 10 25 11
REMARK SMILES IDX 26 12 27 13 28 14 29 15 30 16 14 17 13 18 12 19 11 20 10 21
REMARK SMILES IDX 9 22 8 23 7 24 6 25 5 26 4 27 3 28 2 29 1 30
REMARK H PARENT
REMARK Flexibility Score: inf
ROOT
ATOM      1  C   UNL     1     -19.116  43.172  85.791  1.00  0.00     0.000 C 
ENDROOT
BRANCH   1   2
ATOM      2  C   UNL     1     -19.205  44.708  85.724  1.00  0.00     0.000 C 
BRANCH   2   3
ATOM      3  C   UNL     1     -19.303  45.241  84.283  1.00  0.00     0.000 C 
BRANCH   3   4
ATOM      4  C   UNL     1     -20.679  45.791  83.860  1.00  0.00     0.000 C 
BRANCH   4   5
ATOM      5  C   UNL     1     -21.162  47.010  84.676  1.00  0.00     0.000 C 
BRANCH   5   6
ATOM      6  C   UNL     1     -22.445  46.725  85.478  1.00  0.00     0.000 C 
BRANCH   6   7
ATOM      7  C   UNL     1     -22.280  46.984  86.990  1.00  0.00     0.000 C 
BRANCH   7   8
ATOM      8  C   UNL     1     -23.602  46.935  87.784  1.00  0.00     0.000 C 
BRANCH   8   9
ATOM      9  C   UNL     1     -24.394  45.621  87.666  1.00  0.00     0.000 C 
BRANCH   9  10
ATOM     10  C   UNL     1     -25.306  45.367  88.883  1.00  0.00     0.000 C 
BRANCH  10  11
ATOM     11  C   UNL     1     -24.994  44.050  89.615  1.00  0.00     0.000 C 
BRANCH  11  12
ATOM     12  C   UNL     1     -25.831  43.782  90.883  1.00  0.00     0.006 C 
BRANCH  12  13
ATOM     13  C   UNL     1     -27.306  44.215  90.776  1.00  0.00     0.053 C 
BRANCH  13  14
ATOM     14  C   UNL     1     -28.228  43.066  90.499  1.00  0.00     0.041 C 
ATOM     15  O   UNL     1     -28.918  42.563  91.428  1.00  0.00    -0.550 OA
ATOM     16  O   UNL     1     -28.362  42.574  89.205  1.00  0.00    -0.550 OA
ENDBRANCH  13  14
ENDBRANCH  12  13
ENDBRANCH  11  12
ENDBRANCH  10  11
ENDBRANCH   9  10
ENDBRANCH   8   9
ENDBRANCH   7   8
ENDBRANCH   6   7
ENDBRANCH   5   6
ENDBRANCH   4   5
ENDBRANCH   3   4
ENDBRANCH   2   3
ENDBRANCH   1   2
BRANCH   1  17
ATOM     17  C   UNL     1     -20.311  42.541  86.527  1.00  0.00     0.000 C 
BRANCH  17  18
ATOM     18  C   UNL     1     -21.309  43.553  87.120  1.00  0.00     0.000 C 
BRANCH  18  19
ATOM     19  C   UNL     1     -21.277  43.590  88.659  1.00  0.00     0.000 C 
BRANCH  19  20
ATOM     20  C   UNL     1     -21.262  42.186  89.283  1.00  0.00     0.000 C 
BRANCH  20  21
ATOM     21  C   UNL     1     -22.029  42.126  90.618  1.00  0.00     0.000 C 
BRANCH  21  22
ATOM     22  C   UNL     1     -21.391  41.134  91.612  1.00  0.00    -0.000 C 
BRANCH  22  23
ATOM     23  C   UNL     1     -19.928  40.777  91.280  1.00  0.00    -0.000 C 
BRANCH  23  24
ATOM     24  C   UNL     1     -19.449  39.425  91.835  1.00  0.00    -0.000 C 
BRANCH  24  25
ATOM     25  C   UNL     1     -18.000  39.104  91.435  1.00  0.00    -0.000 C 
BRANCH  25  26
ATOM     26  C   UNL     1     -17.947  38.409  90.068  1.00  0.00    -0.000 C 
BRANCH  26  27
ATOM     27  C   UNL     1     -19.108  37.413  89.914  1.00  0.00    -0.000 C 
BRANCH  27  28
ATOM     28  C   UNL     1     -20.063  37.782  88.763  1.00  0.00    -0.000 C 
BRANCH  28  29
ATOM     29  C   UNL     1     -19.653  39.033  87.964  1.00  0.00    -0.003 C 
ATOM     30  C   UNL     1     -20.046  38.954  86.487  1.00  0.00     0.004 C 
ENDBRANCH  28  29
ENDBRANCH  27  28
ENDBRANCH  26  27
ENDBRANCH  25  26
ENDBRANCH  24  25
ENDBRANCH  23  24
ENDBRANCH  22  23
ENDBRANCH  21  22
ENDBRANCH  20  21
ENDBRANCH  19  20
ENDBRANCH  18  19
ENDBRANCH  17  18
ENDBRANCH   1  17
TORSDOF 26
ENDMDL
MODEL 7
REMARK VINA RESULT:    -5.070      2.903      8.316
REMARK INTER + INTRA:         -16.529
REMARK INTER:                 -13.464
REMARK INTRA:                  -3.066
REMARK UNBOUND:                -3.753
REMARK SMILES CCCCCCCCCCCCCCCCCCCCCCCCCCCC(=O)[O-]
REMARK SMILES IDX 15 1 16 2 17 3 18 4 19 5 20 6 21 7 22 8 23 9 24 10 25 11
REMARK SMILES IDX 26 12 27 13 28 14 29 15 30 16 14 17 13 18 12 19 11 20 10 21
REMARK SMILES IDX 9 22 8 23 7 24 6 25 5 26 4 27 3 28 2 29 1 30
REMARK H PARENT
REMARK Flexibility Score: inf
ROOT
ATOM      1  C   UNL     1     -19.224  43.216  85.761  1.00  0.00     0.000 C 
ENDROOT
BRANCH   1   2
ATOM      2  C   UNL     1     -20.596  43.123  86.454  1.00  0.00     0.000 C 
BRANCH   2   3
ATOM      3  C   UNL     1     -20.604  43.756  87.857  1.00  0.00     0.000 C 
BRANCH   3   4
ATOM      4  C   UNL     1     -21.474  43.046  88.912  1.00  0.00     0.000 C 
BRANCH   4   5
ATOM      5  C   UNL     1     -21.048  41.596  89.226  1.00  0.00     0.000 C 
BRANCH   5   6
ATOM      6  C   UNL     1     -20.855  41.340  90.733  1.00  0.00     0.000 C 
BRANCH   6   7
ATOM      7  C   UNL     1     -21.044  39.859  91.121  1.00  0.00     0.000 C 
BRANCH   7   8
ATOM      8  C   UNL     1     -19.892  39.279  91.967  1.00  0.00     0.000 C 
BRANCH   8   9
ATOM      9  C   UNL     1     -18.476  39.649  91.494  1.00  0.00     0.000 C 
BRANCH   9  10
ATOM     10  C   UNL     1     -18.118  39.011  90.136  1.00  0.00     0.000 C 
BRANCH  10  11
ATOM     11  C   UNL     1     -18.564  37.544  90.015  1.00  0.00     0.000 C 
BRANCH  11  12
ATOM     12  C   UNL     1     -19.148  37.139  88.646  1.00  0.00     0.006 C 
BRANCH  12  13
ATOM     13  C   UNL     1     -20.293  38.042  88.150  1.00  0.00     0.053 C 
BRANCH  13  14
ATOM     14  C   UNL     1     -19.972  38.723  86.853  1.00  0.00     0.041 C 
ATOM     15  O   UNL     1     -19.387  39.841  86.847  1.00  0.00    -0.550 OA
ATOM     16  O   UNL     1     -20.279  38.106  85.646  1.00  0.00    -0.550 OA
ENDBRANCH  13  14
ENDBRANCH  12  13
ENDBRANCH  11  12
ENDBRANCH  10  11
ENDBRANCH   9  10
ENDBRANCH   8   9
ENDBRANCH   7   8
ENDBRANCH   6   7
ENDBRANCH   5   6
ENDBRANCH   4   5
ENDBRANCH   3   4
ENDBRANCH   2   3
ENDBRANCH   1   2
BRANCH   1  17
ATOM     17  C   UNL     1     -18.721  44.665  85.635  1.00  0.00     0.000 C 
BRANCH  17  18
ATOM     18  C   UNL     1     -18.053  44.999  84.289  1.00  0.00     0.000 C 
BRANCH  18  19
ATOM     19  C   UNL     1     -18.795  46.103  83.513  1.00  0.00     0.000 C 
BRANCH  19  20
ATOM     20  C   UNL     1     -20.321  45.927  83.551  1.00  0.00     0.000 C 
BRANCH  20  21
ATOM     21  C   UNL     1     -21.006  46.930  84.498  1.00  0.00     0.000 C 
BRANCH  21  22
ATOM     22  C   UNL     1     -22.139  46.276  85.318  1.00  0.00    -0.000 C 
BRANCH  22  23
ATOM     23  C   UNL     1     -22.266  46.829  86.751  1.00  0.00    -0.000 C 
BRANCH  23  24
ATOM     24  C   UNL     1     -23.689  46.797  87.334  1.00  0.00    -0.000 C 
BRANCH  24  25
ATOM     25  C   UNL     1     -24.160  45.372  87.664  1.00  0.00    -0.000 C 
BRANCH  25  26
ATOM     26  C   UNL     1     -24.671  45.283  89.108  1.00  0.00    -0.000 C 
BRANCH  26  27
ATOM     27  C   UNL     1     -24.968  43.825  89.496  1.00  0.00    -0.000 C 
BRANCH  27  28
ATOM     28  C   UNL     1     -26.172  43.694  90.447  1.00  0.00    -0.000 C 
BRANCH  28  29
ATOM     29  C   UNL     1     -27.461  43.171  89.786  1.00  0.00    -0.003 C 
ATOM     30  C   UNL     1     -28.544  42.800  90.800  1.00  0.00     0.004 C 
ENDBRANCH  28  29
ENDBRANCH  27  28
ENDBRANCH  26  27
ENDBRANCH  25  26
ENDBRANCH  24  25
ENDBRANCH  23  24
ENDBRANCH  22  23
ENDBRANCH  21  22
ENDBRANCH  20  21
ENDBRANCH  19  20
ENDBRANCH  18  19
ENDBRANCH  17  18
ENDBRANCH   1  17
TORSDOF 26
ENDMDL
MODEL 8
REMARK VINA RESULT:    -5.057      3.136      4.923
REMARK INTER + INTRA:         -16.496
REMARK INTER:                 -13.962
REMARK INTRA:                  -2.534
REMARK UNBOUND:                -3.753
REMARK SMILES CCCCCCCCCCCCCCCCCCCCCCCCCCCC(=O)[O-]
REMARK SMILES IDX 15 1 16 2 17 3 18 4 19 5 20 6 21 7 22 8 23 9 24 10 25 11
REMARK SMILES IDX 26 12 27 13 28 14 29 15 30 16 14 17 13 18 12 19 11 20 10 21
REMARK SMILES IDX 9 22 8 23 7 24 6 25 5 26 4 27 3 28 2 29 1 30
REMARK H PARENT
REMARK Flexibility Score: inf
ROOT
ATOM      1  C   UNL     1     -21.010  41.572  88.860  1.00  0.00     0.000 C 
ENDROOT
BRANCH   1   2
ATOM      2  C   UNL     1     -20.652  42.816  88.025  1.00  0.00     0.000 C 
BRANCH   2   3
ATOM      3  C   UNL     1     -20.528  42.514  86.521  1.00  0.00     0.000 C 
BRANCH   3   4
ATOM      4  C   UNL     1     -19.328  43.160  85.801  1.00  0.00     0.000 C 
BRANCH   4   5
ATOM      5  C   UNL     1     -19.507  44.658  85.471  1.00  0.00     0.000 C 
BRANCH   5   6
ATOM      6  C   UNL     1     -20.801  44.949  84.689  1.00  0.00     0.000 C 
BRANCH   6   7
ATOM      7  C   UNL     1     -21.619  46.112  85.289  1.00  0.00     0.000 C 
BRANCH   7   8
ATOM      8  C   UNL     1     -21.547  46.203  86.827  1.00  0.00     0.000 C 
BRANCH   8   9
ATOM      9  C   UNL     1     -22.889  46.451  87.537  1.00  0.00     0.000 C 
BRANCH   9  10
ATOM     10  C   UNL     1     -23.106  45.512  88.741  1.00  0.00     0.000 C 
BRANCH  10  11
ATOM     11  C   UNL     1     -24.215  44.471  88.511  1.00  0.00     0.000 C 
BRANCH  11  12
ATOM     12  C   UNL     1     -25.076  44.135  89.747  1.00  0.00     0.006 C 
BRANCH  12  13
ATOM     13  C   UNL     1     -26.595  44.264  89.518  1.00  0.00     0.053 C 
BRANCH  13  14
ATOM     14  C   UNL     1     -27.394  43.388  90.435  1.00  0.00     0.041 C 
ATOM     15  O   UNL     1     -28.283  42.623  89.972  1.00  0.00    -0.550 OA
ATOM     16  O   UNL     1     -27.128  43.379  91.800  1.00  0.00    -0.550 OA
ENDBRANCH  13  14
ENDBRANCH  12  13
ENDBRANCH  11  12
ENDBRANCH  10  11
ENDBRANCH   9  10
ENDBRANCH   8   9
ENDBRANCH   7   8
ENDBRANCH   6   7
ENDBRANCH   5   6
ENDBRANCH   4   5
ENDBRANCH   3   4
ENDBRANCH   2   3
ENDBRANCH   1   2
BRANCH   1  17
ATOM     17  C   UNL     1     -19.895  41.179  89.845  1.00  0.00     0.000 C 
BRANCH  17  18
ATOM     18  C   UNL     1     -20.341  40.238  90.979  1.00  0.00     0.000 C 
BRANCH  18  19
ATOM     19  C   UNL     1     -20.437  38.768  90.531  1.00  0.00     0.000 C 
BRANCH  19  20
ATOM     20  C   UNL     1     -19.172  38.289  89.803  1.00  0.00     0.000 C 
BRANCH  20  21
ATOM     21  C   UNL     1     -19.494  37.464  88.543  1.00  0.00     0.000 C 
BRANCH  21  22
ATOM     22  C   UNL     1     -20.489  38.189  87.612  1.00  0.00    -0.000 C 
BRANCH  22  23
ATOM     23  C   UNL     1     -19.899  38.552  86.235  1.00  0.00    -0.000 C 
BRANCH  23  24
ATOM     24  C   UNL     1     -19.089  37.433  85.561  1.00  0.00    -0.000 C 
BRANCH  24  25
ATOM     25  C   UNL     1     -19.120  37.524  84.027  1.00  0.00    -0.000 C 
BRANCH  25  26
ATOM     26  C   UNL     1     -17.698  37.567  83.450  1.00  0.00    -0.000 C 
BRANCH  26  27
ATOM     27  C   UNL     1     -17.108  36.152  83.339  1.00  0.00    -0.000 C 
BRANCH  27  28
ATOM     28  C   UNL     1     -16.476  35.875  81.962  1.00  0.00    -0.000 C 
BRANCH  28  29
ATOM     29  C   UNL     1     -17.421  36.091  80.765  1.00  0.00    -0.003 C 
ATOM     30  C   UNL     1     -17.966  34.782  80.192  1.00  0.00     0.004 C 
ENDBRANCH  28  29
ENDBRANCH  27  28
ENDBRANCH  26  27
ENDBRANCH  25  26
ENDBRANCH  24  25
ENDBRANCH  23  24
ENDBRANCH  22  23
ENDBRANCH  21  22
ENDBRANCH  20  21
ENDBRANCH  19  20
ENDBRANCH  18  19
ENDBRANCH  17  18
ENDBRANCH   1  17
TORSDOF 26
ENDMDL
MODEL 9
REMARK VINA RESULT:    -5.042      4.821      9.214
REMARK INTER + INTRA:         -16.458
REMARK INTER:                 -13.793
REMARK INTRA:                  -2.665
REMARK UNBOUND:                -3.753
REMARK SMILES CCCCCCCCCCCCCCCCCCCCCCCCCCCC(=O)[O-]
REMARK SMILES IDX 15 1 16 2 17 3 18 4 19 5 20 6 21 7 22 8 23 9 24 10 25 11
REMARK SMILES IDX 26 12 27 13 28 14 29 15 30 16 14 17 13 18 12 19 11 20 10 21
REMARK SMILES IDX 9 22 8 23 7 24 6 25 5 26 4 27 3 28 2 29 1 30
REMARK H PARENT
REMARK Flexibility Score: inf
ROOT
ATOM      1  C   UNL     1     -20.550  41.593  89.648  1.00  0.00     0.000 C 
ENDROOT
BRANCH   1   2
ATOM      2  C   UNL     1     -20.881  41.084  91.064  1.00  0.00     0.000 C 
BRANCH   2   3
ATOM      3  C   UNL     1     -21.043  39.554  91.129  1.00  0.00     0.000 C 
BRANCH   3   4
ATOM      4  C   UNL     1     -19.744  38.734  91.012  1.00  0.00     0.000 C 
BRANCH   4   5
ATOM      5  C   UNL     1     -19.705  37.761  89.814  1.00  0.00     0.000 C 
BRANCH   5   6
ATOM      6  C   UNL     1     -19.540  38.480  88.463  1.00  0.00     0.000 C 
BRANCH   6   7
ATOM      7  C   UNL     1     -20.823  38.452  87.605  1.00  0.00     0.000 C 
BRANCH   7   8
ATOM      8  C   UNL     1     -20.565  38.519  86.086  1.00  0.00     0.000 C 
BRANCH   8   9
ATOM      9  C   UNL     1     -19.215  37.944  85.620  1.00  0.00     0.000 C 
BRANCH   9  10
ATOM     10  C   UNL     1     -19.239  37.494  84.146  1.00  0.00     0.000 C 
BRANCH  10  11
ATOM     11  C   UNL     1     -18.012  36.657  83.744  1.00  0.00     0.000 C 
BRANCH  11  12
ATOM     12  C   UNL     1     -17.344  37.057  82.411  1.00  0.00     0.006 C 
BRANCH  12  13
ATOM     13  C   UNL     1     -18.205  36.786  81.162  1.00  0.00     0.053 C 
BRANCH  13  14
ATOM     14  C   UNL     1     -17.937  35.441  80.556  1.00  0.00     0.041 C 
ATOM     15  O   UNL     1     -18.208  35.222  79.344  1.00  0.00    -0.550 OA
ATOM     16  O   UNL     1     -17.345  34.438  81.316  1.00  0.00    -0.550 OA
ENDBRANCH  13  14
ENDBRANCH  12  13
ENDBRANCH  11  12
ENDBRANCH  10  11
ENDBRANCH   9  10
ENDBRANCH   8   9
ENDBRANCH   7   8
ENDBRANCH   6   7
ENDBRANCH   5   6
ENDBRANCH   4   5
ENDBRANCH   3   4
ENDBRANCH   2   3
ENDBRANCH   1   2
BRANCH   1  17
ATOM     17  C   UNL     1     -21.765  42.228  88.948  1.00  0.00     0.000 C 
BRANCH  17  18
ATOM     18  C   UNL     1     -21.631  42.358  87.420  1.00  0.00     0.000 C 
BRANCH  18  19
ATOM     19  C   UNL     1     -20.187  42.152  86.928  1.00  0.00     0.000 C 
BRANCH  19  20
ATOM     20  C   UNL     1     -19.820  43.088  85.766  1.00  0.00     0.000 C 
BRANCH  20  21
ATOM     21  C   UNL     1     -19.915  44.575  86.154  1.00  0.00     0.000 C 
BRANCH  21  22
ATOM     22  C   UNL     1     -21.057  45.299  85.411  1.00  0.00    -0.000 C 
BRANCH  22  23
ATOM     23  C   UNL     1     -21.802  46.336  86.277  1.00  0.00    -0.000 C 
BRANCH  23  24
ATOM     24  C   UNL     1     -22.851  45.747  87.234  1.00  0.00    -0.000 C 
BRANCH  24  25
ATOM     25  C   UNL     1     -24.290  46.072  86.805  1.00  0.00    -0.000 C 
BRANCH  25  26
ATOM     26  C   UNL     1     -25.305  45.483  87.794  1.00  0.00    -0.000 C 
BRANCH  26  27
ATOM     27  C   UNL     1     -24.678  45.311  89.186  1.00  0.00    -0.000 C 
BRANCH  27  28
ATOM     28  C   UNL     1     -24.974  43.933  89.807  1.00  0.00    -0.000 C 
BRANCH  28  29
ATOM     29  C   UNL     1     -25.965  43.958  90.986  1.00  0.00    -0.003 C 
ATOM     30  C   UNL     1     -27.391  44.314  90.560  1.00  0.00     0.004 C 
ENDBRANCH  28  29
ENDBRANCH  27  28
ENDBRANCH  26  27
ENDBRANCH  25  26
ENDBRANCH  24  25
ENDBRANCH  23  24
ENDBRANCH  22  23
ENDBRANCH  21  22
ENDBRANCH  20  21
ENDBRANCH  19  20
ENDBRANCH  18  19
ENDBRANCH  17  18
ENDBRANCH   1  17
TORSDOF 26
ENDMDL
