MODEL 1
REMARK VINA RESULT:    -4.689      0.000      0.000
REMARK INTER + INTRA:          -8.854
REMARK INTER:                  -7.978
REMARK INTRA:                  -0.876
REMARK UNBOUND:                -0.876
REMARK SMILES CCCCCCCCCCCCCC(=O)[O-]
REMARK SMILES IDX 8 1 9 2 10 3 11 4 12 5 13 6 14 7 15 8 16 9 7 10 6 11 5 12
REMARK SMILES IDX 4 13 3 14 2 15 1 16
REMARK H PARENT
REMARK Flexibility Score: inf
ROOT
ATOM      1  C   UNL     1      -2.864   9.007  -3.373  1.00  0.00     0.000 C 
ENDROOT
BRANCH   1   2
ATOM      2  C   UNL     1      -4.092   9.934  -3.433  1.00  0.00     0.000 C 
BRANCH   2   3
ATOM      3  C   UNL     1      -4.881   9.770  -4.750  1.00  0.00     0.000 C 
BRANCH   3   4
ATOM      4  C   UNL     1      -6.150   8.915  -4.605  1.00  0.00     0.000 C 
BRANCH   4   5
ATOM      5  C   UNL     1      -6.014   7.527  -5.253  1.00  0.00     0.006 C 
BRANCH   5   6
ATOM      6  C   UNL     1      -5.057   7.539  -6.452  1.00  0.00     0.053 C 
BRANCH   6   7
ATOM      7  C   UNL     1      -4.883   6.171  -7.038  1.00  0.00     0.041 C 
ATOM      8  O   UNL     1      -3.795   5.556  -6.896  1.00  0.00    -0.550 OA
ATOM      9  O   UNL     1      -5.911   5.592  -7.771  1.00  0.00    -0.550 OA
ENDBRANCH   6   7
ENDBRANCH   5   6
ENDBRANCH   4   5
ENDBRANCH   3   4
ENDBRANCH   2   3
ENDBRANCH   1   2
BRANCH   1  10
ATOM     10  C   UNL     1      -1.748   9.437  -4.339  1.00  0.00     0.000 C 
BRANCH  10  11
ATOM     11  C   UNL     1      -1.489   8.399  -5.444  1.00  0.00    -0.000 C 
BRANCH  11  12
ATOM     12  C   UNL     1       0.004   8.252  -5.777  1.00  0.00    -0.000 C 
BRANCH  12  13
ATOM     13  C   UNL     1       0.467   9.229  -6.873  1.00  0.00    -0.000 C 
BRANCH  13  14
ATOM     14  C   UNL     1       1.315   8.543  -7.956  1.00  0.00    -0.000 C 
BRANCH  14  15
ATOM     15  C   UNL     1       2.283   7.502  -7.375  1.00  0.00    -0.003 C 
ATOM     16  C   UNL     1       3.493   7.310  -8.283  1.00  0.00     0.004 C 
ENDBRANCH  14  15
ENDBRANCH  13  14
ENDBRANCH  12  13
ENDBRANCH  11  12
ENDBRANCH  10  11
ENDBRANCH   1  10
TORSDOF 12
ENDMDL
MODEL 2
REMARK VINA RESULT:    -4.553      2.954      6.358
REMARK INTER + INTRA:          -8.624
REMARK INTER:                  -7.228
REMARK INTRA:                  -1.396
REMARK UNBOUND:                -0.876
REMARK SMILES CCCCCCCCCCCCCC(=O)[O-]
REMARK SMILES IDX 8 1 9 2 10 3 11 4 12 5 13 6 14 7 15 8 16 9 7 10 6 11 5 12
REMARK SMILES IDX 4 13 3 14 2 15 1 16
REMARK H PARENT
REMARK Flexibility Score: inf
ROOT
ATOM      1  C   UNL     1      -1.676   8.880  -3.948  1.00  0.00     0.000 C 
ENDROOT
BRANCH   1   2
ATOM      2  C   UNL     1      -0.899   8.310  -5.150  1.00  0.00     0.000 C 
BRANCH   2   3
ATOM      3  C   UNL     1      -1.307   8.982  -6.478  1.00  0.00     0.000 C 
BRANCH   3   4
ATOM      4  C   UNL     1      -0.122   9.258  -7.418  1.00  0.00     0.000 C 
BRANCH   4   5
ATOM      5  C   UNL     1       1.138   8.459  -7.041  1.00  0.00     0.006 C 
BRANCH   5   6
ATOM      6  C   UNL     1       2.024   8.167  -8.260  1.00  0.00     0.053 C 
BRANCH   6   7
ATOM      7  C   UNL     1       3.113   7.192  -7.933  1.00  0.00     0.041 C 
ATOM      8  O   UNL     1       4.128   7.105  -8.674  1.00  0.00    -0.550 OA
ATOM      9  O   UNL     1       2.991   6.355  -6.832  1.00  0.00    -0.550 OA
ENDBRANCH   6   7
ENDBRANCH   5   6
ENDBRANCH   4   5
ENDBRANCH   3   4
ENDBRANCH   2   3
ENDBRANCH   1   2
BRANCH   1  10
ATOM     10  C   UNL     1      -2.668   9.983  -4.351  1.00  0.00     0.000 C 
BRANCH  10  11
ATOM     11  C   UNL     1      -3.932   9.990  -3.475  1.00  0.00    -0.000 C 
BRANCH  11  12
ATOM     12  C   UNL     1      -5.225   9.938  -4.304  1.00  0.00    -0.000 C 
BRANCH  12  13
ATOM     13  C   UNL     1      -4.961   9.713  -5.804  1.00  0.00    -0.000 C 
BRANCH  13  14
ATOM     14  C   UNL     1      -5.531   8.379  -6.310  1.00  0.00    -0.000 C 
BRANCH  14  15
ATOM     15  C   UNL     1      -4.981   7.171  -5.537  1.00  0.00    -0.003 C 
ATOM     16  C   UNL     1      -4.098   6.304  -6.428  1.00  0.00     0.004 C 
ENDBRANCH  14  15
ENDBRANCH  13  14
ENDBRANCH  12  13
ENDBRANCH  11  12
ENDBRANCH  10  11
ENDBRANCH   1  10
TORSDOF 12
ENDMDL
MODEL 3
REMARK VINA RESULT:    -4.296      2.725      5.928
REMARK INTER + INTRA:          -8.185
REMARK INTER:                  -7.151
REMARK INTRA:                  -1.034
REMARK UNBOUND:                -0.876
REMARK SMILES CCCCCCCCCCCCCC(=O)[O-]
REMARK SMILES IDX 8 1 9 2 10 3 11 4 12 5 13 6 14 7 15 8 16 9 7 10 6 11 5 12
REMARK SMILES IDX 4 13 3 14 2 15 1 16
REMARK H PARENT
REMARK Flexibility Score: inf
ROOT
ATOM      1  C   UNL     1      -4.331   9.780  -3.555  1.00  0.00     0.000 C 
ENDROOT
BRANCH   1   2
ATOM      2  C   UNL     1      -2.989   9.035  -3.425  1.00  0.00     0.000 C 
BRANCH   2   3
ATOM      3  C   UNL     1      -1.984   9.449  -4.521  1.00  0.00     0.000 C 
BRANCH   3   4
ATOM      4  C   UNL     1      -1.539   8.284  -5.419  1.00  0.00     0.000 C 
BRANCH   4   5
ATOM      5  C   UNL     1      -0.015   8.236  -5.625  1.00  0.00     0.006 C 
BRANCH   5   6
ATOM      6  C   UNL     1       0.407   8.839  -6.971  1.00  0.00     0.053 C 
BRANCH   6   7
ATOM      7  C   UNL     1       1.712   8.279  -7.446  1.00  0.00     0.041 C 
ATOM      8  O   UNL     1       2.293   8.784  -8.442  1.00  0.00    -0.550 OA
ATOM      9  O   UNL     1       2.268   7.175  -6.812  1.00  0.00    -0.550 OA
ENDBRANCH   6   7
ENDBRANCH   5   6
ENDBRANCH   4   5
ENDBRANCH   3   4
ENDBRANCH   2   3
ENDBRANCH   1   2
BRANCH   1  10
ATOM     10  C   UNL     1      -4.680  10.124  -5.012  1.00  0.00     0.000 C 
BRANCH  10  11
ATOM     11  C   UNL     1      -5.897   9.339  -5.530  1.00  0.00    -0.000 C 
BRANCH  11  12
ATOM     12  C   UNL     1      -6.301   8.191  -4.593  1.00  0.00    -0.000 C 
BRANCH  12  13
ATOM     13  C   UNL     1      -6.118   6.805  -5.237  1.00  0.00    -0.000 C 
BRANCH  13  14
ATOM     14  C   UNL     1      -4.985   6.781  -6.275  1.00  0.00    -0.000 C 
BRANCH  14  15
ATOM     15  C   UNL     1      -5.354   5.977  -7.530  1.00  0.00    -0.003 C 
ATOM     16  C   UNL     1      -4.111   5.627  -8.343  1.00  0.00     0.004 C 
ENDBRANCH  14  15
ENDBRANCH  13  14
ENDBRANCH  12  13
ENDBRANCH  11  12
ENDBRANCH  10  11
ENDBRANCH   1  10
TORSDOF 12
ENDMDL
MODEL 4
REMARK VINA RESULT:    -4.292      2.984      7.001
REMARK INTER + INTRA:          -8.178
REMARK INTER:                  -6.694
REMARK INTRA:                  -1.485
REMARK UNBOUND:                -0.876
REMARK SMILES CCCCCCCCCCCCCC(=O)[O-]
REMARK SMILES IDX 8 1 9 2 10 3 11 4 12 5 13 6 14 7 15 8 16 9 7 10 6 11 5 12
REMARK SMILES IDX 4 13 3 14 2 15 1 16
REMARK H PARENT
REMARK Flexibility Score: inf
ROOT
ATOM      1  C   UNL     1      -5.561   6.916  -5.882  1.00  0.00     0.000 C 
ENDROOT
BRANCH   1   2
ATOM      2  C   UNL     1      -4.570   7.990  -5.397  1.00  0.00     0.000 C 
BRANCH   2   3
ATOM      3  C   UNL     1      -5.250   9.046  -4.499  1.00  0.00     0.000 C 
BRANCH   3   4
ATOM      4  C   UNL     1      -4.262   9.850  -3.638  1.00  0.00     0.000 C 
BRANCH   4   5
ATOM      5  C   UNL     1      -2.931   9.112  -3.409  1.00  0.00     0.006 C 
BRANCH   5   6
ATOM      6  C   UNL     1      -1.744   9.849  -4.043  1.00  0.00     0.053 C 
BRANCH   6   7
ATOM      7  C   UNL     1      -1.034   8.997  -5.050  1.00  0.00     0.041 C 
ATOM      8  O   UNL     1      -0.372   7.994  -4.676  1.00  0.00    -0.550 OA
ATOM      9  O   UNL     1      -1.075   9.332  -6.397  1.00  0.00    -0.550 OA
ENDBRANCH   6   7
ENDBRANCH   5   6
ENDBRANCH   4   5
ENDBRANCH   3   4
ENDBRANCH   2   3
ENDBRANCH   1   2
BRANCH   1  10
ATOM     10  C   UNL     1      -6.765   6.749  -4.941  1.00  0.00     0.000 C 
BRANCH  10  11
ATOM     11  C   UNL     1      -7.902   5.929  -5.574  1.00  0.00    -0.000 C 
BRANCH  11  12
ATOM     12  C   UNL     1      -9.226   6.705  -5.633  1.00  0.00    -0.000 C 
BRANCH  12  13
ATOM     13  C   UNL     1      -9.136   8.088  -4.963  1.00  0.00    -0.000 C 
BRANCH  13  14
ATOM     14  C   UNL     1      -9.381   9.240  -5.951  1.00  0.00    -0.000 C 
BRANCH  14  15
ATOM     15  C   UNL     1      -8.109  10.051  -6.238  1.00  0.00    -0.003 C 
ATOM     16  C   UNL     1      -7.492   9.649  -7.574  1.00  0.00     0.004 C 
ENDBRANCH  14  15
ENDBRANCH  13  14
ENDBRANCH  12  13
ENDBRANCH  11  12
ENDBRANCH  10  11
ENDBRANCH   1  10
TORSDOF 12
ENDMDL
MODEL 5
REMARK VINA RESULT:    -4.242      1.806      2.317
REMARK INTER + INTRA:          -8.095
REMARK INTER:                  -7.459
REMARK INTRA:                  -0.635
REMARK UNBOUND:                -0.876
REMARK SMILES CCCCCCCCCCCCCC(=O)[O-]
REMARK SMILES IDX 8 1 9 2 10 3 11 4 12 5 13 6 14 7 15 8 16 9 7 10 6 11 5 12
REMARK SMILES IDX 4 13 3 14 2 15 1 16
REMARK H PARENT
REMARK Flexibility Score: inf
ROOT
ATOM      1  C   UNL     1      -2.783   8.053  -6.256  1.00  0.00     0.000 C 
ENDROOT
BRANCH   1   2
ATOM      2  C   UNL     1      -4.208   8.561  -6.541  1.00  0.00     0.000 C 
BRANCH   2   3
ATOM      3  C   UNL     1      -5.001   8.829  -5.243  1.00  0.00     0.000 C 
BRANCH   3   4
ATOM      4  C   UNL     1      -6.501   8.515  -5.362  1.00  0.00     0.000 C 
BRANCH   4   5
ATOM      5  C   UNL     1      -6.849   7.083  -4.921  1.00  0.00     0.006 C 
BRANCH   5   6
ATOM      6  C   UNL     1      -6.808   6.090  -6.091  1.00  0.00     0.053 C 
BRANCH   6   7
ATOM      7  C   UNL     1      -8.163   5.530  -6.393  1.00  0.00     0.041 C 
ATOM      8  O   UNL     1      -9.165   5.903  -5.728  1.00  0.00    -0.550 OA
ATOM      9  O   UNL     1      -8.314   4.569  -7.384  1.00  0.00    -0.550 OA
ENDBRANCH   6   7
ENDBRANCH   5   6
ENDBRANCH   4   5
ENDBRANCH   3   4
ENDBRANCH   2   3
ENDBRANCH   1   2
BRANCH   1  10
ATOM     10  C   UNL     1      -2.208   8.601  -4.940  1.00  0.00     0.000 C 
BRANCH  10  11
ATOM     11  C   UNL     1      -0.670   8.595  -4.919  1.00  0.00    -0.000 C 
BRANCH  11  12
ATOM     12  C   UNL     1      -0.060   9.015  -6.265  1.00  0.00    -0.000 C 
BRANCH  12  13
ATOM     13  C   UNL     1       1.074   8.079  -6.722  1.00  0.00    -0.000 C 
BRANCH  13  14
ATOM     14  C   UNL     1       1.678   8.499  -8.071  1.00  0.00    -0.000 C 
BRANCH  14  15
ATOM     15  C   UNL     1       2.957   7.719  -8.412  1.00  0.00    -0.003 C 
ATOM     16  C   UNL     1       3.118   6.505  -7.503  1.00  0.00     0.004 C 
ENDBRANCH  14  15
ENDBRANCH  13  14
ENDBRANCH  12  13
ENDBRANCH  11  12
ENDBRANCH  10  11
ENDBRANCH   1  10
TORSDOF 12
ENDMDL
MODEL 6
REMARK VINA RESULT:    -4.158      1.882      2.795
REMARK INTER + INTRA:          -7.951
REMARK INTER:                  -7.456
REMARK INTRA:                  -0.496
REMARK UNBOUND:                -0.876
REMARK SMILES CCCCCCCCCCCCCC(=O)[O-]
REMARK SMILES IDX 8 1 9 2 10 3 11 4 12 5 13 6 14 7 15 8 16 9 7 10 6 11 5 12
REMARK SMILES IDX 4 13 3 14 2 15 1 16
REMARK H PARENT
REMARK Flexibility Score: inf
ROOT
ATOM      1  C   UNL     1      -1.202   9.238  -4.976  1.00  0.00     0.000 C 
ENDROOT
BRANCH   1   2
ATOM      2  C   UNL     1      -1.965  10.044  -3.908  1.00  0.00     0.000 C 
BRANCH   2   3
ATOM      3  C   UNL     1      -3.092   9.217  -3.251  1.00  0.00     0.000 C 
BRANCH   3   4
ATOM      4  C   UNL     1      -4.406   9.996  -3.079  1.00  0.00     0.000 C 
BRANCH   4   5
ATOM      5  C   UNL     1      -5.201  10.124  -4.389  1.00  0.00     0.006 C 
BRANCH   5   6
ATOM      6  C   UNL     1      -5.956   8.834  -4.737  1.00  0.00     0.053 C 
BRANCH   6   7
ATOM      7  C   UNL     1      -6.899   9.033  -5.883  1.00  0.00     0.041 C 
ATOM      8  O   UNL     1      -6.660   8.503  -7.000  1.00  0.00    -0.550 OA
ATOM      9  O   UNL     1      -8.023   9.835  -5.728  1.00  0.00    -0.550 OA
ENDBRANCH   6   7
ENDBRANCH   5   6
ENDBRANCH   4   5
ENDBRANCH   3   4
ENDBRANCH   2   3
ENDBRANCH   1   2
BRANCH   1  10
ATOM     10  C   UNL     1      -0.314  10.122  -5.866  1.00  0.00     0.000 C 
BRANCH  10  11
ATOM     11  C   UNL     1      -0.494   9.823  -7.364  1.00  0.00    -0.000 C 
BRANCH  11  12
ATOM     12  C   UNL     1       0.840   9.802  -8.125  1.00  0.00    -0.000 C 
BRANCH  12  13
ATOM     13  C   UNL     1       1.513   8.417  -8.110  1.00  0.00    -0.000 C 
BRANCH  13  14
ATOM     14  C   UNL     1       2.694   8.324  -9.089  1.00  0.00    -0.000 C 
BRANCH  14  15
ATOM     15  C   UNL     1       3.786   7.359  -8.604  1.00  0.00    -0.003 C 
ATOM     16  C   UNL     1       3.287   6.503  -7.444  1.00  0.00     0.004 C 
ENDBRANCH  14  15
ENDBRANCH  13  14
ENDBRANCH  12  13
ENDBRANCH  11  12
ENDBRANCH  10  11
ENDBRANCH   1  10
TORSDOF 12
ENDMDL
MODEL 7
REMARK VINA RESULT:    -4.090      2.843      5.074
REMARK INTER + INTRA:          -7.834
REMARK INTER:                  -6.065
REMARK INTRA:                  -1.770
REMARK UNBOUND:                -0.876
REMARK SMILES CCCCCCCCCCCCCC(=O)[O-]
REMARK SMILES IDX 8 1 9 2 10 3 11 4 12 5 13 6 14 7 15 8 16 9 7 10 6 11 5 12
REMARK SMILES IDX 4 13 3 14 2 15 1 16
REMARK H PARENT
REMARK Flexibility Score: inf
ROOT
ATOM      1  C   UNL     1      -6.527   8.577  -4.906  1.00  0.00     0.000 C 
ENDROOT
BRANCH   1   2
ATOM      2  C   UNL     1      -5.277   9.476  -4.955  1.00  0.00     0.000 C 
BRANCH   2   3
ATOM      3  C   UNL     1      -4.785   9.864  -3.544  1.00  0.00     0.000 C 
BRANCH   3   4
ATOM      4  C   UNL     1      -3.269  10.108  -3.467  1.00  0.00     0.000 C 
BRANCH   4   5
ATOM      5  C   UNL     1      -2.449   8.997  -4.145  1.00  0.00     0.006 C 
BRANCH   5   6
ATOM      6  C   UNL     1      -1.518   9.546  -5.234  1.00  0.00     0.053 C 
BRANCH   6   7
ATOM      7  C   UNL     1      -0.380   8.614  -5.514  1.00  0.00     0.041 C 
ATOM      8  O   UNL     1       0.018   7.815  -4.626  1.00  0.00    -0.550 OA
ATOM      9  O   UNL     1       0.264   8.652  -6.744  1.00  0.00    -0.550 OA
ENDBRANCH   6   7
ENDBRANCH   5   6
ENDBRANCH   4   5
ENDBRANCH   3   4
ENDBRANCH   2   3
ENDBRANCH   1   2
BRANCH   1  10
ATOM     10  C   UNL     1      -6.429   7.370  -5.853  1.00  0.00     0.000 C 
BRANCH  10  11
ATOM     11  C   UNL     1      -5.426   6.312  -5.363  1.00  0.00    -0.000 C 
BRANCH  11  12
ATOM     12  C   UNL     1      -4.201   6.191  -6.282  1.00  0.00    -0.000 C 
BRANCH  12  13
ATOM     13  C   UNL     1      -4.375   6.951  -7.609  1.00  0.00    -0.000 C 
BRANCH  13  14
ATOM     14  C   UNL     1      -3.287   8.015  -7.827  1.00  0.00    -0.000 C 
BRANCH  14  15
ATOM     15  C   UNL     1      -3.767   9.175  -8.712  1.00  0.00    -0.003 C 
ATOM     16  C   UNL     1      -5.289   9.277  -8.707  1.00  0.00     0.004 C 
ENDBRANCH  14  15
ENDBRANCH  13  14
ENDBRANCH  12  13
ENDBRANCH  11  12
ENDBRANCH  10  11
ENDBRANCH   1  10
TORSDOF 12
ENDMDL
MODEL 8
REMARK VINA RESULT:    -4.000      2.328      3.280
REMARK INTER + INTRA:          -7.683
REMARK INTER:                  -7.078
REMARK INTRA:                  -0.605
REMARK UNBOUND:                -0.876
REMARK SMILES CCCCCCCCCCCCCC(=O)[O-]
REMARK SMILES IDX 8 1 9 2 10 3 11 4 12 5 13 6 14 7 15 8 16 9 7 10 6 11 5 12
REMARK SMILES IDX 4 13 3 14 2 15 1 16
REMARK H PARENT
REMARK Flexibility Score: inf
ROOT
ATOM      1  C   UNL     1      -3.946   6.552  -7.383  1.00  0.00     0.000 C 
ENDROOT
BRANCH   1   2
ATOM      2  C   UNL     1      -5.429   6.332  -7.033  1.00  0.00     0.000 C 
BRANCH   2   3
ATOM      3  C   UNL     1      -5.675   6.348  -5.508  1.00  0.00     0.000 C 
BRANCH   3   4
ATOM      4  C   UNL     1      -7.095   6.790  -5.119  1.00  0.00     0.000 C 
BRANCH   4   5
ATOM      5  C   UNL     1      -8.058   6.833  -6.318  1.00  0.00     0.006 C 
BRANCH   5   6
ATOM      6  C   UNL     1      -9.210   5.830  -6.172  1.00  0.00     0.053 C 
BRANCH   6   7
ATOM      7  C   UNL     1      -8.911   4.536  -6.863  1.00  0.00     0.041 C 
ATOM      8  O   UNL     1      -9.156   3.441  -6.292  1.00  0.00    -0.550 OA
ATOM      9  O   UNL     1      -8.328   4.538  -8.124  1.00  0.00    -0.550 OA
ENDBRANCH   6   7
ENDBRANCH   5   6
ENDBRANCH   4   5
ENDBRANCH   3   4
ENDBRANCH   2   3
ENDBRANCH   1   2
BRANCH   1  10
ATOM     10  C   UNL     1      -3.217   7.435  -6.358  1.00  0.00     0.000 C 
BRANCH  10  11
ATOM     11  C   UNL     1      -2.173   8.358  -7.008  1.00  0.00    -0.000 C 
BRANCH  11  12
ATOM     12  C   UNL     1      -0.925   8.545  -6.132  1.00  0.00    -0.000 C 
BRANCH  12  13
ATOM     13  C   UNL     1       0.306   8.997  -6.939  1.00  0.00    -0.000 C 
BRANCH  13  14
ATOM     14  C   UNL     1       1.489   8.025  -6.806  1.00  0.00    -0.000 C 
BRANCH  14  15
ATOM     15  C   UNL     1       2.416   8.055  -8.029  1.00  0.00    -0.003 C 
ATOM     16  C   UNL     1       3.391   6.882  -8.008  1.00  0.00     0.004 C 
ENDBRANCH  14  15
ENDBRANCH  13  14
ENDBRANCH  12  13
ENDBRANCH  11  12
ENDBRANCH  10  11
ENDBRANCH   1  10
TORSDOF 12
ENDMDL
MODEL 9
REMARK VINA RESULT:    -3.756      2.175      4.107
REMARK INTER + INTRA:          -7.267
REMARK INTER:                  -5.843
REMARK INTRA:                  -1.424
REMARK UNBOUND:                -0.876
REMARK SMILES CCCCCCCCCCCCCC(=O)[O-]
REMARK SMILES IDX 8 1 9 2 10 3 11 4 12 5 13 6 14 7 15 8 16 9 7 10 6 11 5 12
REMARK SMILES IDX 4 13 3 14 2 15 1 16
REMARK H PARENT
REMARK Flexibility Score: inf
ROOT
ATOM      1  C   UNL     1      -1.547   8.409  -5.255  1.00  0.00     0.000 C 
ENDROOT
BRANCH   1   2
ATOM      2  C   UNL     1      -1.771   9.190  -3.947  1.00  0.00     0.000 C 
BRANCH   2   3
ATOM      3  C   UNL     1      -3.201   9.001  -3.395  1.00  0.00     0.000 C 
BRANCH   3   4
ATOM      4  C   UNL     1      -4.169  10.125  -3.800  1.00  0.00     0.000 C 
BRANCH   4   5
ATOM      5  C   UNL     1      -5.270   9.648  -4.762  1.00  0.00     0.006 C 
BRANCH   5   6
ATOM      6  C   UNL     1      -5.219   8.133  -4.995  1.00  0.00     0.053 C 
BRANCH   6   7
ATOM      7  C   UNL     1      -6.588   7.524  -4.996  1.00  0.00     0.041 C 
ATOM      8  O   UNL     1      -7.608   8.261  -5.042  1.00  0.00    -0.550 OA
ATOM      9  O   UNL     1      -6.737   6.146  -4.909  1.00  0.00    -0.550 OA
ENDBRANCH   6   7
ENDBRANCH   5   6
ENDBRANCH   4   5
ENDBRANCH   3   4
ENDBRANCH   2   3
ENDBRANCH   1   2
BRANCH   1  10
ATOM     10  C   UNL     1      -0.614   9.142  -6.233  1.00  0.00     0.000 C 
BRANCH  10  11
ATOM     11  C   UNL     1      -1.263   9.375  -7.608  1.00  0.00    -0.000 C 
BRANCH  11  12
ATOM     12  C   UNL     1      -2.643   8.710  -7.729  1.00  0.00    -0.000 C 
BRANCH  12  13
ATOM     13  C   UNL     1      -3.113   8.577  -9.189  1.00  0.00    -0.000 C 
BRANCH  13  14
ATOM     14  C   UNL     1      -3.753   7.211  -9.481  1.00  0.00    -0.000 C 
BRANCH  14  15
ATOM     15  C   UNL     1      -4.077   6.426  -8.201  1.00  0.00    -0.003 C 
ATOM     16  C   UNL     1      -5.530   5.964  -8.193  1.00  0.00     0.004 C 
ENDBRANCH  14  15
ENDBRANCH  13  14
ENDBRANCH  12  13
ENDBRANCH  11  12
ENDBRANCH  10  11
ENDBRANCH   1  10
TORSDOF 12
ENDMDL
