MODEL 1
REMARK VINA RESULT:    -6.927      0.000      0.000
REMARK INTER + INTRA:         -11.166
REMARK INTER:                  -9.559
REMARK INTRA:                  -1.607
REMARK UNBOUND:                -1.607
REMARK SMILES CC[C@@H](CC[C@@H](C)[C@H]1CC[C@H]2[C@@H]3CC=C4C[C@@H](O)CC[C@]4(C)[C@H]3CC[C@@]12C)C(C)C
REMARK SMILES IDX 5 1 4 2 3 3 2 4 1 5 28 6 29 7 30 8 6 9 7 10 8 11 9 12 26 13
REMARK SMILES IDX 10 14 11 15 25 16 27 17 12 18 24 19 23 20 13 21 21 22 14 23
REMARK SMILES IDX 15 24 20 25 22 26 16 27 19 28 17 29 18 30
REMARK H PARENT 18 31
REMARK Flexibility Score: inf
ROOT
ATOM      1  C   UNL     1      21.066   2.757 -17.243  1.00  0.00     0.004 C 
ENDROOT
BRANCH   1   2
ATOM      2  C   UNL     1      22.010   2.463 -16.054  1.00  0.00     0.004 C 
BRANCH   2   3
ATOM      3  C   UNL     1      21.758   1.090 -15.357  1.00  0.00    -0.009 C 
BRANCH   3   4
ATOM      4  C   UNL     1      22.666  -0.035 -15.933  1.00  0.00     0.000 C 
ATOM      5  C   UNL     1      23.753  -0.515 -14.968  1.00  0.00     0.004 C 
ENDBRANCH   3   4
BRANCH   3   6
ATOM      6  C   UNL     1      20.248   0.660 -15.354  1.00  0.00    -0.014 C 
ATOM      7  C   UNL     1      20.085  -0.855 -15.125  1.00  0.00     0.007 C 
ATOM      8  C   UNL     1      19.425   1.407 -14.287  1.00  0.00     0.007 C 
ENDBRANCH   3   6
ENDBRANCH   2   3
ENDBRANCH   1   2
BRANCH   1   9
ATOM      9  C   UNL     1      21.818   2.805 -18.608  1.00  0.00    -0.011 C 
ATOM     10  C   UNL     1      23.317   3.066 -18.337  1.00  0.00     0.008 C 
BRANCH   9  11
ATOM     11  C   UNL     1      21.621   1.486 -19.453  1.00  0.00    -0.002 C 
ATOM     12  C   UNL     1      20.555   0.552 -18.877  1.00  0.00     0.005 C 
ATOM     13  C   UNL     1      21.214   1.631 -20.967  1.00  0.00    -0.026 C 
ATOM     14  C   UNL     1      20.238  -0.438 -19.974  1.00  0.00     0.005 C 
ATOM     15  C   UNL     1      20.457   0.295 -21.304  1.00  0.00    -0.001 C 
ATOM     16  C   UNL     1      20.275   2.854 -21.211  1.00  0.00     0.007 C 
ATOM     17  C   UNL     1      22.479   1.749 -21.859  1.00  0.00     0.012 C 
ATOM     18  C   UNL     1      19.107   0.481 -22.069  1.00  0.00     0.000 C 
ATOM     19  C   UNL     1      19.689   2.911 -22.634  1.00  0.00     0.005 C 
ATOM     20  C   UNL     1      19.278   1.524 -23.202  1.00  0.00     0.003 C 
ATOM     21  C   UNL     1      18.540  -0.884 -22.573  1.00  0.00     0.031 C 
ATOM     22  C   UNL     1      18.034   1.556 -24.159  1.00  0.00    -0.008 C 
ATOM     23  C   UNL     1      18.159  -0.933 -24.033  1.00  0.00    -0.027 C 
ATOM     24  C   UNL     1      17.899   0.164 -24.770  1.00  0.00    -0.065 C 
ATOM     25  C   UNL     1      18.273   2.585 -25.302  1.00  0.00     0.014 C 
ATOM     26  C   UNL     1      16.725   1.902 -23.399  1.00  0.00     0.016 C 
ATOM     27  C   UNL     1      17.674   0.008 -26.260  1.00  0.00     0.063 C 
ATOM     28  C   UNL     1      17.221   2.531 -26.430  1.00  0.00     0.033 C 
ATOM     29  C   UNL     1      16.752   1.105 -26.811  1.00  0.00     0.118 C 
BRANCH  29  30
ATOM     30  O   UNL     1      15.441   0.901 -26.349  1.00  0.00    -0.393 OA
ATOM     31  H   UNL     1      15.381   1.316 -25.448  1.00  0.00     0.210 HD
ENDBRANCH  29  30
ENDBRANCH   9  11
ENDBRANCH   1   9
TORSDOF 7
ENDMDL
MODEL 2
REMARK VINA RESULT:    -6.644      2.582      3.737
REMARK INTER + INTRA:         -10.776
REMARK INTER:                  -9.766
REMARK INTRA:                  -1.010
REMARK UNBOUND:                -1.607
REMARK SMILES CC[C@@H](CC[C@@H](C)[C@H]1CC[C@H]2[C@@H]3CC=C4C[C@@H](O)CC[C@]4(C)[C@H]3CC[C@@]12C)C(C)C
REMARK SMILES IDX 5 1 4 2 3 3 2 4 1 5 28 6 29 7 30 8 6 9 7 10 8 11 9 12 26 13
REMARK SMILES IDX 10 14 11 15 25 16 27 17 12 18 24 19 23 20 13 21 21 22 14 23
REMARK SMILES IDX 15 24 20 25 22 26 16 27 19 28 17 29 18 30
REMARK H PARENT 18 31
REMARK Flexibility Score: inf
ROOT
ATOM      1  C   UNL     1      20.722  -0.134 -19.238  1.00  0.00     0.004 C 
ENDROOT
BRANCH   1   2
ATOM      2  C   UNL     1      21.627  -0.280 -17.993  1.00  0.00     0.004 C 
BRANCH   2   3
ATOM      3  C   UNL     1      21.144  -1.354 -16.970  1.00  0.00    -0.009 C 
BRANCH   3   4
ATOM      4  C   UNL     1      19.689  -1.826 -17.259  1.00  0.00     0.000 C 
ATOM      5  C   UNL     1      19.587  -3.273 -17.746  1.00  0.00     0.004 C 
ENDBRANCH   3   4
BRANCH   3   6
ATOM      6  C   UNL     1      21.316  -0.913 -15.474  1.00  0.00    -0.014 C 
ATOM      7  C   UNL     1      22.736  -0.386 -15.192  1.00  0.00     0.007 C 
ATOM      8  C   UNL     1      20.301   0.170 -15.059  1.00  0.00     0.007 C 
ENDBRANCH   3   6
ENDBRANCH   2   3
ENDBRANCH   1   2
BRANCH   1   9
ATOM      9  C   UNL     1      20.405   1.354 -19.577  1.00  0.00    -0.011 C 
ATOM     10  C   UNL     1      20.716   2.220 -18.336  1.00  0.00     0.008 C 
BRANCH   9  11
ATOM     11  C   UNL     1      21.203   1.871 -20.837  1.00  0.00    -0.002 C 
ATOM     12  C   UNL     1      22.576   1.216 -20.994  1.00  0.00     0.005 C 
ATOM     13  C   UNL     1      20.540   1.697 -22.255  1.00  0.00    -0.026 C 
ATOM     14  C   UNL     1      23.024   1.529 -22.403  1.00  0.00     0.005 C 
ATOM     15  C   UNL     1      21.752   1.637 -23.255  1.00  0.00    -0.001 C 
ATOM     16  C   UNL     1      19.698   0.387 -22.356  1.00  0.00     0.007 C 
ATOM     17  C   UNL     1      19.651   2.925 -22.592  1.00  0.00     0.012 C 
ATOM     18  C   UNL     1      21.681   0.481 -24.304  1.00  0.00     0.000 C 
ATOM     19  C   UNL     1      19.206   0.074 -23.782  1.00  0.00     0.005 C 
ATOM     20  C   UNL     1      20.251   0.384 -24.890  1.00  0.00     0.003 C 
ATOM     21  C   UNL     1      22.785   0.630 -25.398  1.00  0.00     0.031 C 
ATOM     22  C   UNL     1      20.192  -0.582 -26.127  1.00  0.00    -0.008 C 
ATOM     23  C   UNL     1      22.302   0.552 -26.826  1.00  0.00    -0.027 C 
ATOM     24  C   UNL     1      21.134  -0.018 -27.186  1.00  0.00    -0.065 C 
ATOM     25  C   UNL     1      18.747  -0.611 -26.706  1.00  0.00     0.014 C 
ATOM     26  C   UNL     1      20.646  -2.022 -25.762  1.00  0.00     0.016 C 
ATOM     27  C   UNL     1      20.680   0.093 -28.627  1.00  0.00     0.063 C 
ATOM     28  C   UNL     1      18.625  -1.341 -28.060  1.00  0.00     0.033 C 
ATOM     29  C   UNL     1      19.802  -1.099 -29.035  1.00  0.00     0.118 C 
BRANCH  29  30
ATOM     30  O   UNL     1      20.588  -2.260 -29.122  1.00  0.00    -0.393 OA
ATOM     31  H   UNL     1      21.538  -1.969 -29.139  1.00  0.00     0.210 HD
ENDBRANCH  29  30
ENDBRANCH   9  11
ENDBRANCH   1   9
TORSDOF 7
ENDMDL
MODEL 3
REMARK VINA RESULT:    -5.976     13.208     16.813
REMARK INTER + INTRA:          -9.854
REMARK INTER:                  -7.975
REMARK INTRA:                  -1.879
REMARK UNBOUND:                -1.607
REMARK SMILES CC[C@@H](CC[C@@H](C)[C@H]1CC[C@H]2[C@@H]3CC=C4C[C@@H](O)CC[C@]4(C)[C@H]3CC[C@@]12C)C(C)C
REMARK SMILES IDX 5 1 4 2 3 3 2 4 1 5 28 6 29 7 30 8 6 9 7 10 8 11 9 12 26 13
REMARK SMILES IDX 10 14 11 15 25 16 27 17 12 18 24 19 23 20 13 21 21 22 14 23
REMARK SMILES IDX 15 24 20 25 22 26 16 27 19 28 17 29 18 30
REMARK H PARENT 18 31
REMARK Flexibility Score: inf
ROOT
ATOM      1  C   UNL     1      16.469 -12.263 -26.181  1.00  0.00     0.004 C 
ENDROOT
BRANCH   1   2
ATOM      2  C   UNL     1      17.299 -10.987 -26.448  1.00  0.00     0.004 C 
BRANCH   2   3
ATOM      3  C   UNL     1      17.184 -10.437 -27.903  1.00  0.00    -0.009 C 
BRANCH   3   4
ATOM      4  C   UNL     1      18.098 -11.213 -28.896  1.00  0.00     0.000 C 
ATOM      5  C   UNL     1      19.537 -11.396 -28.408  1.00  0.00     0.004 C 
ENDBRANCH   3   4
BRANCH   3   6
ATOM      6  C   UNL     1      17.414  -8.888 -28.005  1.00  0.00    -0.014 C 
ATOM      7  C   UNL     1      16.565  -8.256 -29.125  1.00  0.00     0.007 C 
ATOM      8  C   UNL     1      17.104  -8.158 -26.684  1.00  0.00     0.007 C 
ENDBRANCH   3   6
ENDBRANCH   2   3
ENDBRANCH   1   2
BRANCH   1   9
ATOM      9  C   UNL     1      17.015 -13.094 -24.980  1.00  0.00    -0.011 C 
ATOM     10  C   UNL     1      15.817 -13.656 -24.182  1.00  0.00     0.008 C 
BRANCH   9  11
ATOM     11  C   UNL     1      17.979 -14.257 -25.438  1.00  0.00    -0.002 C 
ATOM     12  C   UNL     1      18.073 -14.402 -26.959  1.00  0.00     0.005 C 
ATOM     13  C   UNL     1      19.483 -14.197 -24.974  1.00  0.00    -0.026 C 
ATOM     14  C   UNL     1      19.282 -15.270 -27.216  1.00  0.00     0.005 C 
ATOM     15  C   UNL     1      20.270 -15.000 -26.074  1.00  0.00    -0.001 C 
ATOM     16  C   UNL     1      20.018 -12.733 -24.895  1.00  0.00     0.007 C 
ATOM     17  C   UNL     1      19.654 -14.898 -23.599  1.00  0.00     0.012 C 
ATOM     18  C   UNL     1      21.560 -14.295 -26.604  1.00  0.00     0.000 C 
ATOM     19  C   UNL     1      21.536 -12.640 -24.649  1.00  0.00     0.005 C 
ATOM     20  C   UNL     1      22.366 -13.703 -25.421  1.00  0.00     0.003 C 
ATOM     21  C   UNL     1      22.405 -15.248 -27.508  1.00  0.00     0.031 C 
ATOM     22  C   UNL     1      23.789 -13.216 -25.871  1.00  0.00    -0.008 C 
ATOM     23  C   UNL     1      23.868 -15.356 -27.151  1.00  0.00    -0.027 C 
ATOM     24  C   UNL     1      24.527 -14.429 -26.428  1.00  0.00    -0.065 C 
ATOM     25  C   UNL     1      24.574 -12.672 -24.642  1.00  0.00     0.014 C 
ATOM     26  C   UNL     1      23.708 -12.125 -26.974  1.00  0.00     0.016 C 
ATOM     27  C   UNL     1      25.953 -14.712 -26.003  1.00  0.00     0.063 C 
ATOM     28  C   UNL     1      26.064 -12.384 -24.922  1.00  0.00     0.033 C 
ATOM     29  C   UNL     1      26.761 -13.417 -25.841  1.00  0.00     0.118 C 
BRANCH  29  30
ATOM     30  O   UNL     1      26.998 -12.842 -27.101  1.00  0.00    -0.393 OA
ATOM     31  H   UNL     1      26.125 -12.808 -27.574  1.00  0.00     0.210 HD
ENDBRANCH  29  30
ENDBRANCH   9  11
ENDBRANCH   1   9
TORSDOF 7
ENDMDL
MODEL 4
REMARK VINA RESULT:    -5.961      1.824      4.332
REMARK INTER + INTRA:          -9.833
REMARK INTER:                  -8.868
REMARK INTRA:                  -0.965
REMARK UNBOUND:                -1.607
REMARK SMILES CC[C@@H](CC[C@@H](C)[C@H]1CC[C@H]2[C@@H]3CC=C4C[C@@H](O)CC[C@]4(C)[C@H]3CC[C@@]12C)C(C)C
REMARK SMILES IDX 5 1 4 2 3 3 2 4 1 5 28 6 29 7 30 8 6 9 7 10 8 11 9 12 26 13
REMARK SMILES IDX 10 14 11 15 25 16 27 17 12 18 24 19 23 20 13 21 21 22 14 23
REMARK SMILES IDX 15 24 20 25 22 26 16 27 19 28 17 29 18 30
REMARK H PARENT 18 31
REMARK Flexibility Score: inf
ROOT
ATOM      1  C   UNL     1      23.520  -0.386 -15.604  1.00  0.00     0.004 C 
ENDROOT
BRANCH   1   2
ATOM      2  C   UNL     1      23.780  -1.016 -14.216  1.00  0.00     0.004 C 
BRANCH   2   3
ATOM      3  C   UNL     1      24.899  -0.312 -13.390  1.00  0.00    -0.009 C 
BRANCH   3   4
ATOM      4  C   UNL     1      25.224   1.109 -13.935  1.00  0.00     0.000 C 
ATOM      5  C   UNL     1      24.126   2.143 -13.680  1.00  0.00     0.004 C 
ENDBRANCH   3   4
BRANCH   3   6
ATOM      6  C   UNL     1      26.200  -1.177 -13.236  1.00  0.00    -0.014 C 
ATOM      7  C   UNL     1      26.498  -1.505 -11.761  1.00  0.00     0.007 C 
ATOM      8  C   UNL     1      26.125  -2.498 -14.026  1.00  0.00     0.007 C 
ENDBRANCH   3   6
ENDBRANCH   2   3
ENDBRANCH   1   2
BRANCH   1   9
ATOM      9  C   UNL     1      22.033  -0.520 -16.055  1.00  0.00    -0.011 C 
ATOM     10  C   UNL     1      21.176  -0.895 -14.824  1.00  0.00     0.008 C 
BRANCH   9  11
ATOM     11  C   UNL     1      21.488   0.793 -16.740  1.00  0.00    -0.002 C 
ATOM     12  C   UNL     1      22.597   1.700 -17.278  1.00  0.00     0.005 C 
ATOM     13  C   UNL     1      20.506   0.638 -17.961  1.00  0.00    -0.026 C 
ATOM     14  C   UNL     1      21.915   2.681 -18.203  1.00  0.00     0.005 C 
ATOM     15  C   UNL     1      20.702   1.954 -18.798  1.00  0.00    -0.001 C 
ATOM     16  C   UNL     1      20.846  -0.609 -18.837  1.00  0.00     0.007 C 
ATOM     17  C   UNL     1      19.036   0.553 -17.466  1.00  0.00     0.012 C 
ATOM     18  C   UNL     1      20.880   1.735 -20.335  1.00  0.00     0.000 C 
ATOM     19  C   UNL     1      20.045  -0.680 -20.150  1.00  0.00     0.005 C 
ATOM     20  C   UNL     1      19.850   0.696 -20.845  1.00  0.00     0.003 C 
ATOM     21  C   UNL     1      20.831   3.085 -21.118  1.00  0.00     0.031 C 
ATOM     22  C   UNL     1      19.814   0.633 -22.414  1.00  0.00    -0.008 C 
ATOM     23  C   UNL     1      19.879   3.125 -22.289  1.00  0.00    -0.027 C 
ATOM     24  C   UNL     1      19.421   2.021 -22.912  1.00  0.00    -0.065 C 
ATOM     25  C   UNL     1      18.735  -0.389 -22.876  1.00  0.00     0.014 C 
ATOM     26  C   UNL     1      21.195   0.254 -23.012  1.00  0.00     0.016 C 
ATOM     27  C   UNL     1      18.356   2.172 -23.979  1.00  0.00     0.063 C 
ATOM     28  C   UNL     1      18.449  -0.362 -24.392  1.00  0.00     0.033 C 
ATOM     29  C   UNL     1      18.440   1.051 -25.024  1.00  0.00     0.118 C 
BRANCH  29  30
ATOM     30  O   UNL     1      19.591   1.222 -25.812  1.00  0.00    -0.393 OA
ATOM     31  H   UNL     1      19.373   1.902 -26.503  1.00  0.00     0.210 HD
ENDBRANCH  29  30
ENDBRANCH   9  11
ENDBRANCH   1   9
TORSDOF 7
ENDMDL
MODEL 5
REMARK VINA RESULT:    -5.826      2.903      8.631
REMARK INTER + INTRA:          -9.648
REMARK INTER:                  -9.064
REMARK INTRA:                  -0.584
REMARK UNBOUND:                -1.607
REMARK SMILES CC[C@@H](CC[C@@H](C)[C@H]1CC[C@H]2[C@@H]3CC=C4C[C@@H](O)CC[C@]4(C)[C@H]3CC[C@@]12C)C(C)C
REMARK SMILES IDX 5 1 4 2 3 3 2 4 1 5 28 6 29 7 30 8 6 9 7 10 8 11 9 12 26 13
REMARK SMILES IDX 10 14 11 15 25 16 27 17 12 18 24 19 23 20 13 21 21 22 14 23
REMARK SMILES IDX 15 24 20 25 22 26 16 27 19 28 17 29 18 30
REMARK H PARENT 18 31
REMARK Flexibility Score: inf
ROOT
ATOM      1  C   UNL     1      18.014  -0.248 -25.027  1.00  0.00     0.004 C 
ENDROOT
BRANCH   1   2
ATOM      2  C   UNL     1      17.960  -0.642 -26.521  1.00  0.00     0.004 C 
BRANCH   2   3
ATOM      3  C   UNL     1      19.124  -1.571 -26.984  1.00  0.00    -0.009 C 
BRANCH   3   4
ATOM      4  C   UNL     1      19.766  -2.342 -25.795  1.00  0.00     0.000 C 
ATOM      5  C   UNL     1      19.929  -3.844 -26.039  1.00  0.00     0.004 C 
ENDBRANCH   3   4
BRANCH   3   6
ATOM      6  C   UNL     1      20.211  -0.830 -27.840  1.00  0.00    -0.014 C 
ATOM      7  C   UNL     1      19.593  -0.112 -29.054  1.00  0.00     0.007 C 
ATOM      8  C   UNL     1      21.008   0.199 -27.015  1.00  0.00     0.007 C 
ENDBRANCH   3   6
ENDBRANCH   2   3
ENDBRANCH   1   2
BRANCH   1   9
ATOM      9  C   UNL     1      18.121   1.294 -24.817  1.00  0.00    -0.011 C 
ATOM     10  C   UNL     1      16.836   1.786 -24.115  1.00  0.00     0.008 C 
BRANCH   9  11
ATOM     11  C   UNL     1      19.404   1.704 -23.994  1.00  0.00    -0.002 C 
ATOM     12  C   UNL     1      19.270   3.063 -23.303  1.00  0.00     0.005 C 
ATOM     13  C   UNL     1      19.883   0.743 -22.842  1.00  0.00    -0.026 C 
ATOM     14  C   UNL     1      20.389   3.122 -22.290  1.00  0.00     0.005 C 
ATOM     15  C   UNL     1      20.651   1.679 -21.839  1.00  0.00    -0.001 C 
ATOM     16  C   UNL     1      18.687   0.049 -22.117  1.00  0.00     0.007 C 
ATOM     17  C   UNL     1      20.857  -0.328 -23.401  1.00  0.00     0.012 C 
ATOM     18  C   UNL     1      20.269   1.485 -20.336  1.00  0.00     0.000 C 
ATOM     19  C   UNL     1      19.097  -0.733 -20.856  1.00  0.00     0.005 C 
ATOM     20  C   UNL     1      20.185  -0.026 -20.001  1.00  0.00     0.003 C 
ATOM     21  C   UNL     1      21.234   2.270 -19.392  1.00  0.00     0.031 C 
ATOM     22  C   UNL     1      20.062  -0.274 -18.456  1.00  0.00    -0.008 C 
ATOM     23  C   UNL     1      21.837   1.469 -18.263  1.00  0.00    -0.027 C 
ATOM     24  C   UNL     1      21.306   0.319 -17.802  1.00  0.00    -0.065 C 
ATOM     25  C   UNL     1      20.026  -1.804 -18.169  1.00  0.00     0.014 C 
ATOM     26  C   UNL     1      18.802   0.408 -17.856  1.00  0.00     0.016 C 
ATOM     27  C   UNL     1      22.075  -0.478 -16.768  1.00  0.00     0.063 C 
ATOM     28  C   UNL     1      20.142  -2.168 -16.673  1.00  0.00     0.033 C 
ATOM     29  C   UNL     1      21.134  -1.293 -15.869  1.00  0.00     0.118 C 
BRANCH  29  30
ATOM     30  O   UNL     1      20.420  -0.429 -15.022  1.00  0.00    -0.393 OA
ATOM     31  H   UNL     1      20.296   0.425 -15.513  1.00  0.00     0.210 HD
ENDBRANCH  29  30
ENDBRANCH   9  11
ENDBRANCH   1   9
TORSDOF 7
ENDMDL
MODEL 6
REMARK VINA RESULT:    -5.573      3.060      8.564
REMARK INTER + INTRA:          -9.298
REMARK INTER:                  -7.717
REMARK INTRA:                  -1.580
REMARK UNBOUND:                -1.607
REMARK SMILES CC[C@@H](CC[C@@H](C)[C@H]1CC[C@H]2[C@@H]3CC=C4C[C@@H](O)CC[C@]4(C)[C@H]3CC[C@@]12C)C(C)C
REMARK SMILES IDX 5 1 4 2 3 3 2 4 1 5 28 6 29 7 30 8 6 9 7 10 8 11 9 12 26 13
REMARK SMILES IDX 10 14 11 15 25 16 27 17 12 18 24 19 23 20 13 21 21 22 14 23
REMARK SMILES IDX 15 24 20 25 22 26 16 27 19 28 17 29 18 30
REMARK H PARENT 18 31
REMARK Flexibility Score: inf
ROOT
ATOM      1  C   UNL     1      21.410  -0.833 -24.927  1.00  0.00     0.004 C 
ENDROOT
BRANCH   1   2
ATOM      2  C   UNL     1      20.753  -0.279 -26.212  1.00  0.00     0.004 C 
BRANCH   2   3
ATOM      3  C   UNL     1      19.348  -0.879 -26.526  1.00  0.00    -0.009 C 
BRANCH   3   4
ATOM      4  C   UNL     1      19.340  -1.686 -27.857  1.00  0.00     0.000 C 
ATOM      5  C   UNL     1      19.833  -0.895 -29.071  1.00  0.00     0.004 C 
ENDBRANCH   3   4
BRANCH   3   6
ATOM      6  C   UNL     1      18.194   0.183 -26.496  1.00  0.00    -0.014 C 
ATOM      7  C   UNL     1      17.032  -0.260 -25.586  1.00  0.00     0.007 C 
ATOM      8  C   UNL     1      18.681   1.569 -26.027  1.00  0.00     0.007 C 
ENDBRANCH   3   6
ENDBRANCH   2   3
ENDBRANCH   1   2
BRANCH   1   9
ATOM      9  C   UNL     1      21.747   0.287 -23.895  1.00  0.00    -0.011 C 
ATOM     10  C   UNL     1      22.496   1.423 -24.627  1.00  0.00     0.008 C 
BRANCH   9  11
ATOM     11  C   UNL     1      20.463   0.841 -23.163  1.00  0.00    -0.002 C 
ATOM     12  C   UNL     1      19.412  -0.237 -22.887  1.00  0.00     0.005 C 
ATOM     13  C   UNL     1      20.653   1.545 -21.767  1.00  0.00    -0.026 C 
ATOM     14  C   UNL     1      18.459   0.366 -21.881  1.00  0.00     0.005 C 
ATOM     15  C   UNL     1      19.278   1.347 -21.032  1.00  0.00    -0.001 C 
ATOM     16  C   UNL     1      21.803   0.898 -20.932  1.00  0.00     0.007 C 
ATOM     17  C   UNL     1      20.926   3.061 -21.958  1.00  0.00     0.012 C 
ATOM     18  C   UNL     1      19.388   0.852 -19.554  1.00  0.00     0.000 C 
ATOM     19  C   UNL     1      21.886   1.418 -19.484  1.00  0.00     0.005 C 
ATOM     20  C   UNL     1      20.500   1.636 -18.814  1.00  0.00     0.003 C 
ATOM     21  C   UNL     1      18.007   0.909 -18.825  1.00  0.00     0.031 C 
ATOM     22  C   UNL     1      20.476   1.362 -17.268  1.00  0.00    -0.008 C 
ATOM     23  C   UNL     1      18.004   1.616 -17.491  1.00  0.00    -0.027 C 
ATOM     24  C   UNL     1      19.113   1.812 -16.751  1.00  0.00    -0.065 C 
ATOM     25  C   UNL     1      21.581   2.204 -16.566  1.00  0.00     0.014 C 
ATOM     26  C   UNL     1      20.669  -0.144 -16.941  1.00  0.00     0.016 C 
ATOM     27  C   UNL     1      19.017   2.663 -15.501  1.00  0.00     0.063 C 
ATOM     28  C   UNL     1      21.498   2.194 -15.025  1.00  0.00     0.033 C 
ATOM     29  C   UNL     1      20.060   2.247 -14.454  1.00  0.00     0.118 C 
BRANCH  29  30
ATOM     30  O   UNL     1      19.720   0.995 -13.915  1.00  0.00    -0.393 OA
ATOM     31  H   UNL     1      20.435   0.359 -14.183  1.00  0.00     0.210 HD
ENDBRANCH  29  30
ENDBRANCH   9  11
ENDBRANCH   1   9
TORSDOF 7
ENDMDL
MODEL 7
REMARK VINA RESULT:    -5.465      1.391      3.007
REMARK INTER + INTRA:          -9.150
REMARK INTER:                  -8.686
REMARK INTRA:                  -0.464
REMARK UNBOUND:                -1.607
REMARK SMILES CC[C@@H](CC[C@@H](C)[C@H]1CC[C@H]2[C@@H]3CC=C4C[C@@H](O)CC[C@]4(C)[C@H]3CC[C@@]12C)C(C)C
REMARK SMILES IDX 5 1 4 2 3 3 2 4 1 5 28 6 29 7 30 8 6 9 7 10 8 11 9 12 26 13
REMARK SMILES IDX 10 14 11 15 25 16 27 17 12 18 24 19 23 20 13 21 21 22 14 23
REMARK SMILES IDX 15 24 20 25 22 26 16 27 19 28 17 29 18 30
REMARK H PARENT 18 31
REMARK Flexibility Score: inf
ROOT
ATOM      1  C   UNL     1      22.045  -0.806 -16.870  1.00  0.00     0.004 C 
ENDROOT
BRANCH   1   2
ATOM      2  C   UNL     1      21.139  -0.123 -15.819  1.00  0.00     0.004 C 
BRANCH   2   3
ATOM      3  C   UNL     1      20.815   1.372 -16.125  1.00  0.00    -0.009 C 
BRANCH   3   4
ATOM      4  C   UNL     1      22.052   2.294 -15.917  1.00  0.00     0.000 C 
ATOM      5  C   UNL     1      22.161   2.886 -14.510  1.00  0.00     0.004 C 
ENDBRANCH   3   4
BRANCH   3   6
ATOM      6  C   UNL     1      19.563   1.912 -15.347  1.00  0.00    -0.014 C 
ATOM      7  C   UNL     1      18.928   3.124 -16.055  1.00  0.00     0.007 C 
ATOM      8  C   UNL     1      18.479   0.834 -15.156  1.00  0.00     0.007 C 
ENDBRANCH   3   6
ENDBRANCH   2   3
ENDBRANCH   1   2
BRANCH   1   9
ATOM      9  C   UNL     1      21.359  -0.928 -18.265  1.00  0.00    -0.011 C 
ATOM     10  C   UNL     1      20.069  -1.764 -18.109  1.00  0.00     0.008 C 
BRANCH   9  11
ATOM     11  C   UNL     1      21.043   0.478 -18.908  1.00  0.00    -0.002 C 
ATOM     12  C   UNL     1      22.223   1.068 -19.683  1.00  0.00     0.005 C 
ATOM     13  C   UNL     1      19.842   0.575 -19.923  1.00  0.00    -0.026 C 
ATOM     14  C   UNL     1      21.648   2.188 -20.520  1.00  0.00     0.005 C 
ATOM     15  C   UNL     1      20.202   1.793 -20.849  1.00  0.00    -0.001 C 
ATOM     16  C   UNL     1      19.688  -0.721 -20.779  1.00  0.00     0.007 C 
ATOM     17  C   UNL     1      18.518   0.871 -19.168  1.00  0.00     0.012 C 
ATOM     18  C   UNL     1      20.029   1.529 -22.379  1.00  0.00     0.000 C 
ATOM     19  C   UNL     1      18.663  -0.591 -21.922  1.00  0.00     0.005 C 
ATOM     20  C   UNL     1      18.694   0.787 -22.641  1.00  0.00     0.003 C 
ATOM     21  C   UNL     1      20.174   2.844 -23.209  1.00  0.00     0.031 C 
ATOM     22  C   UNL     1      18.350   0.729 -24.172  1.00  0.00    -0.008 C 
ATOM     23  C   UNL     1      19.061   3.121 -24.191  1.00  0.00    -0.027 C 
ATOM     24  C   UNL     1      18.233   2.168 -24.663  1.00  0.00    -0.065 C 
ATOM     25  C   UNL     1      16.983   0.015 -24.379  1.00  0.00     0.014 C 
ATOM     26  C   UNL     1      19.455   0.005 -24.989  1.00  0.00     0.016 C 
ATOM     27  C   UNL     1      17.059   2.583 -25.527  1.00  0.00     0.063 C 
ATOM     28  C   UNL     1      16.434   0.108 -25.818  1.00  0.00     0.033 C 
ATOM     29  C   UNL     1      16.662   1.474 -26.511  1.00  0.00     0.118 C 
BRANCH  29  30
ATOM     30  O   UNL     1      17.650   1.340 -27.501  1.00  0.00    -0.393 OA
ATOM     31  H   UNL     1      17.466   0.493 -27.985  1.00  0.00     0.210 HD
ENDBRANCH  29  30
ENDBRANCH   9  11
ENDBRANCH   1   9
TORSDOF 7
ENDMDL
MODEL 8
REMARK VINA RESULT:    -5.215     14.543     17.156
REMARK INTER + INTRA:          -8.804
REMARK INTER:                  -7.437
REMARK INTRA:                  -1.367
REMARK UNBOUND:                -1.607
REMARK SMILES CC[C@@H](CC[C@@H](C)[C@H]1CC[C@H]2[C@@H]3CC=C4C[C@@H](O)CC[C@]4(C)[C@H]3CC[C@@]12C)C(C)C
REMARK SMILES IDX 5 1 4 2 3 3 2 4 1 5 28 6 29 7 30 8 6 9 7 10 8 11 9 12 26 13
REMARK SMILES IDX 10 14 11 15 25 16 27 17 12 18 24 19 23 20 13 21 21 22 14 23
REMARK SMILES IDX 15 24 20 25 22 26 16 27 19 28 17 29 18 30
REMARK H PARENT 18 31
REMARK Flexibility Score: inf
ROOT
ATOM      1  C   UNL     1      23.837 -13.461 -27.475  1.00  0.00     0.004 C 
ENDROOT
BRANCH   1   2
ATOM      2  C   UNL     1      25.382 -13.456 -27.429  1.00  0.00     0.004 C 
BRANCH   2   3
ATOM      3  C   UNL     1      26.013 -12.050 -27.184  1.00  0.00    -0.009 C 
BRANCH   3   4
ATOM      4  C   UNL     1      27.193 -11.760 -28.155  1.00  0.00     0.000 C 
ATOM      5  C   UNL     1      27.757 -13.005 -28.843  1.00  0.00     0.004 C 
ENDBRANCH   3   4
BRANCH   3   6
ATOM      6  C   UNL     1      26.429 -11.805 -25.690  1.00  0.00    -0.014 C 
ATOM      7  C   UNL     1      25.541 -10.741 -25.016  1.00  0.00     0.007 C 
ATOM      8  C   UNL     1      26.377 -13.092 -24.845  1.00  0.00     0.007 C 
ENDBRANCH   3   6
ENDBRANCH   2   3
ENDBRANCH   1   2
BRANCH   1   9
ATOM      9  C   UNL     1      23.225 -14.780 -26.911  1.00  0.00    -0.011 C 
ATOM     10  C   UNL     1      24.378 -15.717 -26.487  1.00  0.00     0.008 C 
BRANCH   9  11
ATOM     11  C   UNL     1      22.238 -14.522 -25.707  1.00  0.00    -0.002 C 
ATOM     12  C   UNL     1      21.946 -13.039 -25.471  1.00  0.00     0.005 C 
ATOM     13  C   UNL     1      20.809 -15.181 -25.767  1.00  0.00    -0.026 C 
ATOM     14  C   UNL     1      20.736 -12.996 -24.567  1.00  0.00     0.005 C 
ATOM     15  C   UNL     1      19.903 -14.245 -24.887  1.00  0.00    -0.001 C 
ATOM     16  C   UNL     1      20.252 -15.249 -27.223  1.00  0.00     0.007 C 
ATOM     17  C   UNL     1      20.841 -16.604 -25.145  1.00  0.00     0.012 C 
ATOM     18  C   UNL     1      18.536 -13.854 -25.536  1.00  0.00     0.000 C 
ATOM     19  C   UNL     1      18.779 -15.693 -27.304  1.00  0.00     0.005 C 
ATOM     20  C   UNL     1      17.881 -15.101 -26.182  1.00  0.00     0.003 C 
ATOM     21  C   UNL     1      17.603 -13.128 -24.516  1.00  0.00     0.031 C 
ATOM     22  C   UNL     1      16.398 -14.820 -26.617  1.00  0.00    -0.008 C 
ATOM     23  C   UNL     1      16.204 -13.685 -24.403  1.00  0.00    -0.027 C 
ATOM     24  C   UNL     1      15.624 -14.437 -25.359  1.00  0.00    -0.065 C 
ATOM     25  C   UNL     1      15.771 -16.112 -27.217  1.00  0.00     0.014 C 
ATOM     26  C   UNL     1      16.303 -13.658 -27.642  1.00  0.00     0.016 C 
ATOM     27  C   UNL     1      14.275 -15.066 -25.077  1.00  0.00     0.063 C 
ATOM     28  C   UNL     1      14.250 -16.021 -27.462  1.00  0.00     0.033 C 
ATOM     29  C   UNL     1      13.463 -15.263 -26.365  1.00  0.00     0.118 C 
BRANCH  29  30
ATOM     30  O   UNL     1      13.046 -14.017 -26.860  1.00  0.00    -0.393 OA
ATOM     31  H   UNL     1      12.841 -14.140 -27.824  1.00  0.00     0.210 HD
ENDBRANCH  29  30
ENDBRANCH   9  11
ENDBRANCH   1   9
TORSDOF 7
ENDMDL
