MODEL 1
REMARK VINA RESULT:    -5.214      0.000      0.000
REMARK INTER + INTRA:         -15.384
REMARK INTER:                 -11.920
REMARK INTRA:                  -3.464
REMARK UNBOUND:                -3.464
REMARK SMILES CCCCCCCCCCCCCCCCCCCCCCCC(=O)[O-]
REMARK SMILES IDX 13 1 14 2 15 3 16 4 17 5 18 6 19 7 20 8 21 9 22 10 23 11
REMARK SMILES IDX 24 12 25 13 26 14 12 15 11 16 10 17 9 18 8 19 7 20 6 21 5 22
REMARK SMILES IDX 4 23 3 24 2 25 1 26
REMARK H PARENT
REMARK Flexibility Score: inf
ROOT
ATOM      1  C   UNL     1      10.702  24.081  -9.028  1.00  0.00     0.000 C 
ENDROOT
BRANCH   1   2
ATOM      2  C   UNL     1      12.150  24.388  -9.443  1.00  0.00     0.000 C 
BRANCH   2   3
ATOM      3  C   UNL     1      13.127  24.369  -8.256  1.00  0.00     0.000 C 
BRANCH   3   4
ATOM      4  C   UNL     1      13.028  23.078  -7.429  1.00  0.00     0.000 C 
BRANCH   4   5
ATOM      5  C   UNL     1      14.284  22.211  -7.602  1.00  0.00     0.000 C 
BRANCH   5   6
ATOM      6  C   UNL     1      15.571  23.041  -7.771  1.00  0.00     0.000 C 
BRANCH   6   7
ATOM      7  C   UNL     1      16.796  22.511  -7.003  1.00  0.00     0.000 C 
BRANCH   7   8
ATOM      8  C   UNL     1      17.196  23.406  -5.821  1.00  0.00     0.000 C 
BRANCH   8   9
ATOM      9  C   UNL     1      16.397  24.715  -5.830  1.00  0.00     0.000 C 
BRANCH   9  10
ATOM     10  C   UNL     1      15.509  24.825  -4.584  1.00  0.00     0.006 C 
BRANCH  10  11
ATOM     11  C   UNL     1      15.378  23.469  -3.880  1.00  0.00     0.053 C 
BRANCH  11  12
ATOM     12  C   UNL     1      13.974  23.239  -3.416  1.00  0.00     0.041 C 
ATOM     13  O   UNL     1      13.233  22.418  -4.018  1.00  0.00    -0.550 OA
ATOM     14  O   UNL     1      13.480  23.937  -2.318  1.00  0.00    -0.550 OA
ENDBRANCH  11  12
ENDBRANCH  10  11
ENDBRANCH   9  10
ENDBRANCH   8   9
ENDBRANCH   7   8
ENDBRANCH   6   7
ENDBRANCH   5   6
ENDBRANCH   4   5
ENDBRANCH   3   4
ENDBRANCH   2   3
ENDBRANCH   1   2
BRANCH   1  15
ATOM     15  C   UNL     1      10.129  22.926  -9.864  1.00  0.00     0.000 C 
BRANCH  15  16
ATOM     16  C   UNL     1       9.337  21.918  -9.017  1.00  0.00     0.000 C 
BRANCH  16  17
ATOM     17  C   UNL     1      10.249  20.916  -8.280  1.00  0.00     0.000 C 
BRANCH  17  18
ATOM     18  C   UNL     1       9.887  20.768  -6.789  1.00  0.00    -0.000 C 
BRANCH  18  19
ATOM     19  C   UNL     1       9.648  22.096  -6.046  1.00  0.00    -0.000 C 
BRANCH  19  20
ATOM     20  C   UNL     1       8.508  22.008  -5.018  1.00  0.00    -0.000 C 
BRANCH  20  21
ATOM     21  C   UNL     1       7.151  22.462  -5.601  1.00  0.00    -0.000 C 
BRANCH  21  22
ATOM     22  C   UNL     1       7.078  23.970  -5.909  1.00  0.00    -0.000 C 
BRANCH  22  23
ATOM     23  C   UNL     1       7.080  24.327  -7.409  1.00  0.00    -0.000 C 
BRANCH  23  24
ATOM     24  C   UNL     1       6.076  23.536  -8.272  1.00  0.00    -0.000 C 
BRANCH  24  25
ATOM     25  C   UNL     1       6.004  23.966  -9.750  1.00  0.00    -0.003 C 
ATOM     26  C   UNL     1       6.212  22.801 -10.718  1.00  0.00     0.004 C 
ENDBRANCH  24  25
ENDBRANCH  23  24
ENDBRANCH  22  23
ENDBRANCH  21  22
ENDBRANCH  20  21
ENDBRANCH  19  20
ENDBRANCH  18  19
ENDBRANCH  17  18
ENDBRANCH  16  17
ENDBRANCH  15  16
ENDBRANCH   1  15
TORSDOF 22
ENDMDL
MODEL 2
REMARK VINA RESULT:    -5.176      2.670      5.141
REMARK INTER + INTRA:         -15.298
REMARK INTER:                 -12.409
REMARK INTRA:                  -2.888
REMARK UNBOUND:                -3.464
REMARK SMILES CCCCCCCCCCCCCCCCCCCCCCCC(=O)[O-]
REMARK SMILES IDX 13 1 14 2 15 3 16 4 17 5 18 6 19 7 20 8 21 9 22 10 23 11
REMARK SMILES IDX 24 12 25 13 26 14 12 15 11 16 10 17 9 18 8 19 7 20 6 21 5 22
REMARK SMILES IDX 4 23 3 24 2 25 1 26
REMARK H PARENT
REMARK Flexibility Score: inf
ROOT
ATOM      1  C   UNL     1       7.649  23.193  -5.286  1.00  0.00     0.000 C 
ENDROOT
BRANCH   1   2
ATOM      2  C   UNL     1       8.368  21.851  -5.494  1.00  0.00     0.000 C 
BRANCH   2   3
ATOM      3  C   UNL     1       9.872  22.018  -5.770  1.00  0.00     0.000 C 
BRANCH   3   4
ATOM      4  C   UNL     1      10.358  21.152  -6.943  1.00  0.00     0.000 C 
BRANCH   4   5
ATOM      5  C   UNL     1       9.633  21.526  -8.244  1.00  0.00     0.000 C 
BRANCH   5   6
ATOM      6  C   UNL     1      10.597  21.879  -9.393  1.00  0.00     0.000 C 
BRANCH   6   7
ATOM      7  C   UNL     1      10.464  23.312  -9.941  1.00  0.00     0.000 C 
BRANCH   7   8
ATOM      8  C   UNL     1      11.133  24.362  -9.043  1.00  0.00     0.000 C 
BRANCH   8   9
ATOM      9  C   UNL     1      12.656  24.344  -9.222  1.00  0.00     0.000 C 
BRANCH   9  10
ATOM     10  C   UNL     1      13.368  24.313  -7.864  1.00  0.00     0.006 C 
BRANCH  10  11
ATOM     11  C   UNL     1      14.019  22.947  -7.615  1.00  0.00     0.053 C 
BRANCH  11  12
ATOM     12  C   UNL     1      14.270  22.731  -6.155  1.00  0.00     0.041 C 
ATOM     13  O   UNL     1      13.326  22.389  -5.393  1.00  0.00    -0.550 OA
ATOM     14  O   UNL     1      15.546  22.912  -5.632  1.00  0.00    -0.550 OA
ENDBRANCH  11  12
ENDBRANCH  10  11
ENDBRANCH   9  10
ENDBRANCH   8   9
ENDBRANCH   7   8
ENDBRANCH   6   7
ENDBRANCH   5   6
ENDBRANCH   4   5
ENDBRANCH   3   4
ENDBRANCH   2   3
ENDBRANCH   1   2
BRANCH   1  15
ATOM     15  C   UNL     1       6.613  23.432  -6.397  1.00  0.00     0.000 C 
BRANCH  15  16
ATOM     16  C   UNL     1       6.859  24.741  -7.164  1.00  0.00     0.000 C 
BRANCH  16  17
ATOM     17  C   UNL     1       7.422  24.500  -8.580  1.00  0.00     0.000 C 
BRANCH  17  18
ATOM     18  C   UNL     1       6.842  23.235  -9.244  1.00  0.00    -0.000 C 
BRANCH  18  19
ATOM     19  C   UNL     1       5.841  23.503 -10.383  1.00  0.00    -0.000 C 
BRANCH  19  20
ATOM     20  C   UNL     1       4.377  23.472  -9.912  1.00  0.00    -0.000 C 
BRANCH  20  21
ATOM     21  C   UNL     1       4.075  22.259  -9.004  1.00  0.00    -0.000 C 
BRANCH  21  22
ATOM     22  C   UNL     1       3.461  22.638  -7.643  1.00  0.00    -0.000 C 
BRANCH  22  23
ATOM     23  C   UNL     1       2.024  22.129  -7.415  1.00  0.00    -0.000 C 
BRANCH  23  24
ATOM     24  C   UNL     1       1.631  20.884  -8.236  1.00  0.00    -0.000 C 
BRANCH  24  25
ATOM     25  C   UNL     1       0.157  20.835  -8.683  1.00  0.00    -0.003 C 
ATOM     26  C   UNL     1      -0.320  19.417  -8.999  1.00  0.00     0.004 C 
ENDBRANCH  24  25
ENDBRANCH  23  24
ENDBRANCH  22  23
ENDBRANCH  21  22
ENDBRANCH  20  21
ENDBRANCH  19  20
ENDBRANCH  18  19
ENDBRANCH  17  18
ENDBRANCH  16  17
ENDBRANCH  15  16
ENDBRANCH   1  15
TORSDOF 22
ENDMDL
MODEL 3
REMARK VINA RESULT:    -5.077      4.236      9.379
REMARK INTER + INTRA:         -15.071
REMARK INTER:                 -12.900
REMARK INTRA:                  -2.171
REMARK UNBOUND:                -3.464
REMARK SMILES CCCCCCCCCCCCCCCCCCCCCCCC(=O)[O-]
REMARK SMILES IDX 13 1 14 2 15 3 16 4 17 5 18 6 19 7 20 8 21 9 22 10 23 11
REMARK SMILES IDX 24 12 25 13 26 14 12 15 11 16 10 17 9 18 8 19 7 20 6 21 5 22
REMARK SMILES IDX 4 23 3 24 2 25 1 26
REMARK H PARENT
REMARK Flexibility Score: inf
ROOT
ATOM      1  C   UNL     1       7.872  23.095  -5.299  1.00  0.00     0.000 C 
ENDROOT
BRANCH   1   2
ATOM      2  C   UNL     1       6.804  23.277  -6.389  1.00  0.00     0.000 C 
BRANCH   2   3
ATOM      3  C   UNL     1       6.867  24.660  -7.060  1.00  0.00     0.000 C 
BRANCH   3   4
ATOM      4  C   UNL     1       7.421  24.599  -8.491  1.00  0.00     0.000 C 
BRANCH   4   5
ATOM      5  C   UNL     1       7.366  23.167  -9.045  1.00  0.00     0.000 C 
BRANCH   5   6
ATOM      6  C   UNL     1       6.332  22.997 -10.175  1.00  0.00     0.000 C 
BRANCH   6   7
ATOM      7  C   UNL     1       5.524  24.262 -10.518  1.00  0.00     0.000 C 
BRANCH   7   8
ATOM      8  C   UNL     1       4.350  23.985 -11.467  1.00  0.00     0.000 C 
BRANCH   8   9
ATOM      9  C   UNL     1       3.978  25.244 -12.260  1.00  0.00     0.000 C 
BRANCH   9  10
ATOM     10  C   UNL     1       4.681  26.481 -11.688  1.00  0.00     0.006 C 
BRANCH  10  11
ATOM     11  C   UNL     1       4.672  27.635 -12.698  1.00  0.00     0.053 C 
BRANCH  11  12
ATOM     12  C   UNL     1       4.722  28.958 -12.000  1.00  0.00     0.041 C 
ATOM     13  O   UNL     1       5.794  29.620 -11.969  1.00  0.00    -0.550 OA
ATOM     14  O   UNL     1       3.584  29.462 -11.377  1.00  0.00    -0.550 OA
ENDBRANCH  11  12
ENDBRANCH  10  11
ENDBRANCH   9  10
ENDBRANCH   8   9
ENDBRANCH   7   8
ENDBRANCH   6   7
ENDBRANCH   5   6
ENDBRANCH   4   5
ENDBRANCH   3   4
ENDBRANCH   2   3
ENDBRANCH   1   2
BRANCH   1  15
ATOM     15  C   UNL     1       8.698  21.824  -5.554  1.00  0.00     0.000 C 
BRANCH  15  16
ATOM     16  C   UNL     1       9.882  22.067  -6.502  1.00  0.00     0.000 C 
BRANCH  16  17
ATOM     17  C   UNL     1       9.926  21.057  -7.667  1.00  0.00     0.000 C 
BRANCH  17  18
ATOM     18  C   UNL     1      10.931  21.458  -8.765  1.00  0.00    -0.000 C 
BRANCH  18  19
ATOM     19  C   UNL     1      10.406  22.499  -9.772  1.00  0.00    -0.000 C 
BRANCH  19  20
ATOM     20  C   UNL     1      11.416  23.626 -10.047  1.00  0.00    -0.000 C 
BRANCH  20  21
ATOM     21  C   UNL     1      11.835  24.370  -8.759  1.00  0.00    -0.000 C 
BRANCH  21  22
ATOM     22  C   UNL     1      13.275  24.065  -8.305  1.00  0.00    -0.000 C 
BRANCH  22  23
ATOM     23  C   UNL     1      13.388  23.113  -7.098  1.00  0.00    -0.000 C 
BRANCH  23  24
ATOM     24  C   UNL     1      14.827  22.819  -6.627  1.00  0.00    -0.000 C 
BRANCH  24  25
ATOM     25  C   UNL     1      15.939  23.378  -7.535  1.00  0.00    -0.003 C 
ATOM     26  C   UNL     1      17.129  22.426  -7.671  1.00  0.00     0.004 C 
ENDBRANCH  24  25
ENDBRANCH  23  24
ENDBRANCH  22  23
ENDBRANCH  21  22
ENDBRANCH  20  21
ENDBRANCH  19  20
ENDBRANCH  18  19
ENDBRANCH  17  18
ENDBRANCH  16  17
ENDBRANCH  15  16
ENDBRANCH   1  15
TORSDOF 22
ENDMDL
MODEL 4
REMARK VINA RESULT:    -5.062      1.377      3.310
REMARK INTER + INTRA:         -15.037
REMARK INTER:                 -12.179
REMARK INTRA:                  -2.857
REMARK UNBOUND:                -3.464
REMARK SMILES CCCCCCCCCCCCCCCCCCCCCCCC(=O)[O-]
REMARK SMILES IDX 13 1 14 2 15 3 16 4 17 5 18 6 19 7 20 8 21 9 22 10 23 11
REMARK SMILES IDX 24 12 25 13 26 14 12 15 11 16 10 17 9 18 8 19 7 20 6 21 5 22
REMARK SMILES IDX 4 23 3 24 2 25 1 26
REMARK H PARENT
REMARK Flexibility Score: inf
ROOT
ATOM      1  C   UNL     1       9.561  23.322  -9.613  1.00  0.00     0.000 C 
ENDROOT
BRANCH   1   2
ATOM      2  C   UNL     1      10.963  23.128 -10.212  1.00  0.00     0.000 C 
BRANCH   2   3
ATOM      3  C   UNL     1      11.919  24.285  -9.878  1.00  0.00     0.000 C 
BRANCH   3   4
ATOM      4  C   UNL     1      12.340  24.298  -8.401  1.00  0.00     0.000 C 
BRANCH   4   5
ATOM      5  C   UNL     1      13.357  23.186  -8.106  1.00  0.00     0.000 C 
BRANCH   5   6
ATOM      6  C   UNL     1      14.732  23.727  -7.668  1.00  0.00     0.000 C 
BRANCH   6   7
ATOM      7  C   UNL     1      15.341  23.042  -6.431  1.00  0.00     0.000 C 
BRANCH   7   8
ATOM      8  C   UNL     1      14.787  23.591  -5.108  1.00  0.00     0.000 C 
BRANCH   8   9
ATOM      9  C   UNL     1      13.723  22.650  -4.527  1.00  0.00     0.000 C 
BRANCH   9  10
ATOM     10  C   UNL     1      13.371  23.042  -3.087  1.00  0.00     0.006 C 
BRANCH  10  11
ATOM     11  C   UNL     1      14.634  23.372  -2.283  1.00  0.00     0.053 C 
BRANCH  11  12
ATOM     12  C   UNL     1      14.499  24.693  -1.591  1.00  0.00     0.041 C 
ATOM     13  O   UNL     1      14.860  24.820  -0.390  1.00  0.00    -0.550 OA
ATOM     14  O   UNL     1      13.968  25.785  -2.269  1.00  0.00    -0.550 OA
ENDBRANCH  11  12
ENDBRANCH  10  11
ENDBRANCH   9  10
ENDBRANCH   8   9
ENDBRANCH   7   8
ENDBRANCH   6   7
ENDBRANCH   5   6
ENDBRANCH   4   5
ENDBRANCH   3   4
ENDBRANCH   2   3
ENDBRANCH   1   2
BRANCH   1  15
ATOM     15  C   UNL     1       8.638  22.156 -10.001  1.00  0.00     0.000 C 
BRANCH  15  16
ATOM     16  C   UNL     1       7.152  22.546  -9.985  1.00  0.00     0.000 C 
BRANCH  16  17
ATOM     17  C   UNL     1       6.909  23.929  -9.347  1.00  0.00     0.000 C 
BRANCH  17  18
ATOM     18  C   UNL     1       6.278  23.834  -7.943  1.00  0.00    -0.000 C 
BRANCH  18  19
ATOM     19  C   UNL     1       6.901  24.768  -6.890  1.00  0.00    -0.000 C 
BRANCH  19  20
ATOM     20  C   UNL     1       6.826  24.196  -5.464  1.00  0.00    -0.000 C 
BRANCH  20  21
ATOM     21  C   UNL     1       6.986  22.659  -5.436  1.00  0.00    -0.000 C 
BRANCH  21  22
ATOM     22  C   UNL     1       8.441  22.189  -5.247  1.00  0.00    -0.000 C 
BRANCH  22  23
ATOM     23  C   UNL     1       9.349  22.377  -6.478  1.00  0.00    -0.000 C 
BRANCH  23  24
ATOM     24  C   UNL     1      10.547  21.408  -6.563  1.00  0.00    -0.000 C 
BRANCH  24  25
ATOM     25  C   UNL     1      10.350  20.207  -7.509  1.00  0.00    -0.003 C 
ATOM     26  C   UNL     1      11.631  19.816  -8.246  1.00  0.00     0.004 C 
ENDBRANCH  24  25
ENDBRANCH  23  24
ENDBRANCH  22  23
ENDBRANCH  21  22
ENDBRANCH  20  21
ENDBRANCH  19  20
ENDBRANCH  18  19
ENDBRANCH  17  18
ENDBRANCH  16  17
ENDBRANCH  15  16
ENDBRANCH   1  15
TORSDOF 22
ENDMDL
MODEL 5
REMARK VINA RESULT:    -5.039      1.989      2.713
REMARK INTER + INTRA:         -14.984
REMARK INTER:                 -12.313
REMARK INTRA:                  -2.670
REMARK UNBOUND:                -3.464
REMARK SMILES CCCCCCCCCCCCCCCCCCCCCCCC(=O)[O-]
REMARK SMILES IDX 13 1 14 2 15 3 16 4 17 5 18 6 19 7 20 8 21 9 22 10 23 11
REMARK SMILES IDX 24 12 25 13 26 14 12 15 11 16 10 17 9 18 8 19 7 20 6 21 5 22
REMARK SMILES IDX 4 23 3 24 2 25 1 26
REMARK H PARENT
REMARK Flexibility Score: inf
ROOT
ATOM      1  C   UNL     1      12.146  24.264  -9.505  1.00  0.00     0.000 C 
ENDROOT
BRANCH   1   2
ATOM      2  C   UNL     1      12.946  24.344  -8.195  1.00  0.00     0.000 C 
BRANCH   2   3
ATOM      3  C   UNL     1      13.593  23.003  -7.810  1.00  0.00     0.000 C 
BRANCH   3   4
ATOM      4  C   UNL     1      13.957  22.929  -6.319  1.00  0.00     0.000 C 
BRANCH   4   5
ATOM      5  C   UNL     1      15.480  22.960  -6.120  1.00  0.00     0.000 C 
BRANCH   5   6
ATOM      6  C   UNL     1      15.892  23.185  -4.652  1.00  0.00     0.000 C 
BRANCH   6   7
ATOM      7  C   UNL     1      14.833  23.880  -3.775  1.00  0.00     0.000 C 
BRANCH   7   8
ATOM      8  C   UNL     1      15.210  25.323  -3.410  1.00  0.00     0.000 C 
BRANCH   8   9
ATOM      9  C   UNL     1      15.010  25.578  -1.910  1.00  0.00     0.000 C 
BRANCH   9  10
ATOM     10  C   UNL     1      13.659  25.029  -1.436  1.00  0.00     0.006 C 
BRANCH  10  11
ATOM     11  C   UNL     1      13.258  25.644  -0.089  1.00  0.00     0.053 C 
BRANCH  11  12
ATOM     12  C   UNL     1      13.386  24.642   1.016  1.00  0.00     0.041 C 
ATOM     13  O   UNL     1      12.419  23.888   1.303  1.00  0.00    -0.550 OA
ATOM     14  O   UNL     1      14.573  24.544   1.735  1.00  0.00    -0.550 OA
ENDBRANCH  11  12
ENDBRANCH  10  11
ENDBRANCH   9  10
ENDBRANCH   8   9
ENDBRANCH   7   8
ENDBRANCH   6   7
ENDBRANCH   5   6
ENDBRANCH   4   5
ENDBRANCH   3   4
ENDBRANCH   2   3
ENDBRANCH   1   2
BRANCH   1  15
ATOM     15  C   UNL     1      10.679  23.902  -9.225  1.00  0.00     0.000 C 
BRANCH  15  16
ATOM     16  C   UNL     1      10.341  22.454  -9.614  1.00  0.00     0.000 C 
BRANCH  16  17
ATOM     17  C   UNL     1       9.822  21.625  -8.421  1.00  0.00     0.000 C 
BRANCH  17  18
ATOM     18  C   UNL     1       9.964  22.366  -7.076  1.00  0.00    -0.000 C 
BRANCH  18  19
ATOM     19  C   UNL     1       9.159  21.756  -5.914  1.00  0.00    -0.000 C 
BRANCH  19  20
ATOM     20  C   UNL     1       8.194  22.761  -5.263  1.00  0.00    -0.000 C 
BRANCH  20  21
ATOM     21  C   UNL     1       6.716  22.460  -5.595  1.00  0.00    -0.000 C 
BRANCH  21  22
ATOM     22  C   UNL     1       5.983  23.626  -6.286  1.00  0.00    -0.000 C 
BRANCH  22  23
ATOM     23  C   UNL     1       6.902  24.642  -6.993  1.00  0.00    -0.000 C 
BRANCH  23  24
ATOM     24  C   UNL     1       7.161  24.363  -8.487  1.00  0.00    -0.000 C 
BRANCH  24  25
ATOM     25  C   UNL     1       6.121  23.455  -9.173  1.00  0.00    -0.003 C 
ATOM     26  C   UNL     1       6.715  22.630 -10.315  1.00  0.00     0.004 C 
ENDBRANCH  24  25
ENDBRANCH  23  24
ENDBRANCH  22  23
ENDBRANCH  21  22
ENDBRANCH  20  21
ENDBRANCH  19  20
ENDBRANCH  18  19
ENDBRANCH  17  18
ENDBRANCH  16  17
ENDBRANCH  15  16
ENDBRANCH   1  15
TORSDOF 22
ENDMDL
MODEL 6
REMARK VINA RESULT:    -5.020      1.091      2.999
REMARK INTER + INTRA:         -14.941
REMARK INTER:                 -12.125
REMARK INTRA:                  -2.816
REMARK UNBOUND:                -3.464
REMARK SMILES CCCCCCCCCCCCCCCCCCCCCCCC(=O)[O-]
REMARK SMILES IDX 13 1 14 2 15 3 16 4 17 5 18 6 19 7 20 8 21 9 22 10 23 11
REMARK SMILES IDX 24 12 25 13 26 14 12 15 11 16 10 17 9 18 8 19 7 20 6 21 5 22
REMARK SMILES IDX 4 23 3 24 2 25 1 26
REMARK H PARENT
REMARK Flexibility Score: inf
ROOT
ATOM      1  C   UNL     1      12.045  24.476  -9.608  1.00  0.00     0.000 C 
ENDROOT
BRANCH   1   2
ATOM      2  C   UNL     1      12.880  24.383  -8.321  1.00  0.00     0.000 C 
BRANCH   2   3
ATOM      3  C   UNL     1      13.108  22.934  -7.862  1.00  0.00     0.000 C 
BRANCH   3   4
ATOM      4  C   UNL     1      14.192  22.819  -6.780  1.00  0.00     0.000 C 
BRANCH   4   5
ATOM      5  C   UNL     1      15.596  22.954  -7.387  1.00  0.00     0.000 C 
BRANCH   5   6
ATOM      6  C   UNL     1      16.484  23.965  -6.637  1.00  0.00     0.000 C 
BRANCH   6   7
ATOM      7  C   UNL     1      15.732  25.151  -6.004  1.00  0.00     0.000 C 
BRANCH   7   8
ATOM      8  C   UNL     1      16.237  25.498  -4.596  1.00  0.00     0.000 C 
BRANCH   8   9
ATOM      9  C   UNL     1      15.145  26.204  -3.782  1.00  0.00     0.000 C 
BRANCH   9  10
ATOM     10  C   UNL     1      14.755  25.376  -2.552  1.00  0.00     0.006 C 
BRANCH  10  11
ATOM     11  C   UNL     1      14.496  23.913  -2.933  1.00  0.00     0.053 C 
BRANCH  11  12
ATOM     12  C   UNL     1      13.485  23.293  -2.020  1.00  0.00     0.041 C 
ATOM     13  O   UNL     1      13.554  23.479  -0.776  1.00  0.00    -0.550 OA
ATOM     14  O   UNL     1      12.466  22.502  -2.543  1.00  0.00    -0.550 OA
ENDBRANCH  11  12
ENDBRANCH  10  11
ENDBRANCH   9  10
ENDBRANCH   8   9
ENDBRANCH   7   8
ENDBRANCH   6   7
ENDBRANCH   5   6
ENDBRANCH   4   5
ENDBRANCH   3   4
ENDBRANCH   2   3
ENDBRANCH   1   2
BRANCH   1  15
ATOM     15  C   UNL     1      11.136  23.246  -9.757  1.00  0.00     0.000 C 
BRANCH  15  16
ATOM     16  C   UNL     1       9.671  23.546  -9.403  1.00  0.00     0.000 C 
BRANCH  16  17
ATOM     17  C   UNL     1       8.701  22.467  -9.929  1.00  0.00     0.000 C 
BRANCH  17  18
ATOM     18  C   UNL     1       7.222  22.862  -9.756  1.00  0.00    -0.000 C 
BRANCH  18  19
ATOM     19  C   UNL     1       6.979  24.067  -8.827  1.00  0.00    -0.000 C 
BRANCH  19  20
ATOM     20  C   UNL     1       6.511  23.652  -7.421  1.00  0.00    -0.000 C 
BRANCH  20  21
ATOM     21  C   UNL     1       7.654  23.701  -6.382  1.00  0.00    -0.000 C 
BRANCH  21  22
ATOM     22  C   UNL     1       7.518  22.655  -5.259  1.00  0.00    -0.000 C 
BRANCH  22  23
ATOM     23  C   UNL     1       8.748  21.746  -5.066  1.00  0.00    -0.000 C 
BRANCH  23  24
ATOM     24  C   UNL     1       9.720  21.695  -6.262  1.00  0.00    -0.000 C 
BRANCH  24  25
ATOM     25  C   UNL     1       9.605  20.438  -7.145  1.00  0.00    -0.003 C 
ATOM     26  C   UNL     1      10.895  20.125  -7.904  1.00  0.00     0.004 C 
ENDBRANCH  24  25
ENDBRANCH  23  24
ENDBRANCH  22  23
ENDBRANCH  21  22
ENDBRANCH  20  21
ENDBRANCH  19  20
ENDBRANCH  18  19
ENDBRANCH  17  18
ENDBRANCH  16  17
ENDBRANCH  15  16
ENDBRANCH   1  15
TORSDOF 22
ENDMDL
MODEL 7
REMARK VINA RESULT:    -4.999      3.183      8.431
REMARK INTER + INTRA:         -14.893
REMARK INTER:                 -11.946
REMARK INTRA:                  -2.947
REMARK UNBOUND:                -3.464
REMARK SMILES CCCCCCCCCCCCCCCCCCCCCCCC(=O)[O-]
REMARK SMILES IDX 13 1 14 2 15 3 16 4 17 5 18 6 19 7 20 8 21 9 22 10 23 11
REMARK SMILES IDX 24 12 25 13 26 14 12 15 11 16 10 17 9 18 8 19 7 20 6 21 5 22
REMARK SMILES IDX 4 23 3 24 2 25 1 26
REMARK H PARENT
REMARK Flexibility Score: inf
ROOT
ATOM      1  C   UNL     1       9.871  23.327  -9.237  1.00  0.00     0.000 C 
ENDROOT
BRANCH   1   2
ATOM      2  C   UNL     1       9.406  21.876  -9.031  1.00  0.00     0.000 C 
BRANCH   2   3
ATOM      3  C   UNL     1      10.109  21.188  -7.849  1.00  0.00     0.000 C 
BRANCH   3   4
ATOM      4  C   UNL     1      10.060  22.025  -6.562  1.00  0.00     0.000 C 
BRANCH   4   5
ATOM      5  C   UNL     1       8.787  21.728  -5.756  1.00  0.00     0.000 C 
BRANCH   5   6
ATOM      6  C   UNL     1       7.968  22.992  -5.432  1.00  0.00     0.000 C 
BRANCH   6   7
ATOM      7  C   UNL     1       6.799  23.277  -6.393  1.00  0.00     0.000 C 
BRANCH   7   8
ATOM      8  C   UNL     1       7.074  24.452  -7.341  1.00  0.00     0.000 C 
BRANCH   8   9
ATOM      9  C   UNL     1       6.448  24.202  -8.719  1.00  0.00     0.000 C 
BRANCH   9  10
ATOM     10  C   UNL     1       5.905  22.772  -8.824  1.00  0.00     0.006 C 
BRANCH  10  11
ATOM     11  C   UNL     1       4.445  22.771  -9.292  1.00  0.00     0.053 C 
BRANCH  11  12
ATOM     12  C   UNL     1       3.520  22.449  -8.159  1.00  0.00     0.041 C 
ATOM     13  O   UNL     1       3.774  22.862  -6.997  1.00  0.00    -0.550 OA
ATOM     14  O   UNL     1       2.378  21.688  -8.386  1.00  0.00    -0.550 OA
ENDBRANCH  11  12
ENDBRANCH  10  11
ENDBRANCH   9  10
ENDBRANCH   8   9
ENDBRANCH   7   8
ENDBRANCH   6   7
ENDBRANCH   5   6
ENDBRANCH   4   5
ENDBRANCH   3   4
ENDBRANCH   2   3
ENDBRANCH   1   2
BRANCH   1  15
ATOM     15  C   UNL     1      11.100  23.379 -10.158  1.00  0.00     0.000 C 
BRANCH  15  16
ATOM     16  C   UNL     1      12.115  24.451  -9.732  1.00  0.00     0.000 C 
BRANCH  16  17
ATOM     17  C   UNL     1      12.600  24.265  -8.279  1.00  0.00     0.000 C 
BRANCH  17  18
ATOM     18  C   UNL     1      13.326  22.922  -8.063  1.00  0.00    -0.000 C 
BRANCH  18  19
ATOM     19  C   UNL     1      14.247  22.877  -6.829  1.00  0.00    -0.000 C 
BRANCH  19  20
ATOM     20  C   UNL     1      15.738  22.976  -7.193  1.00  0.00    -0.000 C 
BRANCH  20  21
ATOM     21  C   UNL     1      16.462  24.097  -6.413  1.00  0.00    -0.000 C 
BRANCH  21  22
ATOM     22  C   UNL     1      15.540  25.257  -5.992  1.00  0.00    -0.000 C 
BRANCH  22  23
ATOM     23  C   UNL     1      15.810  25.823  -4.584  1.00  0.00    -0.000 C 
BRANCH  23  24
ATOM     24  C   UNL     1      15.763  24.788  -3.441  1.00  0.00    -0.000 C 
BRANCH  24  25
ATOM     25  C   UNL     1      14.368  24.550  -2.832  1.00  0.00    -0.003 C 
ATOM     26  C   UNL     1      13.781  23.189  -3.208  1.00  0.00     0.004 C 
ENDBRANCH  24  25
ENDBRANCH  23  24
ENDBRANCH  22  23
ENDBRANCH  21  22
ENDBRANCH  20  21
ENDBRANCH  19  20
ENDBRANCH  18  19
ENDBRANCH  17  18
ENDBRANCH  16  17
ENDBRANCH  15  16
ENDBRANCH   1  15
TORSDOF 22
ENDMDL
MODEL 8
REMARK VINA RESULT:    -4.925      1.772      2.823
REMARK INTER + INTRA:         -14.723
REMARK INTER:                 -12.101
REMARK INTRA:                  -2.622
REMARK UNBOUND:                -3.464
REMARK SMILES CCCCCCCCCCCCCCCCCCCCCCCC(=O)[O-]
REMARK SMILES IDX 13 1 14 2 15 3 16 4 17 5 18 6 19 7 20 8 21 9 22 10 23 11
REMARK SMILES IDX 24 12 25 13 26 14 12 15 11 16 10 17 9 18 8 19 7 20 6 21 5 22
REMARK SMILES IDX 4 23 3 24 2 25 1 26
REMARK H PARENT
REMARK Flexibility Score: inf
ROOT
ATOM      1  C   UNL     1      12.854  24.352  -8.599  1.00  0.00     0.000 C 
ENDROOT
BRANCH   1   2
ATOM      2  C   UNL     1      13.058  23.238  -7.560  1.00  0.00     0.000 C 
BRANCH   2   3
ATOM      3  C   UNL     1      14.436  22.566  -7.670  1.00  0.00     0.000 C 
BRANCH   3   4
ATOM      4  C   UNL     1      15.591  23.531  -7.359  1.00  0.00     0.000 C 
BRANCH   4   5
ATOM      5  C   UNL     1      15.480  24.085  -5.931  1.00  0.00     0.000 C 
BRANCH   5   6
ATOM      6  C   UNL     1      16.173  23.194  -4.882  1.00  0.00     0.000 C 
BRANCH   6   7
ATOM      7  C   UNL     1      15.575  23.266  -3.465  1.00  0.00     0.000 C 
BRANCH   7   8
ATOM      8  C   UNL     1      14.041  23.335  -3.465  1.00  0.00     0.000 C 
BRANCH   8   9
ATOM      9  C   UNL     1      13.530  24.166  -2.280  1.00  0.00     0.000 C 
BRANCH   9  10
ATOM     10  C   UNL     1      14.679  24.539  -1.335  1.00  0.00     0.006 C 
BRANCH  10  11
ATOM     11  C   UNL     1      14.604  26.017  -0.935  1.00  0.00     0.053 C 
BRANCH  11  12
ATOM     12  C   UNL     1      15.398  26.868  -1.877  1.00  0.00     0.041 C 
ATOM     13  O   UNL     1      14.955  27.987  -2.248  1.00  0.00    -0.550 OA
ATOM     14  O   UNL     1      16.629  26.424  -2.349  1.00  0.00    -0.550 OA
ENDBRANCH  11  12
ENDBRANCH  10  11
ENDBRANCH   9  10
ENDBRANCH   8   9
ENDBRANCH   7   8
ENDBRANCH   6   7
ENDBRANCH   5   6
ENDBRANCH   4   5
ENDBRANCH   3   4
ENDBRANCH   2   3
ENDBRANCH   1   2
BRANCH   1  15
ATOM     15  C   UNL     1      11.536  24.148  -9.363  1.00  0.00     0.000 C 
BRANCH  15  16
ATOM     16  C   UNL     1      11.264  22.672  -9.692  1.00  0.00     0.000 C 
BRANCH  16  17
ATOM     17  C   UNL     1       9.818  22.247  -9.360  1.00  0.00     0.000 C 
BRANCH  17  18
ATOM     18  C   UNL     1       9.722  21.448  -8.045  1.00  0.00    -0.000 C 
BRANCH  18  19
ATOM     19  C   UNL     1       9.704  22.306  -6.766  1.00  0.00    -0.000 C 
BRANCH  19  20
ATOM     20  C   UNL     1       8.627  21.861  -5.763  1.00  0.00    -0.000 C 
BRANCH  20  21
ATOM     21  C   UNL     1       7.709  23.025  -5.327  1.00  0.00    -0.000 C 
BRANCH  21  22
ATOM     22  C   UNL     1       6.687  23.447  -6.401  1.00  0.00    -0.000 C 
BRANCH  22  23
ATOM     23  C   UNL     1       7.114  24.649  -7.266  1.00  0.00    -0.000 C 
BRANCH  23  24
ATOM     24  C   UNL     1       6.927  24.461  -8.786  1.00  0.00    -0.000 C 
BRANCH  24  25
ATOM     25  C   UNL     1       5.956  23.335  -9.191  1.00  0.00    -0.003 C 
ATOM     26  C   UNL     1       6.397  22.597 -10.456  1.00  0.00     0.004 C 
ENDBRANCH  24  25
ENDBRANCH  23  24
ENDBRANCH  22  23
ENDBRANCH  21  22
ENDBRANCH  20  21
ENDBRANCH  19  20
ENDBRANCH  18  19
ENDBRANCH  17  18
ENDBRANCH  16  17
ENDBRANCH  15  16
ENDBRANCH   1  15
TORSDOF 22
ENDMDL
MODEL 9
REMARK VINA RESULT:    -4.824      1.737      3.345
REMARK INTER + INTRA:         -14.492
REMARK INTER:                 -12.032
REMARK INTRA:                  -2.460
REMARK UNBOUND:                -3.464
REMARK SMILES CCCCCCCCCCCCCCCCCCCCCCCC(=O)[O-]
REMARK SMILES IDX 13 1 14 2 15 3 16 4 17 5 18 6 19 7 20 8 21 9 22 10 23 11
REMARK SMILES IDX 24 12 25 13 26 14 12 15 11 16 10 17 9 18 8 19 7 20 6 21 5 22
REMARK SMILES IDX 4 23 3 24 2 25 1 26
REMARK H PARENT
REMARK Flexibility Score: inf
ROOT
ATOM      1  C   UNL     1      11.743  24.433  -9.390  1.00  0.00     0.000 C 
ENDROOT
BRANCH   1   2
ATOM      2  C   UNL     1      12.815  24.079  -8.347  1.00  0.00     0.000 C 
BRANCH   2   3
ATOM      3  C   UNL     1      12.440  22.850  -7.502  1.00  0.00     0.000 C 
BRANCH   3   4
ATOM      4  C   UNL     1      13.657  22.214  -6.811  1.00  0.00     0.000 C 
BRANCH   4   5
ATOM      5  C   UNL     1      14.967  22.835  -7.317  1.00  0.00     0.000 C 
BRANCH   5   6
ATOM      6  C   UNL     1      15.960  23.156  -6.183  1.00  0.00     0.000 C 
BRANCH   6   7
ATOM      7  C   UNL     1      15.599  24.384  -5.326  1.00  0.00     0.000 C 
BRANCH   7   8
ATOM      8  C   UNL     1      15.500  24.062  -3.828  1.00  0.00     0.000 C 
BRANCH   8   9
ATOM      9  C   UNL     1      14.230  23.256  -3.525  1.00  0.00     0.000 C 
BRANCH   9  10
ATOM     10  C   UNL     1      13.585  23.721  -2.214  1.00  0.00     0.006 C 
BRANCH  10  11
ATOM     11  C   UNL     1      13.744  25.234  -2.028  1.00  0.00     0.053 C 
BRANCH  11  12
ATOM     12  C   UNL     1      13.977  25.577  -0.590  1.00  0.00     0.041 C 
ATOM     13  O   UNL     1      15.149  25.737  -0.158  1.00  0.00    -0.550 OA
ATOM     14  O   UNL     1      12.898  25.714   0.278  1.00  0.00    -0.550 OA
ENDBRANCH  11  12
ENDBRANCH  10  11
ENDBRANCH   9  10
ENDBRANCH   8   9
ENDBRANCH   7   8
ENDBRANCH   6   7
ENDBRANCH   5   6
ENDBRANCH   4   5
ENDBRANCH   3   4
ENDBRANCH   2   3
ENDBRANCH   1   2
BRANCH   1  15
ATOM     15  C   UNL     1      10.882  23.204  -9.724  1.00  0.00     0.000 C 
BRANCH  15  16
ATOM     16  C   UNL     1       9.395  23.415  -9.398  1.00  0.00     0.000 C 
BRANCH  16  17
ATOM     17  C   UNL     1       8.583  22.104  -9.458  1.00  0.00     0.000 C 
BRANCH  17  18
ATOM     18  C   UNL     1       7.217  22.283 -10.150  1.00  0.00    -0.000 C 
BRANCH  18  19
ATOM     19  C   UNL     1       6.589  23.680  -9.989  1.00  0.00    -0.000 C 
BRANCH  19  20
ATOM     20  C   UNL     1       5.058  23.633  -9.847  1.00  0.00    -0.000 C 
BRANCH  20  21
ATOM     21  C   UNL     1       4.580  22.430  -9.004  1.00  0.00    -0.000 C 
BRANCH  21  22
ATOM     22  C   UNL     1       3.984  22.825  -7.639  1.00  0.00    -0.000 C 
BRANCH  22  23
ATOM     23  C   UNL     1       4.986  22.820  -6.467  1.00  0.00    -0.000 C 
BRANCH  23  24
ATOM     24  C   UNL     1       5.688  24.167  -6.200  1.00  0.00    -0.000 C 
BRANCH  24  25
ATOM     25  C   UNL     1       7.222  24.145  -6.349  1.00  0.00    -0.003 C 
ATOM     26  C   UNL     1       7.854  22.869  -5.792  1.00  0.00     0.004 C 
ENDBRANCH  24  25
ENDBRANCH  23  24
ENDBRANCH  22  23
ENDBRANCH  21  22
ENDBRANCH  20  21
ENDBRANCH  19  20
ENDBRANCH  18  19
ENDBRANCH  17  18
ENDBRANCH  16  17
ENDBRANCH  15  16
ENDBRANCH   1  15
TORSDOF 22
ENDMDL
