MODEL 1
REMARK VINA RESULT:    -6.579      0.000      0.000
REMARK INTER + INTRA:          -8.026
REMARK INTER:                  -7.732
REMARK INTRA:                  -0.294
REMARK UNBOUND:                -0.294
REMARK SMILES O=c1cc(-c2ccc(O)c(O)c2)oc2cc(O)cc(O)c12
REMARK SMILES IDX 4 1 3 2 2 3 1 4 21 5 19 6 18 7 16 8 15 9 14 10 13 11 5 12
REMARK SMILES IDX 6 13 7 14 8 15 12 16 10 17 9 18 11 20 20 22 17 24
REMARK H PARENT 9 19 11 21 20 23 17 25
REMARK Flexibility Score: inf
ROOT
ATOM      1  C   UNL     1      73.337  41.827  -4.847  1.00  0.00     0.138 A 
ATOM      2  C   UNL     1      72.322  40.912  -4.538  1.00  0.00     0.100 A 
ATOM      3  C   UNL     1      72.049  39.861  -5.415  1.00  0.00     0.197 A 
ATOM      4  O   UNL     1      71.095  39.090  -5.137  1.00  0.00    -0.289 OA
ATOM      5  C   UNL     1      72.822  39.707  -6.591  1.00  0.00     0.107 A 
ATOM      6  C   UNL     1      72.657  38.654  -7.542  1.00  0.00     0.134 A 
ATOM      7  C   UNL     1      73.418  38.661  -8.717  1.00  0.00     0.093 A 
ATOM      8  C   UNL     1      74.377  39.646  -8.951  1.00  0.00     0.123 A 
ATOM      9  C   UNL     1      74.581  40.653  -8.005  1.00  0.00     0.094 A 
ATOM     10  C   UNL     1      73.815  40.693  -6.839  1.00  0.00     0.146 A 
ATOM     11  O   UNL     1      74.029  41.678  -5.972  1.00  0.00    -0.456 OA
ENDROOT
BRANCH   1  12
ATOM     12  C   UNL     1      73.673  42.961  -3.949  1.00  0.00     0.021 A 
ATOM     13  C   UNL     1      74.426  44.038  -4.447  1.00  0.00     0.016 A 
ATOM     14  C   UNL     1      74.749  45.120  -3.626  1.00  0.00     0.051 A 
ATOM     15  C   UNL     1      74.318  45.152  -2.297  1.00  0.00     0.157 A 
ATOM     16  C   UNL     1      73.230  43.004  -2.612  1.00  0.00     0.062 A 
ATOM     17  C   UNL     1      73.551  44.092  -1.787  1.00  0.00     0.158 A 
BRANCH  15  18
ATOM     18  O   UNL     1      74.658  46.245  -1.500  1.00  0.00    -0.504 OA
ATOM     19  H   UNL     1      74.289  46.364  -0.564  1.00  0.00     0.293 HD
ENDBRANCH  15  18
BRANCH  17  20
ATOM     20  O   UNL     1      73.110  44.123  -0.465  1.00  0.00    -0.504 OA
ATOM     21  H   UNL     1      73.021  43.278   0.086  1.00  0.00     0.293 HD
ENDBRANCH  17  20
ENDBRANCH   1  12
BRANCH   6  22
ATOM     22  O   UNL     1      71.785  37.574  -7.372  1.00  0.00    -0.507 OA
ATOM     23  H   UNL     1      71.783  36.949  -6.581  1.00  0.00     0.293 HD
ENDBRANCH   6  22
BRANCH   8  24
ATOM     24  O   UNL     1      75.125  39.613 -10.125  1.00  0.00    -0.508 OA
ATOM     25  H   UNL     1      75.916  40.231 -10.268  1.00  0.00     0.293 HD
ENDBRANCH   8  24
TORSDOF 5
ENDMDL
MODEL 2
REMARK VINA RESULT:    -6.497     13.506     16.052
REMARK INTER + INTRA:          -7.931
REMARK INTER:                  -7.655
REMARK INTRA:                  -0.276
REMARK UNBOUND:                -0.294
REMARK SMILES O=c1cc(-c2ccc(O)c(O)c2)oc2cc(O)cc(O)c12
REMARK SMILES IDX 4 1 3 2 2 3 1 4 21 5 19 6 18 7 16 8 15 9 14 10 13 11 5 12
REMARK SMILES IDX 6 13 7 14 8 15 12 16 10 17 9 18 11 20 20 22 17 24
REMARK H PARENT 9 19 11 21 20 23 17 25
REMARK Flexibility Score: inf
ROOT
ATOM      1  C   UNL     1      69.430  48.396   7.822  1.00  0.00     0.138 A 
ATOM      2  C   UNL     1      69.666  48.557   6.451  1.00  0.00     0.100 A 
ATOM      3  C   UNL     1      70.965  48.431   5.954  1.00  0.00     0.197 A 
ATOM      4  O   UNL     1      71.152  48.638   4.727  1.00  0.00    -0.289 OA
ATOM      5  C   UNL     1      72.026  48.107   6.832  1.00  0.00     0.107 A 
ATOM      6  C   UNL     1      73.385  47.919   6.434  1.00  0.00     0.134 A 
ATOM      7  C   UNL     1      74.365  47.695   7.409  1.00  0.00     0.093 A 
ATOM      8  C   UNL     1      74.030  47.595   8.759  1.00  0.00     0.123 A 
ATOM      9  C   UNL     1      72.698  47.728   9.154  1.00  0.00     0.094 A 
ATOM     10  C   UNL     1      71.702  47.985   8.211  1.00  0.00     0.146 A 
ATOM     11  O   UNL     1      70.449  48.122   8.631  1.00  0.00    -0.456 OA
ENDROOT
BRANCH   1  12
ATOM     12  C   UNL     1      68.070  48.516   8.405  1.00  0.00     0.021 A 
ATOM     13  C   UNL     1      67.875  49.307   9.550  1.00  0.00     0.016 A 
ATOM     14  C   UNL     1      66.604  49.442  10.113  1.00  0.00     0.051 A 
ATOM     15  C   UNL     1      65.504  48.799   9.539  1.00  0.00     0.157 A 
ATOM     16  C   UNL     1      66.956  47.880   7.822  1.00  0.00     0.062 A 
ATOM     17  C   UNL     1      65.678  48.017   8.385  1.00  0.00     0.158 A 
BRANCH  15  18
ATOM     18  O   UNL     1      64.248  48.951  10.125  1.00  0.00    -0.504 OA
ATOM     19  H   UNL     1      63.796  49.854  10.202  1.00  0.00     0.293 HD
ENDBRANCH  15  18
BRANCH  17  20
ATOM     20  O   UNL     1      64.583  47.382   7.802  1.00  0.00    -0.504 OA
ATOM     21  H   UNL     1      64.161  47.728   6.948  1.00  0.00     0.293 HD
ENDBRANCH  17  20
ENDBRANCH   1  12
BRANCH   6  22
ATOM     22  O   UNL     1      73.819  47.919   5.105  1.00  0.00    -0.507 OA
ATOM     23  H   UNL     1      73.489  48.546   4.387  1.00  0.00     0.293 HD
ENDBRANCH   6  22
BRANCH   8  24
ATOM     24  O   UNL     1      75.030  47.358   9.698  1.00  0.00    -0.508 OA
ATOM     25  H   UNL     1      75.922  46.955   9.433  1.00  0.00     0.293 HD
ENDBRANCH   8  24
TORSDOF 5
ENDMDL
MODEL 3
REMARK VINA RESULT:    -6.263     12.319     15.816
REMARK INTER + INTRA:          -7.656
REMARK INTER:                  -7.338
REMARK INTRA:                  -0.318
REMARK UNBOUND:                -0.294
REMARK SMILES O=c1cc(-c2ccc(O)c(O)c2)oc2cc(O)cc(O)c12
REMARK SMILES IDX 4 1 3 2 2 3 1 4 21 5 19 6 18 7 16 8 15 9 14 10 13 11 5 12
REMARK SMILES IDX 6 13 7 14 8 15 12 16 10 17 9 18 11 20 20 22 17 24
REMARK H PARENT 9 19 11 21 20 23 17 25
REMARK Flexibility Score: inf
ROOT
ATOM      1  C   UNL     1      69.625  48.055   8.373  1.00  0.00     0.138 A 
ATOM      2  C   UNL     1      70.536  48.236   9.422  1.00  0.00     0.100 A 
ATOM      3  C   UNL     1      71.905  48.260   9.153  1.00  0.00     0.197 A 
ATOM      4  O   UNL     1      72.698  48.367  10.123  1.00  0.00    -0.289 OA
ATOM      5  C   UNL     1      72.362  48.138   7.818  1.00  0.00     0.107 A 
ATOM      6  C   UNL     1      73.732  48.183   7.419  1.00  0.00     0.134 A 
ATOM      7  C   UNL     1      74.068  47.954   6.079  1.00  0.00     0.093 A 
ATOM      8  C   UNL     1      73.084  47.738   5.115  1.00  0.00     0.123 A 
ATOM      9  C   UNL     1      71.738  47.741   5.486  1.00  0.00     0.094 A 
ATOM     10  C   UNL     1      71.372  47.933   6.819  1.00  0.00     0.146 A 
ATOM     11  O   UNL     1      70.081  47.912   7.133  1.00  0.00    -0.456 OA
ENDROOT
BRANCH   1  12
ATOM     12  C   UNL     1      68.159  48.024   8.601  1.00  0.00     0.021 A 
ATOM     13  C   UNL     1      67.653  48.296   9.884  1.00  0.00     0.016 A 
ATOM     14  C   UNL     1      66.277  48.281  10.125  1.00  0.00     0.051 A 
ATOM     15  C   UNL     1      65.382  48.005   9.088  1.00  0.00     0.157 A 
ATOM     16  C   UNL     1      67.251  47.760   7.557  1.00  0.00     0.062 A 
ATOM     17  C   UNL     1      65.869  47.747   7.797  1.00  0.00     0.158 A 
BRANCH  15  18
ATOM     18  O   UNL     1      64.013  47.996   9.359  1.00  0.00    -0.504 OA
ATOM     19  H   UNL     1      63.531  48.810   9.721  1.00  0.00     0.293 HD
ENDBRANCH  15  18
BRANCH  17  20
ATOM     20  O   UNL     1      64.979  47.482   6.756  1.00  0.00    -0.504 OA
ATOM     21  H   UNL     1      65.091  47.904   5.842  1.00  0.00     0.293 HD
ENDBRANCH  17  20
ENDBRANCH   1  12
BRANCH   6  22
ATOM     22  O   UNL     1      74.792  48.469   8.286  1.00  0.00    -0.507 OA
ATOM     23  H   UNL     1      74.824  48.224   9.263  1.00  0.00     0.293 HD
ENDBRANCH   6  22
BRANCH   8  24
ATOM     24  O   UNL     1      73.456  47.528   3.789  1.00  0.00    -0.508 OA
ATOM     25  H   UNL     1      73.360  46.619   3.350  1.00  0.00     0.293 HD
ENDBRANCH   8  24
TORSDOF 5
ENDMDL
MODEL 4
REMARK VINA RESULT:    -6.096      1.212      6.847
REMARK INTER + INTRA:          -7.459
REMARK INTER:                  -7.162
REMARK INTRA:                  -0.296
REMARK UNBOUND:                -0.294
REMARK SMILES O=c1cc(-c2ccc(O)c(O)c2)oc2cc(O)cc(O)c12
REMARK SMILES IDX 4 1 3 2 2 3 1 4 21 5 19 6 18 7 16 8 15 9 14 10 13 11 5 12
REMARK SMILES IDX 6 13 7 14 8 15 12 16 10 17 9 18 11 20 20 22 17 24
REMARK H PARENT 9 19 11 21 20 23 17 25
REMARK Flexibility Score: inf
ROOT
ATOM      1  C   UNL     1      73.572  41.573  -5.289  1.00  0.00     0.138 A 
ATOM      2  C   UNL     1      72.722  41.062  -4.300  1.00  0.00     0.100 A 
ATOM      3  C   UNL     1      72.480  41.807  -3.144  1.00  0.00     0.197 A 
ATOM      4  O   UNL     1      71.758  41.296  -2.251  1.00  0.00    -0.289 OA
ATOM      5  C   UNL     1      73.066  43.088  -2.997  1.00  0.00     0.107 A 
ATOM      6  C   UNL     1      72.863  43.952  -1.879  1.00  0.00     0.134 A 
ATOM      7  C   UNL     1      73.574  45.156  -1.801  1.00  0.00     0.093 A 
ATOM      8  C   UNL     1      74.434  45.555  -2.824  1.00  0.00     0.123 A 
ATOM      9  C   UNL     1      74.601  44.740  -3.945  1.00  0.00     0.094 A 
ATOM     10  C   UNL     1      73.933  43.518  -4.038  1.00  0.00     0.146 A 
ATOM     11  O   UNL     1      74.133  42.764  -5.114  1.00  0.00    -0.456 OA
ENDROOT
BRANCH   1  12
ATOM     12  C   UNL     1      73.862  40.825  -6.539  1.00  0.00     0.021 A 
ATOM     13  C   UNL     1      74.828  41.319  -7.432  1.00  0.00     0.016 A 
ATOM     14  C   UNL     1      75.124  40.632  -8.611  1.00  0.00     0.051 A 
ATOM     15  C   UNL     1      74.471  39.435  -8.915  1.00  0.00     0.157 A 
ATOM     16  C   UNL     1      73.215  39.611  -6.843  1.00  0.00     0.062 A 
ATOM     17  C   UNL     1      73.514  38.918  -8.026  1.00  0.00     0.158 A 
BRANCH  15  18
ATOM     18  O   UNL     1      74.787  38.771 -10.100  1.00  0.00    -0.504 OA
ATOM     19  H   UNL     1      75.129  37.818 -10.108  1.00  0.00     0.293 HD
ENDBRANCH  15  18
BRANCH  17  20
ATOM     20  O   UNL     1      72.866  37.719  -8.318  1.00  0.00    -0.504 OA
ATOM     21  H   UNL     1      72.624  37.464  -9.268  1.00  0.00     0.293 HD
ENDBRANCH  17  20
ENDBRANCH   1  12
BRANCH   6  22
ATOM     22  O   UNL     1      71.967  43.690  -0.838  1.00  0.00    -0.507 OA
ATOM     23  H   UNL     1      71.097  43.190  -0.934  1.00  0.00     0.293 HD
ENDBRANCH   6  22
BRANCH   8  24
ATOM     24  O   UNL     1      75.112  46.766  -2.718  1.00  0.00    -0.508 OA
ATOM     25  H   UNL     1      75.641  47.007  -1.887  1.00  0.00     0.293 HD
ENDBRANCH   8  24
TORSDOF 5
ENDMDL
MODEL 5
REMARK VINA RESULT:    -6.025     14.964     16.637
REMARK INTER + INTRA:          -7.375
REMARK INTER:                  -7.063
REMARK INTRA:                  -0.312
REMARK UNBOUND:                -0.294
REMARK SMILES O=c1cc(-c2ccc(O)c(O)c2)oc2cc(O)cc(O)c12
REMARK SMILES IDX 4 1 3 2 2 3 1 4 21 5 19 6 18 7 16 8 15 9 14 10 13 11 5 12
REMARK SMILES IDX 6 13 7 14 8 15 12 16 10 17 9 18 11 20 20 22 17 24
REMARK H PARENT 9 19 11 21 20 23 17 25
REMARK Flexibility Score: inf
ROOT
ATOM      1  C   UNL     1      69.354  48.187   8.827  1.00  0.00     0.138 A 
ATOM      2  C   UNL     1      68.657  49.214   9.476  1.00  0.00     0.100 A 
ATOM      3  C   UNL     1      67.267  49.143   9.587  1.00  0.00     0.197 A 
ATOM      4  O   UNL     1      66.666  50.108  10.125  1.00  0.00    -0.289 OA
ATOM      5  C   UNL     1      66.577  48.018   9.075  1.00  0.00     0.107 A 
ATOM      6  C   UNL     1      65.165  47.821   9.161  1.00  0.00     0.134 A 
ATOM      7  C   UNL     1      64.585  46.712   8.531  1.00  0.00     0.093 A 
ATOM      8  C   UNL     1      65.366  45.766   7.870  1.00  0.00     0.123 A 
ATOM      9  C   UNL     1      66.753  45.923   7.822  1.00  0.00     0.094 A 
ATOM     10  C   UNL     1      67.359  47.035   8.411  1.00  0.00     0.146 A 
ATOM     11  O   UNL     1      68.680  47.156   8.328  1.00  0.00    -0.456 OA
ENDROOT
BRANCH   1  12
ATOM     12  C   UNL     1      70.832  48.209   8.683  1.00  0.00     0.021 A 
ATOM     13  C   UNL     1      71.521  49.427   8.811  1.00  0.00     0.016 A 
ATOM     14  C   UNL     1      72.911  49.474   8.688  1.00  0.00     0.051 A 
ATOM     15  C   UNL     1      73.639  48.306   8.445  1.00  0.00     0.157 A 
ATOM     16  C   UNL     1      71.571  47.032   8.452  1.00  0.00     0.062 A 
ATOM     17  C   UNL     1      72.968  47.078   8.331  1.00  0.00     0.158 A 
BRANCH  15  18
ATOM     18  O   UNL     1      75.027  48.385   8.325  1.00  0.00    -0.504 OA
ATOM     19  H   UNL     1      75.548  49.199   8.628  1.00  0.00     0.293 HD
ENDBRANCH  15  18
BRANCH  17  20
ATOM     20  O   UNL     1      73.691  45.908   8.100  1.00  0.00    -0.504 OA
ATOM     21  H   UNL     1      74.597  45.751   8.524  1.00  0.00     0.293 HD
ENDBRANCH  17  20
ENDBRANCH   1  12
BRANCH   6  22
ATOM     22  O   UNL     1      64.298  48.661   9.865  1.00  0.00    -0.507 OA
ATOM     23  H   UNL     1      64.467  49.635  10.062  1.00  0.00     0.293 HD
ENDBRANCH   6  22
BRANCH   8  24
ATOM     24  O   UNL     1      64.755  44.669   7.268  1.00  0.00    -0.508 OA
ATOM     25  H   UNL     1      64.953  44.413   6.307  1.00  0.00     0.293 HD
ENDBRANCH   8  24
TORSDOF 5
ENDMDL
MODEL 6
REMARK VINA RESULT:    -5.703     11.968     15.680
REMARK INTER + INTRA:          -6.997
REMARK INTER:                  -6.724
REMARK INTRA:                  -0.273
REMARK UNBOUND:                -0.294
REMARK SMILES O=c1cc(-c2ccc(O)c(O)c2)oc2cc(O)cc(O)c12
REMARK SMILES IDX 4 1 3 2 2 3 1 4 21 5 19 6 18 7 16 8 15 9 14 10 13 11 5 12
REMARK SMILES IDX 6 13 7 14 8 15 12 16 10 17 9 18 11 20 20 22 17 24
REMARK H PARENT 9 19 11 21 20 23 17 25
REMARK Flexibility Score: inf
ROOT
ATOM      1  C   UNL     1      70.236  47.602   7.346  1.00  0.00     0.138 A 
ATOM      2  C   UNL     1      70.319  48.650   8.273  1.00  0.00     0.100 A 
ATOM      3  C   UNL     1      69.154  49.148   8.858  1.00  0.00     0.197 A 
ATOM      4  O   UNL     1      69.257  50.126   9.642  1.00  0.00    -0.289 OA
ATOM      5  C   UNL     1      67.902  48.569   8.538  1.00  0.00     0.107 A 
ATOM      6  C   UNL     1      66.652  48.971   9.098  1.00  0.00     0.134 A 
ATOM      7  C   UNL     1      65.468  48.386   8.632  1.00  0.00     0.093 A 
ATOM      8  C   UNL     1      65.491  47.377   7.671  1.00  0.00     0.123 A 
ATOM      9  C   UNL     1      66.712  46.941   7.152  1.00  0.00     0.094 A 
ATOM     10  C   UNL     1      67.908  47.527   7.571  1.00  0.00     0.146 A 
ATOM     11  O   UNL     1      69.047  47.095   7.041  1.00  0.00    -0.456 OA
ENDROOT
BRANCH   1  12
ATOM     12  C   UNL     1      71.443  47.031   6.696  1.00  0.00     0.021 A 
ATOM     13  C   UNL     1      71.655  45.642   6.731  1.00  0.00     0.016 A 
ATOM     14  C   UNL     1      72.778  45.079   6.121  1.00  0.00     0.051 A 
ATOM     15  C   UNL     1      73.704  45.889   5.458  1.00  0.00     0.157 A 
ATOM     16  C   UNL     1      72.372  47.842   6.015  1.00  0.00     0.062 A 
ATOM     17  C   UNL     1      73.499  47.277   5.400  1.00  0.00     0.158 A 
BRANCH  15  18
ATOM     18  O   UNL     1      74.816  45.298   4.860  1.00  0.00    -0.504 OA
ATOM     19  H   UNL     1      75.314  44.529   5.292  1.00  0.00     0.293 HD
ENDBRANCH  15  18
BRANCH  17  20
ATOM     20  O   UNL     1      74.414  48.089   4.731  1.00  0.00    -0.504 OA
ATOM     21  H   UNL     1      75.342  48.258   5.098  1.00  0.00     0.293 HD
ENDBRANCH  17  20
ENDBRANCH   1  12
BRANCH   6  22
ATOM     22  O   UNL     1      66.518  49.914  10.122  1.00  0.00    -0.507 OA
ATOM     23  H   UNL     1      67.278  50.431  10.537  1.00  0.00     0.293 HD
ENDBRANCH   6  22
BRANCH   8  24
ATOM     24  O   UNL     1      64.294  46.809   7.242  1.00  0.00    -0.508 OA
ATOM     25  H   UNL     1      63.814  47.146   6.414  1.00  0.00     0.293 HD
ENDBRANCH   8  24
TORSDOF 5
ENDMDL
MODEL 7
REMARK VINA RESULT:    -5.668     15.661     17.005
REMARK INTER + INTRA:          -6.955
REMARK INTER:                  -6.690
REMARK INTRA:                  -0.265
REMARK UNBOUND:                -0.294
REMARK SMILES O=c1cc(-c2ccc(O)c(O)c2)oc2cc(O)cc(O)c12
REMARK SMILES IDX 4 1 3 2 2 3 1 4 21 5 19 6 18 7 16 8 15 9 14 10 13 11 5 12
REMARK SMILES IDX 6 13 7 14 8 15 12 16 10 17 9 18 11 20 20 22 17 24
REMARK H PARENT 9 19 11 21 20 23 17 25
REMARK Flexibility Score: inf
ROOT
ATOM      1  C   UNL     1      68.161  47.975   9.223  1.00  0.00     0.138 A 
ATOM      2  C   UNL     1      67.179  48.822   9.752  1.00  0.00     0.100 A 
ATOM      3  C   UNL     1      65.836  48.445   9.692  1.00  0.00     0.197 A 
ATOM      4  O   UNL     1      64.974  49.253  10.125  1.00  0.00    -0.289 OA
ATOM      5  C   UNL     1      65.480  47.195   9.131  1.00  0.00     0.107 A 
ATOM      6  C   UNL     1      64.148  46.689   9.048  1.00  0.00     0.134 A 
ATOM      7  C   UNL     1      63.909  45.480   8.383  1.00  0.00     0.093 A 
ATOM      8  C   UNL     1      64.957  44.731   7.849  1.00  0.00     0.123 A 
ATOM      9  C   UNL     1      66.270  45.191   7.969  1.00  0.00     0.094 A 
ATOM     10  C   UNL     1      66.537  46.410   8.596  1.00  0.00     0.146 A 
ATOM     11  O   UNL     1      67.799  46.820   8.674  1.00  0.00    -0.456 OA
ENDROOT
BRANCH   1  12
ATOM     12  C   UNL     1      69.604  48.324   9.262  1.00  0.00     0.021 A 
ATOM     13  C   UNL     1      70.474  47.577  10.074  1.00  0.00     0.016 A 
ATOM     14  C   UNL     1      71.836  47.880  10.124  1.00  0.00     0.051 A 
ATOM     15  C   UNL     1      72.356  48.926   9.357  1.00  0.00     0.157 A 
ATOM     16  C   UNL     1      70.135  49.369   8.481  1.00  0.00     0.062 A 
ATOM     17  C   UNL     1      71.504  49.673   8.528  1.00  0.00     0.158 A 
BRANCH  15  18
ATOM     18  O   UNL     1      73.721  49.206   9.429  1.00  0.00    -0.504 OA
ATOM     19  H   UNL     1      74.308  48.836  10.167  1.00  0.00     0.293 HD
ENDBRANCH  15  18
BRANCH  17  20
ATOM     20  O   UNL     1      72.019  50.711   7.753  1.00  0.00    -0.504 OA
ATOM     21  H   UNL     1      72.231  50.584   6.770  1.00  0.00     0.293 HD
ENDBRANCH  17  20
ENDBRANCH   1  12
BRANCH   6  22
ATOM     22  O   UNL     1      63.034  47.316   9.615  1.00  0.00    -0.507 OA
ATOM     23  H   UNL     1      63.010  47.736  10.531  1.00  0.00     0.293 HD
ENDBRANCH   6  22
BRANCH   8  24
ATOM     24  O   UNL     1      64.683  43.526   7.207  1.00  0.00    -0.508 OA
ATOM     25  H   UNL     1      63.731  43.212   7.053  1.00  0.00     0.293 HD
ENDBRANCH   8  24
TORSDOF 5
ENDMDL
MODEL 8
REMARK VINA RESULT:    -5.630     12.853     15.752
REMARK INTER + INTRA:          -6.911
REMARK INTER:                  -6.635
REMARK INTRA:                  -0.276
REMARK UNBOUND:                -0.294
REMARK SMILES O=c1cc(-c2ccc(O)c(O)c2)oc2cc(O)cc(O)c12
REMARK SMILES IDX 4 1 3 2 2 3 1 4 21 5 19 6 18 7 16 8 15 9 14 10 13 11 5 12
REMARK SMILES IDX 6 13 7 14 8 15 12 16 10 17 9 18 11 20 20 22 17 24
REMARK H PARENT 9 19 11 21 20 23 17 25
REMARK Flexibility Score: inf
ROOT
ATOM      1  C   UNL     1      69.012  47.354   8.044  1.00  0.00     0.138 A 
ATOM      2  C   UNL     1      69.442  48.169   9.099  1.00  0.00     0.100 A 
ATOM      3  C   UNL     1      70.766  48.612   9.135  1.00  0.00     0.197 A 
ATOM      4  O   UNL     1      71.135  49.295  10.124  1.00  0.00    -0.289 OA
ATOM      5  C   UNL     1      71.653  48.264   8.088  1.00  0.00     0.107 A 
ATOM      6  C   UNL     1      73.014  48.686   8.000  1.00  0.00     0.134 A 
ATOM      7  C   UNL     1      73.822  48.198   6.966  1.00  0.00     0.093 A 
ATOM      8  C   UNL     1      73.306  47.351   5.985  1.00  0.00     0.123 A 
ATOM      9  C   UNL     1      71.963  46.972   6.033  1.00  0.00     0.094 A 
ATOM     10  C   UNL     1      71.140  47.414   7.070  1.00  0.00     0.146 A 
ATOM     11  O   UNL     1      69.872  47.016   7.089  1.00  0.00    -0.456 OA
ENDROOT
BRANCH   1  12
ATOM     12  C   UNL     1      67.616  46.857   7.954  1.00  0.00     0.021 A 
ATOM     13  C   UNL     1      66.561  47.778   7.837  1.00  0.00     0.016 A 
ATOM     14  C   UNL     1      65.239  47.337   7.744  1.00  0.00     0.051 A 
ATOM     15  C   UNL     1      64.947  45.971   7.753  1.00  0.00     0.157 A 
ATOM     16  C   UNL     1      67.318  45.480   7.950  1.00  0.00     0.062 A 
ATOM     17  C   UNL     1      65.990  45.036   7.853  1.00  0.00     0.158 A 
BRANCH  15  18
ATOM     18  O   UNL     1      63.617  45.561   7.660  1.00  0.00    -0.504 OA
ATOM     19  H   UNL     1      63.147  45.458   6.768  1.00  0.00     0.293 HD
ENDBRANCH  15  18
BRANCH  17  20
ATOM     20  O   UNL     1      65.706  43.671   7.852  1.00  0.00    -0.504 OA
ATOM     21  H   UNL     1      64.810  43.316   7.541  1.00  0.00     0.293 HD
ENDBRANCH  17  20
ENDBRANCH   1  12
BRANCH   6  22
ATOM     22  O   UNL     1      73.612  49.592   8.881  1.00  0.00    -0.507 OA
ATOM     23  H   UNL     1      73.460  50.589   8.879  1.00  0.00     0.293 HD
ENDBRANCH   6  22
BRANCH   8  24
ATOM     24  O   UNL     1      74.136  46.897   4.963  1.00  0.00    -0.508 OA
ATOM     25  H   UNL     1      75.064  46.536   5.155  1.00  0.00     0.293 HD
ENDBRANCH   8  24
TORSDOF 5
ENDMDL
MODEL 9
REMARK VINA RESULT:    -5.536     14.389     15.754
REMARK INTER + INTRA:          -6.801
REMARK INTER:                  -6.523
REMARK INTRA:                  -0.278
REMARK UNBOUND:                -0.294
REMARK SMILES O=c1cc(-c2ccc(O)c(O)c2)oc2cc(O)cc(O)c12
REMARK SMILES IDX 4 1 3 2 2 3 1 4 21 5 19 6 18 7 16 8 15 9 14 10 13 11 5 12
REMARK SMILES IDX 6 13 7 14 8 15 12 16 10 17 9 18 11 20 20 22 17 24
REMARK H PARENT 9 19 11 21 20 23 17 25
REMARK Flexibility Score: inf
ROOT
ATOM      1  C   UNL     1      68.435  46.600   8.028  1.00  0.00     0.138 A 
ATOM      2  C   UNL     1      68.647  45.216   8.056  1.00  0.00     0.100 A 
ATOM      3  C   UNL     1      67.554  44.348   8.010  1.00  0.00     0.197 A 
ATOM      4  O   UNL     1      67.775  43.113   8.095  1.00  0.00    -0.289 OA
ATOM      5  C   UNL     1      66.244  44.872   7.898  1.00  0.00     0.107 A 
ATOM      6  C   UNL     1      65.057  44.084   7.808  1.00  0.00     0.134 A 
ATOM      7  C   UNL     1      63.808  44.717   7.799  1.00  0.00     0.093 A 
ATOM      8  C   UNL     1      63.703  46.108   7.818  1.00  0.00     0.123 A 
ATOM      9  C   UNL     1      64.859  46.889   7.856  1.00  0.00     0.094 A 
ATOM     10  C   UNL     1      66.118  46.288   7.900  1.00  0.00     0.146 A 
ATOM     11  O   UNL     1      67.193  47.068   7.953  1.00  0.00    -0.456 OA
ENDROOT
BRANCH   1  12
ATOM     12  C   UNL     1      69.560  47.568   8.070  1.00  0.00     0.021 A 
ATOM     13  C   UNL     1      69.482  48.681   8.926  1.00  0.00     0.016 A 
ATOM     14  C   UNL     1      70.529  49.603   8.990  1.00  0.00     0.051 A 
ATOM     15  C   UNL     1      71.676  49.426   8.212  1.00  0.00     0.157 A 
ATOM     16  C   UNL     1      70.723  47.387   7.297  1.00  0.00     0.062 A 
ATOM     17  C   UNL     1      71.777  48.311   7.363  1.00  0.00     0.158 A 
BRANCH  15  18
ATOM     18  O   UNL     1      72.705  50.364   8.297  1.00  0.00    -0.504 OA
ATOM     19  H   UNL     1      72.720  51.083   9.010  1.00  0.00     0.293 HD
ENDBRANCH  15  18
BRANCH  17  20
ATOM     20  O   UNL     1      72.923  48.124   6.592  1.00  0.00    -0.504 OA
ATOM     21  H   UNL     1      73.709  48.761   6.645  1.00  0.00     0.293 HD
ENDBRANCH  17  20
ENDBRANCH   1  12
BRANCH   6  22
ATOM     22  O   UNL     1      65.047  42.690   7.703  1.00  0.00    -0.507 OA
ATOM     23  H   UNL     1      64.707  42.057   8.411  1.00  0.00     0.293 HD
ENDBRANCH   6  22
BRANCH   8  24
ATOM     24  O   UNL     1      62.444  46.702   7.793  1.00  0.00    -0.508 OA
ATOM     25  H   UNL     1      61.900  46.827   8.639  1.00  0.00     0.293 HD
ENDBRANCH   8  24
TORSDOF 5
ENDMDL
