MODEL 1
REMARK VINA RESULT:    -6.564      0.000      0.000
REMARK INTER + INTRA:          -8.034
REMARK INTER:                  -7.715
REMARK INTRA:                  -0.318
REMARK UNBOUND:                -0.318
REMARK SMILES O=c1cc(-c2ccc(O)c(O)c2)oc2cc(O)cc(O)c12
REMARK SMILES IDX 4 1 3 2 2 3 1 4 21 5 19 6 18 7 16 8 15 9 14 10 13 11 5 12
REMARK SMILES IDX 6 13 7 14 8 15 12 16 10 17 9 18 11 20 20 22 17 24
REMARK H PARENT 9 19 11 21 20 23 17 25
REMARK Flexibility Score: inf
ROOT
ATOM      1  C   UNL     1      -0.685 -13.020 -36.332  1.00  0.00     0.138 A 
ATOM      2  C   UNL     1      -0.287 -11.757 -35.864  1.00  0.00     0.100 A 
ATOM      3  C   UNL     1       0.903 -11.633 -35.146  1.00  0.00     0.197 A 
ATOM      4  O   UNL     1       1.249 -10.496 -34.729  1.00  0.00    -0.289 OA
ATOM      5  C   UNL     1       1.687 -12.778 -34.898  1.00  0.00     0.107 A 
ATOM      6  C   UNL     1       2.906 -12.741 -34.180  1.00  0.00     0.134 A 
ATOM      7  C   UNL     1       3.626 -13.926 -33.971  1.00  0.00     0.093 A 
ATOM      8  C   UNL     1       3.149 -15.146 -34.465  1.00  0.00     0.123 A 
ATOM      9  C   UNL     1       1.947 -15.187 -35.174  1.00  0.00     0.094 A 
ATOM     10  C   UNL     1       1.215 -14.016 -35.394  1.00  0.00     0.146 A 
ATOM     11  O   UNL     1       0.074 -14.082 -36.073  1.00  0.00    -0.456 OA
ENDROOT
BRANCH   1  12
ATOM     12  C   UNL     1      -1.941 -13.211 -37.100  1.00  0.00     0.021 A 
ATOM     13  C   UNL     1      -2.742 -12.122 -37.493  1.00  0.00     0.016 A 
ATOM     14  C   UNL     1      -3.914 -12.332 -38.224  1.00  0.00     0.051 A 
ATOM     15  C   UNL     1      -4.303 -13.628 -38.583  1.00  0.00     0.157 A 
ATOM     16  C   UNL     1      -2.332 -14.509 -37.476  1.00  0.00     0.062 A 
ATOM     17  C   UNL     1      -3.505 -14.722 -38.208  1.00  0.00     0.158 A 
BRANCH  15  18
ATOM     18  O   UNL     1      -5.474 -13.832 -39.311  1.00  0.00    -0.504 OA
ATOM     19  H   UNL     1      -5.732 -13.227 -40.082  1.00  0.00     0.293 HD
ENDBRANCH  15  18
BRANCH  17  20
ATOM     20  O   UNL     1      -3.862 -16.025 -38.553  1.00  0.00    -0.504 OA
ATOM     21  H   UNL     1      -3.459 -16.832 -38.093  1.00  0.00     0.293 HD
ENDBRANCH  17  20
ENDBRANCH   1  12
BRANCH   6  22
ATOM     22  O   UNL     1       3.405 -11.540 -33.676  1.00  0.00    -0.507 OA
ATOM     23  H   UNL     1       4.389 -11.418 -33.466  1.00  0.00     0.293 HD
ENDBRANCH   6  22
BRANCH   8  24
ATOM     24  O   UNL     1       3.863 -16.324 -34.257  1.00  0.00    -0.508 OA
ATOM     25  H   UNL     1       4.110 -16.938 -35.025  1.00  0.00     0.293 HD
ENDBRANCH   8  24
TORSDOF 5
ENDMDL
MODEL 2
REMARK VINA RESULT:    -6.378      1.889      7.490
REMARK INTER + INTRA:          -7.815
REMARK INTER:                  -7.502
REMARK INTRA:                  -0.313
REMARK UNBOUND:                -0.318
REMARK SMILES O=c1cc(-c2ccc(O)c(O)c2)oc2cc(O)cc(O)c12
REMARK SMILES IDX 4 1 3 2 2 3 1 4 21 5 19 6 18 7 16 8 15 9 14 10 13 11 5 12
REMARK SMILES IDX 6 13 7 14 8 15 12 16 10 17 9 18 11 20 20 22 17 24
REMARK H PARENT 9 19 11 21 20 23 17 25
REMARK Flexibility Score: inf
ROOT
ATOM      1  C   UNL     1       1.401 -14.490 -35.263  1.00  0.00     0.138 A 
ATOM      2  C   UNL     1       0.811 -15.759 -35.377  1.00  0.00     0.100 A 
ATOM      3  C   UNL     1      -0.460 -15.878 -35.942  1.00  0.00     0.197 A 
ATOM      4  O   UNL     1      -0.982 -17.021 -36.038  1.00  0.00    -0.289 OA
ATOM      5  C   UNL     1      -1.133 -14.722 -36.386  1.00  0.00     0.107 A 
ATOM      6  C   UNL     1      -2.422 -14.753 -36.970  1.00  0.00     0.134 A 
ATOM      7  C   UNL     1      -3.027 -13.557 -37.382  1.00  0.00     0.093 A 
ATOM      8  C   UNL     1      -2.368 -12.332 -37.220  1.00  0.00     0.123 A 
ATOM      9  C   UNL     1      -1.098 -12.297 -36.644  1.00  0.00     0.094 A 
ATOM     10  C   UNL     1      -0.476 -13.479 -36.228  1.00  0.00     0.146 A 
ATOM     11  O   UNL     1       0.734 -13.418 -35.684  1.00  0.00    -0.456 OA
ENDROOT
BRANCH   1  12
ATOM     12  C   UNL     1       2.750 -14.305 -34.670  1.00  0.00     0.021 A 
ATOM     13  C   UNL     1       3.347 -15.293 -33.864  1.00  0.00     0.016 A 
ATOM     14  C   UNL     1       4.622 -15.094 -33.328  1.00  0.00     0.051 A 
ATOM     15  C   UNL     1       5.326 -13.913 -33.591  1.00  0.00     0.157 A 
ATOM     16  C   UNL     1       3.469 -13.126 -34.941  1.00  0.00     0.062 A 
ATOM     17  C   UNL     1       4.746 -12.925 -34.404  1.00  0.00     0.158 A 
BRANCH  15  18
ATOM     18  O   UNL     1       6.596 -13.719 -33.053  1.00  0.00    -0.504 OA
ATOM     19  H   UNL     1       7.131 -12.879 -33.241  1.00  0.00     0.293 HD
ENDBRANCH  15  18
BRANCH  17  20
ATOM     20  O   UNL     1       5.421 -11.739 -34.689  1.00  0.00    -0.504 OA
ATOM     21  H   UNL     1       5.479 -11.366 -35.629  1.00  0.00     0.293 HD
ENDBRANCH  17  20
ENDBRANCH   1  12
BRANCH   6  22
ATOM     22  O   UNL     1      -3.102 -15.959 -37.143  1.00  0.00    -0.507 OA
ATOM     23  H   UNL     1      -2.977 -16.737 -36.506  1.00  0.00     0.293 HD
ENDBRANCH   6  22
BRANCH   8  24
ATOM     24  O   UNL     1      -2.970 -11.144 -37.629  1.00  0.00    -0.508 OA
ATOM     25  H   UNL     1      -3.200 -10.973 -38.601  1.00  0.00     0.293 HD
ENDBRANCH   8  24
TORSDOF 5
ENDMDL
MODEL 3
REMARK VINA RESULT:    -6.323      1.337      2.619
REMARK INTER + INTRA:          -7.751
REMARK INTER:                  -7.466
REMARK INTRA:                  -0.284
REMARK UNBOUND:                -0.318
REMARK SMILES O=c1cc(-c2ccc(O)c(O)c2)oc2cc(O)cc(O)c12
REMARK SMILES IDX 4 1 3 2 2 3 1 4 21 5 19 6 18 7 16 8 15 9 14 10 13 11 5 12
REMARK SMILES IDX 6 13 7 14 8 15 12 16 10 17 9 18 11 20 20 22 17 24
REMARK H PARENT 9 19 11 21 20 23 17 25
REMARK Flexibility Score: inf
ROOT
ATOM      1  C   UNL     1      -0.181 -13.852 -36.973  1.00  0.00     0.138 A 
ATOM      2  C   UNL     1       0.782 -14.764 -37.435  1.00  0.00     0.100 A 
ATOM      3  C   UNL     1       2.069 -14.735 -36.897  1.00  0.00     0.197 A 
ATOM      4  O   UNL     1       2.927 -15.556 -37.320  1.00  0.00    -0.289 OA
ATOM      5  C   UNL     1       2.385 -13.791 -35.900  1.00  0.00     0.107 A 
ATOM      6  C   UNL     1       3.663 -13.695 -35.301  1.00  0.00     0.134 A 
ATOM      7  C   UNL     1       3.900 -12.723 -34.318  1.00  0.00     0.093 A 
ATOM      8  C   UNL     1       2.882 -11.846 -33.925  1.00  0.00     0.123 A 
ATOM      9  C   UNL     1       1.619 -11.937 -34.513  1.00  0.00     0.094 A 
ATOM     10  C   UNL     1       1.363 -12.900 -35.494  1.00  0.00     0.146 A 
ATOM     11  O   UNL     1       0.152 -12.967 -36.037  1.00  0.00    -0.456 OA
ENDROOT
BRANCH   1  12
ATOM     12  C   UNL     1      -1.565 -13.835 -37.510  1.00  0.00     0.021 A 
ATOM     13  C   UNL     1      -2.299 -12.639 -37.632  1.00  0.00     0.016 A 
ATOM     14  C   UNL     1      -3.596 -12.653 -38.150  1.00  0.00     0.051 A 
ATOM     15  C   UNL     1      -4.181 -13.857 -38.563  1.00  0.00     0.157 A 
ATOM     16  C   UNL     1      -2.156 -15.038 -37.939  1.00  0.00     0.062 A 
ATOM     17  C   UNL     1      -3.455 -15.054 -38.458  1.00  0.00     0.158 A 
BRANCH  15  18
ATOM     18  O   UNL     1      -5.476 -13.865 -39.078  1.00  0.00    -0.504 OA
ATOM     19  H   UNL     1      -6.167 -13.182 -38.791  1.00  0.00     0.293 HD
ENDBRANCH  15  18
BRANCH  17  20
ATOM     20  O   UNL     1      -4.007 -16.269 -38.864  1.00  0.00    -0.504 OA
ATOM     21  H   UNL     1      -3.450 -16.995 -39.298  1.00  0.00     0.293 HD
ENDBRANCH  17  20
ENDBRANCH   1  12
BRANCH   6  22
ATOM     22  O   UNL     1       4.696 -14.555 -35.675  1.00  0.00    -0.507 OA
ATOM     23  H   UNL     1       4.603 -15.562 -35.604  1.00  0.00     0.293 HD
ENDBRANCH   6  22
BRANCH   8  24
ATOM     24  O   UNL     1       3.116 -10.880 -32.948  1.00  0.00    -0.508 OA
ATOM     25  H   UNL     1       3.963 -10.322 -32.946  1.00  0.00     0.293 HD
ENDBRANCH   8  24
TORSDOF 5
ENDMDL
MODEL 4
REMARK VINA RESULT:    -6.289      1.506      6.939
REMARK INTER + INTRA:          -7.710
REMARK INTER:                  -7.426
REMARK INTRA:                  -0.283
REMARK UNBOUND:                -0.318
REMARK SMILES O=c1cc(-c2ccc(O)c(O)c2)oc2cc(O)cc(O)c12
REMARK SMILES IDX 4 1 3 2 2 3 1 4 21 5 19 6 18 7 16 8 15 9 14 10 13 11 5 12
REMARK SMILES IDX 6 13 7 14 8 15 12 16 10 17 9 18 11 20 20 22 17 24
REMARK H PARENT 9 19 11 21 20 23 17 25
REMARK Flexibility Score: inf
ROOT
ATOM      1  C   UNL     1       0.804 -13.368 -35.486  1.00  0.00     0.138 A 
ATOM      2  C   UNL     1       0.264 -12.073 -35.421  1.00  0.00     0.100 A 
ATOM      3  C   UNL     1      -0.980 -11.817 -36.000  1.00  0.00     0.197 A 
ATOM      4  O   UNL     1      -1.454 -10.651 -35.938  1.00  0.00    -0.289 OA
ATOM      5  C   UNL     1      -1.675 -12.860 -36.644  1.00  0.00     0.107 A 
ATOM      6  C   UNL     1      -2.939 -12.687 -37.255  1.00  0.00     0.134 A 
ATOM      7  C   UNL     1      -3.564 -13.775 -37.882  1.00  0.00     0.093 A 
ATOM      8  C   UNL     1      -2.946 -15.032 -37.909  1.00  0.00     0.123 A 
ATOM      9  C   UNL     1      -1.699 -15.207 -37.307  1.00  0.00     0.094 A 
ATOM     10  C   UNL     1      -1.061 -14.135 -36.677  1.00  0.00     0.146 A 
ATOM     11  O   UNL     1       0.126 -14.329 -36.110  1.00  0.00    -0.456 OA
ENDROOT
BRANCH   1  12
ATOM     12  C   UNL     1       2.122 -13.698 -34.889  1.00  0.00     0.021 A 
ATOM     13  C   UNL     1       2.389 -14.965 -34.334  1.00  0.00     0.016 A 
ATOM     14  C   UNL     1       3.643 -15.249 -33.788  1.00  0.00     0.051 A 
ATOM     15  C   UNL     1       4.654 -14.281 -33.793  1.00  0.00     0.157 A 
ATOM     16  C   UNL     1       3.148 -12.735 -34.902  1.00  0.00     0.062 A 
ATOM     17  C   UNL     1       4.405 -13.018 -34.356  1.00  0.00     0.158 A 
BRANCH  15  18
ATOM     18  O   UNL     1       5.903 -14.570 -33.246  1.00  0.00    -0.504 OA
ATOM     19  H   UNL     1       6.710 -14.751 -33.831  1.00  0.00     0.293 HD
ENDBRANCH  15  18
BRANCH  17  20
ATOM     20  O   UNL     1       5.392 -12.033 -34.380  1.00  0.00    -0.504 OA
ATOM     21  H   UNL     1       6.195 -12.061 -33.763  1.00  0.00     0.293 HD
ENDBRANCH  17  20
ENDBRANCH   1  12
BRANCH   6  22
ATOM     22  O   UNL     1      -3.576 -11.446 -37.245  1.00  0.00    -0.507 OA
ATOM     23  H   UNL     1      -3.081 -10.591 -37.471  1.00  0.00     0.293 HD
ENDBRANCH   6  22
BRANCH   8  24
ATOM     24  O   UNL     1      -3.566 -16.113 -38.531  1.00  0.00    -0.508 OA
ATOM     25  H   UNL     1      -3.077 -16.688 -39.207  1.00  0.00     0.293 HD
ENDBRANCH   8  24
TORSDOF 5
ENDMDL
MODEL 5
REMARK VINA RESULT:    -6.093      1.460      7.252
REMARK INTER + INTRA:          -7.480
REMARK INTER:                  -7.189
REMARK INTRA:                  -0.291
REMARK UNBOUND:                -0.318
REMARK SMILES O=c1cc(-c2ccc(O)c(O)c2)oc2cc(O)cc(O)c12
REMARK SMILES IDX 4 1 3 2 2 3 1 4 21 5 19 6 18 7 16 8 15 9 14 10 13 11 5 12
REMARK SMILES IDX 6 13 7 14 8 15 12 16 10 17 9 18 11 20 20 22 17 24
REMARK H PARENT 9 19 11 21 20 23 17 25
REMARK Flexibility Score: inf
ROOT
ATOM      1  C   UNL     1      -0.459 -13.392 -36.519  1.00  0.00     0.138 A 
ATOM      2  C   UNL     1      -0.557 -14.788 -36.645  1.00  0.00     0.100 A 
ATOM      3  C   UNL     1      -1.545 -15.337 -37.463  1.00  0.00     0.197 A 
ATOM      4  O   UNL     1      -1.626 -16.590 -37.568  1.00  0.00    -0.289 OA
ATOM      5  C   UNL     1      -2.433 -14.483 -38.148  1.00  0.00     0.107 A 
ATOM      6  C   UNL     1      -3.462 -14.955 -38.997  1.00  0.00     0.134 A 
ATOM      7  C   UNL     1      -4.309 -14.040 -39.640  1.00  0.00     0.093 A 
ATOM      8  C   UNL     1      -4.146 -12.663 -39.448  1.00  0.00     0.123 A 
ATOM      9  C   UNL     1      -3.132 -12.193 -38.611  1.00  0.00     0.094 A 
ATOM     10  C   UNL     1      -2.277 -13.089 -37.962  1.00  0.00     0.146 A 
ATOM     11  O   UNL     1      -1.319 -12.615 -37.173  1.00  0.00    -0.456 OA
ENDROOT
BRANCH   1  12
ATOM     12  C   UNL     1       0.572 -12.754 -35.663  1.00  0.00     0.021 A 
ATOM     13  C   UNL     1       0.439 -11.427 -35.208  1.00  0.00     0.016 A 
ATOM     14  C   UNL     1       1.421 -10.856 -34.394  1.00  0.00     0.051 A 
ATOM     15  C   UNL     1       2.546 -11.598 -34.014  1.00  0.00     0.157 A 
ATOM     16  C   UNL     1       1.698 -13.497 -35.265  1.00  0.00     0.062 A 
ATOM     17  C   UNL     1       2.683 -12.926 -34.450  1.00  0.00     0.158 A 
BRANCH  15  18
ATOM     18  O   UNL     1       3.523 -11.023 -33.203  1.00  0.00    -0.504 OA
ATOM     19  H   UNL     1       3.340 -10.791 -32.234  1.00  0.00     0.293 HD
ENDBRANCH  15  18
BRANCH  17  20
ATOM     20  O   UNL     1       3.789 -13.693 -34.086  1.00  0.00    -0.504 OA
ATOM     21  H   UNL     1       4.735 -13.419 -34.321  1.00  0.00     0.293 HD
ENDBRANCH  17  20
ENDBRANCH   1  12
BRANCH   6  22
ATOM     22  O   UNL     1      -3.648 -16.322 -39.206  1.00  0.00    -0.507 OA
ATOM     23  H   UNL     1      -3.844 -16.699 -40.126  1.00  0.00     0.293 HD
ENDBRANCH   6  22
BRANCH   8  24
ATOM     24  O   UNL     1      -4.987 -11.754 -40.085  1.00  0.00    -0.508 OA
ATOM     25  H   UNL     1      -4.998 -11.659 -41.094  1.00  0.00     0.293 HD
ENDBRANCH   8  24
TORSDOF 5
ENDMDL
MODEL 6
REMARK VINA RESULT:    -6.064      2.662      4.094
REMARK INTER + INTRA:          -7.445
REMARK INTER:                  -7.151
REMARK INTRA:                  -0.294
REMARK UNBOUND:                -0.318
REMARK SMILES O=c1cc(-c2ccc(O)c(O)c2)oc2cc(O)cc(O)c12
REMARK SMILES IDX 4 1 3 2 2 3 1 4 21 5 19 6 18 7 16 8 15 9 14 10 13 11 5 12
REMARK SMILES IDX 6 13 7 14 8 15 12 16 10 17 9 18 11 20 20 22 17 24
REMARK H PARENT 9 19 11 21 20 23 17 25
REMARK Flexibility Score: inf
ROOT
ATOM      1  C   UNL     1       0.862 -12.534 -35.272  1.00  0.00     0.138 A 
ATOM      2  C   UNL     1       0.445 -13.857 -35.492  1.00  0.00     0.100 A 
ATOM      3  C   UNL     1       1.330 -14.907 -35.242  1.00  0.00     0.197 A 
ATOM      4  O   UNL     1       0.947 -16.090 -35.444  1.00  0.00    -0.289 OA
ATOM      5  C   UNL     1       2.629 -14.624 -34.774  1.00  0.00     0.107 A 
ATOM      6  C   UNL     1       3.587 -15.627 -34.495  1.00  0.00     0.134 A 
ATOM      7  C   UNL     1       4.862 -15.264 -34.038  1.00  0.00     0.093 A 
ATOM      8  C   UNL     1       5.196 -13.916 -33.857  1.00  0.00     0.123 A 
ATOM      9  C   UNL     1       4.255 -12.923 -34.132  1.00  0.00     0.094 A 
ATOM     10  C   UNL     1       2.977 -13.265 -34.587  1.00  0.00     0.146 A 
ATOM     11  O   UNL     1       2.099 -12.301 -34.840  1.00  0.00    -0.456 OA
ENDROOT
BRANCH   1  12
ATOM     12  C   UNL     1      -0.036 -11.378 -35.523  1.00  0.00     0.021 A 
ATOM     13  C   UNL     1       0.448 -10.055 -35.546  1.00  0.00     0.016 A 
ATOM     14  C   UNL     1      -0.420  -8.989 -35.794  1.00  0.00     0.051 A 
ATOM     15  C   UNL     1      -1.780  -9.221 -36.032  1.00  0.00     0.157 A 
ATOM     16  C   UNL     1      -1.401 -11.604 -35.775  1.00  0.00     0.062 A 
ATOM     17  C   UNL     1      -2.271 -10.537 -36.024  1.00  0.00     0.158 A 
BRANCH  15  18
ATOM     18  O   UNL     1      -2.641  -8.154 -36.277  1.00  0.00    -0.504 OA
ATOM     19  H   UNL     1      -3.644  -8.282 -36.331  1.00  0.00     0.293 HD
ENDBRANCH  15  18
BRANCH  17  20
ATOM     20  O   UNL     1      -3.620 -10.803 -36.260  1.00  0.00    -0.504 OA
ATOM     21  H   UNL     1      -3.953 -11.137 -37.157  1.00  0.00     0.293 HD
ENDBRANCH  17  20
ENDBRANCH   1  12
BRANCH   6  22
ATOM     22  O   UNL     1       3.282 -16.978 -34.667  1.00  0.00    -0.507 OA
ATOM     23  H   UNL     1       3.737 -17.540 -35.376  1.00  0.00     0.293 HD
ENDBRANCH   6  22
BRANCH   8  24
ATOM     24  O   UNL     1       6.463 -13.554 -33.403  1.00  0.00    -0.508 OA
ATOM     25  H   UNL     1       6.959 -12.762 -33.793  1.00  0.00     0.293 HD
ENDBRANCH   8  24
TORSDOF 5
ENDMDL
MODEL 7
REMARK VINA RESULT:    -5.966      4.391      7.306
REMARK INTER + INTRA:          -7.331
REMARK INTER:                  -7.050
REMARK INTRA:                  -0.281
REMARK UNBOUND:                -0.318
REMARK SMILES O=c1cc(-c2ccc(O)c(O)c2)oc2cc(O)cc(O)c12
REMARK SMILES IDX 4 1 3 2 2 3 1 4 21 5 19 6 18 7 16 8 15 9 14 10 13 11 5 12
REMARK SMILES IDX 6 13 7 14 8 15 12 16 10 17 9 18 11 20 20 22 17 24
REMARK H PARENT 9 19 11 21 20 23 17 25
REMARK Flexibility Score: inf
ROOT
ATOM      1  C   UNL     1      -4.280 -11.547 -40.536  1.00  0.00     0.138 A 
ATOM      2  C   UNL     1      -4.306 -12.641 -41.415  1.00  0.00     0.100 A 
ATOM      3  C   UNL     1      -3.981 -13.913 -40.940  1.00  0.00     0.197 A 
ATOM      4  O   UNL     1      -4.006 -14.888 -41.738  1.00  0.00    -0.289 OA
ATOM      5  C   UNL     1      -3.629 -14.080 -39.586  1.00  0.00     0.107 A 
ATOM      6  C   UNL     1      -3.288 -15.332 -39.023  1.00  0.00     0.134 A 
ATOM      7  C   UNL     1      -2.943 -15.414 -37.666  1.00  0.00     0.093 A 
ATOM      8  C   UNL     1      -2.934 -14.267 -36.863  1.00  0.00     0.123 A 
ATOM      9  C   UNL     1      -3.269 -13.029 -37.414  1.00  0.00     0.094 A 
ATOM     10  C   UNL     1      -3.617 -12.927 -38.765  1.00  0.00     0.146 A 
ATOM     11  O   UNL     1      -3.934 -11.737 -39.265  1.00  0.00    -0.456 OA
ENDROOT
BRANCH   1  12
ATOM     12  C   UNL     1      -4.614 -10.172 -40.986  1.00  0.00     0.021 A 
ATOM     13  C   UNL     1      -5.870  -9.860 -41.543  1.00  0.00     0.016 A 
ATOM     14  C   UNL     1      -6.160  -8.554 -41.948  1.00  0.00     0.051 A 
ATOM     15  C   UNL     1      -5.208  -7.538 -41.798  1.00  0.00     0.157 A 
ATOM     16  C   UNL     1      -3.669  -9.142 -40.827  1.00  0.00     0.062 A 
ATOM     17  C   UNL     1      -3.958  -7.834 -41.232  1.00  0.00     0.158 A 
BRANCH  15  18
ATOM     18  O   UNL     1      -5.502  -6.238 -42.206  1.00  0.00    -0.504 OA
ATOM     19  H   UNL     1      -4.773  -5.589 -42.478  1.00  0.00     0.293 HD
ENDBRANCH  15  18
BRANCH  17  20
ATOM     20  O   UNL     1      -2.990  -6.845 -41.066  1.00  0.00    -0.504 OA
ATOM     21  H   UNL     1      -2.997  -6.212 -40.275  1.00  0.00     0.293 HD
ENDBRANCH  17  20
ENDBRANCH   1  12
BRANCH   6  22
ATOM     22  O   UNL     1      -3.289 -16.491 -39.800  1.00  0.00    -0.507 OA
ATOM     23  H   UNL     1      -2.568 -16.671 -40.489  1.00  0.00     0.293 HD
ENDBRANCH   6  22
BRANCH   8  24
ATOM     24  O   UNL     1      -2.591 -14.348 -35.515  1.00  0.00    -0.508 OA
ATOM     25  H   UNL     1      -2.515 -13.520 -34.936  1.00  0.00     0.293 HD
ENDBRANCH   8  24
TORSDOF 5
ENDMDL
MODEL 8
REMARK VINA RESULT:    -5.945      3.802      6.337
REMARK INTER + INTRA:          -7.306
REMARK INTER:                  -6.988
REMARK INTRA:                  -0.318
REMARK UNBOUND:                -0.318
REMARK SMILES O=c1cc(-c2ccc(O)c(O)c2)oc2cc(O)cc(O)c12
REMARK SMILES IDX 4 1 3 2 2 3 1 4 21 5 19 6 18 7 16 8 15 9 14 10 13 11 5 12
REMARK SMILES IDX 6 13 7 14 8 15 12 16 10 17 9 18 11 20 20 22 17 24
REMARK H PARENT 9 19 11 21 20 23 17 25
REMARK Flexibility Score: inf
ROOT
ATOM      1  C   UNL     1      -2.541 -10.846 -37.263  1.00  0.00     0.138 A 
ATOM      2  C   UNL     1      -1.369 -10.589 -36.534  1.00  0.00     0.100 A 
ATOM      3  C   UNL     1      -1.044  -9.275 -36.194  1.00  0.00     0.197 A 
ATOM      4  O   UNL     1       0.011  -9.055 -35.542  1.00  0.00    -0.289 OA
ATOM      5  C   UNL     1      -1.897  -8.225 -36.590  1.00  0.00     0.107 A 
ATOM      6  C   UNL     1      -1.644  -6.866 -36.287  1.00  0.00     0.134 A 
ATOM      7  C   UNL     1      -2.539  -5.878 -36.723  1.00  0.00     0.093 A 
ATOM      8  C   UNL     1      -3.680  -6.224 -37.455  1.00  0.00     0.123 A 
ATOM      9  C   UNL     1      -3.934  -7.563 -37.757  1.00  0.00     0.094 A 
ATOM     10  C   UNL     1      -3.054  -8.563 -37.331  1.00  0.00     0.146 A 
ATOM     11  O   UNL     1      -3.319  -9.830 -37.630  1.00  0.00    -0.456 OA
ENDROOT
BRANCH   1  12
ATOM     12  C   UNL     1      -2.935 -12.223 -37.653  1.00  0.00     0.021 A 
ATOM     13  C   UNL     1      -2.231 -13.354 -37.194  1.00  0.00     0.016 A 
ATOM     14  C   UNL     1      -2.631 -14.639 -37.569  1.00  0.00     0.051 A 
ATOM     15  C   UNL     1      -3.742 -14.820 -38.402  1.00  0.00     0.157 A 
ATOM     16  C   UNL     1      -4.058 -12.415 -38.479  1.00  0.00     0.062 A 
ATOM     17  C   UNL     1      -4.460 -13.701 -38.856  1.00  0.00     0.158 A 
BRANCH  15  18
ATOM     18  O   UNL     1      -4.136 -16.103 -38.775  1.00  0.00    -0.504 OA
ATOM     19  H   UNL     1      -3.512 -16.727 -39.273  1.00  0.00     0.293 HD
ENDBRANCH  15  18
BRANCH  17  20
ATOM     20  O   UNL     1      -5.573 -13.847 -39.683  1.00  0.00    -0.504 OA
ATOM     21  H   UNL     1      -5.513 -14.288 -40.593  1.00  0.00     0.293 HD
ENDBRANCH  17  20
ENDBRANCH   1  12
BRANCH   6  22
ATOM     22  O   UNL     1      -0.514  -6.492 -35.559  1.00  0.00    -0.507 OA
ATOM     23  H   UNL     1      -0.400  -6.746 -34.585  1.00  0.00     0.293 HD
ENDBRANCH   6  22
BRANCH   8  24
ATOM     24  O   UNL     1      -4.569  -5.243 -37.888  1.00  0.00    -0.508 OA
ATOM     25  H   UNL     1      -4.724  -5.064 -38.874  1.00  0.00     0.293 HD
ENDBRANCH   8  24
TORSDOF 5
ENDMDL
MODEL 9
REMARK VINA RESULT:    -5.481      2.819      7.846
REMARK INTER + INTRA:          -6.760
REMARK INTER:                  -6.495
REMARK INTRA:                  -0.265
REMARK UNBOUND:                -0.318
REMARK SMILES O=c1cc(-c2ccc(O)c(O)c2)oc2cc(O)cc(O)c12
REMARK SMILES IDX 4 1 3 2 2 3 1 4 21 5 19 6 18 7 16 8 15 9 14 10 13 11 5 12
REMARK SMILES IDX 6 13 7 14 8 15 12 16 10 17 9 18 11 20 20 22 17 24
REMARK H PARENT 9 19 11 21 20 23 17 25
REMARK Flexibility Score: inf
ROOT
ATOM      1  C   UNL     1       3.411 -14.010 -34.747  1.00  0.00     0.138 A 
ATOM      2  C   UNL     1       2.395 -14.932 -35.048  1.00  0.00     0.100 A 
ATOM      3  C   UNL     1       1.109 -14.469 -35.334  1.00  0.00     0.197 A 
ATOM      4  O   UNL     1       0.204 -15.304 -35.601  1.00  0.00    -0.289 OA
ATOM      5  C   UNL     1       0.849 -13.084 -35.315  1.00  0.00     0.107 A 
ATOM      6  C   UNL     1      -0.422 -12.531 -35.595  1.00  0.00     0.134 A 
ATOM      7  C   UNL     1      -0.602 -11.141 -35.549  1.00  0.00     0.093 A 
ATOM      8  C   UNL     1       0.467 -10.295 -35.230  1.00  0.00     0.123 A 
ATOM      9  C   UNL     1       1.724 -10.836 -34.954  1.00  0.00     0.094 A 
ATOM     10  C   UNL     1       1.923 -12.220 -34.994  1.00  0.00     0.146 A 
ATOM     11  O   UNL     1       3.129 -12.710 -34.729  1.00  0.00    -0.456 OA
ENDROOT
BRANCH   1  12
ATOM     12  C   UNL     1       4.795 -14.446 -34.434  1.00  0.00     0.021 A 
ATOM     13  C   UNL     1       5.341 -14.307 -33.143  1.00  0.00     0.016 A 
ATOM     14  C   UNL     1       6.644 -14.735 -32.875  1.00  0.00     0.051 A 
ATOM     15  C   UNL     1       7.421 -15.315 -33.885  1.00  0.00     0.157 A 
ATOM     16  C   UNL     1       5.578 -15.041 -35.440  1.00  0.00     0.062 A 
ATOM     17  C   UNL     1       6.883 -15.470 -35.173  1.00  0.00     0.158 A 
BRANCH  15  18
ATOM     18  O   UNL     1       8.720 -15.739 -33.613  1.00  0.00    -0.504 OA
ATOM     19  H   UNL     1       9.483 -15.080 -33.508  1.00  0.00     0.293 HD
ENDBRANCH  15  18
BRANCH  17  20
ATOM     20  O   UNL     1       7.629 -16.047 -36.200  1.00  0.00    -0.504 OA
ATOM     21  H   UNL     1       7.294 -16.845 -36.727  1.00  0.00     0.293 HD
ENDBRANCH  17  20
ENDBRANCH   1  12
BRANCH   6  22
ATOM     22  O   UNL     1      -1.506 -13.350 -35.915  1.00  0.00    -0.507 OA
ATOM     23  H   UNL     1      -1.381 -14.324 -36.168  1.00  0.00     0.293 HD
ENDBRANCH   6  22
BRANCH   8  24
ATOM     24  O   UNL     1       0.290  -8.914 -35.185  1.00  0.00    -0.508 OA
ATOM     25  H   UNL     1      -0.357  -8.442 -35.805  1.00  0.00     0.293 HD
ENDBRANCH   8  24
TORSDOF 5
ENDMDL
