MODEL 1
REMARK VINA RESULT:    -3.915      0.000      0.000
REMARK INTER + INTRA:          -9.525
REMARK INTER:                  -7.577
REMARK INTRA:                  -1.948
REMARK UNBOUND:                -1.948
REMARK SMILES CCCCCCCCCCCCCCCCCC(=O)[O-]
REMARK SMILES IDX 10 1 11 2 12 3 13 4 14 5 15 6 16 7 17 8 18 9 19 10 20 11
REMARK SMILES IDX 9 12 8 13 7 14 6 15 5 16 4 17 3 18 2 19 1 20
REMARK H PARENT
REMARK Flexibility Score: inf
ROOT
ATOM      1  C   UNL     1      22.981  -4.615  52.744  1.00  0.00     0.000 C 
ENDROOT
BRANCH   1   2
ATOM      2  C   UNL     1      23.961  -4.560  51.560  1.00  0.00     0.000 C 
BRANCH   2   3
ATOM      3  C   UNL     1      23.297  -4.074  50.261  1.00  0.00     0.000 C 
BRANCH   3   4
ATOM      4  C   UNL     1      22.995  -2.567  50.282  1.00  0.00     0.000 C 
BRANCH   4   5
ATOM      5  C   UNL     1      24.199  -1.732  50.756  1.00  0.00     0.000 C 
BRANCH   5   6
ATOM      6  C   UNL     1      24.648  -0.700  49.710  1.00  0.00     0.000 C 
BRANCH   6   7
ATOM      7  C   UNL     1      25.244  -1.355  48.452  1.00  0.00     0.006 C 
BRANCH   7   8
ATOM      8  C   UNL     1      24.744  -0.690  47.162  1.00  0.00     0.053 C 
BRANCH   8   9
ATOM      9  C   UNL     1      23.336  -1.089  46.841  1.00  0.00     0.041 C 
ATOM     10  O   UNL     1      22.438  -0.213  46.736  1.00  0.00    -0.550 OA
ATOM     11  O   UNL     1      23.009  -2.431  46.692  1.00  0.00    -0.550 OA
ENDBRANCH   8   9
ENDBRANCH   7   8
ENDBRANCH   6   7
ENDBRANCH   5   6
ENDBRANCH   4   5
ENDBRANCH   3   4
ENDBRANCH   2   3
ENDBRANCH   1   2
BRANCH   1  12
ATOM     12  C   UNL     1      23.507  -3.997  54.057  1.00  0.00     0.000 C 
BRANCH  12  13
ATOM     13  C   UNL     1      23.164  -2.510  54.267  1.00  0.00    -0.000 C 
BRANCH  13  14
ATOM     14  C   UNL     1      23.621  -1.978  55.635  1.00  0.00    -0.000 C 
BRANCH  14  15
ATOM     15  C   UNL     1      24.125  -3.090  56.571  1.00  0.00    -0.000 C 
BRANCH  15  16
ATOM     16  C   UNL     1      23.242  -3.366  57.805  1.00  0.00    -0.000 C 
BRANCH  16  17
ATOM     17  C   UNL     1      22.039  -4.293  57.551  1.00  0.00    -0.000 C 
BRANCH  17  18
ATOM     18  C   UNL     1      20.747  -3.518  57.241  1.00  0.00    -0.000 C 
BRANCH  18  19
ATOM     19  C   UNL     1      20.706  -2.145  57.928  1.00  0.00    -0.003 C 
ATOM     20  C   UNL     1      20.352  -1.013  56.963  1.00  0.00     0.004 C 
ENDBRANCH  18  19
ENDBRANCH  17  18
ENDBRANCH  16  17
ENDBRANCH  15  16
ENDBRANCH  14  15
ENDBRANCH  13  14
ENDBRANCH  12  13
ENDBRANCH   1  12
TORSDOF 16
ENDMDL
MODEL 2
REMARK VINA RESULT:    -3.912     11.301     14.697
REMARK INTER + INTRA:          -9.520
REMARK INTER:                  -7.612
REMARK INTRA:                  -1.907
REMARK UNBOUND:                -1.948
REMARK SMILES CCCCCCCCCCCCCCCCCC(=O)[O-]
REMARK SMILES IDX 10 1 11 2 12 3 13 4 14 5 15 6 16 7 17 8 18 9 19 10 20 11
REMARK SMILES IDX 9 12 8 13 7 14 6 15 5 16 4 17 3 18 2 19 1 20
REMARK H PARENT
REMARK Flexibility Score: inf
ROOT
ATOM      1  C   UNL     1      33.261   8.343  46.275  1.00  0.00     0.000 C 
ENDROOT
BRANCH   1   2
ATOM      2  C   UNL     1      34.107   7.967  45.046  1.00  0.00     0.000 C 
BRANCH   2   3
ATOM      3  C   UNL     1      34.029   9.018  43.927  1.00  0.00     0.000 C 
BRANCH   3   4
ATOM      4  C   UNL     1      33.630   8.409  42.573  1.00  0.00     0.000 C 
BRANCH   4   5
ATOM      5  C   UNL     1      32.409   7.477  42.684  1.00  0.00     0.000 C 
BRANCH   5   6
ATOM      6  C   UNL     1      32.778   5.998  42.488  1.00  0.00     0.000 C 
BRANCH   6   7
ATOM      7  C   UNL     1      31.543   5.103  42.292  1.00  0.00     0.006 C 
BRANCH   7   8
ATOM      8  C   UNL     1      30.479   5.769  41.409  1.00  0.00     0.053 C 
BRANCH   8   9
ATOM      9  C   UNL     1      30.479   5.208  40.020  1.00  0.00     0.041 C 
ATOM     10  O   UNL     1      29.393   5.028  39.409  1.00  0.00    -0.550 OA
ATOM     11  O   UNL     1      31.678   4.850  39.414  1.00  0.00    -0.550 OA
ENDBRANCH   8   9
ENDBRANCH   7   8
ENDBRANCH   6   7
ENDBRANCH   5   6
ENDBRANCH   4   5
ENDBRANCH   3   4
ENDBRANCH   2   3
ENDBRANCH   1   2
BRANCH   1  12
ATOM     12  C   UNL     1      32.112   7.365  46.602  1.00  0.00     0.000 C 
BRANCH  12  13
ATOM     13  C   UNL     1      30.707   7.842  46.191  1.00  0.00    -0.000 C 
BRANCH  13  14
ATOM     14  C   UNL     1      29.952   6.811  45.336  1.00  0.00    -0.000 C 
BRANCH  14  15
ATOM     15  C   UNL     1      29.695   5.489  46.081  1.00  0.00    -0.000 C 
BRANCH  15  16
ATOM     16  C   UNL     1      28.489   5.496  47.042  1.00  0.00    -0.000 C 
BRANCH  16  17
ATOM     17  C   UNL     1      28.823   5.844  48.504  1.00  0.00    -0.000 C 
BRANCH  17  18
ATOM     18  C   UNL     1      29.558   4.705  49.233  1.00  0.00    -0.000 C 
BRANCH  18  19
ATOM     19  C   UNL     1      31.060   4.983  49.394  1.00  0.00    -0.003 C 
ATOM     20  C   UNL     1      31.871   3.712  49.643  1.00  0.00     0.004 C 
ENDBRANCH  18  19
ENDBRANCH  17  18
ENDBRANCH  16  17
ENDBRANCH  15  16
ENDBRANCH  14  15
ENDBRANCH  13  14
ENDBRANCH  12  13
ENDBRANCH   1  12
TORSDOF 16
ENDMDL
MODEL 3
REMARK VINA RESULT:    -3.890      7.216     12.898
REMARK INTER + INTRA:          -9.477
REMARK INTER:                  -8.231
REMARK INTRA:                  -1.246
REMARK UNBOUND:                -1.948
REMARK SMILES CCCCCCCCCCCCCCCCCC(=O)[O-]
REMARK SMILES IDX 10 1 11 2 12 3 13 4 14 5 15 6 16 7 17 8 18 9 19 10 20 11
REMARK SMILES IDX 9 12 8 13 7 14 6 15 5 16 4 17 3 18 2 19 1 20
REMARK H PARENT
REMARK Flexibility Score: inf
ROOT
ATOM      1  C   UNL     1      30.309   5.225  49.212  1.00  0.00     0.000 C 
ENDROOT
BRANCH   1   2
ATOM      2  C   UNL     1      28.943   5.696  48.682  1.00  0.00     0.000 C 
BRANCH   2   3
ATOM      3  C   UNL     1      27.872   4.593  48.738  1.00  0.00     0.000 C 
BRANCH   3   4
ATOM      4  C   UNL     1      27.046   4.510  47.445  1.00  0.00     0.000 C 
BRANCH   4   5
ATOM      5  C   UNL     1      25.698   3.795  47.653  1.00  0.00     0.000 C 
BRANCH   5   6
ATOM      6  C   UNL     1      25.236   3.826  49.118  1.00  0.00     0.000 C 
BRANCH   6   7
ATOM      7  C   UNL     1      25.081   2.418  49.718  1.00  0.00     0.006 C 
BRANCH   7   8
ATOM      8  C   UNL     1      24.531   1.412  48.698  1.00  0.00     0.053 C 
BRANCH   8   9
ATOM      9  C   UNL     1      24.267   0.076  49.322  1.00  0.00     0.041 C 
ATOM     10  O   UNL     1      23.085  -0.316  49.503  1.00  0.00    -0.550 OA
ATOM     11  O   UNL     1      25.328  -0.721  49.737  1.00  0.00    -0.550 OA
ENDBRANCH   8   9
ENDBRANCH   7   8
ENDBRANCH   6   7
ENDBRANCH   5   6
ENDBRANCH   4   5
ENDBRANCH   3   4
ENDBRANCH   2   3
ENDBRANCH   1   2
BRANCH   1  12
ATOM     12  C   UNL     1      31.508   5.530  48.290  1.00  0.00     0.000 C 
BRANCH  12  13
ATOM     13  C   UNL     1      31.149   6.154  46.929  1.00  0.00    -0.000 C 
BRANCH  13  14
ATOM     14  C   UNL     1      31.140   5.127  45.784  1.00  0.00    -0.000 C 
BRANCH  14  15
ATOM     15  C   UNL     1      29.810   5.105  45.011  1.00  0.00    -0.000 C 
BRANCH  15  16
ATOM     16  C   UNL     1      29.629   3.919  44.042  1.00  0.00    -0.000 C 
BRANCH  16  17
ATOM     17  C   UNL     1      29.525   4.301  42.555  1.00  0.00    -0.000 C 
BRANCH  17  18
ATOM     18  C   UNL     1      30.784   5.018  42.036  1.00  0.00    -0.000 C 
BRANCH  18  19
ATOM     19  C   UNL     1      30.611   5.548  40.605  1.00  0.00    -0.003 C 
ATOM     20  C   UNL     1      29.642   4.703  39.777  1.00  0.00     0.004 C 
ENDBRANCH  18  19
ENDBRANCH  17  18
ENDBRANCH  16  17
ENDBRANCH  15  16
ENDBRANCH  14  15
ENDBRANCH  13  14
ENDBRANCH  12  13
ENDBRANCH   1  12
TORSDOF 16
ENDMDL
MODEL 4
REMARK VINA RESULT:    -3.865     12.123     16.604
REMARK INTER + INTRA:          -9.429
REMARK INTER:                  -6.828
REMARK INTRA:                  -2.601
REMARK UNBOUND:                -1.948
REMARK SMILES CCCCCCCCCCCCCCCCCC(=O)[O-]
REMARK SMILES IDX 10 1 11 2 12 3 13 4 14 5 15 6 16 7 17 8 18 9 19 10 20 11
REMARK SMILES IDX 9 12 8 13 7 14 6 15 5 16 4 17 3 18 2 19 1 20
REMARK H PARENT
REMARK Flexibility Score: inf
ROOT
ATOM      1  C   UNL     1      29.720   6.393  43.018  1.00  0.00     0.000 C 
ENDROOT
BRANCH   1   2
ATOM      2  C   UNL     1      31.024   7.195  42.877  1.00  0.00     0.000 C 
BRANCH   2   3
ATOM      3  C   UNL     1      32.277   6.304  42.913  1.00  0.00     0.000 C 
BRANCH   3   4
ATOM      4  C   UNL     1      33.038   6.411  44.244  1.00  0.00     0.000 C 
BRANCH   4   5
ATOM      5  C   UNL     1      32.726   7.717  44.997  1.00  0.00     0.000 C 
BRANCH   5   6
ATOM      6  C   UNL     1      32.084   7.466  46.370  1.00  0.00     0.000 C 
BRANCH   6   7
ATOM      7  C   UNL     1      31.531   6.037  46.511  1.00  0.00     0.006 C 
BRANCH   7   8
ATOM      8  C   UNL     1      30.196   6.005  47.266  1.00  0.00     0.053 C 
BRANCH   8   9
ATOM      9  C   UNL     1      30.350   5.440  48.644  1.00  0.00     0.041 C 
ATOM     10  O   UNL     1      31.497   5.196  49.104  1.00  0.00    -0.550 OA
ATOM     11  O   UNL     1      29.226   5.149  49.409  1.00  0.00    -0.550 OA
ENDBRANCH   8   9
ENDBRANCH   7   8
ENDBRANCH   6   7
ENDBRANCH   5   6
ENDBRANCH   4   5
ENDBRANCH   3   4
ENDBRANCH   2   3
ENDBRANCH   1   2
BRANCH   1  12
ATOM     12  C   UNL     1      29.877   4.863  42.893  1.00  0.00     0.000 C 
BRANCH  12  13
ATOM     13  C   UNL     1      28.807   4.159  42.037  1.00  0.00    -0.000 C 
BRANCH  13  14
ATOM     14  C   UNL     1      28.540   4.877  40.704  1.00  0.00    -0.000 C 
BRANCH  14  15
ATOM     15  C   UNL     1      29.237   4.201  39.511  1.00  0.00    -0.000 C 
BRANCH  15  16
ATOM     16  C   UNL     1      30.111   5.130  38.643  1.00  0.00    -0.000 C 
BRANCH  16  17
ATOM     17  C   UNL     1      31.351   5.706  39.351  1.00  0.00    -0.000 C 
BRANCH  17  18
ATOM     18  C   UNL     1      31.436   7.238  39.246  1.00  0.00    -0.000 C 
BRANCH  18  19
ATOM     19  C   UNL     1      30.130   7.866  38.735  1.00  0.00    -0.003 C 
ATOM     20  C   UNL     1      29.299   8.491  39.855  1.00  0.00     0.004 C 
ENDBRANCH  18  19
ENDBRANCH  17  18
ENDBRANCH  16  17
ENDBRANCH  15  16
ENDBRANCH  14  15
ENDBRANCH  13  14
ENDBRANCH  12  13
ENDBRANCH   1  12
TORSDOF 16
ENDMDL
MODEL 5
REMARK VINA RESULT:    -3.848     14.284     17.616
REMARK INTER + INTRA:          -9.397
REMARK INTER:                  -7.189
REMARK INTRA:                  -2.208
REMARK UNBOUND:                -1.948
REMARK SMILES CCCCCCCCCCCCCCCCCC(=O)[O-]
REMARK SMILES IDX 10 1 11 2 12 3 13 4 14 5 15 6 16 7 17 8 18 9 19 10 20 11
REMARK SMILES IDX 9 12 8 13 7 14 6 15 5 16 4 17 3 18 2 19 1 20
REMARK H PARENT
REMARK Flexibility Score: inf
ROOT
ATOM      1  C   UNL     1      29.172   4.592  41.549  1.00  0.00     0.000 C 
ENDROOT
BRANCH   1   2
ATOM      2  C   UNL     1      28.606   5.817  42.286  1.00  0.00     0.000 C 
BRANCH   2   3
ATOM      3  C   UNL     1      28.726   7.112  41.465  1.00  0.00     0.000 C 
BRANCH   3   4
ATOM      4  C   UNL     1      29.932   7.967  41.887  1.00  0.00     0.000 C 
BRANCH   4   5
ATOM      5  C   UNL     1      30.505   7.543  43.252  1.00  0.00     0.000 C 
BRANCH   5   6
ATOM      6  C   UNL     1      32.012   7.247  43.190  1.00  0.00     0.000 C 
BRANCH   6   7
ATOM      7  C   UNL     1      32.419   6.067  44.089  1.00  0.00     0.006 C 
BRANCH   7   8
ATOM      8  C   UNL     1      31.388   5.799  45.194  1.00  0.00     0.053 C 
BRANCH   8   9
ATOM      9  C   UNL     1      31.772   6.458  46.483  1.00  0.00     0.041 C 
ATOM     10  O   UNL     1      32.538   7.457  46.481  1.00  0.00    -0.550 OA
ATOM     11  O   UNL     1      31.310   5.946  47.690  1.00  0.00    -0.550 OA
ENDBRANCH   8   9
ENDBRANCH   7   8
ENDBRANCH   6   7
ENDBRANCH   5   6
ENDBRANCH   4   5
ENDBRANCH   3   4
ENDBRANCH   2   3
ENDBRANCH   1   2
BRANCH   1  12
ATOM     12  C   UNL     1      28.601   4.359  40.134  1.00  0.00     0.000 C 
BRANCH  12  13
ATOM     13  C   UNL     1      29.624   4.463  38.987  1.00  0.00    -0.000 C 
BRANCH  13  14
ATOM     14  C   UNL     1      31.048   4.765  39.481  1.00  0.00    -0.000 C 
BRANCH  14  15
ATOM     15  C   UNL     1      31.524   6.179  39.106  1.00  0.00    -0.000 C 
BRANCH  15  16
ATOM     16  C   UNL     1      32.950   6.541  39.571  1.00  0.00    -0.000 C 
BRANCH  16  17
ATOM     17  C   UNL     1      33.697   5.419  40.314  1.00  0.00    -0.000 C 
BRANCH  17  18
ATOM     18  C   UNL     1      35.178   5.321  39.908  1.00  0.00    -0.000 C 
BRANCH  18  19
ATOM     19  C   UNL     1      35.572   3.906  39.460  1.00  0.00    -0.003 C 
ATOM     20  C   UNL     1      36.602   3.911  38.330  1.00  0.00     0.004 C 
ENDBRANCH  18  19
ENDBRANCH  17  18
ENDBRANCH  16  17
ENDBRANCH  15  16
ENDBRANCH  14  15
ENDBRANCH  13  14
ENDBRANCH  12  13
ENDBRANCH   1  12
TORSDOF 16
ENDMDL
MODEL 6
REMARK VINA RESULT:    -3.830     13.171     15.708
REMARK INTER + INTRA:          -9.361
REMARK INTER:                  -7.715
REMARK INTRA:                  -1.646
REMARK UNBOUND:                -1.948
REMARK SMILES CCCCCCCCCCCCCCCCCC(=O)[O-]
REMARK SMILES IDX 10 1 11 2 12 3 13 4 14 5 15 6 16 7 17 8 18 9 19 10 20 11
REMARK SMILES IDX 9 12 8 13 7 14 6 15 5 16 4 17 3 18 2 19 1 20
REMARK H PARENT
REMARK Flexibility Score: inf
ROOT
ATOM      1  C   UNL     1      28.573   5.097  40.988  1.00  0.00     0.000 C 
ENDROOT
BRANCH   1   2
ATOM      2  C   UNL     1      28.223   4.304  42.259  1.00  0.00     0.000 C 
BRANCH   2   3
ATOM      3  C   UNL     1      26.718   4.320  42.573  1.00  0.00     0.000 C 
BRANCH   3   4
ATOM      4  C   UNL     1      25.988   5.494  41.901  1.00  0.00     0.000 C 
BRANCH   4   5
ATOM      5  C   UNL     1      24.928   5.026  40.887  1.00  0.00     0.000 C 
BRANCH   5   6
ATOM      6  C   UNL     1      24.909   3.498  40.720  1.00  0.00     0.000 C 
BRANCH   6   7
ATOM      7  C   UNL     1      24.703   3.067  39.257  1.00  0.00     0.006 C 
BRANCH   7   8
ATOM      8  C   UNL     1      23.426   2.237  39.073  1.00  0.00     0.053 C 
BRANCH   8   9
ATOM      9  C   UNL     1      23.488   0.947  39.832  1.00  0.00     0.041 C 
ATOM     10  O   UNL     1      23.167   0.912  41.049  1.00  0.00    -0.550 OA
ATOM     11  O   UNL     1      23.932  -0.210  39.204  1.00  0.00    -0.550 OA
ENDBRANCH   8   9
ENDBRANCH   7   8
ENDBRANCH   6   7
ENDBRANCH   5   6
ENDBRANCH   4   5
ENDBRANCH   3   4
ENDBRANCH   2   3
ENDBRANCH   1   2
BRANCH   1  12
ATOM     12  C   UNL     1      28.802   4.241  39.725  1.00  0.00     0.000 C 
BRANCH  12  13
ATOM     13  C   UNL     1      30.107   4.531  38.961  1.00  0.00    -0.000 C 
BRANCH  13  14
ATOM     14  C   UNL     1      30.388   6.035  38.807  1.00  0.00    -0.000 C 
BRANCH  14  15
ATOM     15  C   UNL     1      31.863   6.396  39.056  1.00  0.00    -0.000 C 
BRANCH  15  16
ATOM     16  C   UNL     1      32.119   7.338  40.251  1.00  0.00    -0.000 C 
BRANCH  16  17
ATOM     17  C   UNL     1      32.881   6.703  41.428  1.00  0.00    -0.000 C 
BRANCH  17  18
ATOM     18  C   UNL     1      32.067   5.612  42.144  1.00  0.00    -0.000 C 
BRANCH  18  19
ATOM     19  C   UNL     1      31.211   6.173  43.289  1.00  0.00    -0.003 C 
ATOM     20  C   UNL     1      31.308   5.333  44.563  1.00  0.00     0.004 C 
ENDBRANCH  18  19
ENDBRANCH  17  18
ENDBRANCH  16  17
ENDBRANCH  15  16
ENDBRANCH  14  15
ENDBRANCH  13  14
ENDBRANCH  12  13
ENDBRANCH   1  12
TORSDOF 16
ENDMDL
MODEL 7
REMARK VINA RESULT:    -3.827      8.306     11.991
REMARK INTER + INTRA:          -9.355
REMARK INTER:                  -7.304
REMARK INTRA:                  -2.051
REMARK UNBOUND:                -1.948
REMARK SMILES CCCCCCCCCCCCCCCCCC(=O)[O-]
REMARK SMILES IDX 10 1 11 2 12 3 13 4 14 5 15 6 16 7 17 8 18 9 19 10 20 11
REMARK SMILES IDX 9 12 8 13 7 14 6 15 5 16 4 17 3 18 2 19 1 20
REMARK H PARENT
REMARK Flexibility Score: inf
ROOT
ATOM      1  C   UNL     1      31.146   4.954  48.558  1.00  0.00     0.000 C 
ENDROOT
BRANCH   1   2
ATOM      2  C   UNL     1      31.506   6.317  47.941  1.00  0.00     0.000 C 
BRANCH   2   3
ATOM      3  C   UNL     1      31.302   6.351  46.417  1.00  0.00     0.000 C 
BRANCH   3   4
ATOM      4  C   UNL     1      31.040   4.956  45.827  1.00  0.00     0.000 C 
BRANCH   4   5
ATOM      5  C   UNL     1      30.841   4.991  44.300  1.00  0.00     0.000 C 
BRANCH   5   6
ATOM      6  C   UNL     1      29.429   4.556  43.881  1.00  0.00     0.000 C 
BRANCH   6   7
ATOM      7  C   UNL     1      29.336   4.214  42.384  1.00  0.00     0.006 C 
BRANCH   7   8
ATOM      8  C   UNL     1      29.728   5.401  41.495  1.00  0.00     0.053 C 
BRANCH   8   9
ATOM      9  C   UNL     1      30.471   4.958  40.272  1.00  0.00     0.041 C 
ATOM     10  O   UNL     1      31.689   5.243  40.133  1.00  0.00    -0.550 OA
ATOM     11  O   UNL     1      29.808   4.259  39.270  1.00  0.00    -0.550 OA
ENDBRANCH   8   9
ENDBRANCH   7   8
ENDBRANCH   6   7
ENDBRANCH   5   6
ENDBRANCH   4   5
ENDBRANCH   3   4
ENDBRANCH   2   3
ENDBRANCH   1   2
BRANCH   1  12
ATOM     12  C   UNL     1      29.942   4.972  49.523  1.00  0.00     0.000 C 
BRANCH  12  13
ATOM     13  C   UNL     1      28.576   4.678  48.875  1.00  0.00    -0.000 C 
BRANCH  13  14
ATOM     14  C   UNL     1      27.939   5.920  48.232  1.00  0.00    -0.000 C 
BRANCH  14  15
ATOM     15  C   UNL     1      27.342   5.636  46.843  1.00  0.00    -0.000 C 
BRANCH  15  16
ATOM     16  C   UNL     1      27.105   4.146  46.519  1.00  0.00    -0.000 C 
BRANCH  16  17
ATOM     17  C   UNL     1      25.630   3.746  46.335  1.00  0.00    -0.000 C 
BRANCH  17  18
ATOM     18  C   UNL     1      24.823   3.837  47.641  1.00  0.00    -0.000 C 
BRANCH  18  19
ATOM     19  C   UNL     1      24.983   2.588  48.520  1.00  0.00    -0.003 C 
ATOM     20  C   UNL     1      25.374   2.926  49.959  1.00  0.00     0.004 C 
ENDBRANCH  18  19
ENDBRANCH  17  18
ENDBRANCH  16  17
ENDBRANCH  15  16
ENDBRANCH  14  15
ENDBRANCH  13  14
ENDBRANCH  12  13
ENDBRANCH   1  12
TORSDOF 16
ENDMDL
MODEL 8
REMARK VINA RESULT:    -3.783     12.631     14.429
REMARK INTER + INTRA:          -9.269
REMARK INTER:                  -7.371
REMARK INTRA:                  -1.898
REMARK UNBOUND:                -1.948
REMARK SMILES CCCCCCCCCCCCCCCCCC(=O)[O-]
REMARK SMILES IDX 10 1 11 2 12 3 13 4 14 5 15 6 16 7 17 8 18 9 19 10 20 11
REMARK SMILES IDX 9 12 8 13 7 14 6 15 5 16 4 17 3 18 2 19 1 20
REMARK H PARENT
REMARK Flexibility Score: inf
ROOT
ATOM      1  C   UNL     1      24.811   3.570  39.303  1.00  0.00     0.000 C 
ENDROOT
BRANCH   1   2
ATOM      2  C   UNL     1      26.162   3.724  40.023  1.00  0.00     0.000 C 
BRANCH   2   3
ATOM      3  C   UNL     1      26.020   4.329  41.430  1.00  0.00     0.000 C 
BRANCH   3   4
ATOM      4  C   UNL     1      25.507   5.778  41.399  1.00  0.00     0.000 C 
BRANCH   4   5
ATOM      5  C   UNL     1      26.633   6.805  41.619  1.00  0.00     0.000 C 
BRANCH   5   6
ATOM      6  C   UNL     1      27.967   6.144  41.996  1.00  0.00     0.000 C 
BRANCH   6   7
ATOM      7  C   UNL     1      29.002   6.212  40.860  1.00  0.00     0.006 C 
BRANCH   7   8
ATOM      8  C   UNL     1      29.612   4.838  40.550  1.00  0.00     0.053 C 
BRANCH   8   9
ATOM      9  C   UNL     1      29.716   4.596  39.076  1.00  0.00     0.041 C 
ATOM     10  O   UNL     1      29.262   3.534  38.575  1.00  0.00    -0.550 OA
ATOM     11  O   UNL     1      30.345   5.528  38.260  1.00  0.00    -0.550 OA
ENDBRANCH   8   9
ENDBRANCH   7   8
ENDBRANCH   6   7
ENDBRANCH   5   6
ENDBRANCH   4   5
ENDBRANCH   3   4
ENDBRANCH   2   3
ENDBRANCH   1   2
BRANCH   1  12
ATOM     12  C   UNL     1      24.186   2.161  39.380  1.00  0.00     0.000 C 
BRANCH  12  13
ATOM     13  C   UNL     1      22.830   2.082  40.104  1.00  0.00    -0.000 C 
BRANCH  13  14
ATOM     14  C   UNL     1      22.970   1.795  41.608  1.00  0.00    -0.000 C 
BRANCH  14  15
ATOM     15  C   UNL     1      22.759   3.046  42.478  1.00  0.00    -0.000 C 
BRANCH  15  16
ATOM     16  C   UNL     1      22.035   4.218  41.785  1.00  0.00    -0.000 C 
BRANCH  16  17
ATOM     17  C   UNL     1      21.054   4.998  42.678  1.00  0.00    -0.000 C 
BRANCH  17  18
ATOM     18  C   UNL     1      19.582   4.728  42.322  1.00  0.00    -0.000 C 
BRANCH  18  19
ATOM     19  C   UNL     1      19.420   3.551  41.348  1.00  0.00    -0.003 C 
ATOM     20  C   UNL     1      18.033   3.503  40.708  1.00  0.00     0.004 C 
ENDBRANCH  18  19
ENDBRANCH  17  18
ENDBRANCH  16  17
ENDBRANCH  15  16
ENDBRANCH  14  15
ENDBRANCH  13  14
ENDBRANCH  12  13
ENDBRANCH   1  12
TORSDOF 16
ENDMDL
MODEL 9
REMARK VINA RESULT:    -3.771     13.378     16.437
REMARK INTER + INTRA:          -9.247
REMARK INTER:                  -7.476
REMARK INTRA:                  -1.772
REMARK UNBOUND:                -1.948
REMARK SMILES CCCCCCCCCCCCCCCCCC(=O)[O-]
REMARK SMILES IDX 10 1 11 2 12 3 13 4 14 5 15 6 16 7 17 8 18 9 19 10 20 11
REMARK SMILES IDX 9 12 8 13 7 14 6 15 5 16 4 17 3 18 2 19 1 20
REMARK H PARENT
REMARK Flexibility Score: inf
ROOT
ATOM      1  C   UNL     1      28.588   4.414  40.681  1.00  0.00     0.000 C 
ENDROOT
BRANCH   1   2
ATOM      2  C   UNL     1      29.059   4.231  39.228  1.00  0.00     0.000 C 
BRANCH   2   3
ATOM      3  C   UNL     1      30.535   4.611  39.029  1.00  0.00     0.000 C 
BRANCH   3   4
ATOM      4  C   UNL     1      30.705   5.995  38.382  1.00  0.00     0.000 C 
BRANCH   4   5
ATOM      5  C   UNL     1      31.693   6.889  39.154  1.00  0.00     0.000 C 
BRANCH   5   6
ATOM      6  C   UNL     1      32.624   6.081  40.072  1.00  0.00     0.000 C 
BRANCH   6   7
ATOM      7  C   UNL     1      34.109   6.268  39.720  1.00  0.00     0.006 C 
BRANCH   7   8
ATOM      8  C   UNL     1      34.931   5.000  39.986  1.00  0.00     0.053 C 
BRANCH   8   9
ATOM      9  C   UNL     1      35.999   4.804  38.955  1.00  0.00     0.041 C 
ATOM     10  O   UNL     1      36.559   5.799  38.425  1.00  0.00    -0.550 OA
ATOM     11  O   UNL     1      36.352   3.521  38.553  1.00  0.00    -0.550 OA
ENDBRANCH   8   9
ENDBRANCH   7   8
ENDBRANCH   6   7
ENDBRANCH   5   6
ENDBRANCH   4   5
ENDBRANCH   3   4
ENDBRANCH   2   3
ENDBRANCH   1   2
BRANCH   1  12
ATOM     12  C   UNL     1      28.516   5.877  41.166  1.00  0.00     0.000 C 
BRANCH  12  13
ATOM     13  C   UNL     1      29.565   6.272  42.222  1.00  0.00    -0.000 C 
BRANCH  13  14
ATOM     14  C   UNL     1      30.276   5.058  42.842  1.00  0.00    -0.000 C 
BRANCH  14  15
ATOM     15  C   UNL     1      31.590   5.433  43.551  1.00  0.00    -0.000 C 
BRANCH  15  16
ATOM     16  C   UNL     1      31.586   6.797  44.270  1.00  0.00    -0.000 C 
BRANCH  16  17
ATOM     17  C   UNL     1      32.082   6.768  45.727  1.00  0.00    -0.000 C 
BRANCH  17  18
ATOM     18  C   UNL     1      30.949   6.985  46.745  1.00  0.00    -0.000 C 
BRANCH  18  19
ATOM     19  C   UNL     1      30.578   5.698  47.496  1.00  0.00    -0.003 C 
ATOM     20  C   UNL     1      31.449   5.464  48.730  1.00  0.00     0.004 C 
ENDBRANCH  18  19
ENDBRANCH  17  18
ENDBRANCH  16  17
ENDBRANCH  15  16
ENDBRANCH  14  15
ENDBRANCH  13  14
ENDBRANCH  12  13
ENDBRANCH   1  12
TORSDOF 16
ENDMDL
