MODEL 1
REMARK VINA RESULT:    -3.533      0.000      0.000
REMARK INTER + INTRA:          -7.319
REMARK INTER:                  -6.012
REMARK INTRA:                  -1.306
REMARK UNBOUND:                -1.306
REMARK SMILES CCCCCCCCCCCCCC(=O)[O-]
REMARK SMILES IDX 8 1 9 2 10 3 11 4 12 5 13 6 14 7 15 8 16 9 7 10 6 11 5 12
REMARK SMILES IDX 4 13 3 14 2 15 1 16
REMARK H PARENT
REMARK Flexibility Score: inf
ROOT
ATOM      1  C   UNL     1     -13.372 -76.781  -7.867  1.00  0.00     0.000 C 
ENDROOT
BRANCH   1   2
ATOM      2  C   UNL     1     -13.735 -77.107  -9.325  1.00  0.00     0.000 C 
BRANCH   2   3
ATOM      3  C   UNL     1     -13.747 -75.859 -10.225  1.00  0.00     0.000 C 
BRANCH   3   4
ATOM      4  C   UNL     1     -14.358 -74.628  -9.532  1.00  0.00     0.000 C 
BRANCH   4   5
ATOM      5  C   UNL     1     -13.533 -73.335  -9.665  1.00  0.00     0.006 C 
BRANCH   5   6
ATOM      6  C   UNL     1     -12.068 -73.515  -9.245  1.00  0.00     0.053 C 
BRANCH   6   7
ATOM      7  C   UNL     1     -11.156 -73.229 -10.396  1.00  0.00     0.041 C 
ATOM      8  O   UNL     1     -10.476 -72.170 -10.418  1.00  0.00    -0.550 OA
ATOM      9  O   UNL     1     -11.095 -74.109 -11.469  1.00  0.00    -0.550 OA
ENDBRANCH   6   7
ENDBRANCH   5   6
ENDBRANCH   4   5
ENDBRANCH   3   4
ENDBRANCH   2   3
ENDBRANCH   1   2
BRANCH   1  10
ATOM     10  C   UNL     1     -14.379 -77.366  -6.865  1.00  0.00     0.000 C 
BRANCH  10  11
ATOM     11  C   UNL     1     -15.789 -77.407  -7.466  1.00  0.00    -0.000 C 
BRANCH  11  12
ATOM     12  C   UNL     1     -16.799 -76.706  -6.549  1.00  0.00    -0.000 C 
BRANCH  12  13
ATOM     13  C   UNL     1     -17.178 -75.327  -7.100  1.00  0.00    -0.000 C 
BRANCH  13  14
ATOM     14  C   UNL     1     -17.443 -74.333  -5.959  1.00  0.00    -0.000 C 
BRANCH  14  15
ATOM     15  C   UNL     1     -17.713 -72.909  -6.467  1.00  0.00    -0.003 C 
ATOM     16  C   UNL     1     -16.953 -72.585  -7.753  1.00  0.00     0.004 C 
ENDBRANCH  14  15
ENDBRANCH  13  14
ENDBRANCH  12  13
ENDBRANCH  11  12
ENDBRANCH  10  11
ENDBRANCH   1  10
TORSDOF 12
ENDMDL
MODEL 2
REMARK VINA RESULT:    -3.459      1.375      3.637
REMARK INTER + INTRA:          -7.192
REMARK INTER:                  -5.282
REMARK INTRA:                  -1.911
REMARK UNBOUND:                -1.306
REMARK SMILES CCCCCCCCCCCCCC(=O)[O-]
REMARK SMILES IDX 8 1 9 2 10 3 11 4 12 5 13 6 14 7 15 8 16 9 7 10 6 11 5 12
REMARK SMILES IDX 4 13 3 14 2 15 1 16
REMARK H PARENT
REMARK Flexibility Score: inf
ROOT
ATOM      1  C   UNL     1     -16.992 -74.564  -7.169  1.00  0.00     0.000 C 
ENDROOT
BRANCH   1   2
ATOM      2  C   UNL     1     -17.637 -74.764  -8.549  1.00  0.00     0.000 C 
BRANCH   2   3
ATOM      3  C   UNL     1     -16.807 -74.146  -9.688  1.00  0.00     0.000 C 
BRANCH   3   4
ATOM      4  C   UNL     1     -15.497 -73.507  -9.194  1.00  0.00     0.000 C 
BRANCH   4   5
ATOM      5  C   UNL     1     -14.508 -73.117 -10.307  1.00  0.00     0.006 C 
BRANCH   5   6
ATOM      6  C   UNL     1     -13.191 -72.547  -9.763  1.00  0.00     0.053 C 
BRANCH   6   7
ATOM      7  C   UNL     1     -12.110 -73.580  -9.826  1.00  0.00     0.041 C 
ATOM      8  O   UNL     1     -11.681 -74.112  -8.769  1.00  0.00    -0.550 OA
ATOM      9  O   UNL     1     -11.541 -73.916 -11.047  1.00  0.00    -0.550 OA
ENDBRANCH   6   7
ENDBRANCH   5   6
ENDBRANCH   4   5
ENDBRANCH   3   4
ENDBRANCH   2   3
ENDBRANCH   1   2
BRANCH   1  10
ATOM     10  C   UNL     1     -16.804 -75.885  -6.409  1.00  0.00     0.000 C 
BRANCH  10  11
ATOM     11  C   UNL     1     -16.196 -76.959  -7.318  1.00  0.00    -0.000 C 
BRANCH  11  12
ATOM     12  C   UNL     1     -14.737 -77.241  -6.937  1.00  0.00    -0.000 C 
BRANCH  12  13
ATOM     13  C   UNL     1     -13.774 -76.652  -7.975  1.00  0.00    -0.000 C 
BRANCH  13  14
ATOM     14  C   UNL     1     -13.695 -77.548  -9.221  1.00  0.00    -0.000 C 
BRANCH  14  15
ATOM     15  C   UNL     1     -13.969 -76.777 -10.521  1.00  0.00    -0.003 C 
ATOM     16  C   UNL     1     -15.309 -77.144 -11.157  1.00  0.00     0.004 C 
ENDBRANCH  14  15
ENDBRANCH  13  14
ENDBRANCH  12  13
ENDBRANCH  11  12
ENDBRANCH  10  11
ENDBRANCH   1  10
TORSDOF 12
ENDMDL
MODEL 3
REMARK VINA RESULT:    -3.439     13.505     15.080
REMARK INTER + INTRA:          -7.157
REMARK INTER:                  -5.850
REMARK INTRA:                  -1.307
REMARK UNBOUND:                -1.306
REMARK SMILES CCCCCCCCCCCCCC(=O)[O-]
REMARK SMILES IDX 8 1 9 2 10 3 11 4 12 5 13 6 14 7 15 8 16 9 7 10 6 11 5 12
REMARK SMILES IDX 4 13 3 14 2 15 1 16
REMARK H PARENT
REMARK Flexibility Score: inf
ROOT
ATOM      1  C   UNL     1      -7.442 -63.404  -0.836  1.00  0.00     0.000 C 
ENDROOT
BRANCH   1   2
ATOM      2  C   UNL     1      -5.961 -63.562  -1.216  1.00  0.00     0.000 C 
BRANCH   2   3
ATOM      3  C   UNL     1      -5.659 -64.923  -1.868  1.00  0.00     0.000 C 
BRANCH   3   4
ATOM      4  C   UNL     1      -4.250 -64.991  -2.482  1.00  0.00     0.000 C 
BRANCH   4   5
ATOM      5  C   UNL     1      -4.217 -65.255  -3.999  1.00  0.00     0.006 C 
BRANCH   5   6
ATOM      6  C   UNL     1      -4.195 -66.750  -4.345  1.00  0.00     0.053 C 
BRANCH   6   7
ATOM      7  C   UNL     1      -3.440 -66.981  -5.616  1.00  0.00     0.041 C 
ATOM      8  O   UNL     1      -3.713 -67.971  -6.343  1.00  0.00    -0.550 OA
ATOM      9  O   UNL     1      -2.401 -66.131  -5.970  1.00  0.00    -0.550 OA
ENDBRANCH   6   7
ENDBRANCH   5   6
ENDBRANCH   4   5
ENDBRANCH   3   4
ENDBRANCH   2   3
ENDBRANCH   1   2
BRANCH   1  10
ATOM     10  C   UNL     1      -8.266 -64.664  -1.139  1.00  0.00     0.000 C 
BRANCH  10  11
ATOM     11  C   UNL     1      -8.953 -65.188   0.127  1.00  0.00    -0.000 C 
BRANCH  11  12
ATOM     12  C   UNL     1      -8.449 -64.449   1.373  1.00  0.00    -0.000 C 
BRANCH  12  13
ATOM     13  C   UNL     1      -8.368 -65.393   2.578  1.00  0.00    -0.000 C 
BRANCH  13  14
ATOM     14  C   UNL     1      -6.908 -65.734   2.912  1.00  0.00    -0.000 C 
BRANCH  14  15
ATOM     15  C   UNL     1      -5.916 -64.723   2.318  1.00  0.00    -0.003 C 
ATOM     16  C   UNL     1      -4.648 -65.383   1.778  1.00  0.00     0.004 C 
ENDBRANCH  14  15
ENDBRANCH  13  14
ENDBRANCH  12  13
ENDBRANCH  11  12
ENDBRANCH  10  11
ENDBRANCH   1  10
TORSDOF 12
ENDMDL
MODEL 4
REMARK VINA RESULT:    -3.433      1.704      3.012
REMARK INTER + INTRA:          -7.147
REMARK INTER:                  -5.769
REMARK INTRA:                  -1.378
REMARK UNBOUND:                -1.306
REMARK SMILES CCCCCCCCCCCCCC(=O)[O-]
REMARK SMILES IDX 8 1 9 2 10 3 11 4 12 5 13 6 14 7 15 8 16 9 7 10 6 11 5 12
REMARK SMILES IDX 4 13 3 14 2 15 1 16
REMARK H PARENT
REMARK Flexibility Score: inf
ROOT
ATOM      1  C   UNL     1     -13.230 -75.141 -10.565  1.00  0.00     0.000 C 
ENDROOT
BRANCH   1   2
ATOM      2  C   UNL     1     -13.887 -73.772 -10.326  1.00  0.00     0.000 C 
BRANCH   2   3
ATOM      3  C   UNL     1     -13.066 -72.878  -9.380  1.00  0.00     0.000 C 
BRANCH   3   4
ATOM      4  C   UNL     1     -11.625 -73.382  -9.182  1.00  0.00     0.000 C 
BRANCH   4   5
ATOM      5  C   UNL     1     -10.562 -72.650 -10.022  1.00  0.00     0.006 C 
BRANCH   5   6
ATOM      6  C   UNL     1      -9.180 -72.637  -9.356  1.00  0.00     0.053 C 
BRANCH   6   7
ATOM      7  C   UNL     1      -8.797 -71.241  -8.975  1.00  0.00     0.041 C 
ATOM      8  O   UNL     1      -7.644 -71.000  -8.531  1.00  0.00    -0.550 OA
ATOM      9  O   UNL     1      -9.731 -70.217  -9.061  1.00  0.00    -0.550 OA
ENDBRANCH   6   7
ENDBRANCH   5   6
ENDBRANCH   4   5
ENDBRANCH   3   4
ENDBRANCH   2   3
ENDBRANCH   1   2
BRANCH   1  10
ATOM     10  C   UNL     1     -13.972 -76.282  -9.854  1.00  0.00     0.000 C 
BRANCH  10  11
ATOM     11  C   UNL     1     -13.417 -76.499  -8.440  1.00  0.00    -0.000 C 
BRANCH  11  12
ATOM     12  C   UNL     1     -14.540 -76.850  -7.457  1.00  0.00    -0.000 C 
BRANCH  12  13
ATOM     13  C   UNL     1     -15.917 -76.561  -8.067  1.00  0.00    -0.000 C 
BRANCH  13  14
ATOM     14  C   UNL     1     -16.564 -75.334  -7.406  1.00  0.00    -0.000 C 
BRANCH  14  15
ATOM     15  C   UNL     1     -17.068 -74.309  -8.433  1.00  0.00    -0.003 C 
ATOM     16  C   UNL     1     -16.717 -72.870  -8.057  1.00  0.00     0.004 C 
ENDBRANCH  14  15
ENDBRANCH  13  14
ENDBRANCH  12  13
ENDBRANCH  11  12
ENDBRANCH  10  11
ENDBRANCH   1  10
TORSDOF 12
ENDMDL
MODEL 5
REMARK VINA RESULT:    -3.429      1.919      3.887
REMARK INTER + INTRA:          -7.142
REMARK INTER:                  -5.437
REMARK INTRA:                  -1.704
REMARK UNBOUND:                -1.306
REMARK SMILES CCCCCCCCCCCCCC(=O)[O-]
REMARK SMILES IDX 8 1 9 2 10 3 11 4 12 5 13 6 14 7 15 8 16 9 7 10 6 11 5 12
REMARK SMILES IDX 4 13 3 14 2 15 1 16
REMARK H PARENT
REMARK Flexibility Score: inf
ROOT
ATOM      1  C   UNL     1     -15.362 -74.451 -10.962  1.00  0.00     0.000 C 
ENDROOT
BRANCH   1   2
ATOM      2  C   UNL     1     -15.391 -73.683  -9.631  1.00  0.00     0.000 C 
BRANCH   2   3
ATOM      3  C   UNL     1     -14.180 -72.749  -9.459  1.00  0.00     0.000 C 
BRANCH   3   4
ATOM      4  C   UNL     1     -12.892 -73.320 -10.079  1.00  0.00     0.000 C 
BRANCH   4   5
ATOM      5  C   UNL     1     -11.742 -73.554  -9.082  1.00  0.00     0.006 C 
BRANCH   5   6
ATOM      6  C   UNL     1     -10.376 -73.126  -9.634  1.00  0.00     0.053 C 
BRANCH   6   7
ATOM      7  C   UNL     1     -10.145 -71.669  -9.384  1.00  0.00     0.041 C 
ATOM      8  O   UNL     1     -10.539 -70.813 -10.219  1.00  0.00    -0.550 OA
ATOM      9  O   UNL     1      -9.451 -71.260  -8.253  1.00  0.00    -0.550 OA
ENDBRANCH   6   7
ENDBRANCH   5   6
ENDBRANCH   4   5
ENDBRANCH   3   4
ENDBRANCH   2   3
ENDBRANCH   1   2
BRANCH   1  10
ATOM     10  C   UNL     1     -16.377 -75.603 -10.999  1.00  0.00     0.000 C 
BRANCH  10  11
ATOM     11  C   UNL     1     -15.667 -76.954 -11.155  1.00  0.00    -0.000 C 
BRANCH  11  12
ATOM     12  C   UNL     1     -14.165 -76.822 -10.871  1.00  0.00    -0.000 C 
BRANCH  12  13
ATOM     13  C   UNL     1     -13.760 -77.660  -9.652  1.00  0.00    -0.000 C 
BRANCH  13  14
ATOM     14  C   UNL     1     -13.506 -76.763  -8.431  1.00  0.00    -0.000 C 
BRANCH  14  15
ATOM     15  C   UNL     1     -14.442 -77.088  -7.256  1.00  0.00    -0.003 C 
ATOM     16  C   UNL     1     -15.779 -76.354  -7.344  1.00  0.00     0.004 C 
ENDBRANCH  14  15
ENDBRANCH  13  14
ENDBRANCH  12  13
ENDBRANCH  11  12
ENDBRANCH  10  11
ENDBRANCH   1  10
TORSDOF 12
ENDMDL
MODEL 6
REMARK VINA RESULT:    -3.423      1.205      2.649
REMARK INTER + INTRA:          -7.131
REMARK INTER:                  -5.445
REMARK INTRA:                  -1.686
REMARK UNBOUND:                -1.306
REMARK SMILES CCCCCCCCCCCCCC(=O)[O-]
REMARK SMILES IDX 8 1 9 2 10 3 11 4 12 5 13 6 14 7 15 8 16 9 7 10 6 11 5 12
REMARK SMILES IDX 4 13 3 14 2 15 1 16
REMARK H PARENT
REMARK Flexibility Score: inf
ROOT
ATOM      1  C   UNL     1     -14.925 -76.002 -10.536  1.00  0.00     0.000 C 
ENDROOT
BRANCH   1   2
ATOM      2  C   UNL     1     -14.772 -75.072 -11.749  1.00  0.00     0.000 C 
BRANCH   2   3
ATOM      3  C   UNL     1     -14.796 -73.583 -11.362  1.00  0.00     0.000 C 
BRANCH   3   4
ATOM      4  C   UNL     1     -14.625 -73.356  -9.850  1.00  0.00     0.000 C 
BRANCH   4   5
ATOM      5  C   UNL     1     -13.291 -72.706  -9.440  1.00  0.00     0.006 C 
BRANCH   5   6
ATOM      6  C   UNL     1     -12.184 -73.734  -9.170  1.00  0.00     0.053 C 
BRANCH   6   7
ATOM      7  C   UNL     1     -11.045 -73.536 -10.121  1.00  0.00     0.041 C 
ATOM      8  O   UNL     1     -10.041 -72.862  -9.774  1.00  0.00    -0.550 OA
ATOM      9  O   UNL     1     -11.116 -74.056 -11.407  1.00  0.00    -0.550 OA
ENDBRANCH   6   7
ENDBRANCH   5   6
ENDBRANCH   4   5
ENDBRANCH   3   4
ENDBRANCH   2   3
ENDBRANCH   1   2
BRANCH   1  10
ATOM     10  C   UNL     1     -13.944 -77.184 -10.571  1.00  0.00     0.000 C 
BRANCH  10  11
ATOM     11  C   UNL     1     -13.906 -77.905  -9.219  1.00  0.00    -0.000 C 
BRANCH  11  12
ATOM     12  C   UNL     1     -13.513 -76.942  -8.092  1.00  0.00    -0.000 C 
BRANCH  12  13
ATOM     13  C   UNL     1     -14.380 -77.168  -6.848  1.00  0.00    -0.000 C 
BRANCH  13  14
ATOM     14  C   UNL     1     -15.828 -77.498  -7.240  1.00  0.00    -0.000 C 
BRANCH  14  15
ATOM     15  C   UNL     1     -16.835 -76.474  -6.694  1.00  0.00    -0.003 C 
ATOM     16  C   UNL     1     -16.813 -75.153  -7.462  1.00  0.00     0.004 C 
ENDBRANCH  14  15
ENDBRANCH  13  14
ENDBRANCH  12  13
ENDBRANCH  11  12
ENDBRANCH  10  11
ENDBRANCH   1  10
TORSDOF 12
ENDMDL
MODEL 7
REMARK VINA RESULT:    -3.378     16.098     17.529
REMARK INTER + INTRA:          -7.055
REMARK INTER:                  -5.251
REMARK INTRA:                  -1.804
REMARK UNBOUND:                -1.306
REMARK SMILES CCCCCCCCCCCCCC(=O)[O-]
REMARK SMILES IDX 8 1 9 2 10 3 11 4 12 5 13 6 14 7 15 8 16 9 7 10 6 11 5 12
REMARK SMILES IDX 4 13 3 14 2 15 1 16
REMARK H PARENT
REMARK Flexibility Score: inf
ROOT
ATOM      1  C   UNL     1      -8.913 -64.805   0.550  1.00  0.00     0.000 C 
ENDROOT
BRANCH   1   2
ATOM      2  C   UNL     1      -7.446 -64.353   0.486  1.00  0.00     0.000 C 
BRANCH   2   3
ATOM      3  C   UNL     1      -7.232 -62.949   1.081  1.00  0.00     0.000 C 
BRANCH   3   4
ATOM      4  C   UNL     1      -8.545 -62.280   1.521  1.00  0.00     0.000 C 
BRANCH   4   5
ATOM      5  C   UNL     1      -8.404 -61.275   2.679  1.00  0.00     0.006 C 
BRANCH   5   6
ATOM      6  C   UNL     1      -8.437 -59.814   2.210  1.00  0.00     0.053 C 
BRANCH   6   7
ATOM      7  C   UNL     1      -9.838 -59.401   1.887  1.00  0.00     0.041 C 
ATOM      8  O   UNL     1     -10.775 -59.661   2.688  1.00  0.00    -0.550 OA
ATOM      9  O   UNL     1     -10.117 -58.773   0.681  1.00  0.00    -0.550 OA
ENDBRANCH   6   7
ENDBRANCH   5   6
ENDBRANCH   4   5
ENDBRANCH   3   4
ENDBRANCH   2   3
ENDBRANCH   1   2
BRANCH   1  10
ATOM     10  C   UNL     1      -9.102 -66.075   1.393  1.00  0.00     0.000 C 
BRANCH  10  11
ATOM     11  C   UNL     1      -9.585 -65.728   2.806  1.00  0.00    -0.000 C 
BRANCH  11  12
ATOM     12  C   UNL     1      -8.521 -66.077   3.854  1.00  0.00    -0.000 C 
BRANCH  12  13
ATOM     13  C   UNL     1      -7.655 -64.856   4.187  1.00  0.00    -0.000 C 
BRANCH  13  14
ATOM     14  C   UNL     1      -6.179 -65.255   4.337  1.00  0.00    -0.000 C 
BRANCH  14  15
ATOM     15  C   UNL     1      -5.698 -66.175   3.204  1.00  0.00    -0.003 C 
ATOM     16  C   UNL     1      -4.548 -65.572   2.398  1.00  0.00     0.004 C 
ENDBRANCH  14  15
ENDBRANCH  13  14
ENDBRANCH  12  13
ENDBRANCH  11  12
ENDBRANCH  10  11
ENDBRANCH   1  10
TORSDOF 12
ENDMDL
MODEL 8
REMARK VINA RESULT:    -3.378      1.294      3.705
REMARK INTER + INTRA:          -7.054
REMARK INTER:                  -5.472
REMARK INTRA:                  -1.582
REMARK UNBOUND:                -1.306
REMARK SMILES CCCCCCCCCCCCCC(=O)[O-]
REMARK SMILES IDX 8 1 9 2 10 3 11 4 12 5 13 6 14 7 15 8 16 9 7 10 6 11 5 12
REMARK SMILES IDX 4 13 3 14 2 15 1 16
REMARK H PARENT
REMARK Flexibility Score: inf
ROOT
ATOM      1  C   UNL     1     -17.721 -72.062  -8.573  1.00  0.00     0.000 C 
ENDROOT
BRANCH   1   2
ATOM      2  C   UNL     1     -16.799 -72.740  -9.599  1.00  0.00     0.000 C 
BRANCH   2   3
ATOM      3  C   UNL     1     -15.473 -73.216  -8.980  1.00  0.00     0.000 C 
BRANCH   3   4
ATOM      4  C   UNL     1     -14.779 -74.304  -9.818  1.00  0.00     0.000 C 
BRANCH   4   5
ATOM      5  C   UNL     1     -13.309 -74.569  -9.444  1.00  0.00     0.006 C 
BRANCH   5   6
ATOM      6  C   UNL     1     -12.319 -73.967 -10.449  1.00  0.00     0.053 C 
BRANCH   6   7
ATOM      7  C   UNL     1     -11.850 -72.625  -9.980  1.00  0.00     0.041 C 
ATOM      8  O   UNL     1     -10.828 -72.530  -9.251  1.00  0.00    -0.550 OA
ATOM      9  O   UNL     1     -12.572 -71.485 -10.307  1.00  0.00    -0.550 OA
ENDBRANCH   6   7
ENDBRANCH   5   6
ENDBRANCH   4   5
ENDBRANCH   3   4
ENDBRANCH   2   3
ENDBRANCH   1   2
BRANCH   1  10
ATOM     10  C   UNL     1     -17.172 -72.145  -7.142  1.00  0.00     0.000 C 
BRANCH  10  11
ATOM     11  C   UNL     1     -18.075 -73.014  -6.258  1.00  0.00    -0.000 C 
BRANCH  11  12
ATOM     12  C   UNL     1     -17.352 -74.296  -5.825  1.00  0.00    -0.000 C 
BRANCH  12  13
ATOM     13  C   UNL     1     -17.913 -75.519  -6.561  1.00  0.00    -0.000 C 
BRANCH  13  14
ATOM     14  C   UNL     1     -16.812 -76.229  -7.363  1.00  0.00    -0.000 C 
BRANCH  14  15
ATOM     15  C   UNL     1     -15.615 -76.636  -6.490  1.00  0.00    -0.003 C 
ATOM     16  C   UNL     1     -14.479 -77.263  -7.297  1.00  0.00     0.004 C 
ENDBRANCH  14  15
ENDBRANCH  13  14
ENDBRANCH  12  13
ENDBRANCH  11  12
ENDBRANCH  10  11
ENDBRANCH   1  10
TORSDOF 12
ENDMDL
MODEL 9
REMARK VINA RESULT:    -3.371      1.794      3.813
REMARK INTER + INTRA:          -7.042
REMARK INTER:                  -5.704
REMARK INTRA:                  -1.338
REMARK UNBOUND:                -1.306
REMARK SMILES CCCCCCCCCCCCCC(=O)[O-]
REMARK SMILES IDX 8 1 9 2 10 3 11 4 12 5 13 6 14 7 15 8 16 9 7 10 6 11 5 12
REMARK SMILES IDX 4 13 3 14 2 15 1 16
REMARK H PARENT
REMARK Flexibility Score: inf
ROOT
ATOM      1  C   UNL     1     -15.163 -73.024  -9.452  1.00  0.00     0.000 C 
ENDROOT
BRANCH   1   2
ATOM      2  C   UNL     1     -13.734 -73.589  -9.422  1.00  0.00     0.000 C 
BRANCH   2   3
ATOM      3  C   UNL     1     -13.157 -73.815 -10.831  1.00  0.00     0.000 C 
BRANCH   3   4
ATOM      4  C   UNL     1     -11.674 -73.418 -10.940  1.00  0.00     0.000 C 
BRANCH   4   5
ATOM      5  C   UNL     1     -11.050 -72.882  -9.638  1.00  0.00     0.006 C 
BRANCH   5   6
ATOM      6  C   UNL     1      -9.526 -73.056  -9.591  1.00  0.00     0.053 C 
BRANCH   6   7
ATOM      7  C   UNL     1      -8.869 -71.785  -9.150  1.00  0.00     0.041 C 
ATOM      8  O   UNL     1      -7.757 -71.448  -9.632  1.00  0.00    -0.550 OA
ATOM      9  O   UNL     1      -9.462 -71.001  -8.169  1.00  0.00    -0.550 OA
ENDBRANCH   6   7
ENDBRANCH   5   6
ENDBRANCH   4   5
ENDBRANCH   3   4
ENDBRANCH   2   3
ENDBRANCH   1   2
BRANCH   1  10
ATOM     10  C   UNL     1     -16.233 -74.126  -9.420  1.00  0.00     0.000 C 
BRANCH  10  11
ATOM     11  C   UNL     1     -16.991 -74.115  -8.087  1.00  0.00    -0.000 C 
BRANCH  11  12
ATOM     12  C   UNL     1     -16.635 -75.344  -7.242  1.00  0.00    -0.000 C 
BRANCH  12  13
ATOM     13  C   UNL     1     -15.932 -76.411  -8.090  1.00  0.00    -0.000 C 
BRANCH  13  14
ATOM     14  C   UNL     1     -14.599 -76.831  -7.451  1.00  0.00    -0.000 C 
BRANCH  14  15
ATOM     15  C   UNL     1     -13.573 -77.310  -8.488  1.00  0.00    -0.003 C 
ATOM     16  C   UNL     1     -14.111 -77.269  -9.918  1.00  0.00     0.004 C 
ENDBRANCH  14  15
ENDBRANCH  13  14
ENDBRANCH  12  13
ENDBRANCH  11  12
ENDBRANCH  10  11
ENDBRANCH   1  10
TORSDOF 12
ENDMDL
