MODEL 1
REMARK VINA RESULT:    -3.145      0.000      0.000
REMARK INTER + INTRA:          -3.237
REMARK INTER:                  -3.237
REMARK INTRA:                   0.000
REMARK UNBOUND:                 0.000
REMARK SMILES CC1(C)[C@@H]2CC[C@@](C)(C2)[C@@H]1O
REMARK SMILES IDX 1 1 2 2 4 3 5 4 6 5 7 6 9 7 10 8 8 9 3 10 11 11
REMARK H PARENT 11 12
REMARK Flexibility Score: inf
ROOT
ATOM      1  C   UNL     1     117.302 113.610 108.166  1.00  0.00     0.014 C 
ATOM      2  C   UNL     1     118.483 112.622 107.979  1.00  0.00    -0.006 C 
ATOM      3  C   UNL     1     118.160 111.427 107.015  1.00  0.00    -0.002 C 
ATOM      4  C   UNL     1     116.823 110.752 107.380  1.00  0.00     0.005 C 
ATOM      5  C   UNL     1     117.140 110.059 108.715  1.00  0.00     0.010 C 
ATOM      6  C   UNL     1     118.645 110.368 108.916  1.00  0.00    -0.006 C 
ATOM      7  C   UNL     1     119.130 110.347 107.479  1.00  0.00     0.013 C 
ATOM      8  C   UNL     1     118.902 111.859 109.281  1.00  0.00     0.126 C 
ATOM      9  C   UNL     1     119.364 109.371 109.830  1.00  0.00     0.014 C 
ATOM     10  C   UNL     1     119.671 113.443 107.417  1.00  0.00     0.014 C 
ENDROOT
BRANCH   8  11
ATOM     11  O   UNL     1     118.287 112.296 110.472  1.00  0.00    -0.392 OA
ATOM     12  H   UNL     1     118.900 112.890 110.967  1.00  0.00     0.211 HD
ENDBRANCH   8  11
TORSDOF 1
ENDMDL
MODEL 2
REMARK VINA RESULT:    -3.143      6.146      7.570
REMARK INTER + INTRA:          -3.234
REMARK INTER:                  -3.234
REMARK INTRA:                   0.000
REMARK UNBOUND:                 0.000
REMARK SMILES CC1(C)[C@@H]2CC[C@@](C)(C2)[C@@H]1O
REMARK SMILES IDX 1 1 2 2 4 3 5 4 6 5 7 6 9 7 10 8 8 9 3 10 11 11
REMARK H PARENT 11 12
REMARK Flexibility Score: inf
ROOT
ATOM      1  C   UNL     1     118.387 117.298 108.171  1.00  0.00     0.014 C 
ATOM      2  C   UNL     1     119.376 118.478 107.978  1.00  0.00    -0.006 C 
ATOM      3  C   UNL     1     120.566 118.152 107.009  1.00  0.00    -0.002 C 
ATOM      4  C   UNL     1     121.242 116.814 107.373  1.00  0.00     0.005 C 
ATOM      5  C   UNL     1     121.940 117.132 108.704  1.00  0.00     0.010 C 
ATOM      6  C   UNL     1     121.634 118.638 108.905  1.00  0.00    -0.006 C 
ATOM      7  C   UNL     1     121.649 119.121 107.468  1.00  0.00     0.013 C 
ATOM      8  C   UNL     1     120.144 118.897 109.276  1.00  0.00     0.126 C 
ATOM      9  C   UNL     1     122.635 119.357 109.815  1.00  0.00     0.014 C 
ATOM     10  C   UNL     1     118.553 119.666 107.418  1.00  0.00     0.014 C 
ENDROOT
BRANCH   8  11
ATOM     11  O   UNL     1     119.712 118.284 110.470  1.00  0.00    -0.392 OA
ATOM     12  H   UNL     1     120.432 118.317 111.143  1.00  0.00     0.211 HD
ENDBRANCH   8  11
TORSDOF 1
ENDMDL
MODEL 3
REMARK VINA RESULT:    -3.135      8.171     10.701
REMARK INTER + INTRA:          -3.227
REMARK INTER:                  -3.227
REMARK INTRA:                   0.000
REMARK UNBOUND:                 0.000
REMARK SMILES CC1(C)[C@@H]2CC[C@@](C)(C2)[C@@H]1O
REMARK SMILES IDX 1 1 2 2 4 3 5 4 6 5 7 6 9 7 10 8 8 9 3 10 11 11
REMARK H PARENT 11 12
REMARK Flexibility Score: inf
ROOT
ATOM      1  C   UNL     1     114.677 118.365 108.160  1.00  0.00     0.014 C 
ATOM      2  C   UNL     1     113.500 119.359 107.979  1.00  0.00    -0.006 C 
ATOM      3  C   UNL     1     113.821 120.548 107.006  1.00  0.00    -0.002 C 
ATOM      4  C   UNL     1     115.166 121.216 107.354  1.00  0.00     0.005 C 
ATOM      5  C   UNL     1     114.867 121.917 108.688  1.00  0.00     0.010 C 
ATOM      6  C   UNL     1     113.362 121.619 108.906  1.00  0.00    -0.006 C 
ATOM      7  C   UNL     1     112.863 121.636 107.474  1.00  0.00     0.013 C 
ATOM      8  C   UNL     1     113.099 120.131 109.281  1.00  0.00     0.126 C 
ATOM      9  C   UNL     1     112.658 122.626 109.823  1.00  0.00     0.014 C 
ATOM     10  C   UNL     1     112.301 118.543 107.433  1.00  0.00     0.014 C 
ENDROOT
BRANCH   8  11
ATOM     11  O   UNL     1     113.723 119.697 110.468  1.00  0.00    -0.392 OA
ATOM     12  H   UNL     1     113.956 120.474 111.028  1.00  0.00     0.211 HD
ENDBRANCH   8  11
TORSDOF 1
ENDMDL
MODEL 4
REMARK VINA RESULT:    -3.082      6.177      7.602
REMARK INTER + INTRA:          -3.172
REMARK INTER:                  -3.172
REMARK INTRA:                   0.000
REMARK UNBOUND:                 0.000
REMARK SMILES CC1(C)[C@@H]2CC[C@@](C)(C2)[C@@H]1O
REMARK SMILES IDX 1 1 2 2 4 3 5 4 6 5 7 6 9 7 10 8 8 9 3 10 11 11
REMARK H PARENT 11 12
REMARK Flexibility Score: inf
ROOT
ATOM      1  C   UNL     1     113.568 114.763 108.122  1.00  0.00     0.014 C 
ATOM      2  C   UNL     1     112.602 113.566 107.922  1.00  0.00    -0.006 C 
ATOM      3  C   UNL     1     111.410 113.871 106.948  1.00  0.00    -0.002 C 
ATOM      4  C   UNL     1     110.709 115.196 107.311  1.00  0.00     0.005 C 
ATOM      5  C   UNL     1     110.010 114.864 108.638  1.00  0.00     0.010 C 
ATOM      6  C   UNL     1     110.343 113.364 108.839  1.00  0.00    -0.006 C 
ATOM      7  C   UNL     1     110.343 112.882 107.400  1.00  0.00     0.013 C 
ATOM      8  C   UNL     1     111.835 113.131 109.216  1.00  0.00     0.126 C 
ATOM      9  C   UNL     1     109.350 112.625 109.742  1.00  0.00     0.014 C 
ATOM     10  C   UNL     1     113.449 112.394 107.365  1.00  0.00     0.014 C 
ENDROOT
BRANCH   8  11
ATOM     11  O   UNL     1     112.250 113.750 110.413  1.00  0.00    -0.392 OA
ATOM     12  H   UNL     1     113.110 114.210 110.271  1.00  0.00     0.211 HD
ENDBRANCH   8  11
TORSDOF 1
ENDMDL
MODEL 5
REMARK VINA RESULT:    -2.897      2.526      3.795
REMARK INTER + INTRA:          -2.981
REMARK INTER:                  -2.981
REMARK INTRA:                   0.000
REMARK UNBOUND:                 0.000
REMARK SMILES CC1(C)[C@@H]2CC[C@@](C)(C2)[C@@H]1O
REMARK SMILES IDX 1 1 2 2 4 3 5 4 6 5 7 6 9 7 10 8 8 9 3 10 11 11
REMARK H PARENT 11 12
REMARK Flexibility Score: inf
ROOT
ATOM      1  C   UNL     1     117.563 109.001 108.122  1.00  0.00     0.014 C 
ATOM      2  C   UNL     1     119.092 108.966 107.861  1.00  0.00    -0.006 C 
ATOM      3  C   UNL     1     119.603 107.600 107.282  1.00  0.00    -0.002 C 
ATOM      4  C   UNL     1     119.073 106.405 108.101  1.00  0.00     0.005 C 
ATOM      5  C   UNL     1     119.832 106.536 109.431  1.00  0.00     0.010 C 
ATOM      6  C   UNL     1     120.756 107.755 109.183  1.00  0.00    -0.006 C 
ATOM      7  C   UNL     1     121.065 107.578 107.709  1.00  0.00     0.013 C 
ATOM      8  C   UNL     1     119.971 109.099 109.149  1.00  0.00     0.126 C 
ATOM      9  C   UNL     1     121.998 107.782 110.080  1.00  0.00     0.014 C 
ATOM     10  C   UNL     1     119.403 110.109 106.862  1.00  0.00     0.014 C 
ENDROOT
BRANCH   8  11
ATOM     11  O   UNL     1     119.278 109.414 110.335  1.00  0.00    -0.392 OA
ATOM     12  H   UNL     1     119.302 110.388 110.489  1.00  0.00     0.211 HD
ENDBRANCH   8  11
TORSDOF 1
ENDMDL
MODEL 6
REMARK VINA RESULT:    -2.895     11.962     13.947
REMARK INTER + INTRA:          -2.980
REMARK INTER:                  -2.980
REMARK INTRA:                   0.000
REMARK UNBOUND:                 0.000
REMARK SMILES CC1(C)[C@@H]2CC[C@@](C)(C2)[C@@H]1O
REMARK SMILES IDX 1 1 2 2 4 3 5 4 6 5 7 6 9 7 10 8 8 9 3 10 11 11
REMARK H PARENT 11 12
REMARK Flexibility Score: inf
ROOT
ATOM      1  C   UNL     1     114.511 122.829 108.203  1.00  0.00     0.014 C 
ATOM      2  C   UNL     1     112.988 122.877 107.914  1.00  0.00    -0.006 C 
ATOM      3  C   UNL     1     112.505 124.235 107.293  1.00  0.00    -0.002 C 
ATOM      4  C   UNL     1     113.036 125.442 108.093  1.00  0.00     0.005 C 
ATOM      5  C   UNL     1     112.253 125.353 109.411  1.00  0.00     0.010 C 
ATOM      6  C   UNL     1     111.316 124.141 109.177  1.00  0.00    -0.006 C 
ATOM      7  C   UNL     1     111.036 124.287 107.694  1.00  0.00     0.013 C 
ATOM      8  C   UNL     1     112.084 122.787 109.189  1.00  0.00     0.126 C 
ATOM      9  C   UNL     1     110.059 124.151 110.052  1.00  0.00     0.014 C 
ATOM     10  C   UNL     1     112.679 121.715 106.937  1.00  0.00     0.014 C 
ENDROOT
BRANCH   8  11
ATOM     11  O   UNL     1     112.752 122.491 110.395  1.00  0.00    -0.392 OA
ATOM     12  H   UNL     1     113.136 123.316 110.776  1.00  0.00     0.211 HD
ENDBRANCH   8  11
TORSDOF 1
ENDMDL
MODEL 7
REMARK VINA RESULT:    -2.894      7.903     10.292
REMARK INTER + INTRA:          -2.979
REMARK INTER:                  -2.979
REMARK INTRA:                   0.000
REMARK UNBOUND:                 0.000
REMARK SMILES CC1(C)[C@@H]2CC[C@@](C)(C2)[C@@H]1O
REMARK SMILES IDX 1 1 2 2 4 3 5 4 6 5 7 6 9 7 10 8 8 9 3 10 11 11
REMARK H PARENT 11 12
REMARK Flexibility Score: inf
ROOT
ATOM      1  C   UNL     1     122.889 117.516 108.173  1.00  0.00     0.014 C 
ATOM      2  C   UNL     1     122.944 119.039 107.885  1.00  0.00    -0.006 C 
ATOM      3  C   UNL     1     124.313 119.520 107.288  1.00  0.00    -0.002 C 
ATOM      4  C   UNL     1     125.506 118.987 108.107  1.00  0.00     0.005 C 
ATOM      5  C   UNL     1     125.396 119.771 109.424  1.00  0.00     0.010 C 
ATOM      6  C   UNL     1     124.188 120.708 109.170  1.00  0.00    -0.006 C 
ATOM      7  C   UNL     1     124.359 120.988 107.689  1.00  0.00     0.013 C 
ATOM      8  C   UNL     1     122.834 119.942 109.159  1.00  0.00     0.126 C 
ATOM      9  C   UNL     1     124.186 121.966 110.045  1.00  0.00     0.014 C 
ATOM     10  C   UNL     1     121.798 119.350 106.890  1.00  0.00     0.014 C 
ENDROOT
BRANCH   8  11
ATOM     11  O   UNL     1     122.517 119.274 110.360  1.00  0.00    -0.392 OA
ATOM     12  H   UNL     1     122.952 119.727 111.120  1.00  0.00     0.211 HD
ENDBRANCH   8  11
TORSDOF 1
ENDMDL
MODEL 8
REMARK VINA RESULT:    -2.889      8.967     10.171
REMARK INTER + INTRA:          -2.974
REMARK INTER:                  -2.974
REMARK INTRA:                   0.000
REMARK UNBOUND:                 0.000
REMARK SMILES CC1(C)[C@@H]2CC[C@@](C)(C2)[C@@H]1O
REMARK SMILES IDX 1 1 2 2 4 3 5 4 6 5 7 6 9 7 10 8 8 9 3 10 11 11
REMARK H PARENT 11 12
REMARK Flexibility Score: inf
ROOT
ATOM      1  C   UNL     1     109.143 114.496 108.164  1.00  0.00     0.014 C 
ATOM      2  C   UNL     1     109.100 112.971 107.888  1.00  0.00    -0.006 C 
ATOM      3  C   UNL     1     107.748 112.481 107.259  1.00  0.00    -0.002 C 
ATOM      4  C   UNL     1     106.533 113.017 108.042  1.00  0.00     0.005 C 
ATOM      5  C   UNL     1     106.610 112.245 109.369  1.00  0.00     0.010 C 
ATOM      6  C   UNL     1     107.826 111.309 109.154  1.00  0.00    -0.006 C 
ATOM      7  C   UNL     1     107.695 111.015 107.672  1.00  0.00     0.013 C 
ATOM      8  C   UNL     1     109.179 112.078 109.172  1.00  0.00     0.126 C 
ATOM      9  C   UNL     1     107.809 110.059 110.040  1.00  0.00     0.014 C 
ATOM     10  C   UNL     1     110.272 112.654 106.925  1.00  0.00     0.014 C 
ENDROOT
BRANCH   8  11
ATOM     11  O   UNL     1     109.462 112.758 110.374  1.00  0.00    -0.392 OA
ATOM     12  H   UNL     1     110.275 113.306 110.266  1.00  0.00     0.211 HD
ENDBRANCH   8  11
TORSDOF 1
ENDMDL
MODEL 9
REMARK VINA RESULT:    -2.604      5.840      6.800
REMARK INTER + INTRA:          -2.680
REMARK INTER:                  -2.680
REMARK INTRA:                   0.000
REMARK UNBOUND:                 0.000
REMARK SMILES CC1(C)[C@@H]2CC[C@@](C)(C2)[C@@H]1O
REMARK SMILES IDX 1 1 2 2 4 3 5 4 6 5 7 6 9 7 10 8 8 9 3 10 11 11
REMARK H PARENT 11 12
REMARK Flexibility Score: inf
ROOT
ATOM      1  C   UNL     1     120.306 116.990 107.619  1.00  0.00     0.014 C 
ATOM      2  C   UNL     1     121.727 117.020 108.241  1.00  0.00    -0.006 C 
ATOM      3  C   UNL     1     122.828 117.582 107.274  1.00  0.00    -0.002 C 
ATOM      4  C   UNL     1     122.758 116.910 105.888  1.00  0.00     0.005 C 
ATOM      5  C   UNL     1     123.232 115.477 106.175  1.00  0.00     0.010 C 
ATOM      6  C   UNL     1     123.580 115.524 107.685  1.00  0.00    -0.006 C 
ATOM      7  C   UNL     1     124.103 116.942 107.807  1.00  0.00     0.013 C 
ATOM      8  C   UNL     1     122.313 115.610 108.584  1.00  0.00     0.126 C 
ATOM      9  C   UNL     1     124.583 114.450 108.121  1.00  0.00     0.014 C 
ATOM     10  C   UNL     1     121.643 117.905 109.511  1.00  0.00     0.014 C 
ENDROOT
BRANCH   8  11
ATOM     11  O   UNL     1     121.419 114.527 108.460  1.00  0.00    -0.392 OA
ATOM     12  H   UNL     1     121.422 114.195 107.531  1.00  0.00     0.211 HD
ENDBRANCH   8  11
TORSDOF 1
ENDMDL
