MODEL 1
REMARK VINA RESULT:    -5.171      0.000      0.000
REMARK INTER + INTRA:         -10.382
REMARK INTER:                  -8.799
REMARK INTRA:                  -1.583
REMARK UNBOUND:                -1.583
REMARK SMILES CCCCCCCCCCCCCC(=O)[O-]
REMARK SMILES IDX 8 1 9 2 10 3 11 4 12 5 13 6 14 7 15 8 16 9 7 10 6 11 5 12
REMARK SMILES IDX 4 13 3 14 2 15 1 16
REMARK H PARENT
REMARK Flexibility Score: inf
ROOT
ATOM      1  C   UNL     1      14.101  22.854  17.647  1.00  0.00     0.000 C 
ENDROOT
BRANCH   1   2
ATOM      2  C   UNL     1      13.881  21.760  16.592  1.00  0.00     0.000 C 
BRANCH   2   3
ATOM      3  C   UNL     1      13.971  22.296  15.155  1.00  0.00     0.000 C 
BRANCH   3   4
ATOM      4  C   UNL     1      15.397  22.237  14.589  1.00  0.00     0.000 C 
BRANCH   4   5
ATOM      5  C   UNL     1      15.394  22.457  13.068  1.00  0.00     0.006 C 
BRANCH   5   6
ATOM      6  C   UNL     1      15.538  21.143  12.291  1.00  0.00     0.053 C 
BRANCH   6   7
ATOM      7  C   UNL     1      16.955  20.895  11.874  1.00  0.00     0.041 C 
ATOM      8  O   UNL     1      17.698  20.149  12.565  1.00  0.00    -0.550 OA
ATOM      9  O   UNL     1      17.467  21.516  10.741  1.00  0.00    -0.550 OA
ENDBRANCH   6   7
ENDBRANCH   5   6
ENDBRANCH   4   5
ENDBRANCH   3   4
ENDBRANCH   2   3
ENDBRANCH   1   2
BRANCH   1  10
ATOM     10  C   UNL     1      14.260  22.244  19.046  1.00  0.00     0.000 C 
BRANCH  10  11
ATOM     11  C   UNL     1      14.666  20.765  18.956  1.00  0.00    -0.000 C 
BRANCH  11  12
ATOM     12  C   UNL     1      15.986  20.463  19.689  1.00  0.00    -0.000 C 
BRANCH  12  13
ATOM     13  C   UNL     1      17.124  19.930  18.794  1.00  0.00    -0.000 C 
BRANCH  13  14
ATOM     14  C   UNL     1      17.562  20.878  17.663  1.00  0.00    -0.000 C 
BRANCH  14  15
ATOM     15  C   UNL     1      17.757  20.153  16.322  1.00  0.00    -0.003 C 
ATOM     16  C   UNL     1      16.650  19.127  16.088  1.00  0.00     0.004 C 
ENDBRANCH  14  15
ENDBRANCH  13  14
ENDBRANCH  12  13
ENDBRANCH  11  12
ENDBRANCH  10  11
ENDBRANCH   1  10
TORSDOF 12
ENDMDL
MODEL 2
REMARK VINA RESULT:    -5.155      2.381      5.311
REMARK INTER + INTRA:         -10.355
REMARK INTER:                  -8.933
REMARK INTRA:                  -1.422
REMARK UNBOUND:                -1.583
REMARK SMILES CCCCCCCCCCCCCC(=O)[O-]
REMARK SMILES IDX 8 1 9 2 10 3 11 4 12 5 13 6 14 7 15 8 16 9 7 10 6 11 5 12
REMARK SMILES IDX 4 13 3 14 2 15 1 16
REMARK H PARENT
REMARK Flexibility Score: inf
ROOT
ATOM      1  C   UNL     1      16.200  21.488  11.380  1.00  0.00     0.000 C 
ENDROOT
BRANCH   1   2
ATOM      2  C   UNL     1      17.164  20.305  11.198  1.00  0.00     0.000 C 
BRANCH   2   3
ATOM      3  C   UNL     1      18.319  20.321  12.211  1.00  0.00     0.000 C 
BRANCH   3   4
ATOM      4  C   UNL     1      18.253  19.152  13.205  1.00  0.00     0.000 C 
BRANCH   4   5
ATOM      5  C   UNL     1      17.946  19.654  14.624  1.00  0.00     0.006 C 
BRANCH   5   6
ATOM      6  C   UNL     1      16.740  18.939  15.246  1.00  0.00     0.053 C 
BRANCH   6   7
ATOM      7  C   UNL     1      16.617  19.226  16.711  1.00  0.00     0.041 C 
ATOM      8  O   UNL     1      17.519  19.869  17.308  1.00  0.00    -0.550 OA
ATOM      9  O   UNL     1      15.522  18.754  17.424  1.00  0.00    -0.550 OA
ENDBRANCH   6   7
ENDBRANCH   5   6
ENDBRANCH   4   5
ENDBRANCH   3   4
ENDBRANCH   2   3
ENDBRANCH   1   2
BRANCH   1  10
ATOM     10  C   UNL     1      15.269  21.258  12.577  1.00  0.00     0.000 C 
BRANCH  10  11
ATOM     11  C   UNL     1      15.383  22.405  13.591  1.00  0.00    -0.000 C 
BRANCH  11  12
ATOM     12  C   UNL     1      14.701  22.087  14.934  1.00  0.00    -0.000 C 
BRANCH  12  13
ATOM     13  C   UNL     1      15.432  22.621  16.182  1.00  0.00    -0.000 C 
BRANCH  13  14
ATOM     14  C   UNL     1      14.517  23.023  17.353  1.00  0.00    -0.000 C 
BRANCH  14  15
ATOM     15  C   UNL     1      13.903  21.812  18.071  1.00  0.00    -0.003 C 
ATOM     16  C   UNL     1      14.565  21.586  19.428  1.00  0.00     0.004 C 
ENDBRANCH  14  15
ENDBRANCH  13  14
ENDBRANCH  12  13
ENDBRANCH  11  12
ENDBRANCH  10  11
ENDBRANCH   1  10
TORSDOF 12
ENDMDL
MODEL 3
REMARK VINA RESULT:    -5.146      2.952      5.748
REMARK INTER + INTRA:         -10.340
REMARK INTER:                  -8.594
REMARK INTRA:                  -1.745
REMARK UNBOUND:                -1.583
REMARK SMILES CCCCCCCCCCCCCC(=O)[O-]
REMARK SMILES IDX 8 1 9 2 10 3 11 4 12 5 13 6 14 7 15 8 16 9 7 10 6 11 5 12
REMARK SMILES IDX 4 13 3 14 2 15 1 16
REMARK H PARENT
REMARK Flexibility Score: inf
ROOT
ATOM      1  C   UNL     1      15.455  22.113  12.831  1.00  0.00     0.000 C 
ENDROOT
BRANCH   1   2
ATOM      2  C   UNL     1      14.589  21.106  13.603  1.00  0.00     0.000 C 
BRANCH   2   3
ATOM      3  C   UNL     1      14.364  21.518  15.066  1.00  0.00     0.000 C 
BRANCH   3   4
ATOM      4  C   UNL     1      15.401  22.536  15.561  1.00  0.00     0.000 C 
BRANCH   4   5
ATOM      5  C   UNL     1      15.801  22.249  17.016  1.00  0.00     0.006 C 
BRANCH   5   6
ATOM      6  C   UNL     1      14.593  21.897  17.893  1.00  0.00     0.053 C 
BRANCH   6   7
ATOM      7  C   UNL     1      14.981  21.035  19.056  1.00  0.00     0.041 C 
ATOM      8  O   UNL     1      14.778  21.431  20.233  1.00  0.00    -0.550 OA
ATOM      9  O   UNL     1      15.598  19.810  18.839  1.00  0.00    -0.550 OA
ENDBRANCH   6   7
ENDBRANCH   5   6
ENDBRANCH   4   5
ENDBRANCH   3   4
ENDBRANCH   2   3
ENDBRANCH   1   2
BRANCH   1  10
ATOM     10  C   UNL     1      15.904  21.531  11.484  1.00  0.00     0.000 C 
BRANCH  10  11
ATOM     11  C   UNL     1      17.397  21.169  11.513  1.00  0.00    -0.000 C 
BRANCH  11  12
ATOM     12  C   UNL     1      17.643  19.650  11.549  1.00  0.00    -0.000 C 
BRANCH  12  13
ATOM     13  C   UNL     1      17.645  19.021  12.957  1.00  0.00    -0.000 C 
BRANCH  13  14
ATOM     14  C   UNL     1      18.657  19.632  13.944  1.00  0.00    -0.000 C 
BRANCH  14  15
ATOM     15  C   UNL     1      18.084  19.792  15.360  1.00  0.00    -0.003 C 
ATOM     16  C   UNL     1      16.870  18.889  15.566  1.00  0.00     0.004 C 
ENDBRANCH  14  15
ENDBRANCH  13  14
ENDBRANCH  12  13
ENDBRANCH  11  12
ENDBRANCH  10  11
ENDBRANCH   1  10
TORSDOF 12
ENDMDL
MODEL 4
REMARK VINA RESULT:    -5.131      2.832      5.538
REMARK INTER + INTRA:         -10.315
REMARK INTER:                  -8.972
REMARK INTRA:                  -1.342
REMARK UNBOUND:                -1.583
REMARK SMILES CCCCCCCCCCCCCC(=O)[O-]
REMARK SMILES IDX 8 1 9 2 10 3 11 4 12 5 13 6 14 7 15 8 16 9 7 10 6 11 5 12
REMARK SMILES IDX 4 13 3 14 2 15 1 16
REMARK H PARENT
REMARK Flexibility Score: inf
ROOT
ATOM      1  C   UNL     1      15.685  22.152  15.480  1.00  0.00     0.000 C 
ENDROOT
BRANCH   1   2
ATOM      2  C   UNL     1      15.367  22.987  16.729  1.00  0.00     0.000 C 
BRANCH   2   3
ATOM      3  C   UNL     1      13.984  22.670  17.318  1.00  0.00     0.000 C 
BRANCH   3   4
ATOM      4  C   UNL     1      13.988  22.630  18.853  1.00  0.00     0.000 C 
BRANCH   4   5
ATOM      5  C   UNL     1      14.304  21.216  19.365  1.00  0.00     0.006 C 
BRANCH   5   6
ATOM      6  C   UNL     1      13.877  20.129  18.371  1.00  0.00     0.053 C 
BRANCH   6   7
ATOM      7  C   UNL     1      14.989  19.167  18.087  1.00  0.00     0.041 C 
ATOM      8  O   UNL     1      14.756  17.932  18.016  1.00  0.00    -0.550 OA
ATOM      9  O   UNL     1      16.290  19.631  17.933  1.00  0.00    -0.550 OA
ENDBRANCH   6   7
ENDBRANCH   5   6
ENDBRANCH   4   5
ENDBRANCH   3   4
ENDBRANCH   2   3
ENDBRANCH   1   2
BRANCH   1  10
ATOM     10  C   UNL     1      14.413  21.508  14.912  1.00  0.00     0.000 C 
BRANCH  10  11
ATOM     11  C   UNL     1      14.628  21.054  13.461  1.00  0.00    -0.000 C 
BRANCH  11  12
ATOM     12  C   UNL     1      15.426  22.073  12.628  1.00  0.00    -0.000 C 
BRANCH  12  13
ATOM     13  C   UNL     1      16.117  21.496  11.376  1.00  0.00    -0.000 C 
BRANCH  13  14
ATOM     14  C   UNL     1      17.599  21.120  11.563  1.00  0.00    -0.000 C 
BRANCH  14  15
ATOM     15  C   UNL     1      17.790  19.663  12.010  1.00  0.00    -0.003 C 
ATOM     16  C   UNL     1      18.376  19.594  13.419  1.00  0.00     0.004 C 
ENDBRANCH  14  15
ENDBRANCH  13  14
ENDBRANCH  12  13
ENDBRANCH  11  12
ENDBRANCH  10  11
ENDBRANCH   1  10
TORSDOF 12
ENDMDL
MODEL 5
REMARK VINA RESULT:    -5.096      3.105      6.251
REMARK INTER + INTRA:         -10.254
REMARK INTER:                  -8.693
REMARK INTRA:                  -1.561
REMARK UNBOUND:                -1.583
REMARK SMILES CCCCCCCCCCCCCC(=O)[O-]
REMARK SMILES IDX 8 1 9 2 10 3 11 4 12 5 13 6 14 7 15 8 16 9 7 10 6 11 5 12
REMARK SMILES IDX 4 13 3 14 2 15 1 16
REMARK H PARENT
REMARK Flexibility Score: inf
ROOT
ATOM      1  C   UNL     1      18.693  19.172  14.043  1.00  0.00     0.000 C 
ENDROOT
BRANCH   1   2
ATOM      2  C   UNL     1      19.493  18.306  15.029  1.00  0.00     0.000 C 
BRANCH   2   3
ATOM      3  C   UNL     1      19.013  18.464  16.480  1.00  0.00     0.000 C 
BRANCH   3   4
ATOM      4  C   UNL     1      18.119  17.302  16.939  1.00  0.00     0.000 C 
BRANCH   4   5
ATOM      5  C   UNL     1      17.205  17.736  18.095  1.00  0.00     0.006 C 
BRANCH   5   6
ATOM      6  C   UNL     1      15.776  18.036  17.625  1.00  0.00     0.053 C 
BRANCH   6   7
ATOM      7  C   UNL     1      15.415  19.476  17.827  1.00  0.00     0.041 C 
ATOM      8  O   UNL     1      14.220  19.853  17.699  1.00  0.00    -0.550 OA
ATOM      9  O   UNL     1      16.402  20.407  18.124  1.00  0.00    -0.550 OA
ENDBRANCH   6   7
ENDBRANCH   5   6
ENDBRANCH   4   5
ENDBRANCH   3   4
ENDBRANCH   2   3
ENDBRANCH   1   2
BRANCH   1  10
ATOM     10  C   UNL     1      17.634  20.004  14.779  1.00  0.00     0.000 C 
BRANCH  10  11
ATOM     11  C   UNL     1      16.224  19.674  14.267  1.00  0.00    -0.000 C 
BRANCH  11  12
ATOM     12  C   UNL     1      15.295  20.901  14.242  1.00  0.00    -0.000 C 
BRANCH  12  13
ATOM     13  C   UNL     1      15.673  21.987  13.214  1.00  0.00    -0.000 C 
BRANCH  13  14
ATOM     14  C   UNL     1      15.805  21.494  11.761  1.00  0.00    -0.000 C 
BRANCH  14  15
ATOM     15  C   UNL     1      17.257  21.495  11.262  1.00  0.00    -0.003 C 
ATOM     16  C   UNL     1      17.548  20.258  10.415  1.00  0.00     0.004 C 
ENDBRANCH  14  15
ENDBRANCH  13  14
ENDBRANCH  12  13
ENDBRANCH  11  12
ENDBRANCH  10  11
ENDBRANCH   1  10
TORSDOF 12
ENDMDL
MODEL 6
REMARK VINA RESULT:    -5.082      1.557      4.644
REMARK INTER + INTRA:         -10.231
REMARK INTER:                  -8.969
REMARK INTRA:                  -1.262
REMARK UNBOUND:                -1.583
REMARK SMILES CCCCCCCCCCCCCC(=O)[O-]
REMARK SMILES IDX 8 1 9 2 10 3 11 4 12 5 13 6 14 7 15 8 16 9 7 10 6 11 5 12
REMARK SMILES IDX 4 13 3 14 2 15 1 16
REMARK H PARENT
REMARK Flexibility Score: inf
ROOT
ATOM      1  C   UNL     1      14.123  21.065  18.699  1.00  0.00     0.000 C 
ENDROOT
BRANCH   1   2
ATOM      2  C   UNL     1      14.621  20.761  20.120  1.00  0.00     0.000 C 
BRANCH   2   3
ATOM      3  C   UNL     1      16.030  20.148  20.135  1.00  0.00     0.000 C 
BRANCH   3   4
ATOM      4  C   UNL     1      16.501  19.709  18.740  1.00  0.00     0.000 C 
BRANCH   4   5
ATOM      5  C   UNL     1      17.986  20.041  18.532  1.00  0.00     0.006 C 
BRANCH   5   6
ATOM      6  C   UNL     1      18.243  20.746  17.194  1.00  0.00     0.053 C 
BRANCH   6   7
ATOM      7  C   UNL     1      18.360  19.769  16.064  1.00  0.00     0.041 C 
ATOM      8  O   UNL     1      17.776  19.991  14.972  1.00  0.00    -0.550 OA
ATOM      9  O   UNL     1      19.086  18.596  16.230  1.00  0.00    -0.550 OA
ENDBRANCH   6   7
ENDBRANCH   5   6
ENDBRANCH   4   5
ENDBRANCH   3   4
ENDBRANCH   2   3
ENDBRANCH   1   2
BRANCH   1  10
ATOM     10  C   UNL     1      13.996  22.577  18.474  1.00  0.00     0.000 C 
BRANCH  10  11
ATOM     11  C   UNL     1      14.669  22.995  17.158  1.00  0.00    -0.000 C 
BRANCH  11  12
ATOM     12  C   UNL     1      14.852  21.820  16.181  1.00  0.00    -0.000 C 
BRANCH  12  13
ATOM     13  C   UNL     1      14.067  21.940  14.859  1.00  0.00    -0.000 C 
BRANCH  13  14
ATOM     14  C   UNL     1      14.704  21.226  13.653  1.00  0.00    -0.000 C 
BRANCH  14  15
ATOM     15  C   UNL     1      15.478  22.184  12.736  1.00  0.00    -0.003 C 
ATOM     16  C   UNL     1      16.000  21.458  11.498  1.00  0.00     0.004 C 
ENDBRANCH  14  15
ENDBRANCH  13  14
ENDBRANCH  12  13
ENDBRANCH  11  12
ENDBRANCH  10  11
ENDBRANCH   1  10
TORSDOF 12
ENDMDL
MODEL 7
REMARK VINA RESULT:    -5.077      2.543      5.464
REMARK INTER + INTRA:         -10.222
REMARK INTER:                  -9.132
REMARK INTRA:                  -1.090
REMARK UNBOUND:                -1.583
REMARK SMILES CCCCCCCCCCCCCC(=O)[O-]
REMARK SMILES IDX 8 1 9 2 10 3 11 4 12 5 13 6 14 7 15 8 16 9 7 10 6 11 5 12
REMARK SMILES IDX 4 13 3 14 2 15 1 16
REMARK H PARENT
REMARK Flexibility Score: inf
ROOT
ATOM      1  C   UNL     1      15.371  22.694  17.000  1.00  0.00     0.000 C 
ENDROOT
BRANCH   1   2
ATOM      2  C   UNL     1      14.261  22.512  18.047  1.00  0.00     0.000 C 
BRANCH   2   3
ATOM      3  C   UNL     1      14.103  21.051  18.496  1.00  0.00     0.000 C 
BRANCH   3   4
ATOM      4  C   UNL     1      14.623  20.809  19.921  1.00  0.00     0.000 C 
BRANCH   4   5
ATOM      5  C   UNL     1      16.107  20.414  19.905  1.00  0.00     0.006 C 
BRANCH   5   6
ATOM      6  C   UNL     1      16.393  19.269  18.925  1.00  0.00     0.053 C 
BRANCH   6   7
ATOM      7  C   UNL     1      17.654  19.501  18.151  1.00  0.00     0.041 C 
ATOM      8  O   UNL     1      18.137  20.660  18.060  1.00  0.00    -0.550 OA
ATOM      9  O   UNL     1      18.278  18.444  17.501  1.00  0.00    -0.550 OA
ENDBRANCH   6   7
ENDBRANCH   5   6
ENDBRANCH   4   5
ENDBRANCH   3   4
ENDBRANCH   2   3
ENDBRANCH   1   2
BRANCH   1  10
ATOM     10  C   UNL     1      15.349  21.554  15.975  1.00  0.00     0.000 C 
BRANCH  10  11
ATOM     11  C   UNL     1      14.277  21.800  14.903  1.00  0.00    -0.000 C 
BRANCH  11  12
ATOM     12  C   UNL     1      14.646  21.191  13.538  1.00  0.00    -0.000 C 
BRANCH  12  13
ATOM     13  C   UNL     1      15.749  21.940  12.764  1.00  0.00    -0.000 C 
BRANCH  13  14
ATOM     14  C   UNL     1      16.003  21.432  11.333  1.00  0.00    -0.000 C 
BRANCH  14  15
ATOM     15  C   UNL     1      17.482  21.109  11.070  1.00  0.00    -0.003 C 
ATOM     16  C   UNL     1      18.049  20.207  12.163  1.00  0.00     0.004 C 
ENDBRANCH  14  15
ENDBRANCH  13  14
ENDBRANCH  12  13
ENDBRANCH  11  12
ENDBRANCH  10  11
ENDBRANCH   1  10
TORSDOF 12
ENDMDL
MODEL 8
REMARK VINA RESULT:    -5.075      3.027      6.214
REMARK INTER + INTRA:         -10.219
REMARK INTER:                  -8.864
REMARK INTRA:                  -1.355
REMARK UNBOUND:                -1.583
REMARK SMILES CCCCCCCCCCCCCC(=O)[O-]
REMARK SMILES IDX 8 1 9 2 10 3 11 4 12 5 13 6 14 7 15 8 16 9 7 10 6 11 5 12
REMARK SMILES IDX 4 13 3 14 2 15 1 16
REMARK H PARENT
REMARK Flexibility Score: inf
ROOT
ATOM      1  C   UNL     1      16.855  20.373  16.044  1.00  0.00     0.000 C 
ENDROOT
BRANCH   1   2
ATOM      2  C   UNL     1      17.055  18.850  16.014  1.00  0.00     0.000 C 
BRANCH   2   3
ATOM      3  C   UNL     1      17.250  18.250  17.415  1.00  0.00     0.000 C 
BRANCH   3   4
ATOM      4  C   UNL     1      15.920  17.960  18.126  1.00  0.00     0.000 C 
BRANCH   4   5
ATOM      5  C   UNL     1      15.652  18.991  19.233  1.00  0.00     0.006 C 
BRANCH   5   6
ATOM      6  C   UNL     1      14.438  19.875  18.922  1.00  0.00     0.053 C 
BRANCH   6   7
ATOM      7  C   UNL     1      14.649  21.289  19.370  1.00  0.00     0.041 C 
ATOM      8  O   UNL     1      14.556  22.236  18.546  1.00  0.00    -0.550 OA
ATOM      9  O   UNL     1      14.981  21.558  20.692  1.00  0.00    -0.550 OA
ENDBRANCH   6   7
ENDBRANCH   5   6
ENDBRANCH   4   5
ENDBRANCH   3   4
ENDBRANCH   2   3
ENDBRANCH   1   2
BRANCH   1  10
ATOM     10  C   UNL     1      15.503  20.760  15.433  1.00  0.00     0.000 C 
BRANCH  10  11
ATOM     11  C   UNL     1      15.493  22.238  15.015  1.00  0.00    -0.000 C 
BRANCH  11  12
ATOM     12  C   UNL     1      15.170  22.435  13.522  1.00  0.00    -0.000 C 
BRANCH  12  13
ATOM     13  C   UNL     1      15.421  21.202  12.630  1.00  0.00    -0.000 C 
BRANCH  13  14
ATOM     14  C   UNL     1      16.138  21.495  11.300  1.00  0.00    -0.000 C 
BRANCH  14  15
ATOM     15  C   UNL     1      17.460  20.727  11.155  1.00  0.00    -0.003 C 
ATOM     16  C   UNL     1      17.812  19.992  12.446  1.00  0.00     0.004 C 
ENDBRANCH  14  15
ENDBRANCH  13  14
ENDBRANCH  12  13
ENDBRANCH  11  12
ENDBRANCH  10  11
ENDBRANCH   1  10
TORSDOF 12
ENDMDL
MODEL 9
REMARK VINA RESULT:    -5.008      2.001      5.000
REMARK INTER + INTRA:         -10.105
REMARK INTER:                  -8.805
REMARK INTRA:                  -1.301
REMARK UNBOUND:                -1.583
REMARK SMILES CCCCCCCCCCCCCC(=O)[O-]
REMARK SMILES IDX 8 1 9 2 10 3 11 4 12 5 13 6 14 7 15 8 16 9 7 10 6 11 5 12
REMARK SMILES IDX 4 13 3 14 2 15 1 16
REMARK H PARENT
REMARK Flexibility Score: inf
ROOT
ATOM      1  C   UNL     1      14.011  22.414  17.580  1.00  0.00     0.000 C 
ENDROOT
BRANCH   1   2
ATOM      2  C   UNL     1      14.258  22.120  19.067  1.00  0.00     0.000 C 
BRANCH   2   3
ATOM      3  C   UNL     1      14.535  20.633  19.339  1.00  0.00     0.000 C 
BRANCH   3   4
ATOM      4  C   UNL     1      15.941  20.386  19.906  1.00  0.00     0.000 C 
BRANCH   4   5
ATOM      5  C   UNL     1      16.851  19.734  18.855  1.00  0.00     0.006 C 
BRANCH   5   6
ATOM      6  C   UNL     1      16.100  18.718  17.985  1.00  0.00     0.053 C 
BRANCH   6   7
ATOM      7  C   UNL     1      17.010  18.047  17.002  1.00  0.00     0.041 C 
ATOM      8  O   UNL     1      17.721  17.072  17.361  1.00  0.00    -0.550 OA
ATOM      9  O   UNL     1      17.097  18.518  15.699  1.00  0.00    -0.550 OA
ENDBRANCH   6   7
ENDBRANCH   5   6
ENDBRANCH   4   5
ENDBRANCH   3   4
ENDBRANCH   2   3
ENDBRANCH   1   2
BRANCH   1  10
ATOM     10  C   UNL     1      15.271  22.984  16.916  1.00  0.00     0.000 C 
BRANCH  10  11
ATOM     11  C   UNL     1      16.000  21.904  16.103  1.00  0.00    -0.000 C 
BRANCH  11  12
ATOM     12  C   UNL     1      15.065  21.148  15.141  1.00  0.00    -0.000 C 
BRANCH  12  13
ATOM     13  C   UNL     1      14.610  21.951  13.905  1.00  0.00    -0.000 C 
BRANCH  13  14
ATOM     14  C   UNL     1      15.715  22.248  12.876  1.00  0.00    -0.000 C 
BRANCH  14  15
ATOM     15  C   UNL     1      15.753  21.224  11.731  1.00  0.00    -0.003 C 
ATOM     16  C   UNL     1      17.097  21.258  11.008  1.00  0.00     0.004 C 
ENDBRANCH  14  15
ENDBRANCH  13  14
ENDBRANCH  12  13
ENDBRANCH  11  12
ENDBRANCH  10  11
ENDBRANCH   1  10
TORSDOF 12
ENDMDL
