MODEL 1
REMARK VINA RESULT:    -4.896      0.000      0.000
REMARK INTER + INTRA:          -9.834
REMARK INTER:                  -8.331
REMARK INTRA:                  -1.503
REMARK UNBOUND:                -1.503
REMARK SMILES CCCCCCCCCCCCCC(=O)[O-]
REMARK SMILES IDX 8 1 9 2 10 3 11 4 12 5 13 6 14 7 15 8 16 9 7 10 6 11 5 12
REMARK SMILES IDX 4 13 3 14 2 15 1 16
REMARK H PARENT
REMARK Flexibility Score: inf
ROOT
ATOM      1  C   UNL     1      -3.249   9.844  -9.629  1.00  0.00     0.000 C 
ENDROOT
BRANCH   1   2
ATOM      2  C   UNL     1      -2.592  11.197  -9.921  1.00  0.00     0.000 C 
BRANCH   2   3
ATOM      3  C   UNL     1      -1.683  11.630  -8.765  1.00  0.00     0.000 C 
BRANCH   3   4
ATOM      4  C   UNL     1      -1.222  10.417  -7.944  1.00  0.00     0.000 C 
BRANCH   4   5
ATOM      5  C   UNL     1       0.161   9.902  -8.373  1.00  0.00     0.006 C 
BRANCH   5   6
ATOM      6  C   UNL     1       1.238  10.993  -8.329  1.00  0.00     0.053 C 
BRANCH   6   7
ATOM      7  C   UNL     1       2.599  10.390  -8.469  1.00  0.00     0.041 C 
ATOM      8  O   UNL     1       3.488  10.623  -7.609  1.00  0.00    -0.550 OA
ATOM      9  O   UNL     1       2.904   9.611  -9.579  1.00  0.00    -0.550 OA
ENDBRANCH   6   7
ENDBRANCH   5   6
ENDBRANCH   4   5
ENDBRANCH   3   4
ENDBRANCH   2   3
ENDBRANCH   1   2
BRANCH   1  10
ATOM     10  C   UNL     1      -4.305   9.503 -10.687  1.00  0.00     0.000 C 
BRANCH  10  11
ATOM     11  C   UNL     1      -5.090  10.752 -11.104  1.00  0.00    -0.000 C 
BRANCH  11  12
ATOM     12  C   UNL     1      -6.549  10.670 -10.628  1.00  0.00    -0.000 C 
BRANCH  12  13
ATOM     13  C   UNL     1      -6.874  11.683  -9.515  1.00  0.00    -0.000 C 
BRANCH  13  14
ATOM     14  C   UNL     1      -5.849  12.819  -9.350  1.00  0.00    -0.000 C 
BRANCH  14  15
ATOM     15  C   UNL     1      -5.157  12.807  -7.980  1.00  0.00    -0.003 C 
ATOM     16  C   UNL     1      -5.539  11.565  -7.180  1.00  0.00     0.004 C 
ENDBRANCH  14  15
ENDBRANCH  13  14
ENDBRANCH  12  13
ENDBRANCH  11  12
ENDBRANCH  10  11
ENDBRANCH   1  10
TORSDOF 12
ENDMDL
MODEL 2
REMARK VINA RESULT:    -4.889      0.963      2.619
REMARK INTER + INTRA:          -9.822
REMARK INTER:                  -8.504
REMARK INTRA:                  -1.318
REMARK UNBOUND:                -1.503
REMARK SMILES CCCCCCCCCCCCCC(=O)[O-]
REMARK SMILES IDX 8 1 9 2 10 3 11 4 12 5 13 6 14 7 15 8 16 9 7 10 6 11 5 12
REMARK SMILES IDX 4 13 3 14 2 15 1 16
REMARK H PARENT
REMARK Flexibility Score: inf
ROOT
ATOM      1  C   UNL     1      -3.201  12.508  -7.790  1.00  0.00     0.000 C 
ENDROOT
BRANCH   1   2
ATOM      2  C   UNL     1      -2.866  11.013  -7.736  1.00  0.00     0.000 C 
BRANCH   2   3
ATOM      3  C   UNL     1      -1.680  10.680  -8.649  1.00  0.00     0.000 C 
BRANCH   3   4
ATOM      4  C   UNL     1      -0.677  11.842  -8.693  1.00  0.00     0.000 C 
BRANCH   4   5
ATOM      5  C   UNL     1       0.701  11.457  -8.132  1.00  0.00     0.006 C 
BRANCH   5   6
ATOM      6  C   UNL     1       1.105  10.021  -8.490  1.00  0.00     0.053 C 
BRANCH   6   7
ATOM      7  C   UNL     1       2.571   9.946  -8.777  1.00  0.00     0.041 C 
ATOM      8  O   UNL     1       3.399  10.467  -7.985  1.00  0.00    -0.550 OA
ATOM      9  O   UNL     1       3.021   9.345  -9.947  1.00  0.00    -0.550 OA
ENDBRANCH   6   7
ENDBRANCH   5   6
ENDBRANCH   4   5
ENDBRANCH   3   4
ENDBRANCH   2   3
ENDBRANCH   1   2
BRANCH   1  10
ATOM     10  C   UNL     1      -4.712  12.730  -7.914  1.00  0.00     0.000 C 
BRANCH  10  11
ATOM     11  C   UNL     1      -5.128  12.895  -9.380  1.00  0.00    -0.000 C 
BRANCH  11  12
ATOM     12  C   UNL     1      -6.370  12.049  -9.699  1.00  0.00    -0.000 C 
BRANCH  12  13
ATOM     13  C   UNL     1      -6.049  10.806 -10.549  1.00  0.00    -0.000 C 
BRANCH  13  14
ATOM     14  C   UNL     1      -4.601  10.728 -11.063  1.00  0.00    -0.000 C 
BRANCH  14  15
ATOM     15  C   UNL     1      -4.062   9.291 -11.118  1.00  0.00    -0.003 C 
ATOM     16  C   UNL     1      -5.103   8.293 -10.622  1.00  0.00     0.004 C 
ENDBRANCH  14  15
ENDBRANCH  13  14
ENDBRANCH  12  13
ENDBRANCH  11  12
ENDBRANCH  10  11
ENDBRANCH   1  10
TORSDOF 12
ENDMDL
MODEL 3
REMARK VINA RESULT:    -4.775      1.494      2.795
REMARK INTER + INTRA:          -9.628
REMARK INTER:                  -8.472
REMARK INTRA:                  -1.157
REMARK UNBOUND:                -1.503
REMARK SMILES CCCCCCCCCCCCCC(=O)[O-]
REMARK SMILES IDX 8 1 9 2 10 3 11 4 12 5 13 6 14 7 15 8 16 9 7 10 6 11 5 12
REMARK SMILES IDX 4 13 3 14 2 15 1 16
REMARK H PARENT
REMARK Flexibility Score: inf
ROOT
ATOM      1  C   UNL     1      -3.132  10.769 -10.388  1.00  0.00     0.000 C 
ENDROOT
BRANCH   1   2
ATOM      2  C   UNL     1      -3.082  10.198  -8.966  1.00  0.00     0.000 C 
BRANCH   2   3
ATOM      3  C   UNL     1      -2.332  11.142  -8.019  1.00  0.00     0.000 C 
BRANCH   3   4
ATOM      4  C   UNL     1      -1.024  11.635  -8.656  1.00  0.00     0.000 C 
BRANCH   4   5
ATOM      5  C   UNL     1       0.222  11.154  -7.896  1.00  0.00     0.006 C 
BRANCH   5   6
ATOM      6  C   UNL     1       0.830   9.883  -8.501  1.00  0.00     0.053 C 
BRANCH   6   7
ATOM      7  C   UNL     1       2.314  10.023  -8.630  1.00  0.00     0.041 C 
ATOM      8  O   UNL     1       2.972  10.633  -7.748  1.00  0.00    -0.550 OA
ATOM      9  O   UNL     1       2.965   9.523  -9.752  1.00  0.00    -0.550 OA
ENDBRANCH   6   7
ENDBRANCH   5   6
ENDBRANCH   4   5
ENDBRANCH   3   4
ENDBRANCH   2   3
ENDBRANCH   1   2
BRANCH   1  10
ATOM     10  C   UNL     1      -4.473  10.454 -11.061  1.00  0.00     0.000 C 
BRANCH  10  11
ATOM     11  C   UNL     1      -5.603  11.296 -10.459  1.00  0.00    -0.000 C 
BRANCH  11  12
ATOM     12  C   UNL     1      -6.888  10.467 -10.308  1.00  0.00    -0.000 C 
BRANCH  12  13
ATOM     13  C   UNL     1      -6.706   9.238  -9.399  1.00  0.00    -0.000 C 
BRANCH  13  14
ATOM     14  C   UNL     1      -6.880   7.879 -10.101  1.00  0.00    -0.000 C 
BRANCH  14  15
ATOM     15  C   UNL     1      -5.602   7.029 -10.087  1.00  0.00    -0.003 C 
ATOM     16  C   UNL     1      -5.108   6.755 -11.504  1.00  0.00     0.004 C 
ENDBRANCH  14  15
ENDBRANCH  13  14
ENDBRANCH  12  13
ENDBRANCH  11  12
ENDBRANCH  10  11
ENDBRANCH   1  10
TORSDOF 12
ENDMDL
MODEL 4
REMARK VINA RESULT:    -4.656      0.550      1.512
REMARK INTER + INTRA:          -9.425
REMARK INTER:                  -7.949
REMARK INTRA:                  -1.476
REMARK UNBOUND:                -1.503
REMARK SMILES CCCCCCCCCCCCCC(=O)[O-]
REMARK SMILES IDX 8 1 9 2 10 3 11 4 12 5 13 6 14 7 15 8 16 9 7 10 6 11 5 12
REMARK SMILES IDX 4 13 3 14 2 15 1 16
REMARK H PARENT
REMARK Flexibility Score: inf
ROOT
ATOM      1  C   UNL     1      -4.030   9.740 -10.923  1.00  0.00     0.000 C 
ENDROOT
BRANCH   1   2
ATOM      2  C   UNL     1      -3.417   9.767  -9.518  1.00  0.00     0.000 C 
BRANCH   2   3
ATOM      3  C   UNL     1      -2.223  10.726  -9.456  1.00  0.00     0.000 C 
BRANCH   3   4
ATOM      4  C   UNL     1      -1.393  10.490  -8.185  1.00  0.00     0.000 C 
BRANCH   4   5
ATOM      5  C   UNL     1       0.024   9.980  -8.490  1.00  0.00     0.006 C 
BRANCH   5   6
ATOM      6  C   UNL     1       1.081  11.088  -8.415  1.00  0.00     0.053 C 
BRANCH   6   7
ATOM      7  C   UNL     1       2.457  10.503  -8.452  1.00  0.00     0.041 C 
ATOM      8  O   UNL     1       2.786   9.716  -9.378  1.00  0.00    -0.550 OA
ATOM      9  O   UNL     1       3.361  10.786  -7.436  1.00  0.00    -0.550 OA
ENDBRANCH   6   7
ENDBRANCH   5   6
ENDBRANCH   4   5
ENDBRANCH   3   4
ENDBRANCH   2   3
ENDBRANCH   1   2
BRANCH   1  10
ATOM     10  C   UNL     1      -4.868  10.997 -11.184  1.00  0.00     0.000 C 
BRANCH  10  11
ATOM     11  C   UNL     1      -6.250  10.884 -10.530  1.00  0.00    -0.000 C 
BRANCH  11  12
ATOM     12  C   UNL     1      -6.485  12.033  -9.537  1.00  0.00    -0.000 C 
BRANCH  12  13
ATOM     13  C   UNL     1      -5.254  12.942  -9.368  1.00  0.00    -0.000 C 
BRANCH  13  14
ATOM     14  C   UNL     1      -4.663  12.978  -7.948  1.00  0.00    -0.000 C 
BRANCH  14  15
ATOM     15  C   UNL     1      -5.425  12.086  -6.959  1.00  0.00    -0.003 C 
ATOM     16  C   UNL     1      -4.484  11.112  -6.256  1.00  0.00     0.004 C 
ENDBRANCH  14  15
ENDBRANCH  13  14
ENDBRANCH  12  13
ENDBRANCH  11  12
ENDBRANCH  10  11
ENDBRANCH   1  10
TORSDOF 12
ENDMDL
MODEL 5
REMARK VINA RESULT:    -4.603      3.577      7.191
REMARK INTER + INTRA:          -9.336
REMARK INTER:                  -8.622
REMARK INTRA:                  -0.714
REMARK UNBOUND:                -1.503
REMARK SMILES CCCCCCCCCCCCCC(=O)[O-]
REMARK SMILES IDX 8 1 9 2 10 3 11 4 12 5 13 6 14 7 15 8 16 9 7 10 6 11 5 12
REMARK SMILES IDX 4 13 3 14 2 15 1 16
REMARK H PARENT
REMARK Flexibility Score: inf
ROOT
ATOM      1  C   UNL     1      -4.000  10.786 -10.657  1.00  0.00     0.000 C 
ENDROOT
BRANCH   1   2
ATOM      2  C   UNL     1      -5.334  11.410 -10.231  1.00  0.00     0.000 C 
BRANCH   2   3
ATOM      3  C   UNL     1      -6.516  10.537 -10.669  1.00  0.00     0.000 C 
BRANCH   3   4
ATOM      4  C   UNL     1      -7.109   9.775  -9.474  1.00  0.00     0.000 C 
BRANCH   4   5
ATOM      5  C   UNL     1      -6.454   8.401  -9.264  1.00  0.00     0.006 C 
BRANCH   5   6
ATOM      6  C   UNL     1      -6.946   7.352 -10.269  1.00  0.00     0.053 C 
BRANCH   6   7
ATOM      7  C   UNL     1      -5.788   6.720 -10.974  1.00  0.00     0.041 C 
ATOM      8  O   UNL     1      -4.657   7.271 -10.955  1.00  0.00    -0.550 OA
ATOM      9  O   UNL     1      -5.970   5.547 -11.697  1.00  0.00    -0.550 OA
ENDBRANCH   6   7
ENDBRANCH   5   6
ENDBRANCH   4   5
ENDBRANCH   3   4
ENDBRANCH   2   3
ENDBRANCH   1   2
BRANCH   1  10
ATOM     10  C   UNL     1      -3.239  10.235  -9.446  1.00  0.00     0.000 C 
BRANCH  10  11
ATOM     11  C   UNL     1      -1.890  10.943  -9.273  1.00  0.00    -0.000 C 
BRANCH  11  12
ATOM     12  C   UNL     1      -0.943  10.117  -8.390  1.00  0.00    -0.000 C 
BRANCH  12  13
ATOM     13  C   UNL     1       0.455  10.747  -8.256  1.00  0.00    -0.000 C 
BRANCH  13  14
ATOM     14  C   UNL     1       1.619   9.740  -8.203  1.00  0.00    -0.000 C 
BRANCH  14  15
ATOM     15  C   UNL     1       2.959  10.351  -8.634  1.00  0.00    -0.003 C 
ATOM     16  C   UNL     1       3.561   9.585  -9.809  1.00  0.00     0.004 C 
ENDBRANCH  14  15
ENDBRANCH  13  14
ENDBRANCH  12  13
ENDBRANCH  11  12
ENDBRANCH  10  11
ENDBRANCH   1  10
TORSDOF 12
ENDMDL
MODEL 6
REMARK VINA RESULT:    -4.519      1.784      3.058
REMARK INTER + INTRA:          -9.193
REMARK INTER:                  -7.586
REMARK INTRA:                  -1.606
REMARK UNBOUND:                -1.503
REMARK SMILES CCCCCCCCCCCCCC(=O)[O-]
REMARK SMILES IDX 8 1 9 2 10 3 11 4 12 5 13 6 14 7 15 8 16 9 7 10 6 11 5 12
REMARK SMILES IDX 4 13 3 14 2 15 1 16
REMARK H PARENT
REMARK Flexibility Score: inf
ROOT
ATOM      1  C   UNL     1      -2.852  11.664  -7.392  1.00  0.00     0.000 C 
ENDROOT
BRANCH   1   2
ATOM      2  C   UNL     1      -2.253  12.583  -6.321  1.00  0.00     0.000 C 
BRANCH   2   3
ATOM      3  C   UNL     1      -1.166  13.486  -6.914  1.00  0.00     0.000 C 
BRANCH   3   4
ATOM      4  C   UNL     1       0.159  13.323  -6.155  1.00  0.00     0.000 C 
BRANCH   4   5
ATOM      5  C   UNL     1       0.910  12.040  -6.545  1.00  0.00     0.006 C 
BRANCH   5   6
ATOM      6  C   UNL     1       0.966  11.826  -8.063  1.00  0.00     0.053 C 
BRANCH   6   7
ATOM      7  C   UNL     1       0.943  10.365  -8.386  1.00  0.00     0.041 C 
ATOM      8  O   UNL     1      -0.004   9.642  -7.980  1.00  0.00    -0.550 OA
ATOM      9  O   UNL     1       1.994   9.792  -9.091  1.00  0.00    -0.550 OA
ENDBRANCH   6   7
ENDBRANCH   5   6
ENDBRANCH   4   5
ENDBRANCH   3   4
ENDBRANCH   2   3
ENDBRANCH   1   2
BRANCH   1  10
ATOM     10  C   UNL     1      -2.723  12.286  -8.787  1.00  0.00     0.000 C 
BRANCH  10  11
ATOM     11  C   UNL     1      -2.527  11.206  -9.857  1.00  0.00    -0.000 C 
BRANCH  11  12
ATOM     12  C   UNL     1      -3.311   9.933  -9.505  1.00  0.00    -0.000 C 
BRANCH  12  13
ATOM     13  C   UNL     1      -4.208   9.442 -10.656  1.00  0.00    -0.000 C 
BRANCH  13  14
ATOM     14  C   UNL     1      -5.713   9.698 -10.461  1.00  0.00    -0.000 C 
BRANCH  14  15
ATOM     15  C   UNL     1      -6.151  11.090 -10.936  1.00  0.00    -0.003 C 
ATOM     16  C   UNL     1      -6.309  12.049  -9.760  1.00  0.00     0.004 C 
ENDBRANCH  14  15
ENDBRANCH  13  14
ENDBRANCH  12  13
ENDBRANCH  11  12
ENDBRANCH  10  11
ENDBRANCH   1  10
TORSDOF 12
ENDMDL
MODEL 7
REMARK VINA RESULT:    -4.457      2.105      3.583
REMARK INTER + INTRA:          -9.087
REMARK INTER:                  -7.493
REMARK INTRA:                  -1.594
REMARK UNBOUND:                -1.503
REMARK SMILES CCCCCCCCCCCCCC(=O)[O-]
REMARK SMILES IDX 8 1 9 2 10 3 11 4 12 5 13 6 14 7 15 8 16 9 7 10 6 11 5 12
REMARK SMILES IDX 4 13 3 14 2 15 1 16
REMARK H PARENT
REMARK Flexibility Score: inf
ROOT
ATOM      1  C   UNL     1      -3.663  12.445  -8.650  1.00  0.00     0.000 C 
ENDROOT
BRANCH   1   2
ATOM      2  C   UNL     1      -3.846  11.532  -7.433  1.00  0.00     0.000 C 
BRANCH   2   3
ATOM      3  C   UNL     1      -2.778  10.433  -7.403  1.00  0.00     0.000 C 
BRANCH   3   4
ATOM      4  C   UNL     1      -1.877  10.506  -8.645  1.00  0.00     0.000 C 
BRANCH   4   5
ATOM      5  C   UNL     1      -0.385  10.373  -8.303  1.00  0.00     0.006 C 
BRANCH   5   6
ATOM      6  C   UNL     1       0.364  11.708  -8.390  1.00  0.00     0.053 C 
BRANCH   6   7
ATOM      7  C   UNL     1       0.321  12.418  -7.074  1.00  0.00     0.041 C 
ATOM      8  O   UNL     1      -0.484  13.369  -6.892  1.00  0.00    -0.550 OA
ATOM      9  O   UNL     1       1.206  12.064  -6.063  1.00  0.00    -0.550 OA
ENDBRANCH   6   7
ENDBRANCH   5   6
ENDBRANCH   4   5
ENDBRANCH   3   4
ENDBRANCH   2   3
ENDBRANCH   1   2
BRANCH   1  10
ATOM     10  C   UNL     1      -5.006  12.730  -9.333  1.00  0.00     0.000 C 
BRANCH  10  11
ATOM     11  C   UNL     1      -5.531  11.485 -10.056  1.00  0.00    -0.000 C 
BRANCH  11  12
ATOM     12  C   UNL     1      -4.506  10.966 -11.076  1.00  0.00    -0.000 C 
BRANCH  12  13
ATOM     13  C   UNL     1      -4.488   9.430 -11.181  1.00  0.00    -0.000 C 
BRANCH  13  14
ATOM     14  C   UNL     1      -5.025   8.688  -9.944  1.00  0.00    -0.000 C 
BRANCH  14  15
ATOM     15  C   UNL     1      -6.005   7.561 -10.301  1.00  0.00    -0.003 C 
ATOM     16  C   UNL     1      -5.401   6.613 -11.333  1.00  0.00     0.004 C 
ENDBRANCH  14  15
ENDBRANCH  13  14
ENDBRANCH  12  13
ENDBRANCH  11  12
ENDBRANCH  10  11
ENDBRANCH   1  10
TORSDOF 12
ENDMDL
MODEL 8
REMARK VINA RESULT:    -4.439      3.208      6.532
REMARK INTER + INTRA:          -9.056
REMARK INTER:                  -7.685
REMARK INTRA:                  -1.371
REMARK UNBOUND:                -1.503
REMARK SMILES CCCCCCCCCCCCCC(=O)[O-]
REMARK SMILES IDX 8 1 9 2 10 3 11 4 12 5 13 6 14 7 15 8 16 9 7 10 6 11 5 12
REMARK SMILES IDX 4 13 3 14 2 15 1 16
REMARK H PARENT
REMARK Flexibility Score: inf
ROOT
ATOM      1  C   UNL     1      -3.386  10.980  -7.143  1.00  0.00     0.000 C 
ENDROOT
BRANCH   1   2
ATOM      2  C   UNL     1      -4.852  11.294  -7.462  1.00  0.00     0.000 C 
BRANCH   2   3
ATOM      3  C   UNL     1      -5.007  12.723  -7.994  1.00  0.00     0.000 C 
BRANCH   3   4
ATOM      4  C   UNL     1      -5.393  12.717  -9.481  1.00  0.00     0.000 C 
BRANCH   4   5
ATOM      5  C   UNL     1      -6.102  11.421  -9.904  1.00  0.00     0.006 C 
BRANCH   5   6
ATOM      6  C   UNL     1      -5.321  10.639 -10.968  1.00  0.00     0.053 C 
BRANCH   6   7
ATOM      7  C   UNL     1      -5.326   9.177 -10.652  1.00  0.00     0.041 C 
ATOM      8  O   UNL     1      -5.848   8.761  -9.585  1.00  0.00    -0.550 OA
ATOM      9  O   UNL     1      -4.710   8.277 -11.513  1.00  0.00    -0.550 OA
ENDBRANCH   6   7
ENDBRANCH   5   6
ENDBRANCH   4   5
ENDBRANCH   3   4
ENDBRANCH   2   3
ENDBRANCH   1   2
BRANCH   1  10
ATOM     10  C   UNL     1      -2.675  10.372  -8.357  1.00  0.00     0.000 C 
BRANCH  10  11
ATOM     11  C   UNL     1      -1.902  11.442  -9.137  1.00  0.00    -0.000 C 
BRANCH  11  12
ATOM     12  C   UNL     1      -1.075  12.324  -8.189  1.00  0.00    -0.000 C 
BRANCH  12  13
ATOM     13  C   UNL     1       0.443  12.161  -8.388  1.00  0.00    -0.000 C 
BRANCH  13  14
ATOM     14  C   UNL     1       1.054  10.911  -7.731  1.00  0.00    -0.000 C 
BRANCH  14  15
ATOM     15  C   UNL     1       1.567   9.887  -8.754  1.00  0.00    -0.003 C 
ATOM     16  C   UNL     1       3.086   9.948  -8.880  1.00  0.00     0.004 C 
ENDBRANCH  14  15
ENDBRANCH  13  14
ENDBRANCH  12  13
ENDBRANCH  11  12
ENDBRANCH  10  11
ENDBRANCH   1  10
TORSDOF 12
ENDMDL
MODEL 9
REMARK VINA RESULT:    -4.346      2.429      3.796
REMARK INTER + INTRA:          -8.898
REMARK INTER:                  -7.426
REMARK INTRA:                  -1.472
REMARK UNBOUND:                -1.503
REMARK SMILES CCCCCCCCCCCCCC(=O)[O-]
REMARK SMILES IDX 8 1 9 2 10 3 11 4 12 5 13 6 14 7 15 8 16 9 7 10 6 11 5 12
REMARK SMILES IDX 4 13 3 14 2 15 1 16
REMARK H PARENT
REMARK Flexibility Score: inf
ROOT
ATOM      1  C   UNL     1      -1.605  11.620  -9.097  1.00  0.00     0.000 C 
ENDROOT
BRANCH   1   2
ATOM      2  C   UNL     1      -1.294  10.310  -8.364  1.00  0.00     0.000 C 
BRANCH   2   3
ATOM      3  C   UNL     1       0.214  10.036  -8.340  1.00  0.00     0.000 C 
BRANCH   3   4
ATOM      4  C   UNL     1       1.009  11.345  -8.221  1.00  0.00     0.000 C 
BRANCH   4   5
ATOM      5  C   UNL     1       1.429  11.653  -6.775  1.00  0.00     0.006 C 
BRANCH   5   6
ATOM      6  C   UNL     1       0.704  12.874  -6.196  1.00  0.00     0.053 C 
BRANCH   6   7
ATOM      7  C   UNL     1      -0.145  12.475  -5.031  1.00  0.00     0.041 C 
ATOM      8  O   UNL     1      -0.039  13.080  -3.933  1.00  0.00    -0.550 OA
ATOM      9  O   UNL     1      -1.018  11.399  -5.142  1.00  0.00    -0.550 OA
ENDBRANCH   6   7
ENDBRANCH   5   6
ENDBRANCH   4   5
ENDBRANCH   3   4
ENDBRANCH   2   3
ENDBRANCH   1   2
BRANCH   1  10
ATOM     10  C   UNL     1      -2.588  12.480  -8.295  1.00  0.00     0.000 C 
BRANCH  10  11
ATOM     11  C   UNL     1      -3.935  11.768  -8.128  1.00  0.00    -0.000 C 
BRANCH  11  12
ATOM     12  C   UNL     1      -4.956  12.268  -9.161  1.00  0.00    -0.000 C 
BRANCH  12  13
ATOM     13  C   UNL     1      -5.488  11.147 -10.072  1.00  0.00    -0.000 C 
BRANCH  13  14
ATOM     14  C   UNL     1      -4.499  10.658 -11.146  1.00  0.00    -0.000 C 
BRANCH  14  15
ATOM     15  C   UNL     1      -3.901   9.281 -10.827  1.00  0.00    -0.003 C 
ATOM     16  C   UNL     1      -4.905   8.166 -11.106  1.00  0.00     0.004 C 
ENDBRANCH  14  15
ENDBRANCH  13  14
ENDBRANCH  12  13
ENDBRANCH  11  12
ENDBRANCH  10  11
ENDBRANCH   1  10
TORSDOF 12
ENDMDL
