MODEL 1
REMARK VINA RESULT:    -5.565      0.000      0.000
REMARK INTER + INTRA:         -17.173
REMARK INTER:                 -12.722
REMARK INTRA:                  -4.451
REMARK UNBOUND:                -4.451
REMARK SMILES CCCCCCCCCCCCCCCCCCCCCCCC(=O)[O-]
REMARK SMILES IDX 13 1 14 2 15 3 16 4 17 5 18 6 19 7 20 8 21 9 22 10 23 11
REMARK SMILES IDX 24 12 25 13 26 14 12 15 11 16 10 17 9 18 8 19 7 20 6 21 5 22
REMARK SMILES IDX 4 23 3 24 2 25 1 26
REMARK H PARENT
REMARK Flexibility Score: inf
ROOT
ATOM      1  C   UNL     1     121.036 177.657 128.088  1.00  0.00     0.000 C 
ENDROOT
BRANCH   1   2
ATOM      2  C   UNL     1     121.989 178.593 127.331  1.00  0.00     0.000 C 
BRANCH   2   3
ATOM      3  C   UNL     1     122.667 177.907 126.132  1.00  0.00     0.000 C 
BRANCH   3   4
ATOM      4  C   UNL     1     122.199 176.464 125.859  1.00  0.00     0.000 C 
BRANCH   4   5
ATOM      5  C   UNL     1     121.849 176.191 124.380  1.00  0.00     0.000 C 
BRANCH   5   6
ATOM      6  C   UNL     1     120.797 177.176 123.838  1.00  0.00     0.000 C 
BRANCH   6   7
ATOM      7  C   UNL     1     119.517 177.195 124.687  1.00  0.00     0.000 C 
BRANCH   7   8
ATOM      8  C   UNL     1     118.700 178.483 124.492  1.00  0.00     0.000 C 
BRANCH   8   9
ATOM      9  C   UNL     1     118.642 179.353 125.762  1.00  0.00     0.000 C 
BRANCH   9  10
ATOM     10  C   UNL     1     117.442 179.072 126.692  1.00  0.00     0.006 C 
BRANCH  10  11
ATOM     11  C   UNL     1     116.105 179.657 126.210  1.00  0.00     0.053 C 
BRANCH  11  12
ATOM     12  C   UNL     1     115.146 178.590 125.784  1.00  0.00     0.041 C 
ATOM     13  O   UNL     1     114.233 178.208 126.563  1.00  0.00    -0.550 OA
ATOM     14  O   UNL     1     115.227 178.055 124.505  1.00  0.00    -0.550 OA
ENDBRANCH  11  12
ENDBRANCH  10  11
ENDBRANCH   9  10
ENDBRANCH   8   9
ENDBRANCH   7   8
ENDBRANCH   6   7
ENDBRANCH   5   6
ENDBRANCH   4   5
ENDBRANCH   3   4
ENDBRANCH   2   3
ENDBRANCH   1   2
BRANCH   1  15
ATOM     15  C   UNL     1     121.150 177.860 129.602  1.00  0.00     0.000 C 
BRANCH  15  16
ATOM     16  C   UNL     1     119.768 177.796 130.268  1.00  0.00     0.000 C 
BRANCH  16  17
ATOM     17  C   UNL     1     118.746 176.989 129.447  1.00  0.00     0.000 C 
BRANCH  17  18
ATOM     18  C   UNL     1     117.965 175.920 130.242  1.00  0.00    -0.000 C 
BRANCH  18  19
ATOM     19  C   UNL     1     116.932 175.113 129.434  1.00  0.00    -0.000 C 
BRANCH  19  20
ATOM     20  C   UNL     1     116.362 175.886 128.234  1.00  0.00    -0.000 C 
BRANCH  20  21
ATOM     21  C   UNL     1     117.063 175.533 126.911  1.00  0.00    -0.000 C 
BRANCH  21  22
ATOM     22  C   UNL     1     116.990 174.034 126.540  1.00  0.00    -0.000 C 
BRANCH  22  23
ATOM     23  C   UNL     1     118.371 173.350 126.512  1.00  0.00    -0.000 C 
BRANCH  23  24
ATOM     24  C   UNL     1     119.519 174.294 126.937  1.00  0.00    -0.000 C 
BRANCH  24  25
ATOM     25  C   UNL     1     120.208 173.806 128.220  1.00  0.00    -0.003 C 
ATOM     26  C   UNL     1     119.586 172.505 128.725  1.00  0.00     0.004 C 
ENDBRANCH  24  25
ENDBRANCH  23  24
ENDBRANCH  22  23
ENDBRANCH  21  22
ENDBRANCH  20  21
ENDBRANCH  19  20
ENDBRANCH  18  19
ENDBRANCH  17  18
ENDBRANCH  16  17
ENDBRANCH  15  16
ENDBRANCH   1  15
TORSDOF 22
ENDMDL
MODEL 2
REMARK VINA RESULT:    -5.365      2.348      5.695
REMARK INTER + INTRA:         -16.717
REMARK INTER:                 -12.433
REMARK INTRA:                  -4.283
REMARK UNBOUND:                -4.451
REMARK SMILES CCCCCCCCCCCCCCCCCCCCCCCC(=O)[O-]
REMARK SMILES IDX 13 1 14 2 15 3 16 4 17 5 18 6 19 7 20 8 21 9 22 10 23 11
REMARK SMILES IDX 24 12 25 13 26 14 12 15 11 16 10 17 9 18 8 19 7 20 6 21 5 22
REMARK SMILES IDX 4 23 3 24 2 25 1 26
REMARK H PARENT
REMARK Flexibility Score: inf
ROOT
ATOM      1  C   UNL     1     123.384 177.250 125.492  1.00  0.00     0.000 C 
ENDROOT
BRANCH   1   2
ATOM      2  C   UNL     1     122.441 178.176 126.274  1.00  0.00     0.000 C 
BRANCH   2   3
ATOM      3  C   UNL     1     121.851 177.503 127.525  1.00  0.00     0.000 C 
BRANCH   3   4
ATOM      4  C   UNL     1     121.623 178.445 128.724  1.00  0.00     0.000 C 
BRANCH   4   5
ATOM      5  C   UNL     1     121.249 177.713 130.030  1.00  0.00     0.000 C 
BRANCH   5   6
ATOM      6  C   UNL     1     119.732 177.728 130.293  1.00  0.00     0.000 C 
BRANCH   6   7
ATOM      7  C   UNL     1     119.201 176.360 130.749  1.00  0.00     0.000 C 
BRANCH   7   8
ATOM      8  C   UNL     1     118.179 175.768 129.765  1.00  0.00     0.000 C 
BRANCH   8   9
ATOM      9  C   UNL     1     118.840 175.015 128.596  1.00  0.00     0.000 C 
BRANCH   9  10
ATOM     10  C   UNL     1     117.860 174.292 127.647  1.00  0.00     0.006 C 
BRANCH  10  11
ATOM     11  C   UNL     1     118.487 173.166 126.811  1.00  0.00     0.053 C 
BRANCH  11  12
ATOM     12  C   UNL     1     117.620 171.946 126.770  1.00  0.00     0.041 C 
ATOM     13  O   UNL     1     116.744 171.820 125.874  1.00  0.00    -0.550 OA
ATOM     14  O   UNL     1     117.816 170.925 127.689  1.00  0.00    -0.550 OA
ENDBRANCH  11  12
ENDBRANCH  10  11
ENDBRANCH   9  10
ENDBRANCH   8   9
ENDBRANCH   7   8
ENDBRANCH   6   7
ENDBRANCH   5   6
ENDBRANCH   4   5
ENDBRANCH   3   4
ENDBRANCH   2   3
ENDBRANCH   1   2
BRANCH   1  15
ATOM     15  C   UNL     1     122.702 175.918 125.165  1.00  0.00     0.000 C 
BRANCH  15  16
ATOM     16  C   UNL     1     121.542 176.125 124.181  1.00  0.00     0.000 C 
BRANCH  16  17
ATOM     17  C   UNL     1     120.216 175.529 124.687  1.00  0.00     0.000 C 
BRANCH  17  18
ATOM     18  C   UNL     1     119.133 176.563 125.066  1.00  0.00    -0.000 C 
BRANCH  18  19
ATOM     19  C   UNL     1     119.281 177.950 124.412  1.00  0.00    -0.000 C 
BRANCH  19  20
ATOM     20  C   UNL     1     118.946 179.109 125.365  1.00  0.00    -0.000 C 
BRANCH  20  21
ATOM     21  C   UNL     1     118.466 178.626 126.745  1.00  0.00    -0.000 C 
BRANCH  21  22
ATOM     22  C   UNL     1     116.962 178.865 127.008  1.00  0.00    -0.000 C 
BRANCH  22  23
ATOM     23  C   UNL     1     116.200 177.577 127.373  1.00  0.00    -0.000 C 
BRANCH  23  24
ATOM     24  C   UNL     1     115.250 177.101 126.249  1.00  0.00    -0.000 C 
BRANCH  24  25
ATOM     25  C   UNL     1     114.972 178.218 125.232  1.00  0.00    -0.003 C 
ATOM     26  C   UNL     1     115.549 177.875 123.859  1.00  0.00     0.004 C 
ENDBRANCH  24  25
ENDBRANCH  23  24
ENDBRANCH  22  23
ENDBRANCH  21  22
ENDBRANCH  20  21
ENDBRANCH  19  20
ENDBRANCH  18  19
ENDBRANCH  17  18
ENDBRANCH  16  17
ENDBRANCH  15  16
ENDBRANCH   1  15
TORSDOF 22
ENDMDL
MODEL 3
REMARK VINA RESULT:    -5.224      2.627      4.794
REMARK INTER + INTRA:         -16.393
REMARK INTER:                 -12.009
REMARK INTRA:                  -4.384
REMARK UNBOUND:                -4.451
REMARK SMILES CCCCCCCCCCCCCCCCCCCCCCCC(=O)[O-]
REMARK SMILES IDX 13 1 14 2 15 3 16 4 17 5 18 6 19 7 20 8 21 9 22 10 23 11
REMARK SMILES IDX 24 12 25 13 26 14 12 15 11 16 10 17 9 18 8 19 7 20 6 21 5 22
REMARK SMILES IDX 4 23 3 24 2 25 1 26
REMARK H PARENT
REMARK Flexibility Score: inf
ROOT
ATOM      1  C   UNL     1     120.745 178.258 127.417  1.00  0.00     0.000 C 
ENDROOT
BRANCH   1   2
ATOM      2  C   UNL     1     119.321 178.163 126.850  1.00  0.00     0.000 C 
BRANCH   2   3
ATOM      3  C   UNL     1     119.194 178.798 125.454  1.00  0.00     0.000 C 
BRANCH   3   4
ATOM      4  C   UNL     1     119.084 177.792 124.291  1.00  0.00     0.000 C 
BRANCH   4   5
ATOM      5  C   UNL     1     120.214 177.921 123.247  1.00  0.00     0.000 C 
BRANCH   5   6
ATOM      6  C   UNL     1     121.147 176.697 123.243  1.00  0.00     0.000 C 
BRANCH   6   7
ATOM      7  C   UNL     1     122.275 176.815 124.281  1.00  0.00     0.000 C 
BRANCH   7   8
ATOM      8  C   UNL     1     122.167 175.754 125.389  1.00  0.00     0.000 C 
BRANCH   8   9
ATOM      9  C   UNL     1     120.926 174.855 125.238  1.00  0.00     0.000 C 
BRANCH   9  10
ATOM     10  C   UNL     1     120.359 174.297 126.561  1.00  0.00     0.006 C 
BRANCH  10  11
ATOM     11  C   UNL     1     119.354 173.147 126.395  1.00  0.00     0.053 C 
BRANCH  11  12
ATOM     12  C   UNL     1     119.692 171.974 127.262  1.00  0.00     0.041 C 
ATOM     13  O   UNL     1     120.853 171.846 127.733  1.00  0.00    -0.550 OA
ATOM     14  O   UNL     1     118.711 171.049 127.592  1.00  0.00    -0.550 OA
ENDBRANCH  11  12
ENDBRANCH  10  11
ENDBRANCH   9  10
ENDBRANCH   8   9
ENDBRANCH   7   8
ENDBRANCH   6   7
ENDBRANCH   5   6
ENDBRANCH   4   5
ENDBRANCH   3   4
ENDBRANCH   2   3
ENDBRANCH   1   2
BRANCH   1  15
ATOM     15  C   UNL     1     120.851 177.534 128.763  1.00  0.00     0.000 C 
BRANCH  15  16
ATOM     16  C   UNL     1     119.630 177.834 129.643  1.00  0.00     0.000 C 
BRANCH  16  17
ATOM     17  C   UNL     1     119.342 176.721 130.666  1.00  0.00     0.000 C 
BRANCH  17  18
ATOM     18  C   UNL     1     119.434 175.282 130.114  1.00  0.00    -0.000 C 
BRANCH  18  19
ATOM     19  C   UNL     1     118.148 174.732 129.470  1.00  0.00    -0.000 C 
BRANCH  19  20
ATOM     20  C   UNL     1     116.884 175.505 129.883  1.00  0.00    -0.000 C 
BRANCH  20  21
ATOM     21  C   UNL     1     116.080 176.020 128.677  1.00  0.00    -0.000 C 
BRANCH  21  22
ATOM     22  C   UNL     1     116.683 175.635 127.307  1.00  0.00    -0.000 C 
BRANCH  22  23
ATOM     23  C   UNL     1     116.114 176.465 126.140  1.00  0.00    -0.000 C 
BRANCH  23  24
ATOM     24  C   UNL     1     115.094 177.531 126.602  1.00  0.00    -0.000 C 
BRANCH  24  25
ATOM     25  C   UNL     1     115.139 178.781 125.711  1.00  0.00    -0.003 C 
ATOM     26  C   UNL     1     115.997 179.879 126.338  1.00  0.00     0.004 C 
ENDBRANCH  24  25
ENDBRANCH  23  24
ENDBRANCH  22  23
ENDBRANCH  21  22
ENDBRANCH  20  21
ENDBRANCH  19  20
ENDBRANCH  18  19
ENDBRANCH  17  18
ENDBRANCH  16  17
ENDBRANCH  15  16
ENDBRANCH   1  15
TORSDOF 22
ENDMDL
MODEL 4
REMARK VINA RESULT:    -5.222      2.968      5.751
REMARK INTER + INTRA:         -16.389
REMARK INTER:                 -12.246
REMARK INTRA:                  -4.144
REMARK UNBOUND:                -4.451
REMARK SMILES CCCCCCCCCCCCCCCCCCCCCCCC(=O)[O-]
REMARK SMILES IDX 13 1 14 2 15 3 16 4 17 5 18 6 19 7 20 8 21 9 22 10 23 11
REMARK SMILES IDX 24 12 25 13 26 14 12 15 11 16 10 17 9 18 8 19 7 20 6 21 5 22
REMARK SMILES IDX 4 23 3 24 2 25 1 26
REMARK H PARENT
REMARK Flexibility Score: inf
ROOT
ATOM      1  C   UNL     1     117.136 178.501 125.573  1.00  0.00     0.000 C 
ENDROOT
BRANCH   1   2
ATOM      2  C   UNL     1     118.584 179.008 125.514  1.00  0.00     0.000 C 
BRANCH   2   3
ATOM      3  C   UNL     1     119.516 178.054 124.747  1.00  0.00     0.000 C 
BRANCH   3   4
ATOM      4  C   UNL     1     119.064 176.580 124.727  1.00  0.00     0.000 C 
BRANCH   4   5
ATOM      5  C   UNL     1     120.091 175.605 125.343  1.00  0.00     0.000 C 
BRANCH   5   6
ATOM      6  C   UNL     1     119.429 174.572 126.272  1.00  0.00     0.000 C 
BRANCH   6   7
ATOM      7  C   UNL     1     120.379 173.422 126.642  1.00  0.00     0.000 C 
BRANCH   7   8
ATOM      8  C   UNL     1     120.228 172.984 128.109  1.00  0.00     0.000 C 
BRANCH   8   9
ATOM      9  C   UNL     1     119.335 171.740 128.273  1.00  0.00     0.000 C 
BRANCH   9  10
ATOM     10  C   UNL     1     117.855 172.037 128.596  1.00  0.00     0.006 C 
BRANCH  10  11
ATOM     11  C   UNL     1     117.444 171.748 130.048  1.00  0.00     0.053 C 
BRANCH  11  12
ATOM     12  C   UNL     1     116.773 170.417 130.190  1.00  0.00     0.041 C 
ATOM     13  O   UNL     1     117.458 169.361 130.216  1.00  0.00    -0.550 OA
ATOM     14  O   UNL     1     115.395 170.348 130.346  1.00  0.00    -0.550 OA
ENDBRANCH  11  12
ENDBRANCH  10  11
ENDBRANCH   9  10
ENDBRANCH   8   9
ENDBRANCH   7   8
ENDBRANCH   6   7
ENDBRANCH   5   6
ENDBRANCH   4   5
ENDBRANCH   3   4
ENDBRANCH   2   3
ENDBRANCH   1   2
BRANCH   1  15
ATOM     15  C   UNL     1     116.564 178.630 126.989  1.00  0.00     0.000 C 
BRANCH  15  16
ATOM     16  C   UNL     1     115.518 177.538 127.256  1.00  0.00     0.000 C 
BRANCH  16  17
ATOM     17  C   UNL     1     116.054 176.120 126.994  1.00  0.00     0.000 C 
BRANCH  17  18
ATOM     18  C   UNL     1     116.828 175.483 128.169  1.00  0.00    -0.000 C 
BRANCH  18  19
ATOM     19  C   UNL     1     116.148 175.586 129.547  1.00  0.00    -0.000 C 
BRANCH  19  20
ATOM     20  C   UNL     1     117.134 175.466 130.721  1.00  0.00    -0.000 C 
BRANCH  20  21
ATOM     21  C   UNL     1     118.594 175.315 130.260  1.00  0.00    -0.000 C 
BRANCH  21  22
ATOM     22  C   UNL     1     119.577 176.285 130.953  1.00  0.00    -0.000 C 
BRANCH  22  23
ATOM     23  C   UNL     1     119.524 177.714 130.378  1.00  0.00    -0.000 C 
BRANCH  23  24
ATOM     24  C   UNL     1     119.509 177.741 128.833  1.00  0.00    -0.000 C 
BRANCH  24  25
ATOM     25  C   UNL     1     120.897 177.441 128.248  1.00  0.00    -0.003 C 
ATOM     26  C   UNL     1     121.873 178.586 128.515  1.00  0.00     0.004 C 
ENDBRANCH  24  25
ENDBRANCH  23  24
ENDBRANCH  22  23
ENDBRANCH  21  22
ENDBRANCH  20  21
ENDBRANCH  19  20
ENDBRANCH  18  19
ENDBRANCH  17  18
ENDBRANCH  16  17
ENDBRANCH  15  16
ENDBRANCH   1  15
TORSDOF 22
ENDMDL
MODEL 5
REMARK VINA RESULT:    -5.199      2.551      4.655
REMARK INTER + INTRA:         -16.338
REMARK INTER:                 -12.420
REMARK INTRA:                  -3.918
REMARK UNBOUND:                -4.451
REMARK SMILES CCCCCCCCCCCCCCCCCCCCCCCC(=O)[O-]
REMARK SMILES IDX 13 1 14 2 15 3 16 4 17 5 18 6 19 7 20 8 21 9 22 10 23 11
REMARK SMILES IDX 24 12 25 13 26 14 12 15 11 16 10 17 9 18 8 19 7 20 6 21 5 22
REMARK SMILES IDX 4 23 3 24 2 25 1 26
REMARK H PARENT
REMARK Flexibility Score: inf
ROOT
ATOM      1  C   UNL     1     120.784 177.582 128.505  1.00  0.00     0.000 C 
ENDROOT
BRANCH   1   2
ATOM      2  C   UNL     1     121.990 178.139 127.737  1.00  0.00     0.000 C 
BRANCH   2   3
ATOM      3  C   UNL     1     121.867 177.945 126.215  1.00  0.00     0.000 C 
BRANCH   3   4
ATOM      4  C   UNL     1     122.830 176.902 125.613  1.00  0.00     0.000 C 
BRANCH   4   5
ATOM      5  C   UNL     1     122.134 175.608 125.143  1.00  0.00     0.000 C 
BRANCH   5   6
ATOM      6  C   UNL     1     120.652 175.837 124.793  1.00  0.00     0.000 C 
BRANCH   6   7
ATOM      7  C   UNL     1     119.702 175.100 125.749  1.00  0.00     0.000 C 
BRANCH   7   8
ATOM      8  C   UNL     1     120.451 174.194 126.740  1.00  0.00     0.000 C 
BRANCH   8   9
ATOM      9  C   UNL     1     119.506 173.428 127.685  1.00  0.00     0.000 C 
BRANCH   9  10
ATOM     10  C   UNL     1     118.139 173.048 127.074  1.00  0.00     0.006 C 
BRANCH  10  11
ATOM     11  C   UNL     1     118.120 171.705 126.328  1.00  0.00     0.053 C 
BRANCH  11  12
ATOM     12  C   UNL     1     117.104 170.762 126.894  1.00  0.00     0.041 C 
ATOM     13  O   UNL     1     116.600 170.977 128.028  1.00  0.00    -0.550 OA
ATOM     14  O   UNL     1     116.675 169.674 126.146  1.00  0.00    -0.550 OA
ENDBRANCH  11  12
ENDBRANCH  10  11
ENDBRANCH   9  10
ENDBRANCH   8   9
ENDBRANCH   7   8
ENDBRANCH   6   7
ENDBRANCH   5   6
ENDBRANCH   4   5
ENDBRANCH   3   4
ENDBRANCH   2   3
ENDBRANCH   1   2
BRANCH   1  15
ATOM     15  C   UNL     1     121.171 177.200 129.938  1.00  0.00     0.000 C 
BRANCH  15  16
ATOM     16  C   UNL     1     120.340 176.007 130.429  1.00  0.00     0.000 C 
BRANCH  16  17
ATOM     17  C   UNL     1     118.923 176.408 130.874  1.00  0.00     0.000 C 
BRANCH  17  18
ATOM     18  C   UNL     1     117.894 175.257 130.906  1.00  0.00    -0.000 C 
BRANCH  18  19
ATOM     19  C   UNL     1     116.876 175.242 129.750  1.00  0.00    -0.000 C 
BRANCH  19  20
ATOM     20  C   UNL     1     117.171 176.294 128.668  1.00  0.00    -0.000 C 
BRANCH  20  21
ATOM     21  C   UNL     1     116.214 176.196 127.467  1.00  0.00    -0.000 C 
BRANCH  21  22
ATOM     22  C   UNL     1     115.303 177.431 127.286  1.00  0.00    -0.000 C 
BRANCH  22  23
ATOM     23  C   UNL     1     115.738 178.339 126.120  1.00  0.00    -0.000 C 
BRANCH  23  24
ATOM     24  C   UNL     1     116.732 179.441 126.554  1.00  0.00    -0.000 C 
BRANCH  24  25
ATOM     25  C   UNL     1     118.183 179.052 126.234  1.00  0.00    -0.003 C 
ATOM     26  C   UNL     1     118.322 178.555 124.796  1.00  0.00     0.004 C 
ENDBRANCH  24  25
ENDBRANCH  23  24
ENDBRANCH  22  23
ENDBRANCH  21  22
ENDBRANCH  20  21
ENDBRANCH  19  20
ENDBRANCH  18  19
ENDBRANCH  17  18
ENDBRANCH  16  17
ENDBRANCH  15  16
ENDBRANCH   1  15
TORSDOF 22
ENDMDL
MODEL 6
REMARK VINA RESULT:    -5.164      3.963      6.591
REMARK INTER + INTRA:         -16.257
REMARK INTER:                 -12.617
REMARK INTRA:                  -3.639
REMARK UNBOUND:                -4.451
REMARK SMILES CCCCCCCCCCCCCCCCCCCCCCCC(=O)[O-]
REMARK SMILES IDX 13 1 14 2 15 3 16 4 17 5 18 6 19 7 20 8 21 9 22 10 23 11
REMARK SMILES IDX 24 12 25 13 26 14 12 15 11 16 10 17 9 18 8 19 7 20 6 21 5 22
REMARK SMILES IDX 4 23 3 24 2 25 1 26
REMARK H PARENT
REMARK Flexibility Score: inf
ROOT
ATOM      1  C   UNL     1     117.630 175.316 127.902  1.00  0.00     0.000 C 
ENDROOT
BRANCH   1   2
ATOM      2  C   UNL     1     118.945 174.569 127.640  1.00  0.00     0.000 C 
BRANCH   2   3
ATOM      3  C   UNL     1     119.349 174.580 126.155  1.00  0.00     0.000 C 
BRANCH   3   4
ATOM      4  C   UNL     1     120.773 175.098 125.873  1.00  0.00     0.000 C 
BRANCH   4   5
ATOM      5  C   UNL     1     120.950 175.698 124.462  1.00  0.00     0.000 C 
BRANCH   5   6
ATOM      6  C   UNL     1     122.285 176.448 124.310  1.00  0.00     0.000 C 
BRANCH   6   7
ATOM      7  C   UNL     1     123.074 175.998 123.071  1.00  0.00     0.000 C 
BRANCH   7   8
ATOM      8  C   UNL     1     123.178 177.103 122.006  1.00  0.00     0.000 C 
BRANCH   8   9
ATOM      9  C   UNL     1     122.304 176.825 120.769  1.00  0.00     0.000 C 
BRANCH   9  10
ATOM     10  C   UNL     1     122.943 175.901 119.711  1.00  0.00     0.006 C 
BRANCH  10  11
ATOM     11  C   UNL     1     123.134 176.542 118.328  1.00  0.00     0.053 C 
BRANCH  11  12
ATOM     12  C   UNL     1     124.240 177.551 118.323  1.00  0.00     0.041 C 
ATOM     13  O   UNL     1     123.976 178.781 118.257  1.00  0.00    -0.550 OA
ATOM     14  O   UNL     1     125.559 177.136 118.446  1.00  0.00    -0.550 OA
ENDBRANCH  11  12
ENDBRANCH  10  11
ENDBRANCH   9  10
ENDBRANCH   8   9
ENDBRANCH   7   8
ENDBRANCH   6   7
ENDBRANCH   5   6
ENDBRANCH   4   5
ENDBRANCH   3   4
ENDBRANCH   2   3
ENDBRANCH   1   2
BRANCH   1  15
ATOM     15  C   UNL     1     117.617 175.936 129.304  1.00  0.00     0.000 C 
BRANCH  15  16
ATOM     16  C   UNL     1     118.949 175.682 130.024  1.00  0.00     0.000 C 
BRANCH  16  17
ATOM     17  C   UNL     1     119.389 176.867 130.902  1.00  0.00     0.000 C 
BRANCH  17  18
ATOM     18  C   UNL     1     120.397 177.834 130.242  1.00  0.00    -0.000 C 
BRANCH  18  19
ATOM     19  C   UNL     1     121.066 177.319 128.954  1.00  0.00    -0.000 C 
BRANCH  19  20
ATOM     20  C   UNL     1     121.697 178.438 128.109  1.00  0.00    -0.000 C 
BRANCH  20  21
ATOM     21  C   UNL     1     120.954 178.675 126.783  1.00  0.00    -0.000 C 
BRANCH  21  22
ATOM     22  C   UNL     1     119.424 178.482 126.875  1.00  0.00    -0.000 C 
BRANCH  22  23
ATOM     23  C   UNL     1     118.672 179.005 125.636  1.00  0.00    -0.000 C 
BRANCH  23  24
ATOM     24  C   UNL     1     117.886 177.898 124.897  1.00  0.00    -0.000 C 
BRANCH  24  25
ATOM     25  C   UNL     1     118.098 177.970 123.378  1.00  0.00    -0.003 C 
ATOM     26  C   UNL     1     119.452 178.588 123.034  1.00  0.00     0.004 C 
ENDBRANCH  24  25
ENDBRANCH  23  24
ENDBRANCH  22  23
ENDBRANCH  21  22
ENDBRANCH  20  21
ENDBRANCH  19  20
ENDBRANCH  18  19
ENDBRANCH  17  18
ENDBRANCH  16  17
ENDBRANCH  15  16
ENDBRANCH   1  15
TORSDOF 22
ENDMDL
MODEL 7
REMARK VINA RESULT:    -5.144      3.991      6.383
REMARK INTER + INTRA:         -16.211
REMARK INTER:                 -12.157
REMARK INTRA:                  -4.054
REMARK UNBOUND:                -4.451
REMARK SMILES CCCCCCCCCCCCCCCCCCCCCCCC(=O)[O-]
REMARK SMILES IDX 13 1 14 2 15 3 16 4 17 5 18 6 19 7 20 8 21 9 22 10 23 11
REMARK SMILES IDX 24 12 25 13 26 14 12 15 11 16 10 17 9 18 8 19 7 20 6 21 5 22
REMARK SMILES IDX 4 23 3 24 2 25 1 26
REMARK H PARENT
REMARK Flexibility Score: inf
ROOT
ATOM      1  C   UNL     1     119.324 178.605 125.125  1.00  0.00     0.000 C 
ENDROOT
BRANCH   1   2
ATOM      2  C   UNL     1     118.663 177.319 124.609  1.00  0.00     0.000 C 
BRANCH   2   3
ATOM      3  C   UNL     1     119.043 176.081 125.440  1.00  0.00     0.000 C 
BRANCH   3   4
ATOM      4  C   UNL     1     120.135 175.190 124.816  1.00  0.00     0.000 C 
BRANCH   4   5
ATOM      5  C   UNL     1     121.403 175.055 125.685  1.00  0.00     0.000 C 
BRANCH   5   6
ATOM      6  C   UNL     1     122.663 175.567 124.963  1.00  0.00     0.000 C 
BRANCH   6   7
ATOM      7  C   UNL     1     122.363 176.742 124.020  1.00  0.00     0.000 C 
BRANCH   7   8
ATOM      8  C   UNL     1     123.216 176.702 122.741  1.00  0.00     0.000 C 
BRANCH   8   9
ATOM      9  C   UNL     1     122.400 176.991 121.468  1.00  0.00     0.000 C 
BRANCH   9  10
ATOM     10  C   UNL     1     123.225 177.484 120.260  1.00  0.00     0.006 C 
BRANCH  10  11
ATOM     11  C   UNL     1     124.710 177.742 120.558  1.00  0.00     0.053 C 
BRANCH  11  12
ATOM     12  C   UNL     1     125.605 176.799 119.816  1.00  0.00     0.041 C 
ATOM     13  O   UNL     1     125.704 175.598 120.181  1.00  0.00    -0.550 OA
ATOM     14  O   UNL     1     126.290 177.235 118.690  1.00  0.00    -0.550 OA
ENDBRANCH  11  12
ENDBRANCH  10  11
ENDBRANCH   9  10
ENDBRANCH   8   9
ENDBRANCH   7   8
ENDBRANCH   6   7
ENDBRANCH   5   6
ENDBRANCH   4   5
ENDBRANCH   3   4
ENDBRANCH   2   3
ENDBRANCH   1   2
BRANCH   1  15
ATOM     15  C   UNL     1     119.509 178.558 126.645  1.00  0.00     0.000 C 
BRANCH  15  16
ATOM     16  C   UNL     1     120.999 178.506 127.013  1.00  0.00     0.000 C 
BRANCH  16  17
ATOM     17  C   UNL     1     121.245 177.984 128.439  1.00  0.00     0.000 C 
BRANCH  17  18
ATOM     18  C   UNL     1     120.042 177.268 129.092  1.00  0.00    -0.000 C 
BRANCH  18  19
ATOM     19  C   UNL     1     120.092 175.729 129.071  1.00  0.00    -0.000 C 
BRANCH  19  20
ATOM     20  C   UNL     1     118.706 175.078 128.932  1.00  0.00    -0.000 C 
BRANCH  20  21
ATOM     21  C   UNL     1     117.556 176.064 129.200  1.00  0.00    -0.000 C 
BRANCH  21  22
ATOM     22  C   UNL     1     116.432 176.026 128.139  1.00  0.00    -0.000 C 
BRANCH  22  23
ATOM     23  C   UNL     1     116.166 177.397 127.489  1.00  0.00    -0.000 C 
BRANCH  23  24
ATOM     24  C   UNL     1     115.247 177.308 126.250  1.00  0.00    -0.000 C 
BRANCH  24  25
ATOM     25  C   UNL     1     115.284 178.601 125.422  1.00  0.00    -0.003 C 
ATOM     26  C   UNL     1     115.903 179.751 126.215  1.00  0.00     0.004 C 
ENDBRANCH  24  25
ENDBRANCH  23  24
ENDBRANCH  22  23
ENDBRANCH  21  22
ENDBRANCH  20  21
ENDBRANCH  19  20
ENDBRANCH  18  19
ENDBRANCH  17  18
ENDBRANCH  16  17
ENDBRANCH  15  16
ENDBRANCH   1  15
TORSDOF 22
ENDMDL
MODEL 8
REMARK VINA RESULT:    -5.082      2.663      6.023
REMARK INTER + INTRA:         -16.068
REMARK INTER:                 -12.024
REMARK INTRA:                  -4.044
REMARK UNBOUND:                -4.451
REMARK SMILES CCCCCCCCCCCCCCCCCCCCCCCC(=O)[O-]
REMARK SMILES IDX 13 1 14 2 15 3 16 4 17 5 18 6 19 7 20 8 21 9 22 10 23 11
REMARK SMILES IDX 24 12 25 13 26 14 12 15 11 16 10 17 9 18 8 19 7 20 6 21 5 22
REMARK SMILES IDX 4 23 3 24 2 25 1 26
REMARK H PARENT
REMARK Flexibility Score: inf
ROOT
ATOM      1  C   UNL     1     121.587 177.528 127.290  1.00  0.00     0.000 C 
ENDROOT
BRANCH   1   2
ATOM      2  C   UNL     1     121.719 178.469 128.496  1.00  0.00     0.000 C 
BRANCH   2   3
ATOM      3  C   UNL     1     121.261 177.816 129.812  1.00  0.00     0.000 C 
BRANCH   3   4
ATOM      4  C   UNL     1     119.736 177.818 130.042  1.00  0.00     0.000 C 
BRANCH   4   5
ATOM      5  C   UNL     1     119.205 176.532 130.710  1.00  0.00     0.000 C 
BRANCH   5   6
ATOM      6  C   UNL     1     118.200 175.784 129.816  1.00  0.00     0.000 C 
BRANCH   6   7
ATOM      7  C   UNL     1     118.822 175.326 128.487  1.00  0.00     0.000 C 
BRANCH   7   8
ATOM      8  C   UNL     1     119.941 174.291 128.688  1.00  0.00     0.000 C 
BRANCH   8   9
ATOM      9  C   UNL     1     119.779 173.053 127.787  1.00  0.00     0.000 C 
BRANCH   9  10
ATOM     10  C   UNL     1     118.380 172.402 127.815  1.00  0.00     0.006 C 
BRANCH  10  11
ATOM     11  C   UNL     1     118.129 171.469 129.010  1.00  0.00     0.053 C 
BRANCH  11  12
ATOM     12  C   UNL     1     116.843 170.714 128.874  1.00  0.00     0.041 C 
ATOM     13  O   UNL     1     116.680 169.904 127.924  1.00  0.00    -0.550 OA
ATOM     14  O   UNL     1     115.845 170.866 129.827  1.00  0.00    -0.550 OA
ENDBRANCH  11  12
ENDBRANCH  10  11
ENDBRANCH   9  10
ENDBRANCH   8   9
ENDBRANCH   7   8
ENDBRANCH   6   7
ENDBRANCH   5   6
ENDBRANCH   4   5
ENDBRANCH   3   4
ENDBRANCH   2   3
ENDBRANCH   1   2
BRANCH   1  15
ATOM     15  C   UNL     1     122.646 177.842 126.228  1.00  0.00     0.000 C 
BRANCH  15  16
ATOM     16  C   UNL     1     122.745 176.703 125.203  1.00  0.00     0.000 C 
BRANCH  16  17
ATOM     17  C   UNL     1     121.960 175.448 125.626  1.00  0.00     0.000 C 
BRANCH  17  18
ATOM     18  C   UNL     1     120.650 175.201 124.847  1.00  0.00    -0.000 C 
BRANCH  18  19
ATOM     19  C   UNL     1     120.134 176.392 124.017  1.00  0.00    -0.000 C 
BRANCH  19  20
ATOM     20  C   UNL     1     118.907 177.079 124.637  1.00  0.00    -0.000 C 
BRANCH  20  21
ATOM     21  C   UNL     1     118.935 178.609 124.474  1.00  0.00    -0.000 C 
BRANCH  21  22
ATOM     22  C   UNL     1     118.730 179.387 125.794  1.00  0.00    -0.000 C 
BRANCH  22  23
ATOM     23  C   UNL     1     118.070 178.540 126.899  1.00  0.00    -0.000 C 
BRANCH  23  24
ATOM     24  C   UNL     1     116.528 178.658 126.907  1.00  0.00    -0.000 C 
BRANCH  24  25
ATOM     25  C   UNL     1     115.863 177.353 127.370  1.00  0.00    -0.003 C 
ATOM     26  C   UNL     1     115.652 176.392 126.201  1.00  0.00     0.004 C 
ENDBRANCH  24  25
ENDBRANCH  23  24
ENDBRANCH  22  23
ENDBRANCH  21  22
ENDBRANCH  20  21
ENDBRANCH  19  20
ENDBRANCH  18  19
ENDBRANCH  17  18
ENDBRANCH  16  17
ENDBRANCH  15  16
ENDBRANCH   1  15
TORSDOF 22
ENDMDL
MODEL 9
REMARK VINA RESULT:    -4.988      3.518      5.696
REMARK INTER + INTRA:         -15.854
REMARK INTER:                 -12.064
REMARK INTRA:                  -3.790
REMARK UNBOUND:                -4.451
REMARK SMILES CCCCCCCCCCCCCCCCCCCCCCCC(=O)[O-]
REMARK SMILES IDX 13 1 14 2 15 3 16 4 17 5 18 6 19 7 20 8 21 9 22 10 23 11
REMARK SMILES IDX 24 12 25 13 26 14 12 15 11 16 10 17 9 18 8 19 7 20 6 21 5 22
REMARK SMILES IDX 4 23 3 24 2 25 1 26
REMARK H PARENT
REMARK Flexibility Score: inf
ROOT
ATOM      1  C   UNL     1     119.887 178.972 126.287  1.00  0.00     0.000 C 
ENDROOT
BRANCH   1   2
ATOM      2  C   UNL     1     118.577 178.841 125.497  1.00  0.00     0.000 C 
BRANCH   2   3
ATOM      3  C   UNL     1     118.730 177.980 124.231  1.00  0.00     0.000 C 
BRANCH   3   4
ATOM      4  C   UNL     1     120.093 177.275 124.086  1.00  0.00     0.000 C 
BRANCH   4   5
ATOM      5  C   UNL     1     120.135 175.864 124.709  1.00  0.00     0.000 C 
BRANCH   5   6
ATOM      6  C   UNL     1     121.498 175.549 125.351  1.00  0.00     0.000 C 
BRANCH   6   7
ATOM      7  C   UNL     1     122.569 176.594 124.999  1.00  0.00     0.000 C 
BRANCH   7   8
ATOM      8  C   UNL     1     123.610 176.057 124.003  1.00  0.00     0.000 C 
BRANCH   8   9
ATOM      9  C   UNL     1     123.729 176.924 122.736  1.00  0.00     0.000 C 
BRANCH   9  10
ATOM     10  C   UNL     1     122.714 176.596 121.621  1.00  0.00     0.006 C 
BRANCH  10  11
ATOM     11  C   UNL     1     123.340 176.291 120.251  1.00  0.00     0.053 C 
BRANCH  11  12
ATOM     12  C   UNL     1     124.320 177.343 119.834  1.00  0.00     0.041 C 
ATOM     13  O   UNL     1     125.540 177.060 119.708  1.00  0.00    -0.550 OA
ATOM     14  O   UNL     1     123.876 178.624 119.533  1.00  0.00    -0.550 OA
ENDBRANCH  11  12
ENDBRANCH  10  11
ENDBRANCH   9  10
ENDBRANCH   8   9
ENDBRANCH   7   8
ENDBRANCH   6   7
ENDBRANCH   5   6
ENDBRANCH   4   5
ENDBRANCH   3   4
ENDBRANCH   2   3
ENDBRANCH   1   2
BRANCH   1  15
ATOM     15  C   UNL     1     119.792 178.251 127.635  1.00  0.00     0.000 C 
BRANCH  15  16
ATOM     16  C   UNL     1     121.190 177.985 128.212  1.00  0.00     0.000 C 
BRANCH  16  17
ATOM     17  C   UNL     1     121.153 177.505 129.674  1.00  0.00     0.000 C 
BRANCH  17  18
ATOM     18  C   UNL     1     119.758 177.528 130.336  1.00  0.00    -0.000 C 
BRANCH  18  19
ATOM     19  C   UNL     1     119.311 176.208 130.992  1.00  0.00    -0.000 C 
BRANCH  19  20
ATOM     20  C   UNL     1     118.026 175.630 130.377  1.00  0.00    -0.000 C 
BRANCH  20  21
ATOM     21  C   UNL     1     118.289 174.392 129.502  1.00  0.00    -0.000 C 
BRANCH  21  22
ATOM     22  C   UNL     1     118.485 174.711 128.002  1.00  0.00    -0.000 C 
BRANCH  22  23
ATOM     23  C   UNL     1     117.567 175.840 127.498  1.00  0.00    -0.000 C 
BRANCH  23  24
ATOM     24  C   UNL     1     116.750 175.439 126.248  1.00  0.00    -0.000 C 
BRANCH  24  25
ATOM     25  C   UNL     1     115.626 176.445 125.959  1.00  0.00    -0.003 C 
ATOM     26  C   UNL     1     115.474 177.452 127.098  1.00  0.00     0.004 C 
ENDBRANCH  24  25
ENDBRANCH  23  24
ENDBRANCH  22  23
ENDBRANCH  21  22
ENDBRANCH  20  21
ENDBRANCH  19  20
ENDBRANCH  18  19
ENDBRANCH  17  18
ENDBRANCH  16  17
ENDBRANCH  15  16
ENDBRANCH   1  15
TORSDOF 22
ENDMDL
