MODEL 1
REMARK VINA RESULT:    -6.939      0.000      0.000
REMARK INTER + INTRA:          -8.303
REMARK INTER:                  -8.156
REMARK INTRA:                  -0.147
REMARK UNBOUND:                -0.147
REMARK SMILES O=c1c(O)c(-c2ccc(O)cc2)oc2cc(O)cc(O)c12
REMARK SMILES IDX 5 1 3 2 2 3 1 4 21 5 19 6 18 7 16 8 15 9 14 10 13 11 6 12
REMARK SMILES IDX 7 13 8 14 9 15 12 16 11 17 10 18 4 20 20 22 17 24
REMARK H PARENT 10 19 4 21 20 23 17 25
REMARK Flexibility Score: inf
ROOT
ATOM      1  C   UNL     1     -18.848  -6.700  22.420  1.00  0.00     0.180 A 
ATOM      2  C   UNL     1     -17.468  -6.512  22.207  1.00  0.00     0.208 A 
ATOM      3  C   UNL     1     -16.801  -5.510  22.928  1.00  0.00     0.238 A 
ATOM      4  O   UNL     1     -15.568  -5.325  22.738  1.00  0.00    -0.285 OA
ATOM      5  C   UNL     1     -17.515  -4.729  23.861  1.00  0.00     0.111 A 
ATOM      6  C   UNL     1     -16.916  -3.703  24.630  1.00  0.00     0.134 A 
ATOM      7  C   UNL     1     -17.693  -2.977  25.546  1.00  0.00     0.093 A 
ATOM      8  C   UNL     1     -19.055  -3.258  25.705  1.00  0.00     0.123 A 
ATOM      9  C   UNL     1     -19.649  -4.269  24.948  1.00  0.00     0.094 A 
ATOM     10  C   UNL     1     -18.893  -5.003  24.030  1.00  0.00     0.146 A 
ATOM     11  O   UNL     1     -19.485  -5.955  23.319  1.00  0.00    -0.452 OA
ENDROOT
BRANCH   1  12
ATOM     12  C   UNL     1     -19.626  -7.723  21.684  1.00  0.00     0.021 A 
ATOM     13  C   UNL     1     -19.779  -7.662  20.286  1.00  0.00     0.016 A 
ATOM     14  C   UNL     1     -20.539  -8.627  19.617  1.00  0.00     0.047 A 
ATOM     15  C   UNL     1     -21.165  -9.654  20.335  1.00  0.00     0.115 A 
ATOM     16  C   UNL     1     -20.274  -8.744  22.398  1.00  0.00     0.016 A 
ATOM     17  C   UNL     1     -21.032  -9.708  21.726  1.00  0.00     0.047 A 
BRANCH  15  18
ATOM     18  O   UNL     1     -21.923 -10.620  19.678  1.00  0.00    -0.508 OA
ATOM     19  H   UNL     1     -22.156 -10.533  18.696  1.00  0.00     0.293 HD
ENDBRANCH  15  18
ENDBRANCH   1  12
BRANCH   2  20
ATOM     20  O   UNL     1     -16.774  -7.331  21.313  1.00  0.00    -0.502 OA
ATOM     21  H   UNL     1     -16.001  -6.991  20.753  1.00  0.00     0.293 HD
ENDBRANCH   2  20
BRANCH   6  22
ATOM     22  O   UNL     1     -15.561  -3.401  24.495  1.00  0.00    -0.507 OA
ATOM     23  H   UNL     1     -14.843  -4.106  24.611  1.00  0.00     0.293 HD
ENDBRANCH   6  22
BRANCH   8  24
ATOM     24  O   UNL     1     -19.827  -2.538  26.614  1.00  0.00    -0.508 OA
ATOM     25  H   UNL     1     -20.749  -2.852  26.892  1.00  0.00     0.293 HD
ENDBRANCH   8  24
TORSDOF 5
ENDMDL
MODEL 2
REMARK VINA RESULT:    -6.909      1.356      6.453
REMARK INTER + INTRA:          -8.267
REMARK INTER:                  -8.006
REMARK INTRA:                  -0.262
REMARK UNBOUND:                -0.147
REMARK SMILES O=c1c(O)c(-c2ccc(O)cc2)oc2cc(O)cc(O)c12
REMARK SMILES IDX 5 1 3 2 2 3 1 4 21 5 19 6 18 7 16 8 15 9 14 10 13 11 6 12
REMARK SMILES IDX 7 13 8 14 9 15 12 16 11 17 10 18 4 20 20 22 17 24
REMARK H PARENT 10 19 4 21 20 23 17 25
REMARK Flexibility Score: inf
ROOT
ATOM      1  C   UNL     1     -18.449  -6.373  22.840  1.00  0.00     0.180 A 
ATOM      2  C   UNL     1     -17.150  -6.662  22.380  1.00  0.00     0.208 A 
ATOM      3  C   UNL     1     -16.988  -7.611  21.359  1.00  0.00     0.238 A 
ATOM      4  O   UNL     1     -15.829  -7.887  20.947  1.00  0.00    -0.285 OA
ATOM      5  C   UNL     1     -18.123  -8.238  20.802  1.00  0.00     0.111 A 
ATOM      6  C   UNL     1     -18.046  -9.201  19.769  1.00  0.00     0.134 A 
ATOM      7  C   UNL     1     -19.223  -9.772  19.261  1.00  0.00     0.093 A 
ATOM      8  C   UNL     1     -20.473  -9.397  19.768  1.00  0.00     0.123 A 
ATOM      9  C   UNL     1     -20.553  -8.448  20.787  1.00  0.00     0.094 A 
ATOM     10  C   UNL     1     -19.392  -7.869  21.308  1.00  0.00     0.146 A 
ATOM     11  O   UNL     1     -19.497  -6.972  22.282  1.00  0.00    -0.452 OA
ENDROOT
BRANCH   1  12
ATOM     12  C   UNL     1     -18.701  -5.399  23.927  1.00  0.00     0.021 A 
ATOM     13  C   UNL     1     -18.973  -5.821  25.242  1.00  0.00     0.016 A 
ATOM     14  C   UNL     1     -19.231  -4.882  26.246  1.00  0.00     0.047 A 
ATOM     15  C   UNL     1     -19.234  -3.514  25.947  1.00  0.00     0.115 A 
ATOM     16  C   UNL     1     -18.726  -4.026  23.632  1.00  0.00     0.016 A 
ATOM     17  C   UNL     1     -18.984  -3.090  24.639  1.00  0.00     0.047 A 
BRANCH  15  18
ATOM     18  O   UNL     1     -19.489  -2.571  26.940  1.00  0.00    -0.508 OA
ATOM     19  H   UNL     1     -18.844  -2.422  27.707  1.00  0.00     0.293 HD
ENDBRANCH  15  18
ENDBRANCH   1  12
BRANCH   2  20
ATOM     20  O   UNL     1     -16.047  -5.993  22.914  1.00  0.00    -0.502 OA
ATOM     21  H   UNL     1     -15.739  -5.091  22.568  1.00  0.00     0.293 HD
ENDBRANCH   2  20
BRANCH   6  22
ATOM     22  O   UNL     1     -16.815  -9.594  19.242  1.00  0.00    -0.507 OA
ATOM     23  H   UNL     1     -16.466  -9.222  18.366  1.00  0.00     0.293 HD
ENDBRANCH   6  22
BRANCH   8  24
ATOM     24  O   UNL     1     -21.642  -9.963  19.263  1.00  0.00    -0.508 OA
ATOM     25  H   UNL     1     -21.697 -10.949  19.036  1.00  0.00     0.293 HD
ENDBRANCH   8  24
TORSDOF 5
ENDMDL
MODEL 3
REMARK VINA RESULT:    -6.819      0.083      1.060
REMARK INTER + INTRA:          -8.161
REMARK INTER:                  -8.057
REMARK INTRA:                  -0.104
REMARK UNBOUND:                -0.147
REMARK SMILES O=c1c(O)c(-c2ccc(O)cc2)oc2cc(O)cc(O)c12
REMARK SMILES IDX 5 1 3 2 2 3 1 4 21 5 19 6 18 7 16 8 15 9 14 10 13 11 6 12
REMARK SMILES IDX 7 13 8 14 9 15 12 16 11 17 10 18 4 20 20 22 17 24
REMARK H PARENT 10 19 4 21 20 23 17 25
REMARK Flexibility Score: inf
ROOT
ATOM      1  C   UNL     1     -18.886  -6.724  22.496  1.00  0.00     0.180 A 
ATOM      2  C   UNL     1     -17.508  -6.560  22.257  1.00  0.00     0.208 A 
ATOM      3  C   UNL     1     -16.814  -5.558  22.951  1.00  0.00     0.238 A 
ATOM      4  O   UNL     1     -15.582  -5.394  22.737  1.00  0.00    -0.285 OA
ATOM      5  C   UNL     1     -17.500  -4.752  23.885  1.00  0.00     0.111 A 
ATOM      6  C   UNL     1     -16.874  -3.724  24.628  1.00  0.00     0.134 A 
ATOM      7  C   UNL     1     -17.624  -2.972  25.545  1.00  0.00     0.093 A 
ATOM      8  C   UNL     1     -18.987  -3.231  25.732  1.00  0.00     0.123 A 
ATOM      9  C   UNL     1     -19.609  -4.244  25.001  1.00  0.00     0.094 A 
ATOM     10  C   UNL     1     -18.879  -5.003  24.080  1.00  0.00     0.146 A 
ATOM     11  O   UNL     1     -19.498  -5.957  23.394  1.00  0.00    -0.452 OA
ENDROOT
BRANCH   1  12
ATOM     12  C   UNL     1     -19.692  -7.746  21.789  1.00  0.00     0.021 A 
ATOM     13  C   UNL     1     -20.291  -8.816  22.481  1.00  0.00     0.016 A 
ATOM     14  C   UNL     1     -21.027  -9.781  21.788  1.00  0.00     0.047 A 
ATOM     15  C   UNL     1     -21.162  -9.700  20.396  1.00  0.00     0.115 A 
ATOM     16  C   UNL     1     -19.815  -7.684  20.392  1.00  0.00     0.016 A 
ATOM     17  C   UNL     1     -20.552  -8.651  19.701  1.00  0.00     0.047 A 
BRANCH  15  18
ATOM     18  O   UNL     1     -21.894 -10.656  19.696  1.00  0.00    -0.508 OA
ATOM     19  H   UNL     1     -22.760 -11.032  20.062  1.00  0.00     0.293 HD
ENDBRANCH  15  18
ENDBRANCH   1  12
BRANCH   2  20
ATOM     20  O   UNL     1     -16.842  -7.403  21.364  1.00  0.00    -0.502 OA
ATOM     21  H   UNL     1     -17.223  -8.295  21.072  1.00  0.00     0.293 HD
ENDBRANCH   2  20
BRANCH   6  22
ATOM     22  O   UNL     1     -15.516  -3.444  24.465  1.00  0.00    -0.507 OA
ATOM     23  H   UNL     1     -15.118  -2.556  24.746  1.00  0.00     0.293 HD
ENDBRANCH   6  22
BRANCH   8  24
ATOM     24  O   UNL     1     -19.732  -2.486  26.643  1.00  0.00    -0.508 OA
ATOM     25  H   UNL     1     -20.655  -2.783  26.941  1.00  0.00     0.293 HD
ENDBRANCH   8  24
TORSDOF 5
ENDMDL
MODEL 4
REMARK VINA RESULT:    -6.548      2.150      3.097
REMARK INTER + INTRA:          -7.843
REMARK INTER:                  -7.550
REMARK INTRA:                  -0.293
REMARK UNBOUND:                -0.147
REMARK SMILES O=c1c(O)c(-c2ccc(O)cc2)oc2cc(O)cc(O)c12
REMARK SMILES IDX 5 1 3 2 2 3 1 4 21 5 19 6 18 7 16 8 15 9 14 10 13 11 6 12
REMARK SMILES IDX 7 13 8 14 9 15 12 16 11 17 10 18 4 20 20 22 17 24
REMARK H PARENT 10 19 4 21 20 23 17 25
REMARK Flexibility Score: inf
ROOT
ATOM      1  C   UNL     1     -19.210  -7.713  22.547  1.00  0.00     0.180 A 
ATOM      2  C   UNL     1     -19.719  -8.231  23.752  1.00  0.00     0.208 A 
ATOM      3  C   UNL     1     -19.772  -7.398  24.881  1.00  0.00     0.238 A 
ATOM      4  O   UNL     1     -20.216  -7.855  25.969  1.00  0.00    -0.285 OA
ATOM      5  C   UNL     1     -19.335  -6.061  24.781  1.00  0.00     0.111 A 
ATOM      6  C   UNL     1     -19.358  -5.156  25.869  1.00  0.00     0.134 A 
ATOM      7  C   UNL     1     -18.914  -3.837  25.686  1.00  0.00     0.093 A 
ATOM      8  C   UNL     1     -18.449  -3.408  24.437  1.00  0.00     0.123 A 
ATOM      9  C   UNL     1     -18.425  -4.298  23.362  1.00  0.00     0.094 A 
ATOM     10  C   UNL     1     -18.860  -5.616  23.524  1.00  0.00     0.146 A 
ATOM     11  O   UNL     1     -18.820  -6.443  22.485  1.00  0.00    -0.452 OA
ENDROOT
BRANCH   1  12
ATOM     12  C   UNL     1     -19.104  -8.534  21.319  1.00  0.00     0.021 A 
ATOM     13  C   UNL     1     -17.921  -9.225  20.998  1.00  0.00     0.016 A 
ATOM     14  C   UNL     1     -17.838  -9.975  19.821  1.00  0.00     0.047 A 
ATOM     15  C   UNL     1     -18.929 -10.032  18.943  1.00  0.00     0.115 A 
ATOM     16  C   UNL     1     -20.185  -8.581  20.424  1.00  0.00     0.016 A 
ATOM     17  C   UNL     1     -20.100  -9.332  19.247  1.00  0.00     0.047 A 
BRANCH  15  18
ATOM     18  O   UNL     1     -18.857 -10.777  17.768  1.00  0.00    -0.508 OA
ATOM     19  H   UNL     1     -18.359 -10.435  16.955  1.00  0.00     0.293 HD
ENDBRANCH  15  18
ENDBRANCH   1  12
BRANCH   2  20
ATOM     20  O   UNL     1     -20.191  -9.545  23.812  1.00  0.00    -0.502 OA
ATOM     21  H   UNL     1     -20.403 -10.084  22.981  1.00  0.00     0.293 HD
ENDBRANCH   2  20
BRANCH   6  22
ATOM     22  O   UNL     1     -19.817  -5.553  27.125  1.00  0.00    -0.507 OA
ATOM     23  H   UNL     1     -20.361  -4.934  27.715  1.00  0.00     0.293 HD
ENDBRANCH   6  22
BRANCH   8  24
ATOM     24  O   UNL     1     -18.010  -2.099  24.255  1.00  0.00    -0.508 OA
ATOM     25  H   UNL     1     -17.041  -1.890  24.042  1.00  0.00     0.293 HD
ENDBRANCH   8  24
TORSDOF 5
ENDMDL
MODEL 5
REMARK VINA RESULT:    -6.402      3.174      3.970
REMARK INTER + INTRA:          -7.671
REMARK INTER:                  -7.402
REMARK INTRA:                  -0.270
REMARK UNBOUND:                -0.147
REMARK SMILES O=c1c(O)c(-c2ccc(O)cc2)oc2cc(O)cc(O)c12
REMARK SMILES IDX 5 1 3 2 2 3 1 4 21 5 19 6 18 7 16 8 15 9 14 10 13 11 6 12
REMARK SMILES IDX 7 13 8 14 9 15 12 16 11 17 10 18 4 20 20 22 17 24
REMARK H PARENT 10 19 4 21 20 23 17 25
REMARK Flexibility Score: inf
ROOT
ATOM      1  C   UNL     1     -19.736  -8.322  24.632  1.00  0.00     0.180 A 
ATOM      2  C   UNL     1     -18.892  -8.431  23.510  1.00  0.00     0.208 A 
ATOM      3  C   UNL     1     -18.408  -7.258  22.910  1.00  0.00     0.238 A 
ATOM      4  O   UNL     1     -17.661  -7.342  21.898  1.00  0.00    -0.285 OA
ATOM      5  C   UNL     1     -18.758  -6.003  23.450  1.00  0.00     0.111 A 
ATOM      6  C   UNL     1     -18.310  -4.775  22.907  1.00  0.00     0.134 A 
ATOM      7  C   UNL     1     -18.695  -3.567  23.509  1.00  0.00     0.093 A 
ATOM      8  C   UNL     1     -19.518  -3.565  24.641  1.00  0.00     0.123 A 
ATOM      9  C   UNL     1     -19.962  -4.774  25.180  1.00  0.00     0.094 A 
ATOM     10  C   UNL     1     -19.591  -5.988  24.594  1.00  0.00     0.146 A 
ATOM     11  O   UNL     1     -20.033  -7.123  25.123  1.00  0.00    -0.452 OA
ENDROOT
BRANCH   1  12
ATOM     12  C   UNL     1     -20.302  -9.512  25.309  1.00  0.00     0.021 A 
ATOM     13  C   UNL     1     -19.552 -10.250  26.244  1.00  0.00     0.016 A 
ATOM     14  C   UNL     1     -20.100 -11.384  26.852  1.00  0.00     0.047 A 
ATOM     15  C   UNL     1     -21.396 -11.803  26.524  1.00  0.00     0.115 A 
ATOM     16  C   UNL     1     -21.593  -9.950  24.972  1.00  0.00     0.016 A 
ATOM     17  C   UNL     1     -22.138 -11.085  25.582  1.00  0.00     0.047 A 
BRANCH  15  18
ATOM     18  O   UNL     1     -21.952 -12.930  27.125  1.00  0.00    -0.508 OA
ATOM     19  H   UNL     1     -22.144 -12.959  28.119  1.00  0.00     0.293 HD
ENDBRANCH  15  18
ENDBRANCH   1  12
BRANCH   2  20
ATOM     20  O   UNL     1     -18.521  -9.687  23.024  1.00  0.00    -0.502 OA
ATOM     21  H   UNL     1     -18.850 -10.043  22.134  1.00  0.00     0.293 HD
ENDBRANCH   2  20
BRANCH   6  22
ATOM     22  O   UNL     1     -17.488  -4.744  21.780  1.00  0.00    -0.507 OA
ATOM     23  H   UNL     1     -16.478  -4.769  21.856  1.00  0.00     0.293 HD
ENDBRANCH   6  22
BRANCH   8  24
ATOM     24  O   UNL     1     -19.899  -2.366  25.240  1.00  0.00    -0.508 OA
ATOM     25  H   UNL     1     -20.777  -2.279  25.739  1.00  0.00     0.293 HD
ENDBRANCH   8  24
TORSDOF 5
ENDMDL
MODEL 6
REMARK VINA RESULT:    -6.302      3.024      5.372
REMARK INTER + INTRA:          -7.554
REMARK INTER:                  -7.268
REMARK INTRA:                  -0.286
REMARK UNBOUND:                -0.147
REMARK SMILES O=c1c(O)c(-c2ccc(O)cc2)oc2cc(O)cc(O)c12
REMARK SMILES IDX 5 1 3 2 2 3 1 4 21 5 19 6 18 7 16 8 15 9 14 10 13 11 6 12
REMARK SMILES IDX 7 13 8 14 9 15 12 16 11 17 10 18 4 20 20 22 17 24
REMARK H PARENT 10 19 4 21 20 23 17 25
REMARK Flexibility Score: inf
ROOT
ATOM      1  C   UNL     1     -19.095  -8.380  23.434  1.00  0.00     0.180 A 
ATOM      2  C   UNL     1     -19.058  -6.974  23.516  1.00  0.00     0.208 A 
ATOM      3  C   UNL     1     -18.240  -6.264  22.624  1.00  0.00     0.238 A 
ATOM      4  O   UNL     1     -18.190  -5.006  22.694  1.00  0.00    -0.285 OA
ATOM      5  C   UNL     1     -17.492  -6.965  21.655  1.00  0.00     0.111 A 
ATOM      6  C   UNL     1     -16.647  -6.325  20.717  1.00  0.00     0.134 A 
ATOM      7  C   UNL     1     -15.942  -7.093  19.778  1.00  0.00     0.093 A 
ATOM      8  C   UNL     1     -16.067  -8.487  19.760  1.00  0.00     0.123 A 
ATOM      9  C   UNL     1     -16.899  -9.123  20.683  1.00  0.00     0.094 A 
ATOM     10  C   UNL     1     -17.608  -8.375  21.628  1.00  0.00     0.146 A 
ATOM     11  O   UNL     1     -18.387  -9.007  22.499  1.00  0.00    -0.452 OA
ENDROOT
BRANCH   1  12
ATOM     12  C   UNL     1     -19.918  -9.201  24.353  1.00  0.00     0.021 A 
ATOM     13  C   UNL     1     -21.229  -9.585  24.017  1.00  0.00     0.016 A 
ATOM     14  C   UNL     1     -21.995 -10.340  24.911  1.00  0.00     0.047 A 
ATOM     15  C   UNL     1     -21.466 -10.708  26.155  1.00  0.00     0.115 A 
ATOM     16  C   UNL     1     -19.403  -9.557  25.610  1.00  0.00     0.016 A 
ATOM     17  C   UNL     1     -20.171 -10.312  26.502  1.00  0.00     0.047 A 
BRANCH  15  18
ATOM     18  O   UNL     1     -22.220 -11.460  27.052  1.00  0.00    -0.508 OA
ATOM     19  H   UNL     1     -23.185 -11.229  27.258  1.00  0.00     0.293 HD
ENDBRANCH  15  18
ENDBRANCH   1  12
BRANCH   2  20
ATOM     20  O   UNL     1     -19.846  -6.301  24.453  1.00  0.00    -0.502 OA
ATOM     21  H   UNL     1     -20.146  -6.731  25.320  1.00  0.00     0.293 HD
ENDBRANCH   2  20
BRANCH   6  22
ATOM     22  O   UNL     1     -16.504  -4.937  20.709  1.00  0.00    -0.507 OA
ATOM     23  H   UNL     1     -15.971  -4.452  21.422  1.00  0.00     0.293 HD
ENDBRANCH   6  22
BRANCH   8  24
ATOM     24  O   UNL     1     -15.368  -9.250  18.827  1.00  0.00    -0.508 OA
ATOM     25  H   UNL     1     -15.246  -8.936  17.871  1.00  0.00     0.293 HD
ENDBRANCH   8  24
TORSDOF 5
ENDMDL
MODEL 7
REMARK VINA RESULT:    -6.111      2.136      2.300
REMARK INTER + INTRA:          -7.330
REMARK INTER:                  -7.295
REMARK INTRA:                  -0.035
REMARK UNBOUND:                -0.147
REMARK SMILES O=c1c(O)c(-c2ccc(O)cc2)oc2cc(O)cc(O)c12
REMARK SMILES IDX 5 1 3 2 2 3 1 4 21 5 19 6 18 7 16 8 15 9 14 10 13 11 6 12
REMARK SMILES IDX 7 13 8 14 9 15 12 16 11 17 10 18 4 20 20 22 17 24
REMARK H PARENT 10 19 4 21 20 23 17 25
REMARK Flexibility Score: inf
ROOT
ATOM      1  C   UNL     1     -18.238  -7.436  22.717  1.00  0.00     0.180 A 
ATOM      2  C   UNL     1     -17.444  -7.904  23.781  1.00  0.00     0.208 A 
ATOM      3  C   UNL     1     -17.243  -7.072  24.894  1.00  0.00     0.238 A 
ATOM      4  O   UNL     1     -16.525  -7.475  25.848  1.00  0.00    -0.285 OA
ATOM      5  C   UNL     1     -17.852  -5.800  24.933  1.00  0.00     0.111 A 
ATOM      6  C   UNL     1     -17.703  -4.903  26.018  1.00  0.00     0.134 A 
ATOM      7  C   UNL     1     -18.350  -3.659  25.986  1.00  0.00     0.093 A 
ATOM      8  C   UNL     1     -19.143  -3.296  24.891  1.00  0.00     0.123 A 
ATOM      9  C   UNL     1     -19.293  -4.177  23.819  1.00  0.00     0.094 A 
ATOM     10  C   UNL     1     -18.654  -5.421  23.831  1.00  0.00     0.146 A 
ATOM     11  O   UNL     1     -18.810  -6.237  22.795  1.00  0.00    -0.452 OA
ENDROOT
BRANCH   1  12
ATOM     12  C   UNL     1     -18.482  -8.246  21.501  1.00  0.00     0.021 A 
ATOM     13  C   UNL     1     -19.785  -8.600  21.104  1.00  0.00     0.016 A 
ATOM     14  C   UNL     1     -19.987  -9.386  19.966  1.00  0.00     0.047 A 
ATOM     15  C   UNL     1     -18.893  -9.839  19.218  1.00  0.00     0.115 A 
ATOM     16  C   UNL     1     -17.389  -8.722  20.758  1.00  0.00     0.016 A 
ATOM     17  C   UNL     1     -17.595  -9.507  19.619  1.00  0.00     0.047 A 
BRANCH  15  18
ATOM     18  O   UNL     1     -19.084 -10.622  18.082  1.00  0.00    -0.508 OA
ATOM     19  H   UNL     1     -18.330 -10.799  17.428  1.00  0.00     0.293 HD
ENDBRANCH  15  18
ENDBRANCH   1  12
BRANCH   2  20
ATOM     20  O   UNL     1     -16.892  -9.186  23.740  1.00  0.00    -0.502 OA
ATOM     21  H   UNL     1     -17.429  -9.999  23.463  1.00  0.00     0.293 HD
ENDBRANCH   2  20
BRANCH   6  22
ATOM     22  O   UNL     1     -16.921  -5.237  27.124  1.00  0.00    -0.507 OA
ATOM     23  H   UNL     1     -16.357  -4.548  27.606  1.00  0.00     0.293 HD
ENDBRANCH   6  22
BRANCH   8  24
ATOM     24  O   UNL     1     -19.787  -2.061  24.859  1.00  0.00    -0.508 OA
ATOM     25  H   UNL     1     -20.415  -1.811  24.104  1.00  0.00     0.293 HD
ENDBRANCH   8  24
TORSDOF 5
ENDMDL
MODEL 8
REMARK VINA RESULT:    -5.998      2.981      4.990
REMARK INTER + INTRA:          -7.197
REMARK INTER:                  -7.059
REMARK INTRA:                  -0.138
REMARK UNBOUND:                -0.147
REMARK SMILES O=c1c(O)c(-c2ccc(O)cc2)oc2cc(O)cc(O)c12
REMARK SMILES IDX 5 1 3 2 2 3 1 4 21 5 19 6 18 7 16 8 15 9 14 10 13 11 6 12
REMARK SMILES IDX 7 13 8 14 9 15 12 16 11 17 10 18 4 20 20 22 17 24
REMARK H PARENT 10 19 4 21 20 23 17 25
REMARK Flexibility Score: inf
ROOT
ATOM      1  C   UNL     1     -19.879  -9.077  23.232  1.00  0.00     0.180 A 
ATOM      2  C   UNL     1     -20.356  -9.075  21.907  1.00  0.00     0.208 A 
ATOM      3  C   UNL     1     -19.806  -8.166  20.989  1.00  0.00     0.238 A 
ATOM      4  O   UNL     1     -20.232  -8.147  19.803  1.00  0.00    -0.285 OA
ATOM      5  C   UNL     1     -18.778  -7.293  21.404  1.00  0.00     0.111 A 
ATOM      6  C   UNL     1     -18.168  -6.351  20.541  1.00  0.00     0.134 A 
ATOM      7  C   UNL     1     -17.144  -5.524  21.027  1.00  0.00     0.093 A 
ATOM      8  C   UNL     1     -16.721  -5.621  22.357  1.00  0.00     0.123 A 
ATOM      9  C   UNL     1     -17.320  -6.548  23.212  1.00  0.00     0.094 A 
ATOM     10  C   UNL     1     -18.343  -7.381  22.747  1.00  0.00     0.146 A 
ATOM     11  O   UNL     1     -18.899  -8.250  23.583  1.00  0.00    -0.452 OA
ENDROOT
BRANCH   1  12
ATOM     12  C   UNL     1     -20.422  -9.991  24.263  1.00  0.00     0.021 A 
ATOM     13  C   UNL     1     -19.642 -11.028  24.808  1.00  0.00     0.016 A 
ATOM     14  C   UNL     1     -20.185 -11.893  25.763  1.00  0.00     0.047 A 
ATOM     15  C   UNL     1     -21.516 -11.744  26.173  1.00  0.00     0.115 A 
ATOM     16  C   UNL     1     -21.761  -9.862  24.665  1.00  0.00     0.016 A 
ATOM     17  C   UNL     1     -22.302 -10.729  25.620  1.00  0.00     0.047 A 
BRANCH  15  18
ATOM     18  O   UNL     1     -22.066 -12.600  27.124  1.00  0.00    -0.508 OA
ATOM     19  H   UNL     1     -22.922 -13.112  26.944  1.00  0.00     0.293 HD
ENDBRANCH  15  18
ENDBRANCH   1  12
BRANCH   2  20
ATOM     20  O   UNL     1     -21.340  -9.983  21.509  1.00  0.00    -0.502 OA
ATOM     21  H   UNL     1     -21.312 -10.962  21.770  1.00  0.00     0.293 HD
ENDBRANCH   2  20
BRANCH   6  22
ATOM     22  O   UNL     1     -18.568  -6.232  19.209  1.00  0.00    -0.507 OA
ATOM     23  H   UNL     1     -19.484  -5.881  18.957  1.00  0.00     0.293 HD
ENDBRANCH   6  22
BRANCH   8  24
ATOM     24  O   UNL     1     -15.704  -4.800  22.840  1.00  0.00    -0.508 OA
ATOM     25  H   UNL     1     -14.970  -5.163  23.437  1.00  0.00     0.293 HD
ENDBRANCH   8  24
TORSDOF 5
ENDMDL
MODEL 9
REMARK VINA RESULT:    -5.949      2.855      6.439
REMARK INTER + INTRA:          -7.139
REMARK INTER:                  -6.923
REMARK INTRA:                  -0.217
REMARK UNBOUND:                -0.147
REMARK SMILES O=c1c(O)c(-c2ccc(O)cc2)oc2cc(O)cc(O)c12
REMARK SMILES IDX 5 1 3 2 2 3 1 4 21 5 19 6 18 7 16 8 15 9 14 10 13 11 6 12
REMARK SMILES IDX 7 13 8 14 9 15 12 16 11 17 10 18 4 20 20 22 17 24
REMARK H PARENT 10 19 4 21 20 23 17 25
REMARK Flexibility Score: inf
ROOT
ATOM      1  C   UNL     1     -17.568  -6.412  22.816  1.00  0.00     0.180 A 
ATOM      2  C   UNL     1     -17.137  -5.990  21.543  1.00  0.00     0.208 A 
ATOM      3  C   UNL     1     -16.556  -6.931  20.678  1.00  0.00     0.238 A 
ATOM      4  O   UNL     1     -16.156  -6.563  19.540  1.00  0.00    -0.285 OA
ATOM      5  C   UNL     1     -16.435  -8.275  21.089  1.00  0.00     0.111 A 
ATOM      6  C   UNL     1     -15.867  -9.284  20.276  1.00  0.00     0.134 A 
ATOM      7  C   UNL     1     -15.791 -10.602  20.753  1.00  0.00     0.093 A 
ATOM      8  C   UNL     1     -16.273 -10.926  22.027  1.00  0.00     0.123 A 
ATOM      9  C   UNL     1     -16.835  -9.934  22.831  1.00  0.00     0.094 A 
ATOM     10  C   UNL     1     -16.918  -8.615  22.375  1.00  0.00     0.146 A 
ATOM     11  O   UNL     1     -17.451  -7.690  23.164  1.00  0.00    -0.452 OA
ENDROOT
BRANCH   1  12
ATOM     12  C   UNL     1     -18.172  -5.476  23.792  1.00  0.00     0.021 A 
ATOM     13  C   UNL     1     -19.557  -5.467  24.039  1.00  0.00     0.016 A 
ATOM     14  C   UNL     1     -20.107  -4.558  24.948  1.00  0.00     0.047 A 
ATOM     15  C   UNL     1     -19.283  -3.638  25.610  1.00  0.00     0.115 A 
ATOM     16  C   UNL     1     -17.356  -4.537  24.445  1.00  0.00     0.016 A 
ATOM     17  C   UNL     1     -17.909  -3.629  25.354  1.00  0.00     0.047 A 
BRANCH  15  18
ATOM     18  O   UNL     1     -19.821  -2.729  26.518  1.00  0.00    -0.508 OA
ATOM     19  H   UNL     1     -20.289  -1.886  26.209  1.00  0.00     0.293 HD
ENDBRANCH  15  18
ENDBRANCH   1  12
BRANCH   2  20
ATOM     20  O   UNL     1     -17.312  -4.664  21.142  1.00  0.00    -0.502 OA
ATOM     21  H   UNL     1     -16.550  -3.997  21.124  1.00  0.00     0.293 HD
ENDBRANCH   2  20
BRANCH   6  22
ATOM     22  O   UNL     1     -15.379  -8.991  19.002  1.00  0.00    -0.507 OA
ATOM     23  H   UNL     1     -15.456  -9.651  18.236  1.00  0.00     0.293 HD
ENDBRANCH   6  22
BRANCH   8  24
ATOM     24  O   UNL     1     -16.199 -12.234  22.501  1.00  0.00    -0.508 OA
ATOM     25  H   UNL     1     -16.867 -12.940  22.214  1.00  0.00     0.293 HD
ENDBRANCH   8  24
TORSDOF 5
ENDMDL
