MODEL 1
REMARK VINA RESULT:    -3.648      0.000      0.000
REMARK INTER + INTRA:          -3.861
REMARK INTER:                  -3.861
REMARK INTRA:                   0.000
REMARK UNBOUND:                 0.000
REMARK SMILES O=c1ccc2cc(O)c(O)cc2o1
REMARK SMILES IDX 4 1 3 2 2 3 1 4 13 5 12 6 11 7 9 8 7 9 6 10 5 11 8 12 10 14
REMARK H PARENT 8 13 10 15
REMARK Flexibility Score: inf
ROOT
ATOM      1  C   UNL     1     -10.125   4.144  -4.768  1.00  0.00     0.019 A 
ATOM      2  C   UNL     1     -10.121   2.754  -4.650  1.00  0.00     0.094 A 
ATOM      3  C   UNL     1     -10.113   1.975  -5.811  1.00  0.00     0.336 A 
ATOM      4  O   UNL     1     -10.109   0.719  -5.726  1.00  0.00    -0.246 OA
ATOM      5  O   UNL     1     -10.107   2.553  -7.010  1.00  0.00    -0.423 OA
ATOM      6  C   UNL     1     -10.110   3.875  -7.168  1.00  0.00     0.142 A 
ATOM      7  C   UNL     1     -10.103   4.426  -8.453  1.00  0.00     0.098 A 
ATOM      8  C   UNL     1     -10.107   5.818  -8.624  1.00  0.00     0.161 A 
ATOM      9  C   UNL     1     -10.116   6.662  -7.504  1.00  0.00     0.158 A 
ATOM     10  C   UNL     1     -10.121   6.115  -6.213  1.00  0.00     0.062 A 
ATOM     11  C   UNL     1     -10.118   4.725  -6.040  1.00  0.00     0.022 A 
ENDROOT
BRANCH   9  12
ATOM     12  O   UNL     1     -10.118   8.045  -7.684  1.00  0.00    -0.504 OA
ATOM     13  H   UNL     1     -10.608   8.477  -8.460  1.00  0.00     0.293 HD
ENDBRANCH   9  12
BRANCH   8  14
ATOM     14  O   UNL     1     -10.101   6.370  -9.904  1.00  0.00    -0.504 OA
ATOM     15  H   UNL     1      -9.243   6.687 -10.341  1.00  0.00     0.293 HD
ENDBRANCH   8  14
TORSDOF 2
ENDMDL
MODEL 2
REMARK VINA RESULT:    -3.390     12.055     13.864
REMARK INTER + INTRA:          -3.588
REMARK INTER:                  -3.588
REMARK INTRA:                   0.000
REMARK UNBOUND:                 0.000
REMARK SMILES O=c1ccc2cc(O)c(O)cc2o1
REMARK SMILES IDX 4 1 3 2 2 3 1 4 13 5 12 6 11 7 9 8 7 9 6 10 5 11 8 12 10 14
REMARK H PARENT 8 13 10 15
REMARK Flexibility Score: inf
ROOT
ATOM      1  C   UNL     1      -9.971  -9.116  -2.295  1.00  0.00     0.019 A 
ATOM      2  C   UNL     1      -9.928  -8.608  -3.593  1.00  0.00     0.094 A 
ATOM      3  C   UNL     1      -9.922  -7.222  -3.780  1.00  0.00     0.336 A 
ATOM      4  O   UNL     1      -9.884  -6.744  -4.944  1.00  0.00    -0.246 OA
ATOM      5  O   UNL     1      -9.956  -6.401  -2.732  1.00  0.00    -0.423 OA
ATOM      6  C   UNL     1      -9.996  -6.844  -1.477  1.00  0.00     0.142 A 
ATOM      7  C   UNL     1     -10.029  -5.934  -0.416  1.00  0.00     0.098 A 
ATOM      8  C   UNL     1     -10.072  -6.395   0.908  1.00  0.00     0.161 A 
ATOM      9  C   UNL     1     -10.081  -7.773   1.171  1.00  0.00     0.158 A 
ATOM     10  C   UNL     1     -10.047  -8.690   0.111  1.00  0.00     0.062 A 
ATOM     11  C   UNL     1     -10.004  -8.231  -1.213  1.00  0.00     0.022 A 
ENDROOT
BRANCH   9  12
ATOM     12  O   UNL     1     -10.124  -8.222   2.490  1.00  0.00    -0.504 OA
ATOM     13  H   UNL     1     -10.095  -7.576   3.271  1.00  0.00     0.293 HD
ENDBRANCH   9  12
BRANCH   8  14
ATOM     14  O   UNL     1     -10.105  -5.491   1.968  1.00  0.00    -0.504 OA
ATOM     15  H   UNL     1     -10.446  -4.544   1.846  1.00  0.00     0.293 HD
ENDBRANCH   8  14
TORSDOF 2
ENDMDL
MODEL 3
REMARK VINA RESULT:    -3.336     21.672     22.051
REMARK INTER + INTRA:          -3.531
REMARK INTER:                  -3.531
REMARK INTRA:                   0.000
REMARK UNBOUND:                 0.000
REMARK SMILES O=c1ccc2cc(O)c(O)cc2o1
REMARK SMILES IDX 4 1 3 2 2 3 1 4 13 5 12 6 11 7 9 8 7 9 6 10 5 11 8 12 10 14
REMARK H PARENT 8 13 10 15
REMARK Flexibility Score: inf
ROOT
ATOM      1  C   UNL     1       0.802  -7.152   7.767  1.00  0.00     0.019 A 
ATOM      2  C   UNL     1       1.521  -6.071   8.277  1.00  0.00     0.094 A 
ATOM      3  C   UNL     1       0.954  -5.299   9.296  1.00  0.00     0.336 A 
ATOM      4  O   UNL     1       1.588  -4.320   9.770  1.00  0.00    -0.246 OA
ATOM      5  O   UNL     1      -0.254  -5.593   9.770  1.00  0.00    -0.423 OA
ATOM      6  C   UNL     1      -0.973  -6.615   9.313  1.00  0.00     0.142 A 
ATOM      7  C   UNL     1      -2.238  -6.877   9.850  1.00  0.00     0.098 A 
ATOM      8  C   UNL     1      -3.000  -7.952   9.371  1.00  0.00     0.161 A 
ATOM      9  C   UNL     1      -2.495  -8.769   8.349  1.00  0.00     0.158 A 
ATOM     10  C   UNL     1      -1.228  -8.513   7.807  1.00  0.00     0.062 A 
ATOM     11  C   UNL     1      -0.465  -7.438   8.285  1.00  0.00     0.022 A 
ENDROOT
BRANCH   9  12
ATOM     12  O   UNL     1      -3.260  -9.836   7.880  1.00  0.00    -0.504 OA
ATOM     13  H   UNL     1      -4.226  -9.713   7.602  1.00  0.00     0.293 HD
ENDBRANCH   9  12
BRANCH   8  14
ATOM     14  O   UNL     1      -4.260  -8.214   9.905  1.00  0.00    -0.504 OA
ATOM     15  H   UNL     1      -4.461  -9.083  10.388  1.00  0.00     0.293 HD
ENDBRANCH   8  14
TORSDOF 2
ENDMDL
MODEL 4
REMARK VINA RESULT:    -3.304      2.502      3.870
REMARK INTER + INTRA:          -3.498
REMARK INTER:                  -3.498
REMARK INTRA:                   0.000
REMARK UNBOUND:                 0.000
REMARK SMILES O=c1ccc2cc(O)c(O)cc2o1
REMARK SMILES IDX 4 1 3 2 2 3 1 4 13 5 12 6 11 7 9 8 7 9 6 10 5 11 8 12 10 14
REMARK H PARENT 8 13 10 15
REMARK Flexibility Score: inf
ROOT
ATOM      1  C   UNL     1      -7.545   5.207  -9.368  1.00  0.00     0.019 A 
ATOM      2  C   UNL     1      -8.210   4.045  -8.976  1.00  0.00     0.094 A 
ATOM      3  C   UNL     1      -9.486   4.150  -8.414  1.00  0.00     0.336 A 
ATOM      4  O   UNL     1     -10.103   3.113  -8.055  1.00  0.00    -0.246 OA
ATOM      5  O   UNL     1     -10.057   5.343  -8.257  1.00  0.00    -0.423 OA
ATOM      6  C   UNL     1      -9.458   6.475  -8.618  1.00  0.00     0.142 A 
ATOM      7  C   UNL     1     -10.107   7.700  -8.429  1.00  0.00     0.098 A 
ATOM      8  C   UNL     1      -9.481   8.896  -8.807  1.00  0.00     0.161 A 
ATOM      9  C   UNL     1      -8.199   8.868  -9.377  1.00  0.00     0.158 A 
ATOM     10  C   UNL     1      -7.544   7.643  -9.570  1.00  0.00     0.062 A 
ATOM     11  C   UNL     1      -8.169   6.446  -9.192  1.00  0.00     0.022 A 
ENDROOT
BRANCH   9  12
ATOM     12  O   UNL     1      -7.584  10.062  -9.750  1.00  0.00    -0.504 OA
ATOM     13  H   UNL     1      -7.206  10.194 -10.681  1.00  0.00     0.293 HD
ENDBRANCH   9  12
BRANCH   8  14
ATOM     14  O   UNL     1     -10.125  10.118  -8.620  1.00  0.00    -0.504 OA
ATOM     15  H   UNL     1     -10.218  10.790  -9.373  1.00  0.00     0.293 HD
ENDBRANCH   8  14
TORSDOF 2
ENDMDL
MODEL 5
REMARK VINA RESULT:    -3.269     13.066     14.467
REMARK INTER + INTRA:          -3.460
REMARK INTER:                  -3.460
REMARK INTRA:                   0.000
REMARK UNBOUND:                 0.000
REMARK SMILES O=c1ccc2cc(O)c(O)cc2o1
REMARK SMILES IDX 4 1 3 2 2 3 1 4 13 5 12 6 11 7 9 8 7 9 6 10 5 11 8 12 10 14
REMARK H PARENT 8 13 10 15
REMARK Flexibility Score: inf
ROOT
ATOM      1  C   UNL     1      -9.999  -6.239  -1.084  1.00  0.00     0.019 A 
ATOM      2  C   UNL     1      -9.970  -7.308  -1.980  1.00  0.00     0.094 A 
ATOM      3  C   UNL     1      -9.971  -8.613  -1.480  1.00  0.00     0.336 A 
ATOM      4  O   UNL     1      -9.944  -9.591  -2.273  1.00  0.00    -0.246 OA
ATOM      5  O   UNL     1     -10.001  -8.831  -0.167  1.00  0.00    -0.423 OA
ATOM      6  C   UNL     1     -10.031  -7.841   0.722  1.00  0.00     0.142 A 
ATOM      7  C   UNL     1     -10.062  -8.131   2.090  1.00  0.00     0.098 A 
ATOM      8  C   UNL     1     -10.093  -7.092   3.031  1.00  0.00     0.161 A 
ATOM      9  C   UNL     1     -10.093  -5.756   2.602  1.00  0.00     0.158 A 
ATOM     10  C   UNL     1     -10.063  -5.460   1.232  1.00  0.00     0.062 A 
ATOM     11  C   UNL     1     -10.031  -6.497   0.290  1.00  0.00     0.022 A 
ENDROOT
BRANCH   9  12
ATOM     12  O   UNL     1     -10.125  -4.730   3.545  1.00  0.00    -0.504 OA
ATOM     13  H   UNL     1      -9.398  -4.631   4.244  1.00  0.00     0.293 HD
ENDBRANCH   9  12
BRANCH   8  14
ATOM     14  O   UNL     1     -10.124  -7.378   4.395  1.00  0.00    -0.504 OA
ATOM     15  H   UNL     1     -10.709  -6.852   5.034  1.00  0.00     0.293 HD
ENDBRANCH   8  14
TORSDOF 2
ENDMDL
MODEL 6
REMARK VINA RESULT:    -3.230      6.146      7.261
REMARK INTER + INTRA:          -3.419
REMARK INTER:                  -3.419
REMARK INTRA:                   0.000
REMARK UNBOUND:                 0.000
REMARK SMILES O=c1ccc2cc(O)c(O)cc2o1
REMARK SMILES IDX 4 1 3 2 2 3 1 4 13 5 12 6 11 7 9 8 7 9 6 10 5 11 8 12 10 14
REMARK H PARENT 8 13 10 15
REMARK Flexibility Score: inf
ROOT
ATOM      1  C   UNL     1     -10.124   9.007   0.010  1.00  0.00     0.019 A 
ATOM      2  C   UNL     1     -10.022   8.783   1.383  1.00  0.00     0.094 A 
ATOM      3  C   UNL     1      -9.831   7.477   1.845  1.00  0.00     0.336 A 
ATOM      4  O   UNL     1      -9.737   7.254   3.081  1.00  0.00    -0.246 OA
ATOM      5  O   UNL     1      -9.746   6.464   0.986  1.00  0.00    -0.423 OA
ATOM      6  C   UNL     1      -9.837   6.634  -0.331  1.00  0.00     0.142 A 
ATOM      7  C   UNL     1      -9.739   5.532  -1.187  1.00  0.00     0.098 A 
ATOM      8  C   UNL     1      -9.834   5.706  -2.575  1.00  0.00     0.161 A 
ATOM      9  C   UNL     1     -10.027   6.988  -3.111  1.00  0.00     0.158 A 
ATOM     10  C   UNL     1     -10.124   8.097  -2.258  1.00  0.00     0.062 A 
ATOM     11  C   UNL     1     -10.030   7.925  -0.870  1.00  0.00     0.022 A 
ENDROOT
BRANCH   9  12
ATOM     12  O   UNL     1     -10.120   7.151  -4.492  1.00  0.00    -0.504 OA
ATOM     13  H   UNL     1     -10.992   6.995  -4.986  1.00  0.00     0.293 HD
ENDBRANCH   9  12
BRANCH   8  14
ATOM     14  O   UNL     1      -9.738   4.609  -3.430  1.00  0.00    -0.504 OA
ATOM     15  H   UNL     1      -9.283   4.678  -4.333  1.00  0.00     0.293 HD
ENDBRANCH   8  14
TORSDOF 2
ENDMDL
MODEL 7
REMARK VINA RESULT:    -3.207      5.288      6.890
REMARK INTER + INTRA:          -3.394
REMARK INTER:                  -3.394
REMARK INTRA:                   0.000
REMARK UNBOUND:                 0.000
REMARK SMILES O=c1ccc2cc(O)c(O)cc2o1
REMARK SMILES IDX 4 1 3 2 2 3 1 4 13 5 12 6 11 7 9 8 7 9 6 10 5 11 8 12 10 14
REMARK H PARENT 8 13 10 15
REMARK Flexibility Score: inf
ROOT
ATOM      1  C   UNL     1      -9.752   6.342   0.351  1.00  0.00     0.019 A 
ATOM      2  C   UNL     1      -9.825   7.442   1.206  1.00  0.00     0.094 A 
ATOM      3  C   UNL     1      -9.983   8.718   0.658  1.00  0.00     0.336 A 
ATOM      4  O   UNL     1     -10.052   9.723   1.414  1.00  0.00    -0.246 OA
ATOM      5  O   UNL     1     -10.064   8.880  -0.660  1.00  0.00    -0.423 OA
ATOM      6  C   UNL     1     -10.000   7.859  -1.512  1.00  0.00     0.142 A 
ATOM      7  C   UNL     1     -10.091   8.089  -2.888  1.00  0.00     0.098 A 
ATOM      8  C   UNL     1     -10.023   7.017  -3.789  1.00  0.00     0.161 A 
ATOM      9  C   UNL     1      -9.864   5.708  -3.312  1.00  0.00     0.158 A 
ATOM     10  C   UNL     1      -9.774   5.471  -1.933  1.00  0.00     0.062 A 
ATOM     11  C   UNL     1      -9.841   6.541  -1.031  1.00  0.00     0.022 A 
ENDROOT
BRANCH   9  12
ATOM     12  O   UNL     1      -9.799   4.648  -4.215  1.00  0.00    -0.504 OA
ATOM     13  H   UNL     1     -10.000   3.696  -3.930  1.00  0.00     0.293 HD
ENDBRANCH   9  12
BRANCH   8  14
ATOM     14  O   UNL     1     -10.113   7.244  -5.162  1.00  0.00    -0.504 OA
ATOM     15  H   UNL     1     -10.160   6.478  -5.824  1.00  0.00     0.293 HD
ENDBRANCH   8  14
TORSDOF 2
ENDMDL
