MODEL 1
REMARK VINA RESULT:    -6.060      0.000      0.000
REMARK INTER + INTRA:          -6.467
REMARK INTER:                  -6.591
REMARK INTRA:                   0.124
REMARK UNBOUND:                 0.124
REMARK SMILES C[C@@H]1[C@H]2C3=CC[C@@H]4[C@]5(C)CC[C@@H](O)C(C)(C)[C@@H]5CC[C@@]4(C)[C@@]3(C)CC[C@@]2(C(=O)[O-])CC[C@@H]1C
REMARK SMILES IDX 26 1 30 2 25 3 3 4 31 5 24 6 4 7 2 8 32 9 22 10 5 11 1 12
REMARK SMILES IDX 33 13 23 14 20 15 6 16 7 17 19 18 21 19 8 20 18 21 17 22
REMARK SMILES IDX 10 23 9 24 14 25 11 26 12 27 15 28 16 29 27 30 28 31 29 32
REMARK SMILES IDX 13 33
REMARK H PARENT 13 34
REMARK Flexibility Score: inf
ROOT
ATOM      1  C   UNL     1      -5.477 -54.930 -33.536  1.00  0.00     0.017 C 
ATOM      2  C   UNL     1      -4.684 -54.900 -32.188  1.00  0.00     0.014 C 
ATOM      3  C   UNL     1      -6.403 -56.204 -33.512  1.00  0.00     0.014 C 
ATOM      4  C   UNL     1      -4.475 -54.904 -34.774  1.00  0.00     0.030 C 
ATOM      5  C   UNL     1      -3.646 -53.767 -32.099  1.00  0.00     0.004 C 
ATOM      6  C   UNL     1      -5.792 -57.516 -34.045  1.00  0.00     0.013 C 
ATOM      7  C   UNL     1      -3.996 -56.328 -35.153  1.00  0.00    -0.063 C 
ATOM      8  C   UNL     1      -3.333 -53.824 -34.653  1.00  0.00    -0.003 C 
ATOM      9  C   UNL     1      -2.639 -53.817 -33.252  1.00  0.00    -0.011 C 
ATOM     10  C   UNL     1      -5.090 -57.364 -35.434  1.00  0.00    -0.006 C 
ATOM     11  C   UNL     1      -2.706 -56.731 -34.963  1.00  0.00    -0.027 C 
ATOM     12  C   UNL     1      -3.814 -52.415 -35.075  1.00  0.00     0.008 C 
ATOM     13  C   UNL     1      -1.598 -52.692 -33.109  1.00  0.00     0.008 C 
ATOM     14  C   UNL     1      -6.150 -56.803 -36.453  1.00  0.00     0.017 C 
ATOM     15  C   UNL     1      -4.438 -58.724 -36.029  1.00  0.00    -0.020 C 
ATOM     16  C   UNL     1      -2.220 -58.158 -34.900  1.00  0.00     0.032 C 
ATOM     17  C   UNL     1      -3.322 -59.242 -35.056  1.00  0.00     0.006 C 
ATOM     18  C   UNL     1      -5.522 -59.830 -36.174  1.00  0.00     0.008 C 
ATOM     19  C   UNL     1      -3.812 -58.429 -37.447  1.00  0.00     0.012 C 
ATOM     20  C   UNL     1      -2.783 -60.748 -35.236  1.00  0.00    -0.025 C 
ATOM     21  C   UNL     1      -4.974 -61.217 -36.491  1.00  0.00     0.005 C 
ATOM     22  C   UNL     1      -4.008 -61.751 -35.394  1.00  0.00     0.003 C 
ATOM     23  C   UNL     1      -1.824 -60.944 -36.451  1.00  0.00     0.010 C 
ATOM     24  C   UNL     1      -1.978 -61.055 -33.931  1.00  0.00     0.012 C 
ATOM     25  C   UNL     1      -3.606 -63.278 -35.656  1.00  0.00    -0.006 C 
ATOM     26  C   UNL     1      -1.371 -62.401 -36.653  1.00  0.00     0.033 C 
ATOM     27  C   UNL     1      -2.566 -63.354 -36.824  1.00  0.00     0.120 C 
ATOM     28  C   UNL     1      -4.845 -64.121 -36.084  1.00  0.00     0.014 C 
ATOM     29  C   UNL     1      -3.063 -63.965 -34.354  1.00  0.00     0.014 C 
ENDROOT
BRANCH   1  30
ATOM     30  C   UNL     1      -6.492 -53.790 -33.655  1.00  0.00     0.048 C 
ATOM     31  O   UNL     1      -7.156 -53.549 -34.693  1.00  0.00    -0.550 OA
ATOM     32  O   UNL     1      -7.216 -53.542 -34.820  1.00  0.00    -0.550 OA
ENDBRANCH   1  30
BRANCH  27  33
ATOM     33  O   UNL     1      -2.132 -64.674 -37.043  1.00  0.00    -0.393 OA
ATOM     34  H   UNL     1      -2.711 -65.283 -36.522  1.00  0.00     0.210 HD
ENDBRANCH  27  33
TORSDOF 2
ENDMDL
MODEL 2
REMARK VINA RESULT:    -5.714      1.452      8.287
REMARK INTER + INTRA:          -6.091
REMARK INTER:                  -6.270
REMARK INTRA:                   0.179
REMARK UNBOUND:                 0.124
REMARK SMILES C[C@@H]1[C@H]2C3=CC[C@@H]4[C@]5(C)CC[C@@H](O)C(C)(C)[C@@H]5CC[C@@]4(C)[C@@]3(C)CC[C@@]2(C(=O)[O-])CC[C@@H]1C
REMARK SMILES IDX 26 1 30 2 25 3 3 4 31 5 24 6 4 7 2 8 32 9 22 10 5 11 1 12
REMARK SMILES IDX 33 13 23 14 20 15 6 16 7 17 19 18 21 19 8 20 18 21 17 22
REMARK SMILES IDX 10 23 9 24 14 25 11 26 12 27 15 28 16 29 27 30 28 31 29 32
REMARK SMILES IDX 13 33
REMARK H PARENT 13 34
REMARK Flexibility Score: inf
ROOT
ATOM      1  C   UNL     1      -1.732 -61.535 -36.181  1.00  0.00     0.017 C 
ATOM      2  C   UNL     1      -1.848 -62.160 -34.752  1.00  0.00     0.014 C 
ATOM      3  C   UNL     1      -0.889 -60.211 -36.051  1.00  0.00     0.014 C 
ATOM      4  C   UNL     1      -3.178 -61.300 -36.807  1.00  0.00     0.030 C 
ATOM      5  C   UNL     1      -2.743 -63.411 -34.689  1.00  0.00     0.004 C 
ATOM      6  C   UNL     1      -1.670 -58.918 -35.739  1.00  0.00     0.013 C 
ATOM      7  C   UNL     1      -3.774 -59.935 -36.379  1.00  0.00    -0.063 C 
ATOM      8  C   UNL     1      -4.151 -62.531 -36.655  1.00  0.00    -0.003 C 
ATOM      9  C   UNL     1      -4.155 -63.137 -35.214  1.00  0.00    -0.011 C 
ATOM     10  C   UNL     1      -2.913 -58.697 -36.662  1.00  0.00    -0.006 C 
ATOM     11  C   UNL     1      -4.846 -59.845 -35.540  1.00  0.00    -0.027 C 
ATOM     12  C   UNL     1      -3.909 -63.606 -37.741  1.00  0.00     0.008 C 
ATOM     13  C   UNL     1      -5.027 -64.400 -35.101  1.00  0.00     0.008 C 
ATOM     14  C   UNL     1      -2.413 -58.686 -38.154  1.00  0.00     0.017 C 
ATOM     15  C   UNL     1      -3.759 -57.346 -36.367  1.00  0.00    -0.020 C 
ATOM     16  C   UNL     1      -5.251 -58.630 -34.742  1.00  0.00     0.032 C 
ATOM     17  C   UNL     1      -4.330 -57.390 -34.907  1.00  0.00     0.006 C 
ATOM     18  C   UNL     1      -2.849 -56.092 -36.506  1.00  0.00     0.008 C 
ATOM     19  C   UNL     1      -4.948 -57.235 -37.399  1.00  0.00     0.012 C 
ATOM     20  C   UNL     1      -4.890 -56.027 -34.258  1.00  0.00    -0.025 C 
ATOM     21  C   UNL     1      -3.478 -54.794 -36.012  1.00  0.00     0.005 C 
ATOM     22  C   UNL     1      -3.859 -54.841 -34.504  1.00  0.00     0.003 C 
ATOM     23  C   UNL     1      -6.287 -55.589 -34.797  1.00  0.00     0.010 C 
ATOM     24  C   UNL     1      -5.036 -56.330 -32.730  1.00  0.00     0.012 C 
ATOM     25  C   UNL     1      -4.333 -53.408 -33.972  1.00  0.00    -0.006 C 
ATOM     26  C   UNL     1      -6.780 -54.250 -34.221  1.00  0.00     0.033 C 
ATOM     27  C   UNL     1      -5.782 -53.110 -34.485  1.00  0.00     0.120 C 
ATOM     28  C   UNL     1      -3.409 -52.274 -34.510  1.00  0.00     0.014 C 
ATOM     29  C   UNL     1      -4.243 -53.314 -32.408  1.00  0.00     0.014 C 
ENDROOT
BRANCH   1  30
ATOM     30  C   UNL     1      -0.876 -62.376 -37.131  1.00  0.00     0.048 C 
ATOM     31  O   UNL     1      -0.878 -62.242 -38.379  1.00  0.00    -0.550 OA
ATOM     32  O   UNL     1      -0.898 -62.208 -38.515  1.00  0.00    -0.550 OA
ENDBRANCH   1  30
BRANCH  27  33
ATOM     33  O   UNL     1      -6.265 -51.888 -33.983  1.00  0.00    -0.393 OA
ATOM     34  H   UNL     1      -6.680 -51.386 -34.728  1.00  0.00     0.210 HD
ENDBRANCH  27  33
TORSDOF 2
ENDMDL
MODEL 3
REMARK VINA RESULT:    -5.344      1.848      3.406
REMARK INTER + INTRA:          -5.688
REMARK INTER:                  -5.807
REMARK INTRA:                   0.119
REMARK UNBOUND:                 0.124
REMARK SMILES C[C@@H]1[C@H]2C3=CC[C@@H]4[C@]5(C)CC[C@@H](O)C(C)(C)[C@@H]5CC[C@@]4(C)[C@@]3(C)CC[C@@]2(C(=O)[O-])CC[C@@H]1C
REMARK SMILES IDX 26 1 30 2 25 3 3 4 31 5 24 6 4 7 2 8 32 9 22 10 5 11 1 12
REMARK SMILES IDX 33 13 23 14 20 15 6 16 7 17 19 18 21 19 8 20 18 21 17 22
REMARK SMILES IDX 10 23 9 24 14 25 11 26 12 27 15 28 16 29 27 30 28 31 29 32
REMARK SMILES IDX 13 33
REMARK H PARENT 13 34
REMARK Flexibility Score: inf
ROOT
ATOM      1  C   UNL     1      -5.810 -55.431 -36.109  1.00  0.00     0.017 C 
ATOM      2  C   UNL     1      -7.266 -55.969 -35.914  1.00  0.00     0.014 C 
ATOM      3  C   UNL     1      -5.319 -55.901 -37.530  1.00  0.00     0.014 C 
ATOM      4  C   UNL     1      -4.868 -55.926 -34.924  1.00  0.00     0.030 C 
ATOM      5  C   UNL     1      -7.854 -55.687 -34.520  1.00  0.00     0.004 C 
ATOM      6  C   UNL     1      -4.633 -57.279 -37.608  1.00  0.00     0.013 C 
ATOM      7  C   UNL     1      -4.271 -57.327 -35.213  1.00  0.00    -0.063 C 
ATOM      8  C   UNL     1      -5.497 -55.751 -33.489  1.00  0.00    -0.003 C 
ATOM      9  C   UNL     1      -6.975 -56.251 -33.400  1.00  0.00    -0.011 C 
ATOM     10  C   UNL     1      -3.513 -57.485 -36.536  1.00  0.00    -0.006 C 
ATOM     11  C   UNL     1      -4.638 -58.431 -34.500  1.00  0.00    -0.027 C 
ATOM     12  C   UNL     1      -5.334 -54.309 -32.951  1.00  0.00     0.008 C 
ATOM     13  C   UNL     1      -7.614 -55.980 -32.025  1.00  0.00     0.008 C 
ATOM     14  C   UNL     1      -2.452 -56.337 -36.719  1.00  0.00     0.017 C 
ATOM     15  C   UNL     1      -2.765 -58.922 -36.587  1.00  0.00    -0.020 C 
ATOM     16  C   UNL     1      -4.460 -59.866 -34.928  1.00  0.00     0.032 C 
ATOM     17  C   UNL     1      -3.805 -60.066 -36.323  1.00  0.00     0.006 C 
ATOM     18  C   UNL     1      -2.120 -59.152 -37.984  1.00  0.00     0.008 C 
ATOM     19  C   UNL     1      -1.636 -58.966 -35.486  1.00  0.00     0.012 C 
ATOM     20  C   UNL     1      -3.389 -61.581 -36.675  1.00  0.00    -0.025 C 
ATOM     21  C   UNL     1      -1.606 -60.568 -38.220  1.00  0.00     0.005 C 
ATOM     22  C   UNL     1      -2.726 -61.643 -38.120  1.00  0.00     0.003 C 
ATOM     23  C   UNL     1      -2.407 -62.229 -35.652  1.00  0.00     0.010 C 
ATOM     24  C   UNL     1      -4.726 -62.392 -36.641  1.00  0.00     0.012 C 
ATOM     25  C   UNL     1      -2.197 -63.087 -38.563  1.00  0.00    -0.006 C 
ATOM     26  C   UNL     1      -1.963 -63.652 -36.036  1.00  0.00     0.033 C 
ATOM     27  C   UNL     1      -1.306 -63.691 -37.426  1.00  0.00     0.120 C 
ATOM     28  C   UNL     1      -1.315 -62.995 -39.844  1.00  0.00     0.014 C 
ATOM     29  C   UNL     1      -3.381 -64.046 -38.940  1.00  0.00     0.014 C 
ENDROOT
BRANCH   1  30
ATOM     30  C   UNL     1      -5.750 -53.906 -36.229  1.00  0.00     0.048 C 
ATOM     31  O   UNL     1      -4.681 -53.250 -36.279  1.00  0.00    -0.550 OA
ATOM     32  O   UNL     1      -4.549 -53.200 -36.281  1.00  0.00    -0.550 OA
ENDBRANCH   1  30
BRANCH  27  33
ATOM     33  O   UNL     1      -0.875 -64.992 -37.745  1.00  0.00    -0.393 OA
ATOM     34  H   UNL     1      -1.471 -65.638 -37.293  1.00  0.00     0.210 HD
ENDBRANCH  27  33
TORSDOF 2
ENDMDL
MODEL 4
REMARK VINA RESULT:    -5.214      1.643      8.385
REMARK INTER + INTRA:          -5.547
REMARK INTER:                  -5.798
REMARK INTRA:                   0.251
REMARK UNBOUND:                 0.124
REMARK SMILES C[C@@H]1[C@H]2C3=CC[C@@H]4[C@]5(C)CC[C@@H](O)C(C)(C)[C@@H]5CC[C@@]4(C)[C@@]3(C)CC[C@@]2(C(=O)[O-])CC[C@@H]1C
REMARK SMILES IDX 26 1 30 2 25 3 3 4 31 5 24 6 4 7 2 8 32 9 22 10 5 11 1 12
REMARK SMILES IDX 33 13 23 14 20 15 6 16 7 17 19 18 21 19 8 20 18 21 17 22
REMARK SMILES IDX 10 23 9 24 14 25 11 26 12 27 15 28 16 29 27 30 28 31 29 32
REMARK SMILES IDX 13 33
REMARK H PARENT 13 34
REMARK Flexibility Score: inf
ROOT
ATOM      1  C   UNL     1      -2.656 -62.299 -35.004  1.00  0.00     0.017 C 
ATOM      2  C   UNL     1      -3.833 -63.114 -34.376  1.00  0.00     0.014 C 
ATOM      3  C   UNL     1      -2.318 -61.119 -34.016  1.00  0.00     0.014 C 
ATOM      4  C   UNL     1      -3.039 -61.802 -36.468  1.00  0.00     0.030 C 
ATOM      5  C   UNL     1      -4.361 -64.246 -35.276  1.00  0.00     0.004 C 
ATOM      6  C   UNL     1      -3.100 -59.805 -34.210  1.00  0.00     0.013 C 
ATOM      7  C   UNL     1      -3.807 -60.456 -36.434  1.00  0.00    -0.063 C 
ATOM      8  C   UNL     1      -3.686 -62.917 -37.375  1.00  0.00    -0.003 C 
ATOM      9  C   UNL     1      -4.807 -63.729 -36.648  1.00  0.00    -0.011 C 
ATOM     10  C   UNL     1      -3.125 -59.301 -35.690  1.00  0.00    -0.006 C 
ATOM     11  C   UNL     1      -5.125 -60.366 -36.773  1.00  0.00    -0.027 C 
ATOM     12  C   UNL     1      -2.622 -63.837 -38.019  1.00  0.00     0.008 C 
ATOM     13  C   UNL     1      -5.360 -64.882 -37.505  1.00  0.00     0.008 C 
ATOM     14  C   UNL     1      -1.635 -59.124 -36.167  1.00  0.00     0.017 C 
ATOM     15  C   UNL     1      -3.936 -57.919 -35.935  1.00  0.00    -0.020 C 
ATOM     16  C   UNL     1      -6.065 -59.246 -36.400  1.00  0.00     0.032 C 
ATOM     17  C   UNL     1      -5.441 -58.114 -35.538  1.00  0.00     0.006 C 
ATOM     18  C   UNL     1      -3.339 -56.775 -35.064  1.00  0.00     0.008 C 
ATOM     19  C   UNL     1      -3.835 -57.513 -37.456  1.00  0.00     0.012 C 
ATOM     20  C   UNL     1      -6.362 -56.808 -35.348  1.00  0.00    -0.025 C 
ATOM     21  C   UNL     1      -4.175 -55.501 -35.031  1.00  0.00     0.005 C 
ATOM     22  C   UNL     1      -5.604 -55.730 -34.458  1.00  0.00     0.003 C 
ATOM     23  C   UNL     1      -6.796 -56.131 -36.685  1.00  0.00     0.010 C 
ATOM     24  C   UNL     1      -7.652 -57.318 -34.625  1.00  0.00     0.012 C 
ATOM     25  C   UNL     1      -6.384 -54.347 -34.254  1.00  0.00    -0.006 C 
ATOM     26  C   UNL     1      -7.618 -54.845 -36.488  1.00  0.00     0.033 C 
ATOM     27  C   UNL     1      -6.863 -53.805 -35.643  1.00  0.00     0.120 C 
ATOM     28  C   UNL     1      -5.456 -53.263 -33.629  1.00  0.00     0.014 C 
ATOM     29  C   UNL     1      -7.581 -54.502 -33.251  1.00  0.00     0.014 C 
ENDROOT
BRANCH   1  30
ATOM     30  C   UNL     1      -1.342 -63.083 -35.040  1.00  0.00     0.048 C 
ATOM     31  O   UNL     1      -0.903 -63.758 -34.078  1.00  0.00    -0.550 OA
ATOM     32  O   UNL     1      -0.875 -63.825 -33.956  1.00  0.00    -0.550 OA
ENDBRANCH   1  30
BRANCH  27  33
ATOM     33  O   UNL     1      -7.614 -52.624 -35.504  1.00  0.00    -0.393 OA
ATOM     34  H   UNL     1      -7.958 -52.366 -36.395  1.00  0.00     0.210 HD
ENDBRANCH  27  33
TORSDOF 2
ENDMDL
MODEL 5
REMARK VINA RESULT:    -5.061      1.758      8.278
REMARK INTER + INTRA:          -5.381
REMARK INTER:                  -5.504
REMARK INTRA:                   0.124
REMARK UNBOUND:                 0.124
REMARK SMILES C[C@@H]1[C@H]2C3=CC[C@@H]4[C@]5(C)CC[C@@H](O)C(C)(C)[C@@H]5CC[C@@]4(C)[C@@]3(C)CC[C@@]2(C(=O)[O-])CC[C@@H]1C
REMARK SMILES IDX 26 1 30 2 25 3 3 4 31 5 24 6 4 7 2 8 32 9 22 10 5 11 1 12
REMARK SMILES IDX 33 13 23 14 20 15 6 16 7 17 19 18 21 19 8 20 18 21 17 22
REMARK SMILES IDX 10 23 9 24 14 25 11 26 12 27 15 28 16 29 27 30 28 31 29 32
REMARK SMILES IDX 13 33
REMARK H PARENT 13 34
REMARK Flexibility Score: inf
ROOT
ATOM      1  C   UNL     1      -4.320 -63.430 -35.734  1.00  0.00     0.017 C 
ATOM      2  C   UNL     1      -5.334 -63.780 -34.596  1.00  0.00     0.014 C 
ATOM      3  C   UNL     1      -3.011 -62.885 -35.049  1.00  0.00     0.014 C 
ATOM      4  C   UNL     1      -4.968 -62.398 -36.760  1.00  0.00     0.030 C 
ATOM      5  C   UNL     1      -6.717 -64.226 -35.106  1.00  0.00     0.004 C 
ATOM      6  C   UNL     1      -2.952 -61.370 -34.769  1.00  0.00     0.013 C 
ATOM      7  C   UNL     1      -4.782 -60.932 -36.294  1.00  0.00    -0.063 C 
ATOM      8  C   UNL     1      -6.431 -62.775 -37.213  1.00  0.00    -0.003 C 
ATOM      9  C   UNL     1      -7.358 -63.178 -36.020  1.00  0.00    -0.011 C 
ATOM     10  C   UNL     1      -3.344 -60.488 -35.999  1.00  0.00    -0.006 C 
ATOM     11  C   UNL     1      -5.832 -60.166 -35.880  1.00  0.00    -0.027 C 
ATOM     12  C   UNL     1      -6.440 -63.831 -38.344  1.00  0.00     0.008 C 
ATOM     13  C   UNL     1      -8.751 -63.644 -36.480  1.00  0.00     0.008 C 
ATOM     14  C   UNL     1      -2.383 -60.860 -37.188  1.00  0.00     0.017 C 
ATOM     15  C   UNL     1      -3.291 -58.888 -35.745  1.00  0.00    -0.020 C 
ATOM     16  C   UNL     1      -5.745 -58.915 -35.041  1.00  0.00     0.032 C 
ATOM     17  C   UNL     1      -4.309 -58.500 -34.616  1.00  0.00     0.006 C 
ATOM     18  C   UNL     1      -1.866 -58.454 -35.297  1.00  0.00     0.008 C 
ATOM     19  C   UNL     1      -3.664 -58.131 -37.078  1.00  0.00     0.012 C 
ATOM     20  C   UNL     1      -4.188 -57.046 -33.936  1.00  0.00    -0.025 C 
ATOM     21  C   UNL     1      -1.768 -57.017 -34.796  1.00  0.00     0.005 C 
ATOM     22  C   UNL     1      -2.672 -56.745 -33.559  1.00  0.00     0.003 C 
ATOM     23  C   UNL     1      -4.718 -55.878 -34.824  1.00  0.00     0.010 C 
ATOM     24  C   UNL     1      -5.077 -57.118 -32.651  1.00  0.00     0.012 C 
ATOM     25  C   UNL     1      -2.401 -55.293 -32.941  1.00  0.00    -0.006 C 
ATOM     26  C   UNL     1      -4.533 -54.487 -34.192  1.00  0.00     0.033 C 
ATOM     27  C   UNL     1      -3.061 -54.203 -33.852  1.00  0.00     0.120 C 
ATOM     28  C   UNL     1      -0.876 -54.983 -32.878  1.00  0.00     0.014 C 
ATOM     29  C   UNL     1      -2.910 -55.192 -31.460  1.00  0.00     0.014 C 
ENDROOT
BRANCH   1  30
ATOM     30  C   UNL     1      -3.811 -64.666 -36.479  1.00  0.00     0.048 C 
ATOM     31  O   UNL     1      -3.106 -64.617 -37.517  1.00  0.00    -0.550 OA
ATOM     32  O   UNL     1      -3.030 -64.584 -37.631  1.00  0.00    -0.550 OA
ENDBRANCH   1  30
BRANCH  27  33
ATOM     33  O   UNL     1      -2.906 -52.915 -33.309  1.00  0.00    -0.393 OA
ATOM     34  H   UNL     1      -3.732 -52.401 -33.485  1.00  0.00     0.210 HD
ENDBRANCH  27  33
TORSDOF 2
ENDMDL
MODEL 6
REMARK VINA RESULT:    -4.653      1.834      8.238
REMARK INTER + INTRA:          -4.936
REMARK INTER:                  -5.160
REMARK INTRA:                   0.224
REMARK UNBOUND:                 0.124
REMARK SMILES C[C@@H]1[C@H]2C3=CC[C@@H]4[C@]5(C)CC[C@@H](O)C(C)(C)[C@@H]5CC[C@@]4(C)[C@@]3(C)CC[C@@]2(C(=O)[O-])CC[C@@H]1C
REMARK SMILES IDX 26 1 30 2 25 3 3 4 31 5 24 6 4 7 2 8 32 9 22 10 5 11 1 12
REMARK SMILES IDX 33 13 23 14 20 15 6 16 7 17 19 18 21 19 8 20 18 21 17 22
REMARK SMILES IDX 10 23 9 24 14 25 11 26 12 27 15 28 16 29 27 30 28 31 29 32
REMARK SMILES IDX 13 33
REMARK H PARENT 13 34
REMARK Flexibility Score: inf
ROOT
ATOM      1  C   UNL     1      -2.292 -61.428 -37.029  1.00  0.00     0.017 C 
ATOM      2  C   UNL     1      -0.885 -61.799 -36.458  1.00  0.00     0.014 C 
ATOM      3  C   UNL     1      -2.151 -60.047 -37.773  1.00  0.00     0.014 C 
ATOM      4  C   UNL     1      -3.380 -61.407 -35.865  1.00  0.00     0.030 C 
ATOM      5  C   UNL     1      -0.875 -63.079 -35.602  1.00  0.00     0.004 C 
ATOM      6  C   UNL     1      -2.355 -58.776 -36.923  1.00  0.00     0.013 C 
ATOM      7  C   UNL     1      -3.429 -60.032 -35.152  1.00  0.00    -0.063 C 
ATOM      8  C   UNL     1      -3.317 -62.656 -34.905  1.00  0.00    -0.003 C 
ATOM      9  C   UNL     1      -1.865 -62.999 -34.436  1.00  0.00    -0.011 C 
ATOM     10  C   UNL     1      -3.650 -58.807 -36.047  1.00  0.00    -0.006 C 
ATOM     11  C   UNL     1      -3.009 -59.870 -33.864  1.00  0.00    -0.027 C 
ATOM     12  C   UNL     1      -4.045 -63.886 -35.497  1.00  0.00     0.008 C 
ATOM     13  C   UNL     1      -1.801 -64.280 -33.585  1.00  0.00     0.008 C 
ATOM     14  C   UNL     1      -4.878 -59.023 -37.007  1.00  0.00     0.017 C 
ATOM     15  C   UNL     1      -3.901 -57.487 -35.141  1.00  0.00    -0.020 C 
ATOM     16  C   UNL     1      -2.626 -58.565 -33.211  1.00  0.00     0.032 C 
ATOM     17  C   UNL     1      -2.718 -57.313 -34.126  1.00  0.00     0.006 C 
ATOM     18  C   UNL     1      -3.975 -56.216 -36.037  1.00  0.00     0.008 C 
ATOM     19  C   UNL     1      -5.259 -57.640 -34.353  1.00  0.00     0.012 C 
ATOM     20  C   UNL     1      -2.551 -55.899 -33.373  1.00  0.00    -0.025 C 
ATOM     21  C   UNL     1      -3.962 -54.898 -35.271  1.00  0.00     0.005 C 
ATOM     22  C   UNL     1      -2.674 -54.707 -34.419  1.00  0.00     0.003 C 
ATOM     23  C   UNL     1      -3.579 -55.660 -32.226  1.00  0.00     0.010 C 
ATOM     24  C   UNL     1      -1.121 -55.938 -32.740  1.00  0.00     0.012 C 
ATOM     25  C   UNL     1      -2.600 -53.238 -33.786  1.00  0.00    -0.006 C 
ATOM     26  C   UNL     1      -3.454 -54.277 -31.561  1.00  0.00     0.033 C 
ATOM     27  C   UNL     1      -3.596 -53.135 -32.581  1.00  0.00     0.120 C 
ATOM     28  C   UNL     1      -3.018 -52.156 -34.826  1.00  0.00     0.014 C 
ATOM     29  C   UNL     1      -1.137 -52.866 -33.359  1.00  0.00     0.014 C 
ENDROOT
BRANCH   1  30
ATOM     30  C   UNL     1      -2.743 -62.363 -38.155  1.00  0.00     0.048 C 
ATOM     31  O   UNL     1      -1.974 -62.818 -39.037  1.00  0.00    -0.550 OA
ATOM     32  O   UNL     1      -1.869 -62.854 -39.124  1.00  0.00    -0.550 OA
ENDBRANCH   1  30
BRANCH  27  33
ATOM     33  O   UNL     1      -3.514 -51.881 -31.951  1.00  0.00    -0.393 OA
ATOM     34  H   UNL     1      -4.056 -51.235 -32.468  1.00  0.00     0.210 HD
ENDBRANCH  27  33
TORSDOF 2
ENDMDL
MODEL 7
REMARK VINA RESULT:    -4.381      2.192      8.553
REMARK INTER + INTRA:          -4.641
REMARK INTER:                  -4.844
REMARK INTRA:                   0.203
REMARK UNBOUND:                 0.124
REMARK SMILES C[C@@H]1[C@H]2C3=CC[C@@H]4[C@]5(C)CC[C@@H](O)C(C)(C)[C@@H]5CC[C@@]4(C)[C@@]3(C)CC[C@@]2(C(=O)[O-])CC[C@@H]1C
REMARK SMILES IDX 26 1 30 2 25 3 3 4 31 5 24 6 4 7 2 8 32 9 22 10 5 11 1 12
REMARK SMILES IDX 33 13 23 14 20 15 6 16 7 17 19 18 21 19 8 20 18 21 17 22
REMARK SMILES IDX 10 23 9 24 14 25 11 26 12 27 15 28 16 29 27 30 28 31 29 32
REMARK SMILES IDX 13 33
REMARK H PARENT 13 34
REMARK Flexibility Score: inf
ROOT
ATOM      1  C   UNL     1      -5.971 -62.740 -36.293  1.00  0.00     0.017 C 
ATOM      2  C   UNL     1      -5.596 -63.337 -34.898  1.00  0.00     0.014 C 
ATOM      3  C   UNL     1      -4.800 -61.780 -36.726  1.00  0.00     0.014 C 
ATOM      4  C   UNL     1      -7.387 -62.013 -36.227  1.00  0.00     0.030 C 
ATOM      5  C   UNL     1      -6.696 -64.219 -34.279  1.00  0.00     0.004 C 
ATOM      6  C   UNL     1      -4.899 -60.311 -36.266  1.00  0.00     0.013 C 
ATOM      7  C   UNL     1      -7.256 -60.543 -35.756  1.00  0.00    -0.063 C 
ATOM      8  C   UNL     1      -8.505 -62.851 -35.497  1.00  0.00    -0.003 C 
ATOM      9  C   UNL     1      -8.025 -63.469 -34.144  1.00  0.00    -0.011 C 
ATOM     10  C   UNL     1      -6.290 -59.656 -36.551  1.00  0.00    -0.006 C 
ATOM     11  C   UNL     1      -7.725 -60.127 -34.544  1.00  0.00    -0.027 C 
ATOM     12  C   UNL     1      -9.145 -63.909 -36.428  1.00  0.00     0.008 C 
ATOM     13  C   UNL     1      -9.088 -64.371 -33.490  1.00  0.00     0.008 C 
ATOM     14  C   UNL     1      -6.567 -59.763 -38.097  1.00  0.00     0.017 C 
ATOM     15  C   UNL     1      -6.432 -58.110 -36.084  1.00  0.00    -0.020 C 
ATOM     16  C   UNL     1      -7.310 -58.874 -33.812  1.00  0.00     0.032 C 
ATOM     17  C   UNL     1      -6.238 -58.010 -34.531  1.00  0.00     0.006 C 
ATOM     18  C   UNL     1      -5.352 -57.230 -36.776  1.00  0.00     0.008 C 
ATOM     19  C   UNL     1      -7.863 -57.573 -36.476  1.00  0.00     0.012 C 
ATOM     20  C   UNL     1      -5.975 -56.561 -33.880  1.00  0.00    -0.025 C 
ATOM     21  C   UNL     1      -5.239 -55.813 -36.224  1.00  0.00     0.005 C 
ATOM     22  C   UNL     1      -4.867 -55.781 -34.713  1.00  0.00     0.003 C 
ATOM     23  C   UNL     1      -7.247 -55.662 -33.785  1.00  0.00     0.010 C 
ATOM     24  C   UNL     1      -5.478 -56.848 -32.425  1.00  0.00     0.012 C 
ATOM     25  C   UNL     1      -4.565 -54.291 -34.214  1.00  0.00    -0.006 C 
ATOM     26  C   UNL     1      -6.970 -54.256 -33.226  1.00  0.00     0.033 C 
ATOM     27  C   UNL     1      -5.912 -53.507 -34.054  1.00  0.00     0.120 C 
ATOM     28  C   UNL     1      -3.698 -53.514 -35.249  1.00  0.00     0.014 C 
ATOM     29  C   UNL     1      -3.733 -54.285 -32.883  1.00  0.00     0.014 C 
ENDROOT
BRANCH   1  30
ATOM     30  C   UNL     1      -5.967 -63.787 -37.410  1.00  0.00     0.048 C 
ATOM     31  O   UNL     1      -5.222 -64.798 -37.419  1.00  0.00    -0.550 OA
ATOM     32  O   UNL     1      -5.128 -64.901 -37.397  1.00  0.00    -0.550 OA
ENDBRANCH   1  30
BRANCH  27  33
ATOM     33  O   UNL     1      -5.698 -52.212 -33.550  1.00  0.00    -0.393 OA
ATOM     34  H   UNL     1      -5.046 -51.752 -34.135  1.00  0.00     0.210 HD
ENDBRANCH  27  33
TORSDOF 2
ENDMDL
MODEL 8
REMARK VINA RESULT:    -3.651     10.051     14.691
REMARK INTER + INTRA:          -3.846
REMARK INTER:                  -4.080
REMARK INTRA:                   0.233
REMARK UNBOUND:                 0.124
REMARK SMILES C[C@@H]1[C@H]2C3=CC[C@@H]4[C@]5(C)CC[C@@H](O)C(C)(C)[C@@H]5CC[C@@]4(C)[C@@]3(C)CC[C@@]2(C(=O)[O-])CC[C@@H]1C
REMARK SMILES IDX 26 1 30 2 25 3 3 4 31 5 24 6 4 7 2 8 32 9 22 10 5 11 1 12
REMARK SMILES IDX 33 13 23 14 20 15 6 16 7 17 19 18 21 19 8 20 18 21 17 22
REMARK SMILES IDX 10 23 9 24 14 25 11 26 12 27 15 28 16 29 27 30 28 31 29 32
REMARK SMILES IDX 13 33
REMARK H PARENT 13 34
REMARK Flexibility Score: inf
ROOT
ATOM      1  C   UNL     1      -4.419 -69.103 -23.460  1.00  0.00     0.017 C 
ATOM      2  C   UNL     1      -5.948 -68.957 -23.752  1.00  0.00     0.014 C 
ATOM      3  C   UNL     1      -3.914 -67.727 -22.885  1.00  0.00     0.014 C 
ATOM      4  C   UNL     1      -3.641 -69.559 -24.774  1.00  0.00     0.030 C 
ATOM      5  C   UNL     1      -6.577 -70.190 -24.426  1.00  0.00     0.004 C 
ATOM      6  C   UNL     1      -3.440 -66.677 -23.911  1.00  0.00     0.013 C 
ATOM      7  C   UNL     1      -3.245 -68.347 -25.655  1.00  0.00    -0.063 C 
ATOM      8  C   UNL     1      -4.328 -70.750 -25.546  1.00  0.00    -0.003 C 
ATOM      9  C   UNL     1      -5.867 -70.555 -25.734  1.00  0.00    -0.011 C 
ATOM     10  C   UNL     1      -2.435 -67.241 -24.969  1.00  0.00    -0.006 C 
ATOM     11  C   UNL     1      -3.820 -68.118 -26.871  1.00  0.00    -0.027 C 
ATOM     12  C   UNL     1      -3.985 -72.125 -24.924  1.00  0.00     0.008 C 
ATOM     13  C   UNL     1      -6.546 -71.768 -26.395  1.00  0.00     0.008 C 
ATOM     14  C   UNL     1      -1.203 -67.841 -24.194  1.00  0.00     0.017 C 
ATOM     15  C   UNL     1      -1.911 -66.166 -26.063  1.00  0.00    -0.020 C 
ATOM     16  C   UNL     1      -3.832 -66.807 -27.617  1.00  0.00     0.032 C 
ATOM     17  C   UNL     1      -3.126 -65.626 -26.894  1.00  0.00     0.006 C 
ATOM     18  C   UNL     1      -1.219 -64.964 -25.359  1.00  0.00     0.008 C 
ATOM     19  C   UNL     1      -0.875 -66.862 -27.029  1.00  0.00     0.012 C 
ATOM     20  C   UNL     1      -2.922 -64.300 -27.784  1.00  0.00    -0.025 C 
ATOM     21  C   UNL     1      -0.910 -63.784 -26.274  1.00  0.00     0.005 C 
ATOM     22  C   UNL     1      -2.184 -63.179 -26.931  1.00  0.00     0.003 C 
ATOM     23  C   UNL     1      -2.117 -64.531 -29.100  1.00  0.00     0.010 C 
ATOM     24  C   UNL     1      -4.365 -63.842 -28.176  1.00  0.00     0.012 C 
ATOM     25  C   UNL     1      -1.851 -61.830 -27.726  1.00  0.00    -0.006 C 
ATOM     26  C   UNL     1      -1.869 -63.244 -29.907  1.00  0.00     0.033 C 
ATOM     27  C   UNL     1      -1.136 -62.178 -29.075  1.00  0.00     0.120 C 
ATOM     28  C   UNL     1      -0.884 -60.920 -26.911  1.00  0.00     0.014 C 
ATOM     29  C   UNL     1      -3.139 -60.965 -27.961  1.00  0.00     0.014 C 
ENDROOT
BRANCH   1  30
ATOM     30  C   UNL     1      -4.122 -70.068 -22.310  1.00  0.00     0.048 C 
ATOM     31  O   UNL     1      -4.786 -70.115 -21.246  1.00  0.00    -0.550 OA
ATOM     32  O   UNL     1      -4.875 -70.099 -21.137  1.00  0.00    -0.550 OA
ENDBRANCH   1  30
BRANCH  27  33
ATOM     33  O   UNL     1      -0.887 -61.024 -29.839  1.00  0.00    -0.393 OA
ATOM     34  H   UNL     1      -1.316 -61.135 -30.723  1.00  0.00     0.210 HD
ENDBRANCH  27  33
TORSDOF 2
ENDMDL
MODEL 9
REMARK VINA RESULT:    -3.618      2.686      4.418
REMARK INTER + INTRA:          -3.811
REMARK INTER:                  -3.963
REMARK INTRA:                   0.152
REMARK UNBOUND:                 0.124
REMARK SMILES C[C@@H]1[C@H]2C3=CC[C@@H]4[C@]5(C)CC[C@@H](O)C(C)(C)[C@@H]5CC[C@@]4(C)[C@@]3(C)CC[C@@]2(C(=O)[O-])CC[C@@H]1C
REMARK SMILES IDX 26 1 30 2 25 3 3 4 31 5 24 6 4 7 2 8 32 9 22 10 5 11 1 12
REMARK SMILES IDX 33 13 23 14 20 15 6 16 7 17 19 18 21 19 8 20 18 21 17 22
REMARK SMILES IDX 10 23 9 24 14 25 11 26 12 27 15 28 16 29 27 30 28 31 29 32
REMARK SMILES IDX 13 33
REMARK H PARENT 13 34
REMARK Flexibility Score: inf
ROOT
ATOM      1  C   UNL     1      -4.740 -55.224 -38.174  1.00  0.00     0.017 C 
ATOM      2  C   UNL     1      -5.953 -55.185 -39.161  1.00  0.00     0.014 C 
ATOM      3  C   UNL     1      -3.746 -56.332 -38.690  1.00  0.00     0.014 C 
ATOM      4  C   UNL     1      -5.241 -55.475 -36.683  1.00  0.00     0.030 C 
ATOM      5  C   UNL     1      -7.076 -54.223 -38.733  1.00  0.00     0.004 C 
ATOM      6  C   UNL     1      -3.982 -57.768 -38.181  1.00  0.00     0.013 C 
ATOM      7  C   UNL     1      -5.397 -56.986 -36.376  1.00  0.00    -0.063 C 
ATOM      8  C   UNL     1      -6.466 -54.578 -36.258  1.00  0.00    -0.003 C 
ATOM      9  C   UNL     1      -7.603 -54.541 -37.330  1.00  0.00    -0.011 C 
ATOM     10  C   UNL     1      -4.165 -57.864 -36.630  1.00  0.00    -0.006 C 
ATOM     11  C   UNL     1      -6.618 -57.563 -36.182  1.00  0.00    -0.027 C 
ATOM     12  C   UNL     1      -6.028 -53.159 -35.820  1.00  0.00     0.008 C 
ATOM     13  C   UNL     1      -8.746 -53.581 -36.954  1.00  0.00     0.008 C 
ATOM     14  C   UNL     1      -2.884 -57.248 -35.953  1.00  0.00     0.017 C 
ATOM     15  C   UNL     1      -4.412 -59.359 -36.056  1.00  0.00    -0.020 C 
ATOM     16  C   UNL     1      -6.933 -59.035 -36.287  1.00  0.00     0.032 C 
ATOM     17  C   UNL     1      -5.733 -59.946 -36.666  1.00  0.00     0.006 C 
ATOM     18  C   UNL     1      -3.230 -60.294 -36.443  1.00  0.00     0.008 C 
ATOM     19  C   UNL     1      -4.531 -59.305 -34.484  1.00  0.00     0.012 C 
ATOM     20  C   UNL     1      -6.004 -61.527 -36.537  1.00  0.00    -0.025 C 
ATOM     21  C   UNL     1      -3.474 -61.773 -36.167  1.00  0.00     0.005 C 
ATOM     22  C   UNL     1      -4.698 -62.339 -36.944  1.00  0.00     0.003 C 
ATOM     23  C   UNL     1      -6.449 -61.987 -35.115  1.00  0.00     0.010 C 
ATOM     24  C   UNL     1      -7.176 -61.825 -37.529  1.00  0.00     0.012 C 
ATOM     25  C   UNL     1      -4.810 -63.928 -36.788  1.00  0.00    -0.006 C 
ATOM     26  C   UNL     1      -6.637 -63.509 -34.987  1.00  0.00     0.033 C 
ATOM     27  C   UNL     1      -5.360 -64.278 -35.364  1.00  0.00     0.120 C 
ATOM     28  C   UNL     1      -3.414 -64.607 -36.924  1.00  0.00     0.014 C 
ATOM     29  C   UNL     1      -5.694 -64.559 -37.920  1.00  0.00     0.014 C 
ENDROOT
BRANCH   1  30
ATOM     30  C   UNL     1      -3.881 -53.958 -38.236  1.00  0.00     0.048 C 
ATOM     31  O   UNL     1      -3.017 -53.656 -37.377  1.00  0.00    -0.550 OA
ATOM     32  O   UNL     1      -2.928 -53.645 -37.268  1.00  0.00    -0.550 OA
ENDBRANCH   1  30
BRANCH  27  33
ATOM     33  O   UNL     1      -5.540 -65.664 -35.207  1.00  0.00    -0.393 OA
ATOM     34  H   UNL     1      -6.141 -65.984 -35.925  1.00  0.00     0.210 HD
ENDBRANCH  27  33
TORSDOF 2
ENDMDL
