MODEL 1
REMARK VINA RESULT:    64.733      0.000      0.000
REMARK INTER + INTRA:          84.136
REMARK INTER:                  85.546
REMARK INTRA:                  -1.410
REMARK UNBOUND:                -1.410
REMARK SMILES CC[C@@H](C=C[C@H](C)[C@@H]1CC[C@@H]2[C@@H]3CC=C4C[C@@H](O)CC[C@@]4(C)[C@@H]3CC[C@@]21C)C(C)C
REMARK SMILES IDX 6 1 7 2 5 3 4 4 3 5 2 6 1 7 28 8 29 9 30 10 8 11 9 12 26 13
REMARK SMILES IDX 10 14 11 15 25 16 27 17 12 18 24 19 23 20 13 21 21 22 14 23
REMARK SMILES IDX 15 24 20 25 22 26 16 27 19 28 17 29 18 30
REMARK H PARENT 18 31
REMARK Flexibility Score: inf
ROOT
ATOM      1  C   UNL     1     -27.026  32.244  -4.259  1.00  0.00     0.012 C 
ATOM      2  C   UNL     1     -26.402  33.609  -3.920  1.00  0.00     0.012 C 
ENDROOT
BRANCH   1   3
ATOM      3  C   UNL     1     -25.967  31.285  -4.775  1.00  0.00    -0.028 C 
ATOM      4  C   UNL     1     -25.814  30.901  -6.060  1.00  0.00    -0.027 C 
BRANCH   4   5
ATOM      5  C   UNL     1     -26.696  31.314  -7.231  1.00  0.00     0.014 C 
BRANCH   5   6
ATOM      6  C   UNL     1     -27.757  30.218  -7.503  1.00  0.00     0.004 C 
ATOM      7  C   UNL     1     -27.334  28.857  -6.948  1.00  0.00     0.004 C 
ENDBRANCH   5   6
BRANCH   5   8
ATOM      8  C   UNL     1     -25.813  31.644  -8.474  1.00  0.00    -0.011 C 
ATOM      9  C   UNL     1     -26.287  30.887  -9.726  1.00  0.00     0.008 C 
ATOM     10  C   UNL     1     -24.309  31.401  -8.252  1.00  0.00     0.008 C 
ENDBRANCH   5   8
ENDBRANCH   4   5
ENDBRANCH   1   3
BRANCH   1  11
ATOM     11  C   UNL     1     -27.931  31.587  -3.157  1.00  0.00     0.002 C 
ATOM     12  C   UNL     1     -27.993  30.057  -3.288  1.00  0.00     0.005 C 
ATOM     13  C   UNL     1     -29.404  32.039  -2.856  1.00  0.00    -0.026 C 
ATOM     14  C   UNL     1     -29.283  29.615  -2.606  1.00  0.00     0.005 C 
ATOM     15  C   UNL     1     -29.894  30.875  -1.971  1.00  0.00    -0.001 C 
ATOM     16  C   UNL     1     -30.295  32.104  -4.119  1.00  0.00     0.007 C 
ATOM     17  C   UNL     1     -29.453  33.379  -2.079  1.00  0.00     0.012 C 
ATOM     18  C   UNL     1     -31.432  30.836  -1.668  1.00  0.00     0.000 C 
ATOM     19  C   UNL     1     -31.772  32.335  -3.810  1.00  0.00     0.005 C 
ATOM     20  C   UNL     1     -32.410  31.346  -2.790  1.00  0.00     0.003 C 
ATOM     21  C   UNL     1     -31.862  29.494  -1.027  1.00  0.00     0.031 C 
ATOM     22  C   UNL     1     -33.409  30.270  -3.383  1.00  0.00    -0.008 C 
ATOM     23  C   UNL     1     -33.338  29.246  -1.096  1.00  0.00    -0.027 C 
ATOM     24  C   UNL     1     -34.057  29.525  -2.202  1.00  0.00    -0.065 C 
ATOM     25  C   UNL     1     -34.507  31.003  -4.238  1.00  0.00     0.014 C 
ATOM     26  C   UNL     1     -32.688  29.246  -4.286  1.00  0.00     0.016 C 
ATOM     27  C   UNL     1     -35.438  28.908  -2.317  1.00  0.00     0.063 C 
ATOM     28  C   UNL     1     -35.814  30.223  -4.428  1.00  0.00     0.033 C 
ATOM     29  C   UNL     1     -36.419  29.788  -3.094  1.00  0.00     0.118 C 
BRANCH  29  30
ATOM     30  O   UNL     1     -36.854  30.890  -2.335  1.00  0.00    -0.393 OA
ATOM     31  H   UNL     1     -36.458  30.825  -1.428  1.00  0.00     0.210 HD
ENDBRANCH  29  30
ENDBRANCH   1  11
TORSDOF 6
ENDMDL
