MODEL 1
REMARK VINA RESULT:     1.099      0.000      0.000
REMARK INTER + INTRA:           1.935
REMARK INTER:                   1.742
REMARK INTRA:                   0.193
REMARK UNBOUND:                 0.193
REMARK SMILES CCCCCCCCCCCC(=O)[O-]
REMARK SMILES IDX 7 1 8 2 9 3 10 4 11 5 12 6 13 7 14 8 6 9 5 10 4 11 3 12 2 13
REMARK SMILES IDX 1 14
REMARK H PARENT
REMARK Flexibility Score: inf
ROOT
ATOM      1  C   UNL     1      87.410  71.466 110.194  1.00  0.00     0.000 C 
ENDROOT
BRANCH   1   2
ATOM      2  C   UNL     1      88.124  72.829 110.145  1.00  0.00     0.000 C 
BRANCH   2   3
ATOM      3  C   UNL     1      87.286  73.963 110.760  1.00  0.00     0.000 C 
BRANCH   3   4
ATOM      4  C   UNL     1      88.119  75.226 111.054  1.00  0.00     0.006 C 
BRANCH   4   5
ATOM      5  C   UNL     1      87.333  76.543 110.958  1.00  0.00     0.053 C 
BRANCH   5   6
ATOM      6  C   UNL     1      87.692  77.322 109.730  1.00  0.00     0.041 C 
ATOM      7  O   UNL     1      87.659  76.772 108.598  1.00  0.00    -0.550 OA
ATOM      8  O   UNL     1      88.033  78.665 109.834  1.00  0.00    -0.550 OA
ENDBRANCH   5   6
ENDBRANCH   4   5
ENDBRANCH   3   4
ENDBRANCH   2   3
ENDBRANCH   1   2
BRANCH   1   9
ATOM      9  C   UNL     1      88.058  70.415 111.119  1.00  0.00     0.000 C 
BRANCH   9  10
ATOM     10  C   UNL     1      87.544  68.975 110.939  1.00  0.00    -0.000 C 
BRANCH  10  11
ATOM     11  C   UNL     1      88.075  68.307 109.661  1.00  0.00    -0.000 C 
BRANCH  11  12
ATOM     12  C   UNL     1      88.124  66.774 109.773  1.00  0.00    -0.000 C 
BRANCH  12  13
ATOM     13  C   UNL     1      86.758  66.118 109.530  1.00  0.00    -0.003 C 
ATOM     14  C   UNL     1      85.728  66.603 110.547  1.00  0.00     0.004 C 
ENDBRANCH  12  13
ENDBRANCH  11  12
ENDBRANCH  10  11
ENDBRANCH   9  10
ENDBRANCH   1   9
TORSDOF 10
ENDMDL
MODEL 2
REMARK VINA RESULT:     1.519     23.844     24.769
REMARK INTER + INTRA:           2.599
REMARK INTER:                   2.430
REMARK INTRA:                   0.169
REMARK UNBOUND:                 0.193
REMARK SMILES CCCCCCCCCCCC(=O)[O-]
REMARK SMILES IDX 7 1 8 2 9 3 10 4 11 5 12 6 13 7 14 8 6 9 5 10 4 11 3 12 2 13
REMARK SMILES IDX 1 14
REMARK H PARENT
REMARK Flexibility Score: inf
ROOT
ATOM      1  C   UNL     1      68.939  76.518  95.944  1.00  0.00     0.000 C 
ENDROOT
BRANCH   1   2
ATOM      2  C   UNL     1      68.321  76.046  97.272  1.00  0.00     0.000 C 
BRANCH   2   3
ATOM      3  C   UNL     1      67.875  77.212  98.171  1.00  0.00     0.000 C 
BRANCH   3   4
ATOM      4  C   UNL     1      68.027  78.583  97.485  1.00  0.00     0.006 C 
BRANCH   4   5
ATOM      5  C   UNL     1      68.253  79.756  98.452  1.00  0.00     0.053 C 
BRANCH   5   6
ATOM      6  C   UNL     1      69.231  79.411  99.533  1.00  0.00     0.041 C 
ATOM      7  O   UNL     1      68.947  79.637 100.740  1.00  0.00    -0.550 OA
ATOM      8  O   UNL     1      70.442  78.812  99.212  1.00  0.00    -0.550 OA
ENDBRANCH   5   6
ENDBRANCH   4   5
ENDBRANCH   3   4
ENDBRANCH   2   3
ENDBRANCH   1   2
BRANCH   1   9
ATOM      9  C   UNL     1      67.935  77.053  94.903  1.00  0.00     0.000 C 
BRANCH   9  10
ATOM     10  C   UNL     1      67.885  76.274  93.575  1.00  0.00    -0.000 C 
BRANCH  10  11
ATOM     11  C   UNL     1      68.187  77.157  92.354  1.00  0.00    -0.000 C 
BRANCH  11  12
ATOM     12  C   UNL     1      68.319  76.343  91.056  1.00  0.00    -0.000 C 
BRANCH  12  13
ATOM     13  C   UNL     1      68.412  74.832  91.311  1.00  0.00    -0.003 C 
ATOM     14  C   UNL     1      69.866  74.380  91.406  1.00  0.00     0.004 C 
ENDBRANCH  12  13
ENDBRANCH  11  12
ENDBRANCH  10  11
ENDBRANCH   9  10
ENDBRANCH   1   9
TORSDOF 10
ENDMDL
MODEL 3
REMARK VINA RESULT:     4.095     24.261     25.624
REMARK INTER + INTRA:           6.682
REMARK INTER:                   6.691
REMARK INTRA:                  -0.009
REMARK UNBOUND:                 0.193
REMARK SMILES CCCCCCCCCCCC(=O)[O-]
REMARK SMILES IDX 7 1 8 2 9 3 10 4 11 5 12 6 13 7 14 8 6 9 5 10 4 11 3 12 2 13
REMARK SMILES IDX 1 14
REMARK H PARENT
REMARK Flexibility Score: inf
ROOT
ATOM      1  C   UNL     1      69.173  75.782  95.679  1.00  0.00     0.000 C 
ENDROOT
BRANCH   1   2
ATOM      2  C   UNL     1      68.646  75.192  94.358  1.00  0.00     0.000 C 
BRANCH   2   3
ATOM      3  C   UNL     1      69.510  75.578  93.145  1.00  0.00     0.000 C 
BRANCH   3   4
ATOM      4  C   UNL     1      68.668  76.007  91.928  1.00  0.00     0.006 C 
BRANCH   4   5
ATOM      5  C   UNL     1      68.043  74.842  91.145  1.00  0.00     0.053 C 
BRANCH   5   6
ATOM      6  C   UNL     1      68.919  73.627  91.152  1.00  0.00     0.041 C 
ATOM      7  O   UNL     1      68.408  72.478  91.218  1.00  0.00    -0.550 OA
ATOM      8  O   UNL     1      70.298  73.762  91.054  1.00  0.00    -0.550 OA
ENDBRANCH   5   6
ENDBRANCH   4   5
ENDBRANCH   3   4
ENDBRANCH   2   3
ENDBRANCH   1   2
BRANCH   1   9
ATOM      9  C   UNL     1      68.118  76.486  96.554  1.00  0.00     0.000 C 
BRANCH   9  10
ATOM     10  C   UNL     1      67.875  77.971  96.226  1.00  0.00    -0.000 C 
BRANCH  10  11
ATOM     11  C   UNL     1      68.013  78.884  97.455  1.00  0.00    -0.000 C 
BRANCH  11  12
ATOM     12  C   UNL     1      68.878  78.258  98.561  1.00  0.00    -0.000 C 
BRANCH  12  13
ATOM     13  C   UNL     1      69.486  79.307  99.504  1.00  0.00    -0.003 C 
ATOM     14  C   UNL     1      68.503  79.686 100.608  1.00  0.00     0.004 C 
ENDBRANCH  12  13
ENDBRANCH  11  12
ENDBRANCH  10  11
ENDBRANCH   9  10
ENDBRANCH   1   9
TORSDOF 10
ENDMDL
