MODEL 1
REMARK VINA RESULT:    -5.322      0.000      0.000
REMARK INTER + INTRA:          -6.698
REMARK INTER:                  -6.411
REMARK INTRA:                  -0.287
REMARK UNBOUND:                -0.287
REMARK SMILES O=c1c(O)c(-c2ccc(O)c(O)c2)oc2cc(O)cc(O)c12
REMARK SMILES IDX 5 1 3 2 2 3 1 4 22 5 20 6 19 7 17 8 16 9 15 10 14 11 6 12
REMARK SMILES IDX 7 13 8 14 9 15 13 16 11 17 10 18 12 20 4 22 21 24 18 26
REMARK H PARENT 10 19 12 21 4 23 21 25 18 27
REMARK Flexibility Score: inf
ROOT
ATOM      1  C   UNL     1      25.629  37.489  31.991  1.00  0.00     0.180 A 
ATOM      2  C   UNL     1      24.523  37.368  32.854  1.00  0.00     0.208 A 
ATOM      3  C   UNL     1      23.677  38.474  33.031  1.00  0.00     0.238 A 
ATOM      4  O   UNL     1      22.689  38.381  33.810  1.00  0.00    -0.285 OA
ATOM      5  C   UNL     1      23.935  39.669  32.329  1.00  0.00     0.111 A 
ATOM      6  C   UNL     1      23.129  40.826  32.447  1.00  0.00     0.134 A 
ATOM      7  C   UNL     1      23.448  41.976  31.707  1.00  0.00     0.093 A 
ATOM      8  C   UNL     1      24.557  41.988  30.853  1.00  0.00     0.123 A 
ATOM      9  C   UNL     1      25.354  40.849  30.734  1.00  0.00     0.094 A 
ATOM     10  C   UNL     1      25.054  39.695  31.463  1.00  0.00     0.146 A 
ATOM     11  O   UNL     1      25.834  38.627  31.334  1.00  0.00    -0.452 OA
ENDROOT
BRANCH   1  12
ATOM     12  C   UNL     1      26.580  36.375  31.768  1.00  0.00     0.025 A 
ATOM     13  C   UNL     1      26.234  35.339  30.887  1.00  0.00     0.016 A 
ATOM     14  C   UNL     1      27.123  34.288  30.646  1.00  0.00     0.051 A 
ATOM     15  C   UNL     1      28.377  34.267  31.270  1.00  0.00     0.157 A 
ATOM     16  C   UNL     1      27.847  36.360  32.377  1.00  0.00     0.062 A 
ATOM     17  C   UNL     1      28.742  35.311  32.136  1.00  0.00     0.158 A 
BRANCH  15  18
ATOM     18  O   UNL     1      29.261  33.216  31.030  1.00  0.00    -0.504 OA
ATOM     19  H   UNL     1      28.936  32.263  30.924  1.00  0.00     0.293 HD
ENDBRANCH  15  18
BRANCH  17  20
ATOM     20  O   UNL     1      29.987  35.326  32.762  1.00  0.00    -0.504 OA
ATOM     21  H   UNL     1      30.186  34.764  33.580  1.00  0.00     0.293 HD
ENDBRANCH  17  20
ENDBRANCH   1  12
BRANCH   2  22
ATOM     22  O   UNL     1      24.261  36.157  33.500  1.00  0.00    -0.502 OA
ATOM     23  H   UNL     1      24.648  35.930  34.407  1.00  0.00     0.293 HD
ENDBRANCH   2  22
BRANCH   6  24
ATOM     24  O   UNL     1      22.017  40.844  33.291  1.00  0.00    -0.507 OA
ATOM     25  H   UNL     1      21.080  40.997  32.934  1.00  0.00     0.293 HD
ENDBRANCH   6  24
BRANCH   8  26
ATOM     26  O   UNL     1      24.872  43.128  30.118  1.00  0.00    -0.508 OA
ATOM     27  H   UNL     1      24.378  44.001  30.255  1.00  0.00     0.293 HD
ENDBRANCH   8  26
TORSDOF 6
ENDMDL
MODEL 2
REMARK VINA RESULT:    -5.284      2.260      3.585
REMARK INTER + INTRA:          -6.652
REMARK INTER:                  -6.322
REMARK INTRA:                  -0.331
REMARK UNBOUND:                -0.287
REMARK SMILES O=c1c(O)c(-c2ccc(O)c(O)c2)oc2cc(O)cc(O)c12
REMARK SMILES IDX 5 1 3 2 2 3 1 4 22 5 20 6 19 7 17 8 16 9 15 10 14 11 6 12
REMARK SMILES IDX 7 13 8 14 9 15 13 16 11 17 10 18 12 20 4 22 21 24 18 26
REMARK H PARENT 10 19 12 21 4 23 21 25 18 27
REMARK Flexibility Score: inf
ROOT
ATOM      1  C   UNL     1      26.424  37.031  33.069  1.00  0.00     0.180 A 
ATOM      2  C   UNL     1      26.927  37.508  31.844  1.00  0.00     0.208 A 
ATOM      3  C   UNL     1      26.317  38.623  31.248  1.00  0.00     0.238 A 
ATOM      4  O   UNL     1      26.753  39.053  30.145  1.00  0.00    -0.285 OA
ATOM      5  C   UNL     1      25.233  39.253  31.894  1.00  0.00     0.111 A 
ATOM      6  C   UNL     1      24.567  40.383  31.363  1.00  0.00     0.134 A 
ATOM      7  C   UNL     1      23.501  40.959  32.071  1.00  0.00     0.093 A 
ATOM      8  C   UNL     1      23.090  40.425  33.298  1.00  0.00     0.123 A 
ATOM      9  C   UNL     1      23.745  39.310  33.825  1.00  0.00     0.094 A 
ATOM     10  C   UNL     1      24.808  38.722  33.134  1.00  0.00     0.146 A 
ATOM     11  O   UNL     1      25.409  37.659  33.656  1.00  0.00    -0.452 OA
ENDROOT
BRANCH   1  12
ATOM     12  C   UNL     1      26.999  35.848  33.751  1.00  0.00     0.025 A 
ATOM     13  C   UNL     1      27.969  36.031  34.749  1.00  0.00     0.016 A 
ATOM     14  C   UNL     1      28.511  34.931  35.419  1.00  0.00     0.051 A 
ATOM     15  C   UNL     1      28.080  33.633  35.111  1.00  0.00     0.157 A 
ATOM     16  C   UNL     1      26.555  34.546  33.459  1.00  0.00     0.062 A 
ATOM     17  C   UNL     1      27.094  33.441  34.129  1.00  0.00     0.158 A 
BRANCH  15  18
ATOM     18  O   UNL     1      28.625  32.538  35.778  1.00  0.00    -0.504 OA
ATOM     19  H   UNL     1      29.582  32.244  35.623  1.00  0.00     0.293 HD
ENDBRANCH  15  18
BRANCH  17  20
ATOM     20  O   UNL     1      26.634  32.165  33.809  1.00  0.00    -0.504 OA
ATOM     21  H   UNL     1      26.029  31.994  33.015  1.00  0.00     0.293 HD
ENDBRANCH  17  20
ENDBRANCH   1  12
BRANCH   2  22
ATOM     22  O   UNL     1      28.034  36.897  31.249  1.00  0.00    -0.502 OA
ATOM     23  H   UNL     1      28.433  36.035  31.601  1.00  0.00     0.293 HD
ENDBRANCH   2  22
BRANCH   6  24
ATOM     24  O   UNL     1      24.954  40.938  30.141  1.00  0.00    -0.507 OA
ATOM     25  H   UNL     1      24.976  41.940  29.995  1.00  0.00     0.293 HD
ENDBRANCH   6  24
BRANCH   8  26
ATOM     26  O   UNL     1      22.033  40.997  34.002  1.00  0.00    -0.508 OA
ATOM     27  H   UNL     1      21.815  40.718  34.951  1.00  0.00     0.293 HD
ENDBRANCH   8  26
TORSDOF 6
ENDMDL
MODEL 3
REMARK VINA RESULT:    -5.249      1.775      7.173
REMARK INTER + INTRA:          -6.610
REMARK INTER:                  -6.277
REMARK INTRA:                  -0.333
REMARK UNBOUND:                -0.287
REMARK SMILES O=c1c(O)c(-c2ccc(O)c(O)c2)oc2cc(O)cc(O)c12
REMARK SMILES IDX 5 1 3 2 2 3 1 4 22 5 20 6 19 7 17 8 16 9 15 10 14 11 6 12
REMARK SMILES IDX 7 13 8 14 9 15 13 16 11 17 10 18 12 20 4 22 21 24 18 26
REMARK H PARENT 10 19 12 21 4 23 21 25 18 27
REMARK Flexibility Score: inf
ROOT
ATOM      1  C   UNL     1      26.806  36.942  32.153  1.00  0.00     0.180 A 
ATOM      2  C   UNL     1      26.783  35.817  31.306  1.00  0.00     0.208 A 
ATOM      3  C   UNL     1      27.815  34.870  31.407  1.00  0.00     0.238 A 
ATOM      4  O   UNL     1      27.809  33.864  30.647  1.00  0.00    -0.285 OA
ATOM      5  C   UNL     1      28.835  35.051  32.363  1.00  0.00     0.111 A 
ATOM      6  C   UNL     1      29.907  34.142  32.532  1.00  0.00     0.134 A 
ATOM      7  C   UNL     1      30.881  34.388  33.512  1.00  0.00     0.093 A 
ATOM      8  C   UNL     1      30.801  35.526  34.325  1.00  0.00     0.123 A 
ATOM      9  C   UNL     1      29.746  36.424  34.161  1.00  0.00     0.094 A 
ATOM     10  C   UNL     1      28.767  36.197  33.189  1.00  0.00     0.146 A 
ATOM     11  O   UNL     1      27.777  37.072  33.052  1.00  0.00    -0.452 OA
ENDROOT
BRANCH   1  12
ATOM     12  C   UNL     1      25.766  37.995  32.093  1.00  0.00     0.025 A 
ATOM     13  C   UNL     1      24.685  37.948  32.987  1.00  0.00     0.016 A 
ATOM     14  C   UNL     1      23.702  38.941  32.962  1.00  0.00     0.051 A 
ATOM     15  C   UNL     1      23.795  40.004  32.053  1.00  0.00     0.157 A 
ATOM     16  C   UNL     1      25.866  39.074  31.197  1.00  0.00     0.062 A 
ATOM     17  C   UNL     1      24.885  40.072  31.170  1.00  0.00     0.158 A 
BRANCH  15  18
ATOM     18  O   UNL     1      22.812  40.992  32.028  1.00  0.00    -0.504 OA
ATOM     19  H   UNL     1      22.705  41.653  32.788  1.00  0.00     0.293 HD
ENDBRANCH  15  18
BRANCH  17  20
ATOM     20  O   UNL     1      25.014  41.123  30.264  1.00  0.00    -0.504 OA
ATOM     21  H   UNL     1      24.577  42.024  30.419  1.00  0.00     0.293 HD
ENDBRANCH  17  20
ENDBRANCH   1  12
BRANCH   2  22
ATOM     22  O   UNL     1      25.733  35.636  30.402  1.00  0.00    -0.502 OA
ATOM     23  H   UNL     1      25.352  36.396  29.852  1.00  0.00     0.293 HD
ENDBRANCH   2  22
BRANCH   6  24
ATOM     24  O   UNL     1      30.013  33.000  31.737  1.00  0.00    -0.507 OA
ATOM     25  H   UNL     1      30.569  32.202  32.022  1.00  0.00     0.293 HD
ENDBRANCH   6  24
BRANCH   8  26
ATOM     26  O   UNL     1      31.767  35.770  35.299  1.00  0.00    -0.508 OA
ATOM     27  H   UNL     1      31.518  35.896  36.273  1.00  0.00     0.293 HD
ENDBRANCH   8  26
TORSDOF 6
ENDMDL
MODEL 4
REMARK VINA RESULT:    -5.227      1.709      3.040
REMARK INTER + INTRA:          -6.583
REMARK INTER:                  -6.268
REMARK INTRA:                  -0.314
REMARK UNBOUND:                -0.287
REMARK SMILES O=c1c(O)c(-c2ccc(O)c(O)c2)oc2cc(O)cc(O)c12
REMARK SMILES IDX 5 1 3 2 2 3 1 4 22 5 20 6 19 7 17 8 16 9 15 10 14 11 6 12
REMARK SMILES IDX 7 13 8 14 9 15 13 16 11 17 10 18 12 20 4 22 21 24 18 26
REMARK H PARENT 10 19 12 21 4 23 21 25 18 27
REMARK Flexibility Score: inf
ROOT
ATOM      1  C   UNL     1      26.460  37.668  32.008  1.00  0.00     0.180 A 
ATOM      2  C   UNL     1      26.224  38.703  31.083  1.00  0.00     0.208 A 
ATOM      3  C   UNL     1      25.460  39.811  31.484  1.00  0.00     0.238 A 
ATOM      4  O   UNL     1      25.234  40.739  30.660  1.00  0.00    -0.285 OA
ATOM      5  C   UNL     1      24.966  39.876  32.803  1.00  0.00     0.111 A 
ATOM      6  C   UNL     1      24.193  40.958  33.287  1.00  0.00     0.134 A 
ATOM      7  C   UNL     1      23.745  40.954  34.617  1.00  0.00     0.093 A 
ATOM      8  C   UNL     1      24.055  39.887  35.470  1.00  0.00     0.123 A 
ATOM      9  C   UNL     1      24.817  38.818  34.995  1.00  0.00     0.094 A 
ATOM     10  C   UNL     1      25.272  38.804  33.674  1.00  0.00     0.146 A 
ATOM     11  O   UNL     1      25.990  37.771  33.248  1.00  0.00    -0.452 OA
ENDROOT
BRANCH   1  12
ATOM     12  C   UNL     1      27.238  36.458  31.655  1.00  0.00     0.025 A 
ATOM     13  C   UNL     1      26.566  35.315  31.198  1.00  0.00     0.016 A 
ATOM     14  C   UNL     1      27.281  34.169  30.841  1.00  0.00     0.051 A 
ATOM     15  C   UNL     1      28.680  34.155  30.920  1.00  0.00     0.157 A 
ATOM     16  C   UNL     1      28.643  36.448  31.715  1.00  0.00     0.062 A 
ATOM     17  C   UNL     1      29.364  35.303  31.356  1.00  0.00     0.158 A 
BRANCH  15  18
ATOM     18  O   UNL     1      29.391  33.010  30.566  1.00  0.00    -0.504 OA
ATOM     19  H   UNL     1      29.512  32.239  31.212  1.00  0.00     0.293 HD
ENDBRANCH  15  18
BRANCH  17  20
ATOM     20  O   UNL     1      30.755  35.327  31.433  1.00  0.00    -0.504 OA
ATOM     21  H   UNL     1      31.320  35.868  30.791  1.00  0.00     0.293 HD
ENDBRANCH  17  20
ENDBRANCH   1  12
BRANCH   2  22
ATOM     22  O   UNL     1      26.767  38.638  29.797  1.00  0.00    -0.502 OA
ATOM     23  H   UNL     1      27.029  37.762  29.362  1.00  0.00     0.293 HD
ENDBRANCH   2  22
BRANCH   6  24
ATOM     24  O   UNL     1      23.868  42.036  32.461  1.00  0.00    -0.507 OA
ATOM     25  H   UNL     1      23.038  42.596  32.619  1.00  0.00     0.293 HD
ENDBRANCH   6  24
BRANCH   8  26
ATOM     26  O   UNL     1      23.612  39.883  36.790  1.00  0.00    -0.508 OA
ATOM     27  H   UNL     1      24.151  40.312  37.532  1.00  0.00     0.293 HD
ENDBRANCH   8  26
TORSDOF 6
ENDMDL
MODEL 5
REMARK VINA RESULT:    -5.213      7.416      8.587
REMARK INTER + INTRA:          -6.566
REMARK INTER:                  -6.320
REMARK INTRA:                  -0.246
REMARK UNBOUND:                -0.287
REMARK SMILES O=c1c(O)c(-c2ccc(O)c(O)c2)oc2cc(O)cc(O)c12
REMARK SMILES IDX 5 1 3 2 2 3 1 4 22 5 20 6 19 7 17 8 16 9 15 10 14 11 6 12
REMARK SMILES IDX 7 13 8 14 9 15 13 16 11 17 10 18 12 20 4 22 21 24 18 26
REMARK H PARENT 10 19 12 21 4 23 21 25 18 27
REMARK Flexibility Score: inf
ROOT
ATOM      1  C   UNL     1      31.798  39.540  28.092  1.00  0.00     0.180 A 
ATOM      2  C   UNL     1      31.232  39.287  29.356  1.00  0.00     0.208 A 
ATOM      3  C   UNL     1      31.559  40.132  30.428  1.00  0.00     0.238 A 
ATOM      4  O   UNL     1      31.066  39.909  31.567  1.00  0.00    -0.285 OA
ATOM      5  C   UNL     1      32.426  41.224  30.215  1.00  0.00     0.111 A 
ATOM      6  C   UNL     1      32.801  42.125  31.240  1.00  0.00     0.134 A 
ATOM      7  C   UNL     1      33.662  43.194  30.945  1.00  0.00     0.093 A 
ATOM      8  C   UNL     1      34.154  43.377  29.647  1.00  0.00     0.123 A 
ATOM      9  C   UNL     1      33.785  42.490  28.634  1.00  0.00     0.094 A 
ATOM     10  C   UNL     1      32.930  41.419  28.908  1.00  0.00     0.146 A 
ATOM     11  O   UNL     1      32.600  40.587  27.926  1.00  0.00    -0.452 OA
ENDROOT
BRANCH   1  12
ATOM     12  C   UNL     1      31.519  38.682  26.918  1.00  0.00     0.025 A 
ATOM     13  C   UNL     1      32.080  37.397  26.852  1.00  0.00     0.016 A 
ATOM     14  C   UNL     1      31.814  36.563  25.763  1.00  0.00     0.051 A 
ATOM     15  C   UNL     1      30.969  36.996  24.732  1.00  0.00     0.157 A 
ATOM     16  C   UNL     1      30.656  39.104  25.891  1.00  0.00     0.062 A 
ATOM     17  C   UNL     1      30.384  38.271  24.799  1.00  0.00     0.158 A 
BRANCH  15  18
ATOM     18  O   UNL     1      30.707  36.163  23.645  1.00  0.00    -0.504 OA
ATOM     19  H   UNL     1      30.563  35.167  23.762  1.00  0.00     0.293 HD
ENDBRANCH  15  18
BRANCH  17  20
ATOM     20  O   UNL     1      29.529  38.726  23.797  1.00  0.00    -0.504 OA
ATOM     21  H   UNL     1      29.823  38.802  22.831  1.00  0.00     0.293 HD
ENDBRANCH  17  20
ENDBRANCH   1  12
BRANCH   2  22
ATOM     22  O   UNL     1      30.337  38.228  29.530  1.00  0.00    -0.502 OA
ATOM     23  H   UNL     1      30.151  37.549  28.802  1.00  0.00     0.293 HD
ENDBRANCH   2  22
BRANCH   6  24
ATOM     24  O   UNL     1      32.328  41.969  32.543  1.00  0.00    -0.507 OA
ATOM     25  H   UNL     1      31.355  42.128  32.779  1.00  0.00     0.293 HD
ENDBRANCH   6  24
BRANCH   8  26
ATOM     26  O   UNL     1      35.007  44.438  29.355  1.00  0.00    -0.508 OA
ATOM     27  H   UNL     1      35.430  44.542  28.441  1.00  0.00     0.293 HD
ENDBRANCH   8  26
TORSDOF 6
ENDMDL
MODEL 6
REMARK VINA RESULT:    -5.106      2.143      3.591
REMARK INTER + INTRA:          -6.437
REMARK INTER:                  -6.113
REMARK INTRA:                  -0.323
REMARK UNBOUND:                -0.287
REMARK SMILES O=c1c(O)c(-c2ccc(O)c(O)c2)oc2cc(O)cc(O)c12
REMARK SMILES IDX 5 1 3 2 2 3 1 4 22 5 20 6 19 7 17 8 16 9 15 10 14 11 6 12
REMARK SMILES IDX 7 13 8 14 9 15 13 16 11 17 10 18 12 20 4 22 21 24 18 26
REMARK H PARENT 10 19 12 21 4 23 21 25 18 27
REMARK Flexibility Score: inf
ROOT
ATOM      1  C   UNL     1      27.463  37.043  33.072  1.00  0.00     0.180 A 
ATOM      2  C   UNL     1      27.584  37.508  31.749  1.00  0.00     0.208 A 
ATOM      3  C   UNL     1      26.677  38.472  31.283  1.00  0.00     0.238 A 
ATOM      4  O   UNL     1      26.769  38.888  30.095  1.00  0.00    -0.285 OA
ATOM      5  C   UNL     1      25.683  38.971  32.150  1.00  0.00     0.111 A 
ATOM      6  C   UNL     1      24.734  39.946  31.760  1.00  0.00     0.134 A 
ATOM      7  C   UNL     1      23.780  40.398  32.685  1.00  0.00     0.093 A 
ATOM      8  C   UNL     1      23.758  39.892  33.990  1.00  0.00     0.123 A 
ATOM      9  C   UNL     1      24.692  38.930  34.378  1.00  0.00     0.094 A 
ATOM     10  C   UNL     1      25.649  38.466  33.471  1.00  0.00     0.146 A 
ATOM     11  O   UNL     1      26.522  37.547  33.866  1.00  0.00    -0.452 OA
ENDROOT
BRANCH   1  12
ATOM     12  C   UNL     1      28.368  36.013  33.631  1.00  0.00     0.025 A 
ATOM     13  C   UNL     1      28.022  34.657  33.521  1.00  0.00     0.016 A 
ATOM     14  C   UNL     1      28.870  33.667  34.023  1.00  0.00     0.051 A 
ATOM     15  C   UNL     1      30.084  34.017  34.629  1.00  0.00     0.157 A 
ATOM     16  C   UNL     1      29.597  36.359  34.222  1.00  0.00     0.062 A 
ATOM     17  C   UNL     1      30.450  35.370  34.725  1.00  0.00     0.158 A 
BRANCH  15  18
ATOM     18  O   UNL     1      30.927  33.027  35.132  1.00  0.00    -0.504 OA
ATOM     19  H   UNL     1      31.935  33.113  35.082  1.00  0.00     0.293 HD
ENDBRANCH  15  18
BRANCH  17  20
ATOM     20  O   UNL     1      31.657  35.750  35.308  1.00  0.00    -0.504 OA
ATOM     21  H   UNL     1      32.356  35.073  35.590  1.00  0.00     0.293 HD
ENDBRANCH  17  20
ENDBRANCH   1  12
BRANCH   2  22
ATOM     22  O   UNL     1      28.609  37.035  30.925  1.00  0.00    -0.502 OA
ATOM     23  H   UNL     1      28.470  36.845  29.940  1.00  0.00     0.293 HD
ENDBRANCH   2  22
BRANCH   6  24
ATOM     24  O   UNL     1      24.730  40.469  30.466  1.00  0.00    -0.507 OA
ATOM     25  H   UNL     1      25.321  40.088  29.736  1.00  0.00     0.293 HD
ENDBRANCH   6  24
BRANCH   8  26
ATOM     26  O   UNL     1      22.812  40.341  34.909  1.00  0.00    -0.508 OA
ATOM     27  H   UNL     1      22.027  40.914  34.624  1.00  0.00     0.293 HD
ENDBRANCH   8  26
TORSDOF 6
ENDMDL
MODEL 7
REMARK VINA RESULT:    -5.059      3.810      6.976
REMARK INTER + INTRA:          -6.381
REMARK INTER:                  -6.186
REMARK INTRA:                  -0.195
REMARK UNBOUND:                -0.287
REMARK SMILES O=c1c(O)c(-c2ccc(O)c(O)c2)oc2cc(O)cc(O)c12
REMARK SMILES IDX 5 1 3 2 2 3 1 4 22 5 20 6 19 7 17 8 16 9 15 10 14 11 6 12
REMARK SMILES IDX 7 13 8 14 9 15 13 16 11 17 10 18 12 20 4 22 21 24 18 26
REMARK H PARENT 10 19 12 21 4 23 21 25 18 27
REMARK Flexibility Score: inf
ROOT
ATOM      1  C   UNL     1      24.048  40.378  35.257  1.00  0.00     0.180 A 
ATOM      2  C   UNL     1      23.334  41.212  34.375  1.00  0.00     0.208 A 
ATOM      3  C   UNL     1      23.618  41.150  33.002  1.00  0.00     0.238 A 
ATOM      4  O   UNL     1      22.993  41.900  32.204  1.00  0.00    -0.285 OA
ATOM      5  C   UNL     1      24.591  40.243  32.533  1.00  0.00     0.111 A 
ATOM      6  C   UNL     1      24.933  40.115  31.165  1.00  0.00     0.134 A 
ATOM      7  C   UNL     1      25.907  39.183  30.776  1.00  0.00     0.093 A 
ATOM      8  C   UNL     1      26.544  38.378  31.728  1.00  0.00     0.123 A 
ATOM      9  C   UNL     1      26.209  38.502  33.077  1.00  0.00     0.094 A 
ATOM     10  C   UNL     1      25.243  39.426  33.485  1.00  0.00     0.146 A 
ATOM     11  O   UNL     1      24.948  39.526  34.776  1.00  0.00    -0.452 OA
ENDROOT
BRANCH   1  12
ATOM     12  C   UNL     1      23.820  40.400  36.720  1.00  0.00     0.025 A 
ATOM     13  C   UNL     1      24.169  41.543  37.456  1.00  0.00     0.016 A 
ATOM     14  C   UNL     1      23.945  41.594  38.834  1.00  0.00     0.051 A 
ATOM     15  C   UNL     1      23.354  40.508  39.494  1.00  0.00     0.157 A 
ATOM     16  C   UNL     1      23.208  39.321  37.383  1.00  0.00     0.062 A 
ATOM     17  C   UNL     1      22.980  39.369  38.763  1.00  0.00     0.158 A 
BRANCH  15  18
ATOM     18  O   UNL     1      23.134  40.560  40.870  1.00  0.00    -0.504 OA
ATOM     19  H   UNL     1      22.332  40.112  41.296  1.00  0.00     0.293 HD
ENDBRANCH  15  18
BRANCH  17  20
ATOM     20  O   UNL     1      22.376  38.278  39.387  1.00  0.00    -0.504 OA
ATOM     21  H   UNL     1      22.341  38.186  40.395  1.00  0.00     0.293 HD
ENDBRANCH  17  20
ENDBRANCH   1  12
BRANCH   2  22
ATOM     22  O   UNL     1      22.339  42.066  34.860  1.00  0.00    -0.502 OA
ATOM     23  H   UNL     1      22.145  42.167  35.849  1.00  0.00     0.293 HD
ENDBRANCH   2  22
BRANCH   6  24
ATOM     24  O   UNL     1      24.316  40.903  30.192  1.00  0.00    -0.507 OA
ATOM     25  H   UNL     1      23.944  41.821  30.408  1.00  0.00     0.293 HD
ENDBRANCH   6  24
BRANCH   8  26
ATOM     26  O   UNL     1      27.510  37.451  31.342  1.00  0.00    -0.508 OA
ATOM     27  H   UNL     1      27.326  36.763  30.622  1.00  0.00     0.293 HD
ENDBRANCH   8  26
TORSDOF 6
ENDMDL
MODEL 8
REMARK VINA RESULT:    -5.056      2.795      7.109
REMARK INTER + INTRA:          -6.377
REMARK INTER:                  -6.068
REMARK INTRA:                  -0.309
REMARK UNBOUND:                -0.287
REMARK SMILES O=c1c(O)c(-c2ccc(O)c(O)c2)oc2cc(O)cc(O)c12
REMARK SMILES IDX 5 1 3 2 2 3 1 4 22 5 20 6 19 7 17 8 16 9 15 10 14 11 6 12
REMARK SMILES IDX 7 13 8 14 9 15 13 16 11 17 10 18 12 20 4 22 21 24 18 26
REMARK H PARENT 10 19 12 21 4 23 21 25 18 27
REMARK Flexibility Score: inf
ROOT
ATOM      1  C   UNL     1      26.333  37.521  33.476  1.00  0.00     0.180 A 
ATOM      2  C   UNL     1      27.533  37.451  34.210  1.00  0.00     0.208 A 
ATOM      3  C   UNL     1      27.875  36.243  34.837  1.00  0.00     0.238 A 
ATOM      4  O   UNL     1      28.942  36.172  35.506  1.00  0.00    -0.285 OA
ATOM      5  C   UNL     1      27.027  35.124  34.704  1.00  0.00     0.111 A 
ATOM      6  C   UNL     1      27.302  33.870  35.300  1.00  0.00     0.134 A 
ATOM      7  C   UNL     1      26.412  32.801  35.113  1.00  0.00     0.093 A 
ATOM      8  C   UNL     1      25.255  32.963  34.342  1.00  0.00     0.123 A 
ATOM      9  C   UNL     1      24.981  34.199  33.753  1.00  0.00     0.094 A 
ATOM     10  C   UNL     1      25.854  35.276  33.928  1.00  0.00     0.146 A 
ATOM     11  O   UNL     1      25.566  36.441  33.360  1.00  0.00    -0.452 OA
ENDROOT
BRANCH   1  12
ATOM     12  C   UNL     1      25.893  38.765  32.802  1.00  0.00     0.025 A 
ATOM     13  C   UNL     1      26.041  38.886  31.412  1.00  0.00     0.016 A 
ATOM     14  C   UNL     1      25.615  40.042  30.753  1.00  0.00     0.051 A 
ATOM     15  C   UNL     1      25.020  41.087  31.473  1.00  0.00     0.157 A 
ATOM     16  C   UNL     1      25.277  39.807  33.518  1.00  0.00     0.062 A 
ATOM     17  C   UNL     1      24.846  40.966  32.862  1.00  0.00     0.158 A 
BRANCH  15  18
ATOM     18  O   UNL     1      24.598  42.240  30.813  1.00  0.00    -0.504 OA
ATOM     19  H   UNL     1      24.363  43.085  31.320  1.00  0.00     0.293 HD
ENDBRANCH  15  18
BRANCH  17  20
ATOM     20  O   UNL     1      24.245  41.981  33.604  1.00  0.00    -0.504 OA
ATOM     21  H   UNL     1      24.037  41.875  34.590  1.00  0.00     0.293 HD
ENDBRANCH  17  20
ENDBRANCH   1  12
BRANCH   2  22
ATOM     22  O   UNL     1      28.380  38.560  34.285  1.00  0.00    -0.502 OA
ATOM     23  H   UNL     1      28.285  39.269  35.002  1.00  0.00     0.293 HD
ENDBRANCH   2  22
BRANCH   6  24
ATOM     24  O   UNL     1      28.447  33.677  36.075  1.00  0.00    -0.507 OA
ATOM     25  H   UNL     1      28.865  34.434  36.604  1.00  0.00     0.293 HD
ENDBRANCH   6  24
BRANCH   8  26
ATOM     26  O   UNL     1      24.372  31.902  34.156  1.00  0.00    -0.508 OA
ATOM     27  H   UNL     1      23.785  31.839  33.333  1.00  0.00     0.293 HD
ENDBRANCH   8  26
TORSDOF 6
ENDMDL
MODEL 9
REMARK VINA RESULT:    -4.987      1.624      2.212
REMARK INTER + INTRA:          -6.294
REMARK INTER:                  -6.018
REMARK INTRA:                  -0.276
REMARK UNBOUND:                -0.287
REMARK SMILES O=c1c(O)c(-c2ccc(O)c(O)c2)oc2cc(O)cc(O)c12
REMARK SMILES IDX 5 1 3 2 2 3 1 4 22 5 20 6 19 7 17 8 16 9 15 10 14 11 6 12
REMARK SMILES IDX 7 13 8 14 9 15 13 16 11 17 10 18 12 20 4 22 21 24 18 26
REMARK H PARENT 10 19 12 21 4 23 21 25 18 27
REMARK Flexibility Score: inf
ROOT
ATOM      1  C   UNL     1      27.197  37.063  32.135  1.00  0.00     0.180 A 
ATOM      2  C   UNL     1      26.700  37.062  33.453  1.00  0.00     0.208 A 
ATOM      3  C   UNL     1      25.813  38.078  33.844  1.00  0.00     0.238 A 
ATOM      4  O   UNL     1      25.370  38.093  35.024  1.00  0.00    -0.285 OA
ATOM      5  C   UNL     1      25.422  39.059  32.910  1.00  0.00     0.111 A 
ATOM      6  C   UNL     1      24.530  40.113  33.222  1.00  0.00     0.134 A 
ATOM      7  C   UNL     1      24.182  41.047  32.234  1.00  0.00     0.093 A 
ATOM      8  C   UNL     1      24.711  40.946  30.942  1.00  0.00     0.123 A 
ATOM      9  C   UNL     1      25.591  39.909  30.630  1.00  0.00     0.094 A 
ATOM     10  C   UNL     1      25.951  38.970  31.601  1.00  0.00     0.146 A 
ATOM     11  O   UNL     1      26.795  37.997  31.278  1.00  0.00    -0.452 OA
ENDROOT
BRANCH   1  12
ATOM     12  C   UNL     1      28.151  36.038  31.653  1.00  0.00     0.025 A 
ATOM     13  C   UNL     1      29.517  36.351  31.570  1.00  0.00     0.016 A 
ATOM     14  C   UNL     1      30.438  35.394  31.137  1.00  0.00     0.051 A 
ATOM     15  C   UNL     1      30.009  34.105  30.795  1.00  0.00     0.157 A 
ATOM     16  C   UNL     1      27.727  34.737  31.328  1.00  0.00     0.062 A 
ATOM     17  C   UNL     1      28.647  33.774  30.895  1.00  0.00     0.158 A 
BRANCH  15  18
ATOM     18  O   UNL     1      30.929  33.152  30.360  1.00  0.00    -0.504 OA
ATOM     19  H   UNL     1      31.920  33.251  30.543  1.00  0.00     0.293 HD
ENDBRANCH  15  18
BRANCH  17  20
ATOM     20  O   UNL     1      28.190  32.497  30.577  1.00  0.00    -0.504 OA
ATOM     21  H   UNL     1      28.791  31.800  30.153  1.00  0.00     0.293 HD
ENDBRANCH  17  20
ENDBRANCH   1  12
BRANCH   2  22
ATOM     22  O   UNL     1      27.064  36.049  34.344  1.00  0.00    -0.502 OA
ATOM     23  H   UNL     1      26.833  35.076  34.184  1.00  0.00     0.293 HD
ENDBRANCH   2  22
BRANCH   6  24
ATOM     24  O   UNL     1      23.986  40.239  34.502  1.00  0.00    -0.507 OA
ATOM     25  H   UNL     1      23.539  41.095  34.809  1.00  0.00     0.293 HD
ENDBRANCH   6  24
BRANCH   8  26
ATOM     26  O   UNL     1      24.365  41.873  29.961  1.00  0.00    -0.508 OA
ATOM     27  H   UNL     1      24.717  42.822  29.980  1.00  0.00     0.293 HD
ENDBRANCH   8  26
TORSDOF 6
ENDMDL
