MODEL 1
REMARK VINA RESULT:    11.260      0.000      0.000
REMARK INTER + INTRA:          13.230
REMARK INTER:                  13.564
REMARK INTRA:                  -0.334
REMARK UNBOUND:                -0.334
REMARK SMILES O=c1c(O)c(-c2ccc(O)c(O)c2)oc2cc(O)cc(O)c12
REMARK SMILES IDX 5 1 3 2 2 3 1 4 22 5 20 6 19 7 17 8 16 9 15 10 14 11 6 12
REMARK SMILES IDX 7 13 8 14 9 15 13 16 11 17 10 18 12 20 4 22 21 24 18 26
REMARK H PARENT 10 19 12 21 4 23 21 25 18 27
REMARK Flexibility Score: inf
ROOT
ATOM      1  C   UNL     1     123.421 133.646 126.619  1.00  0.00     0.180 A 
ATOM      2  C   UNL     1     123.257 133.304 127.973  1.00  0.00     0.208 A 
ATOM      3  C   UNL     1     122.576 134.192 128.821  1.00  0.00     0.238 A 
ATOM      4  O   UNL     1     122.480 133.905 130.043  1.00  0.00    -0.285 OA
ATOM      5  C   UNL     1     122.054 135.400 128.303  1.00  0.00     0.111 A 
ATOM      6  C   UNL     1     121.312 136.355 129.063  1.00  0.00     0.134 A 
ATOM      7  C   UNL     1     120.956 137.577 128.479  1.00  0.00     0.093 A 
ATOM      8  C   UNL     1     121.258 137.853 127.146  1.00  0.00     0.123 A 
ATOM      9  C   UNL     1     121.931 136.903 126.376  1.00  0.00     0.094 A 
ATOM     10  C   UNL     1     122.331 135.690 126.942  1.00  0.00     0.146 A 
ATOM     11  O   UNL     1     122.979 134.817 126.179  1.00  0.00    -0.452 OA
ENDROOT
BRANCH   1  12
ATOM     12  C   UNL     1     124.107 132.751 125.659  1.00  0.00     0.025 A 
ATOM     13  C   UNL     1     123.406 131.751 124.962  1.00  0.00     0.016 A 
ATOM     14  C   UNL     1     124.070 130.935 124.042  1.00  0.00     0.051 A 
ATOM     15  C   UNL     1     125.437 131.114 123.793  1.00  0.00     0.157 A 
ATOM     16  C   UNL     1     125.473 132.941 125.391  1.00  0.00     0.062 A 
ATOM     17  C   UNL     1     126.140 132.125 124.470  1.00  0.00     0.158 A 
BRANCH  15  18
ATOM     18  O   UNL     1     126.096 130.297 122.876  1.00  0.00    -0.504 OA
ATOM     19  H   UNL     1     125.798 129.343 122.706  1.00  0.00     0.293 HD
ENDBRANCH  15  18
BRANCH  17  20
ATOM     20  O   UNL     1     127.500 132.334 124.241  1.00  0.00    -0.504 OA
ATOM     21  H   UNL     1     128.214 131.921 124.828  1.00  0.00     0.293 HD
ENDBRANCH  17  20
ENDBRANCH   1  12
BRANCH   2  22
ATOM     22  O   UNL     1     123.800 132.115 128.468  1.00  0.00    -0.502 OA
ATOM     23  H   UNL     1     124.468 132.098 129.230  1.00  0.00     0.293 HD
ENDBRANCH   2  22
BRANCH   6  24
ATOM     24  O   UNL     1     120.878 136.140 130.375  1.00  0.00    -0.507 OA
ATOM     25  H   UNL     1     120.115 135.535 130.636  1.00  0.00     0.293 HD
ENDBRANCH   6  24
BRANCH   8  26
ATOM     26  O   UNL     1     120.875 139.072 126.594  1.00  0.00    -0.508 OA
ATOM     27  H   UNL     1     121.455 139.553 125.915  1.00  0.00     0.293 HD
ENDBRANCH   8  26
TORSDOF 6
ENDMDL
MODEL 2
REMARK VINA RESULT:    13.596      3.707      5.554
REMARK INTER + INTRA:          16.044
REMARK INTER:                  15.573
REMARK INTRA:                   0.471
REMARK UNBOUND:                -0.334
REMARK SMILES O=c1c(O)c(-c2ccc(O)c(O)c2)oc2cc(O)cc(O)c12
REMARK SMILES IDX 5 1 3 2 2 3 1 4 22 5 20 6 19 7 17 8 16 9 15 10 14 11 6 12
REMARK SMILES IDX 7 13 8 14 9 15 13 16 11 17 10 18 12 20 4 22 21 24 18 26
REMARK H PARENT 10 19 12 21 4 23 21 25 18 27
REMARK Flexibility Score: inf
ROOT
ATOM      1  C   UNL     1     123.122 130.634 127.995  1.00  0.00     0.180 A 
ATOM      2  C   UNL     1     123.008 131.636 128.974  1.00  0.00     0.208 A 
ATOM      3  C   UNL     1     123.553 132.904 128.717  1.00  0.00     0.238 A 
ATOM      4  O   UNL     1     123.495 133.781 129.618  1.00  0.00    -0.285 OA
ATOM      5  C   UNL     1     124.191 133.159 127.479  1.00  0.00     0.111 A 
ATOM      6  C   UNL     1     124.744 134.418 127.096  1.00  0.00     0.134 A 
ATOM      7  C   UNL     1     125.467 134.520 125.901  1.00  0.00     0.093 A 
ATOM      8  C   UNL     1     125.602 133.427 125.046  1.00  0.00     0.123 A 
ATOM      9  C   UNL     1     125.015 132.206 125.382  1.00  0.00     0.094 A 
ATOM     10  C   UNL     1     124.319 132.065 126.585  1.00  0.00     0.146 A 
ATOM     11  O   UNL     1     123.784 130.884 126.873  1.00  0.00    -0.452 OA
ENDROOT
BRANCH   1  12
ATOM     12  C   UNL     1     122.551 129.281 128.184  1.00  0.00     0.025 A 
ATOM     13  C   UNL     1     121.800 128.955 129.328  1.00  0.00     0.016 A 
ATOM     14  C   UNL     1     121.250 127.679 129.472  1.00  0.00     0.051 A 
ATOM     15  C   UNL     1     121.429 126.714 128.473  1.00  0.00     0.157 A 
ATOM     16  C   UNL     1     122.710 128.316 127.175  1.00  0.00     0.062 A 
ATOM     17  C   UNL     1     122.160 127.036 127.317  1.00  0.00     0.158 A 
BRANCH  15  18
ATOM     18  O   UNL     1     120.880 125.441 128.621  1.00  0.00    -0.504 OA
ATOM     19  H   UNL     1     120.127 125.261 129.276  1.00  0.00     0.293 HD
ENDBRANCH  15  18
BRANCH  17  20
ATOM     20  O   UNL     1     122.351 126.101 126.301  1.00  0.00    -0.504 OA
ATOM     21  H   UNL     1     122.142 125.118 126.428  1.00  0.00     0.293 HD
ENDBRANCH  17  20
ENDBRANCH   1  12
BRANCH   2  22
ATOM     22  O   UNL     1     122.392 131.357 130.198  1.00  0.00    -0.502 OA
ATOM     23  H   UNL     1     121.725 130.603 130.312  1.00  0.00     0.293 HD
ENDBRANCH   2  22
BRANCH   6  24
ATOM     24  O   UNL     1     124.588 135.595 127.834  1.00  0.00    -0.507 OA
ATOM     25  H   UNL     1     125.331 136.069 128.325  1.00  0.00     0.293 HD
ENDBRANCH   6  24
BRANCH   8  26
ATOM     26  O   UNL     1     126.315 133.569 123.858  1.00  0.00    -0.508 OA
ATOM     27  H   UNL     1     126.793 132.785 123.429  1.00  0.00     0.293 HD
ENDBRANCH   8  26
TORSDOF 6
ENDMDL
