MODEL 1
REMARK VINA RESULT:    -2.799      0.000      0.000
REMARK INTER + INTRA:          -4.173
REMARK INTER:                  -5.089
REMARK INTRA:                   0.916
REMARK UNBOUND:                 0.916
REMARK SMILES CCCCCCCCCCCCCCCC(=O)[O-]
REMARK SMILES IDX 9 1 10 2 11 3 12 4 13 5 14 6 15 7 16 8 17 9 18 10 8 11 7 12
REMARK SMILES IDX 6 13 5 14 4 15 3 16 2 17 1 18
REMARK H PARENT
REMARK Flexibility Score: inf
ROOT
ATOM      1  C   UNL     1       5.161  10.829 -13.769  1.00  0.00     0.000 C 
ENDROOT
BRANCH   1   2
ATOM      2  C   UNL     1       6.453  10.060 -14.085  1.00  0.00     0.000 C 
BRANCH   2   3
ATOM      3  C   UNL     1       6.944   9.278 -12.861  1.00  0.00     0.000 C 
BRANCH   3   4
ATOM      4  C   UNL     1       6.225   7.926 -12.750  1.00  0.00     0.000 C 
BRANCH   4   5
ATOM      5  C   UNL     1       5.235   7.875 -11.575  1.00  0.00     0.000 C 
BRANCH   5   6
ATOM      6  C   UNL     1       4.255   9.061 -11.581  1.00  0.00     0.006 C 
BRANCH   6   7
ATOM      7  C   UNL     1       3.161   8.914 -10.514  1.00  0.00     0.053 C 
BRANCH   7   8
ATOM      8  C   UNL     1       3.722   8.480  -9.193  1.00  0.00     0.041 C 
ATOM      9  O   UNL     1       2.952   8.107  -8.270  1.00  0.00    -0.550 OA
ATOM     10  O   UNL     1       5.096   8.464  -8.991  1.00  0.00    -0.550 OA
ENDBRANCH   7   8
ENDBRANCH   6   7
ENDBRANCH   5   6
ENDBRANCH   4   5
ENDBRANCH   3   4
ENDBRANCH   2   3
ENDBRANCH   1   2
BRANCH   1  11
ATOM     11  C   UNL     1       4.478  11.368 -15.043  1.00  0.00     0.000 C 
BRANCH  11  12
ATOM     12  C   UNL     1       2.962  11.107 -15.091  1.00  0.00    -0.000 C 
BRANCH  12  13
ATOM     13  C   UNL     1       2.146  12.185 -14.358  1.00  0.00    -0.000 C 
BRANCH  13  14
ATOM     14  C   UNL     1       1.879  13.416 -15.241  1.00  0.00    -0.000 C 
BRANCH  14  15
ATOM     15  C   UNL     1       3.102  13.807 -16.091  1.00  0.00    -0.000 C 
BRANCH  15  16
ATOM     16  C   UNL     1       3.487  15.289 -15.935  1.00  0.00    -0.000 C 
BRANCH  16  17
ATOM     17  C   UNL     1       2.313  16.276 -16.074  1.00  0.00    -0.003 C 
ATOM     18  C   UNL     1       2.752  17.738 -15.985  1.00  0.00     0.004 C 
ENDBRANCH  16  17
ENDBRANCH  15  16
ENDBRANCH  14  15
ENDBRANCH  13  14
ENDBRANCH  12  13
ENDBRANCH  11  12
ENDBRANCH   1  11
TORSDOF 14
ENDMDL
MODEL 2
REMARK VINA RESULT:    -1.435      1.637      2.527
REMARK INTER + INTRA:          -1.693
REMARK INTER:                  -0.270
REMARK INTRA:                  -1.422
REMARK UNBOUND:                 0.916
REMARK SMILES CCCCCCCCCCCCCCCC(=O)[O-]
REMARK SMILES IDX 9 1 10 2 11 3 12 4 13 5 14 6 15 7 16 8 17 9 18 10 8 11 7 12
REMARK SMILES IDX 6 13 5 14 4 15 3 16 2 17 1 18
REMARK H PARENT
REMARK Flexibility Score: inf
ROOT
ATOM      1  C   UNL     1       6.132  11.804 -14.321  1.00  0.00     0.000 C 
ENDROOT
BRANCH   1   2
ATOM      2  C   UNL     1       5.452  10.918 -13.265  1.00  0.00     0.000 C 
BRANCH   2   3
ATOM      3  C   UNL     1       6.470  10.388 -12.249  1.00  0.00     0.000 C 
BRANCH   3   4
ATOM      4  C   UNL     1       7.119   9.090 -12.751  1.00  0.00     0.000 C 
BRANCH   4   5
ATOM      5  C   UNL     1       6.186   7.875 -12.630  1.00  0.00     0.000 C 
BRANCH   5   6
ATOM      6  C   UNL     1       5.155   8.036 -11.499  1.00  0.00     0.006 C 
BRANCH   6   7
ATOM      7  C   UNL     1       3.712   7.908 -12.007  1.00  0.00     0.053 C 
BRANCH   7   8
ATOM      8  C   UNL     1       2.793   8.884 -11.336  1.00  0.00     0.041 C 
ATOM      9  O   UNL     1       1.947   9.526 -12.011  1.00  0.00    -0.550 OA
ATOM     10  O   UNL     1       2.856   9.067  -9.960  1.00  0.00    -0.550 OA
ENDBRANCH   7   8
ENDBRANCH   6   7
ENDBRANCH   5   6
ENDBRANCH   4   5
ENDBRANCH   3   4
ENDBRANCH   2   3
ENDBRANCH   1   2
BRANCH   1  11
ATOM     11  C   UNL     1       5.784  11.367 -15.759  1.00  0.00     0.000 C 
BRANCH  11  12
ATOM     12  C   UNL     1       5.389   9.884 -15.877  1.00  0.00    -0.000 C 
BRANCH  12  13
ATOM     13  C   UNL     1       3.882   9.684 -16.117  1.00  0.00    -0.000 C 
BRANCH  13  14
ATOM     14  C   UNL     1       3.026  10.661 -15.295  1.00  0.00    -0.000 C 
BRANCH  14  15
ATOM     15  C   UNL     1       1.877  11.274 -16.119  1.00  0.00    -0.000 C 
BRANCH  15  16
ATOM     16  C   UNL     1       1.893  12.813 -16.111  1.00  0.00    -0.000 C 
BRANCH  16  17
ATOM     17  C   UNL     1       2.916  13.440 -15.146  1.00  0.00    -0.003 C 
ATOM     18  C   UNL     1       3.891  14.388 -15.848  1.00  0.00     0.004 C 
ENDBRANCH  16  17
ENDBRANCH  15  16
ENDBRANCH  14  15
ENDBRANCH  13  14
ENDBRANCH  12  13
ENDBRANCH  11  12
ENDBRANCH   1  11
TORSDOF 14
ENDMDL
MODEL 3
REMARK VINA RESULT:    -1.249      2.605      5.223
REMARK INTER + INTRA:          -1.355
REMARK INTER:                  -1.770
REMARK INTRA:                   0.415
REMARK UNBOUND:                 0.916
REMARK SMILES CCCCCCCCCCCCCCCC(=O)[O-]
REMARK SMILES IDX 9 1 10 2 11 3 12 4 13 5 14 6 15 7 16 8 17 9 18 10 8 11 7 12
REMARK SMILES IDX 6 13 5 14 4 15 3 16 2 17 1 18
REMARK H PARENT
REMARK Flexibility Score: inf
ROOT
ATOM      1  C   UNL     1       4.512  11.582 -15.802  1.00  0.00     0.000 C 
ENDROOT
BRANCH   1   2
ATOM      2  C   UNL     1       4.505  12.146 -14.373  1.00  0.00     0.000 C 
BRANCH   2   3
ATOM      3  C   UNL     1       5.079  11.133 -13.376  1.00  0.00     0.000 C 
BRANCH   3   4
ATOM      4  C   UNL     1       6.341  10.464 -13.939  1.00  0.00     0.000 C 
BRANCH   4   5
ATOM      5  C   UNL     1       6.051   9.101 -14.587  1.00  0.00     0.000 C 
BRANCH   5   6
ATOM      6  C   UNL     1       5.908   7.975 -13.548  1.00  0.00     0.006 C 
BRANCH   6   7
ATOM      7  C   UNL     1       6.890   8.138 -12.379  1.00  0.00     0.053 C 
BRANCH   7   8
ATOM      8  C   UNL     1       6.202   8.597 -11.129  1.00  0.00     0.041 C 
ATOM      9  O   UNL     1       6.577   9.649 -10.549  1.00  0.00    -0.550 OA
ATOM     10  O   UNL     1       5.130   7.876 -10.618  1.00  0.00    -0.550 OA
ENDBRANCH   7   8
ENDBRANCH   6   7
ENDBRANCH   5   6
ENDBRANCH   4   5
ENDBRANCH   3   4
ENDBRANCH   2   3
ENDBRANCH   1   2
BRANCH   1  11
ATOM     11  C   UNL     1       3.229  10.787 -16.121  1.00  0.00     0.000 C 
BRANCH  11  12
ATOM     12  C   UNL     1       3.223   9.362 -15.540  1.00  0.00    -0.000 C 
BRANCH  12  13
ATOM     13  C   UNL     1       1.881   8.989 -14.886  1.00  0.00    -0.000 C 
BRANCH  13  14
ATOM     14  C   UNL     1       2.066   8.139 -13.618  1.00  0.00    -0.000 C 
BRANCH  14  15
ATOM     15  C   UNL     1       2.675   8.944 -12.454  1.00  0.00    -0.000 C 
BRANCH  15  16
ATOM     16  C   UNL     1       1.876   8.798 -11.146  1.00  0.00    -0.000 C 
BRANCH  16  17
ATOM     17  C   UNL     1       2.707   8.337  -9.934  1.00  0.00    -0.003 C 
ATOM     18  C   UNL     1       1.999   8.583  -8.601  1.00  0.00     0.004 C 
ENDBRANCH  16  17
ENDBRANCH  15  16
ENDBRANCH  14  15
ENDBRANCH  13  14
ENDBRANCH  12  13
ENDBRANCH  11  12
ENDBRANCH   1  11
TORSDOF 14
ENDMDL
MODEL 4
REMARK VINA RESULT:    -0.247     14.155     17.041
REMARK INTER + INTRA:           0.468
REMARK INTER:                  -0.398
REMARK INTRA:                   0.866
REMARK UNBOUND:                 0.916
REMARK SMILES CCCCCCCCCCCCCCCC(=O)[O-]
REMARK SMILES IDX 9 1 10 2 11 3 12 4 13 5 14 6 15 7 16 8 17 9 18 10 8 11 7 12
REMARK SMILES IDX 6 13 5 14 4 15 3 16 2 17 1 18
REMARK H PARENT
REMARK Flexibility Score: inf
ROOT
ATOM      1  C   UNL     1      17.641  11.149 -12.801  1.00  0.00     0.000 C 
ENDROOT
BRANCH   1   2
ATOM      2  C   UNL     1      18.118  12.518 -13.311  1.00  0.00     0.000 C 
BRANCH   2   3
ATOM      3  C   UNL     1      18.877  12.380 -14.637  1.00  0.00     0.000 C 
BRANCH   3   4
ATOM      4  C   UNL     1      20.378  12.628 -14.438  1.00  0.00     0.000 C 
BRANCH   4   5
ATOM      5  C   UNL     1      21.207  12.282 -15.685  1.00  0.00     0.000 C 
BRANCH   5   6
ATOM      6  C   UNL     1      22.121  13.440 -16.123  1.00  0.00     0.006 C 
BRANCH   6   7
ATOM      7  C   UNL     1      21.973  14.670 -15.215  1.00  0.00     0.053 C 
BRANCH   7   8
ATOM      8  C   UNL     1      21.040  15.687 -15.798  1.00  0.00     0.041 C 
ATOM      9  O   UNL     1      19.869  15.359 -16.125  1.00  0.00    -0.550 OA
ATOM     10  O   UNL     1      21.454  17.003 -15.958  1.00  0.00    -0.550 OA
ENDBRANCH   7   8
ENDBRANCH   6   7
ENDBRANCH   5   6
ENDBRANCH   4   5
ENDBRANCH   3   4
ENDBRANCH   2   3
ENDBRANCH   1   2
BRANCH   1  11
ATOM     11  C   UNL     1      18.176   9.987 -13.663  1.00  0.00     0.000 C 
BRANCH  11  12
ATOM     12  C   UNL     1      17.413   8.666 -13.463  1.00  0.00    -0.000 C 
BRANCH  12  13
ATOM     13  C   UNL     1      16.465   8.340 -14.631  1.00  0.00    -0.000 C 
BRANCH  13  14
ATOM     14  C   UNL     1      17.187   8.351 -15.989  1.00  0.00    -0.000 C 
BRANCH  14  15
ATOM     15  C   UNL     1      18.591   8.980 -15.904  1.00  0.00    -0.000 C 
BRANCH  15  16
ATOM     16  C   UNL     1      19.719   7.944 -16.052  1.00  0.00    -0.000 C 
BRANCH  16  17
ATOM     17  C   UNL     1      21.138   8.542 -16.103  1.00  0.00    -0.003 C 
ATOM     18  C   UNL     1      21.432   9.473 -14.926  1.00  0.00     0.004 C 
ENDBRANCH  16  17
ENDBRANCH  15  16
ENDBRANCH  14  15
ENDBRANCH  13  14
ENDBRANCH  12  13
ENDBRANCH  11  12
ENDBRANCH   1  11
TORSDOF 14
ENDMDL
