MODEL 1
REMARK VINA RESULT:    -3.362      0.000      0.000
REMARK INTER + INTRA:          -3.460
REMARK INTER:                  -3.460
REMARK INTRA:                   0.000
REMARK UNBOUND:                 0.000
REMARK SMILES CC1(C)[C@H]2CC[C@](C)(C2)[C@H]1O
REMARK SMILES IDX 1 1 2 2 4 3 5 4 6 5 7 6 9 7 10 8 8 9 3 10 11 11
REMARK H PARENT 11 12
REMARK Flexibility Score: inf
ROOT
ATOM      1  C   UNL     1     137.531 138.754 141.166  1.00  0.00     0.014 C 
ATOM      2  C   UNL     1     136.590 139.744 141.902  1.00  0.00    -0.006 C 
ATOM      3  C   UNL     1     136.381 139.390 143.415  1.00  0.00    -0.002 C 
ATOM      4  C   UNL     1     137.730 139.137 144.120  1.00  0.00     0.005 C 
ATOM      5  C   UNL     1     138.380 140.529 144.124  1.00  0.00     0.010 C 
ATOM      6  C   UNL     1     137.269 141.425 143.523  1.00  0.00    -0.006 C 
ATOM      7  C   UNL     1     136.019 140.735 144.024  1.00  0.00     0.013 C 
ATOM      8  C   UNL     1     137.159 141.200 141.994  1.00  0.00     0.126 C 
ATOM      9  C   UNL     1     137.375 142.898 143.929  1.00  0.00     0.014 C 
ATOM     10  C   UNL     1     135.231 139.728 141.159  1.00  0.00     0.014 C 
ENDROOT
BRANCH   8  11
ATOM     11  O   UNL     1     138.404 141.361 141.363  1.00  0.00    -0.392 OA
ATOM     12  H   UNL     1     139.054 141.590 142.077  1.00  0.00     0.211 HD
ENDBRANCH   8  11
TORSDOF 1
ENDMDL
MODEL 2
REMARK VINA RESULT:    -3.359      4.454      5.714
REMARK INTER + INTRA:          -3.457
REMARK INTER:                  -3.457
REMARK INTRA:                   0.000
REMARK UNBOUND:                 0.000
REMARK SMILES CC1(C)[C@H]2CC[C@](C)(C2)[C@H]1O
REMARK SMILES IDX 1 1 2 2 4 3 5 4 6 5 7 6 9 7 10 8 8 9 3 10 11 11
REMARK H PARENT 11 12
REMARK Flexibility Score: inf
ROOT
ATOM      1  C   UNL     1     139.548 137.754 141.655  1.00  0.00     0.014 C 
ATOM      2  C   UNL     1     140.273 137.540 143.010  1.00  0.00    -0.006 C 
ATOM      3  C   UNL     1     141.056 136.184 143.087  1.00  0.00    -0.002 C 
ATOM      4  C   UNL     1     141.944 135.982 141.841  1.00  0.00     0.005 C 
ATOM      5  C   UNL     1     143.016 137.070 142.008  1.00  0.00     0.010 C 
ATOM      6  C   UNL     1     142.671 137.680 143.388  1.00  0.00    -0.006 C 
ATOM      7  C   UNL     1     142.127 136.476 144.125  1.00  0.00     0.013 C 
ATOM      8  C   UNL     1     141.412 138.579 143.284  1.00  0.00     0.126 C 
ATOM      9  C   UNL     1     143.860 138.352 144.082  1.00  0.00     0.014 C 
ATOM     10  C   UNL     1     139.197 137.597 144.123  1.00  0.00     0.014 C 
ENDROOT
BRANCH   8  11
ATOM     11  O   UNL     1     141.555 139.542 142.270  1.00  0.00    -0.392 OA
ATOM     12  H   UNL     1     142.484 139.459 141.932  1.00  0.00     0.211 HD
ENDBRANCH   8  11
TORSDOF 1
ENDMDL
MODEL 3
REMARK VINA RESULT:    -3.344      3.614      5.693
REMARK INTER + INTRA:          -3.442
REMARK INTER:                  -3.442
REMARK INTRA:                   0.000
REMARK UNBOUND:                 0.000
REMARK SMILES CC1(C)[C@H]2CC[C@](C)(C2)[C@H]1O
REMARK SMILES IDX 1 1 2 2 4 3 5 4 6 5 7 6 9 7 10 8 8 9 3 10 11 11
REMARK H PARENT 11 12
REMARK Flexibility Score: inf
ROOT
ATOM      1  C   UNL     1     142.117 143.901 141.656  1.00  0.00     0.014 C 
ATOM      2  C   UNL     1     141.386 144.097 143.011  1.00  0.00    -0.006 C 
ATOM      3  C   UNL     1     140.577 145.438 143.089  1.00  0.00    -0.002 C 
ATOM      4  C   UNL     1     139.687 145.626 141.843  1.00  0.00     0.005 C 
ATOM      5  C   UNL     1     138.636 144.517 142.004  1.00  0.00     0.010 C 
ATOM      6  C   UNL     1     138.990 143.910 143.383  1.00  0.00    -0.006 C 
ATOM      7  C   UNL     1     139.510 145.122 144.124  1.00  0.00     0.013 C 
ATOM      8  C   UNL     1     140.266 143.036 143.279  1.00  0.00     0.126 C 
ATOM      9  C   UNL     1     137.813 143.213 144.073  1.00  0.00     0.014 C 
ATOM     10  C   UNL     1     142.461 144.058 144.125  1.00  0.00     0.014 C 
ENDROOT
BRANCH   8  11
ATOM     11  O   UNL     1     140.144 142.073 142.262  1.00  0.00    -0.392 OA
ATOM     12  H   UNL     1     140.076 142.573 141.407  1.00  0.00     0.211 HD
ENDBRANCH   8  11
TORSDOF 1
ENDMDL
MODEL 4
REMARK VINA RESULT:    -3.315      6.297      7.504
REMARK INTER + INTRA:          -3.412
REMARK INTER:                  -3.412
REMARK INTRA:                   0.000
REMARK UNBOUND:                 0.000
REMARK SMILES CC1(C)[C@H]2CC[C@](C)(C2)[C@H]1O
REMARK SMILES IDX 1 1 2 2 4 3 5 4 6 5 7 6 9 7 10 8 8 9 3 10 11 11
REMARK H PARENT 11 12
REMARK Flexibility Score: inf
ROOT
ATOM      1  C   UNL     1     144.013 139.478 141.646  1.00  0.00     0.014 C 
ATOM      2  C   UNL     1     144.154 140.230 142.996  1.00  0.00    -0.006 C 
ATOM      3  C   UNL     1     145.496 141.030 143.122  1.00  0.00    -0.002 C 
ATOM      4  C   UNL     1     145.747 141.898 141.871  1.00  0.00     0.005 C 
ATOM      5  C   UNL     1     144.641 142.960 141.966  1.00  0.00     0.010 C 
ATOM      6  C   UNL     1     143.969 142.633 143.321  1.00  0.00    -0.006 C 
ATOM      7  C   UNL     1     145.142 142.117 144.125  1.00  0.00     0.013 C 
ATOM      8  C   UNL     1     143.091 141.362 143.198  1.00  0.00     0.126 C 
ATOM      9  C   UNL     1     143.251 143.826 143.961  1.00  0.00     0.014 C 
ATOM     10  C   UNL     1     144.057 139.174 144.125  1.00  0.00     0.014 C 
ENDROOT
BRANCH   8  11
ATOM     11  O   UNL     1     142.175 141.474 142.138  1.00  0.00    -0.392 OA
ATOM     12  H   UNL     1     142.087 142.443 141.943  1.00  0.00     0.211 HD
ENDBRANCH   8  11
TORSDOF 1
ENDMDL
MODEL 5
REMARK VINA RESULT:    -3.313      3.470      5.135
REMARK INTER + INTRA:          -3.410
REMARK INTER:                  -3.410
REMARK INTRA:                   0.000
REMARK UNBOUND:                 0.000
REMARK SMILES CC1(C)[C@H]2CC[C@](C)(C2)[C@H]1O
REMARK SMILES IDX 1 1 2 2 4 3 5 4 6 5 7 6 9 7 10 8 8 9 3 10 11 11
REMARK H PARENT 11 12
REMARK Flexibility Score: inf
ROOT
ATOM      1  C   UNL     1     137.814 143.199 143.742  1.00  0.00     0.014 C 
ATOM      2  C   UNL     1     138.712 143.531 142.521  1.00  0.00    -0.006 C 
ATOM      3  C   UNL     1     139.148 145.036 142.463  1.00  0.00    -0.002 C 
ATOM      4  C   UNL     1     139.708 145.506 143.822  1.00  0.00     0.005 C 
ATOM      5  C   UNL     1     141.020 144.717 143.941  1.00  0.00     0.010 C 
ATOM      6  C   UNL     1     141.101 143.982 142.582  1.00  0.00    -0.006 C 
ATOM      7  C   UNL     1     140.436 144.978 141.658  1.00  0.00     0.013 C 
ATOM      8  C   UNL     1     140.097 142.801 142.543  1.00  0.00     0.126 C 
ATOM      9  C   UNL     1     142.525 143.601 142.167  1.00  0.00     0.014 C 
ATOM     10  C   UNL     1     137.913 143.160 141.247  1.00  0.00     0.014 C 
ENDROOT
BRANCH   8  11
ATOM     11  O   UNL     1     140.269 141.948 143.646  1.00  0.00    -0.392 OA
ATOM     12  H   UNL     1     139.414 141.457 143.758  1.00  0.00     0.211 HD
ENDBRANCH   8  11
TORSDOF 1
ENDMDL
MODEL 6
REMARK VINA RESULT:    -3.312      4.216      5.550
REMARK INTER + INTRA:          -3.409
REMARK INTER:                  -3.409
REMARK INTRA:                   0.000
REMARK UNBOUND:                 0.000
REMARK SMILES CC1(C)[C@H]2CC[C@](C)(C2)[C@H]1O
REMARK SMILES IDX 1 1 2 2 4 3 5 4 6 5 7 6 9 7 10 8 8 9 3 10 11 11
REMARK H PARENT 11 12
REMARK Flexibility Score: inf
ROOT
ATOM      1  C   UNL     1     142.758 137.590 141.172  1.00  0.00     0.014 C 
ATOM      2  C   UNL     1     141.767 136.670 141.931  1.00  0.00    -0.006 C 
ATOM      3  C   UNL     1     142.128 136.486 143.446  1.00  0.00    -0.002 C 
ATOM      4  C   UNL     1     142.395 137.846 144.124  1.00  0.00     0.005 C 
ATOM      5  C   UNL     1     141.008 138.504 144.125  1.00  0.00     0.010 C 
ATOM      6  C   UNL     1     140.101 137.389 143.551  1.00  0.00    -0.006 C 
ATOM      7  C   UNL     1     140.785 136.144 144.069  1.00  0.00     0.013 C 
ATOM      8  C   UNL     1     140.315 137.250 142.022  1.00  0.00     0.126 C 
ATOM      9  C   UNL     1     138.631 137.512 143.964  1.00  0.00     0.014 C 
ATOM     10  C   UNL     1     141.769 135.297 141.214  1.00  0.00     0.014 C 
ENDROOT
BRANCH   8  11
ATOM     11  O   UNL     1     140.158 138.485 141.369  1.00  0.00    -0.392 OA
ATOM     12  H   UNL     1     141.038 138.705 140.968  1.00  0.00     0.211 HD
ENDBRANCH   8  11
TORSDOF 1
ENDMDL
MODEL 7
REMARK VINA RESULT:    -3.293      4.604      5.997
REMARK INTER + INTRA:          -3.389
REMARK INTER:                  -3.389
REMARK INTRA:                   0.000
REMARK UNBOUND:                 0.000
REMARK SMILES CC1(C)[C@H]2CC[C@](C)(C2)[C@H]1O
REMARK SMILES IDX 1 1 2 2 4 3 5 4 6 5 7 6 9 7 10 8 8 9 3 10 11 11
REMARK H PARENT 11 12
REMARK Flexibility Score: inf
ROOT
ATOM      1  C   UNL     1     143.672 138.383 143.947  1.00  0.00     0.014 C 
ATOM      2  C   UNL     1     142.804 138.018 142.714  1.00  0.00    -0.006 C 
ATOM      3  C   UNL     1     142.391 136.506 142.672  1.00  0.00    -0.002 C 
ATOM      4  C   UNL     1     141.811 136.049 144.027  1.00  0.00     0.005 C 
ATOM      5  C   UNL     1     140.485 136.820 144.108  1.00  0.00     0.010 C 
ATOM      6  C   UNL     1     140.421 137.532 142.735  1.00  0.00    -0.006 C 
ATOM      7  C   UNL     1     141.119 136.532 141.840  1.00  0.00     0.013 C 
ATOM      8  C   UNL     1     141.408 138.727 142.697  1.00  0.00     0.126 C 
ATOM      9  C   UNL     1     138.999 137.885 142.286  1.00  0.00     0.014 C 
ATOM     10  C   UNL     1     143.622 138.382 141.450  1.00  0.00     0.014 C 
ENDROOT
BRANCH   8  11
ATOM     11  O   UNL     1     141.201 139.595 143.783  1.00  0.00    -0.392 OA
ATOM     12  H   UNL     1     140.273 139.436 144.098  1.00  0.00     0.211 HD
ENDBRANCH   8  11
TORSDOF 1
ENDMDL
MODEL 8
REMARK VINA RESULT:    -3.282      1.483      2.202
REMARK INTER + INTRA:          -3.378
REMARK INTER:                  -3.378
REMARK INTRA:                   0.000
REMARK UNBOUND:                 0.000
REMARK SMILES CC1(C)[C@H]2CC[C@](C)(C2)[C@H]1O
REMARK SMILES IDX 1 1 2 2 4 3 5 4 6 5 7 6 9 7 10 8 8 9 3 10 11 11
REMARK H PARENT 11 12
REMARK Flexibility Score: inf
ROOT
ATOM      1  C   UNL     1     138.393 137.689 143.592  1.00  0.00     0.014 C 
ATOM      2  C   UNL     1     138.065 138.675 142.440  1.00  0.00    -0.006 C 
ATOM      3  C   UNL     1     136.577 139.168 142.451  1.00  0.00    -0.002 C 
ATOM      4  C   UNL     1     136.162 139.655 143.856  1.00  0.00     0.005 C 
ATOM      5  C   UNL     1     137.003 140.928 144.037  1.00  0.00     0.010 C 
ATOM      6  C   UNL     1     137.706 141.070 142.665  1.00  0.00    -0.006 C 
ATOM      7  C   UNL     1     136.663 140.502 141.729  1.00  0.00     0.013 C 
ATOM      8  C   UNL     1     138.847 140.029 142.531  1.00  0.00     0.126 C 
ATOM      9  C   UNL     1     138.130 142.504 142.332  1.00  0.00     0.014 C 
ATOM     10  C   UNL     1     138.374 137.947 141.108  1.00  0.00     0.014 C 
ENDROOT
BRANCH   8  11
ATOM     11  O   UNL     1     139.733 140.098 143.619  1.00  0.00    -0.392 OA
ATOM     12  H   UNL     1     140.326 140.876 143.450  1.00  0.00     0.211 HD
ENDBRANCH   8  11
TORSDOF 1
ENDMDL
