MODEL 1
REMARK VINA RESULT:    -5.008      0.000      0.000
REMARK INTER + INTRA:         -16.990
REMARK INTER:                 -13.206
REMARK INTRA:                  -3.784
REMARK UNBOUND:                -3.784
REMARK SMILES CCCCCCCCCCCCCCCCCCCCCCCCCCCCCC(=O)[O-]
REMARK SMILES IDX 16 1 17 2 18 3 19 4 20 5 21 6 22 7 23 8 24 9 25 10 26 11
REMARK SMILES IDX 27 12 28 13 29 14 30 15 31 16 32 17 15 18 14 19 13 20 12 21
REMARK SMILES IDX 11 22 10 23 9 24 8 25 7 26 6 27 5 28 4 29 3 30 2 31 1 32
REMARK H PARENT
REMARK Flexibility Score: inf
ROOT
ATOM      1  C   UNL     1      -9.052  -0.861  20.921  1.00  0.00     0.000 C 
ENDROOT
BRANCH   1   2
ATOM      2  C   UNL     1      -8.861  -0.863  22.449  1.00  0.00     0.000 C 
BRANCH   2   3
ATOM      3  C   UNL     1      -9.587   0.267  23.203  1.00  0.00     0.000 C 
BRANCH   3   4
ATOM      4  C   UNL     1     -10.080  -0.097  24.616  1.00  0.00     0.000 C 
BRANCH   4   5
ATOM      5  C   UNL     1     -11.616  -0.089  24.767  1.00  0.00     0.000 C 
BRANCH   5   6
ATOM      6  C   UNL     1     -12.328   0.535  23.554  1.00  0.00     0.000 C 
BRANCH   6   7
ATOM      7  C   UNL     1     -13.702  -0.097  23.284  1.00  0.00     0.000 C 
BRANCH   7   8
ATOM      8  C   UNL     1     -14.295  -0.773  24.532  1.00  0.00     0.000 C 
BRANCH   8   9
ATOM      9  C   UNL     1     -15.513  -1.652  24.204  1.00  0.00     0.000 C 
BRANCH   9  10
ATOM     10  C   UNL     1     -16.224  -1.217  22.910  1.00  0.00     0.000 C 
BRANCH  10  11
ATOM     11  C   UNL     1     -16.976  -2.385  22.238  1.00  0.00     0.000 C 
BRANCH  11  12
ATOM     12  C   UNL     1     -17.446  -2.077  20.806  1.00  0.00     0.000 C 
BRANCH  12  13
ATOM     13  C   UNL     1     -17.150  -3.218  19.821  1.00  0.00     0.006 C 
BRANCH  13  14
ATOM     14  C   UNL     1     -15.676  -3.649  19.857  1.00  0.00     0.053 C 
BRANCH  14  15
ATOM     15  C   UNL     1     -15.533  -5.140  19.892  1.00  0.00     0.041 C 
ATOM     16  O   UNL     1     -16.366  -5.871  19.295  1.00  0.00    -0.550 OA
ATOM     17  O   UNL     1     -14.496  -5.722  20.610  1.00  0.00    -0.550 OA
ENDBRANCH  14  15
ENDBRANCH  13  14
ENDBRANCH  12  13
ENDBRANCH  11  12
ENDBRANCH  10  11
ENDBRANCH   9  10
ENDBRANCH   8   9
ENDBRANCH   7   8
ENDBRANCH   6   7
ENDBRANCH   5   6
ENDBRANCH   4   5
ENDBRANCH   3   4
ENDBRANCH   2   3
ENDBRANCH   1   2
BRANCH   1  18
ATOM     18  C   UNL     1     -10.242  -1.715  20.461  1.00  0.00     0.000 C 
BRANCH  18  19
ATOM     19  C   UNL     1     -11.434  -0.827  20.080  1.00  0.00     0.000 C 
BRANCH  19  20
ATOM     20  C   UNL     1     -11.009   0.534  19.504  1.00  0.00     0.000 C 
BRANCH  20  21
ATOM     21  C   UNL     1     -11.691   1.715  20.217  1.00  0.00     0.000 C 
BRANCH  21  22
ATOM     22  C   UNL     1     -10.717   2.858  20.557  1.00  0.00     0.000 C 
BRANCH  22  23
ATOM     23  C   UNL     1      -9.238   2.580  20.230  1.00  0.00     0.000 C 
BRANCH  23  24
ATOM     24  C   UNL     1      -8.647   3.571  19.215  1.00  0.00    -0.000 C 
BRANCH  24  25
ATOM     25  C   UNL     1      -8.443   2.906  17.849  1.00  0.00    -0.000 C 
BRANCH  25  26
ATOM     26  C   UNL     1      -9.413   3.481  16.808  1.00  0.00    -0.000 C 
BRANCH  26  27
ATOM     27  C   UNL     1     -10.120   2.358  16.035  1.00  0.00    -0.000 C 
BRANCH  27  28
ATOM     28  C   UNL     1     -11.597   2.198  16.432  1.00  0.00    -0.000 C 
BRANCH  28  29
ATOM     29  C   UNL     1     -12.376   1.130  15.638  1.00  0.00    -0.000 C 
BRANCH  29  30
ATOM     30  C   UNL     1     -11.619   0.528  14.441  1.00  0.00    -0.000 C 
BRANCH  30  31
ATOM     31  C   UNL     1     -12.557  -0.061  13.377  1.00  0.00    -0.003 C 
ATOM     32  C   UNL     1     -12.594  -1.584  13.456  1.00  0.00     0.004 C 
ENDBRANCH  30  31
ENDBRANCH  29  30
ENDBRANCH  28  29
ENDBRANCH  27  28
ENDBRANCH  26  27
ENDBRANCH  25  26
ENDBRANCH  24  25
ENDBRANCH  23  24
ENDBRANCH  22  23
ENDBRANCH  21  22
ENDBRANCH  20  21
ENDBRANCH  19  20
ENDBRANCH  18  19
ENDBRANCH   1  18
TORSDOF 28
ENDMDL
MODEL 2
REMARK VINA RESULT:    -5.002      3.231      6.340
REMARK INTER + INTRA:         -16.974
REMARK INTER:                 -11.682
REMARK INTRA:                  -5.292
REMARK UNBOUND:                -3.784
REMARK SMILES CCCCCCCCCCCCCCCCCCCCCCCCCCCCCC(=O)[O-]
REMARK SMILES IDX 16 1 17 2 18 3 19 4 20 5 21 6 22 7 23 8 24 9 25 10 26 11
REMARK SMILES IDX 27 12 28 13 29 14 30 15 31 16 32 17 15 18 14 19 13 20 12 21
REMARK SMILES IDX 11 22 10 23 9 24 8 25 7 26 6 27 5 28 4 29 3 30 2 31 1 32
REMARK H PARENT
REMARK Flexibility Score: inf
ROOT
ATOM      1  C   UNL     1      -9.668   2.385  16.014  1.00  0.00     0.000 C 
ENDROOT
BRANCH   1   2
ATOM      2  C   UNL     1      -9.877   0.980  16.609  1.00  0.00     0.000 C 
BRANCH   2   3
ATOM      3  C   UNL     1      -9.816   0.903  18.146  1.00  0.00     0.000 C 
BRANCH   3   4
ATOM      4  C   UNL     1     -11.180   0.802  18.853  1.00  0.00     0.000 C 
BRANCH   4   5
ATOM      5  C   UNL     1     -11.206  -0.198  20.029  1.00  0.00     0.000 C 
BRANCH   5   6
ATOM      6  C   UNL     1     -10.074  -1.236  19.949  1.00  0.00     0.000 C 
BRANCH   6   7
ATOM      7  C   UNL     1      -9.095  -1.136  21.128  1.00  0.00     0.000 C 
BRANCH   7   8
ATOM      8  C   UNL     1      -9.558  -0.131  22.196  1.00  0.00     0.000 C 
BRANCH   8   9
ATOM      9  C   UNL     1      -8.976  -0.436  23.585  1.00  0.00     0.000 C 
BRANCH   9  10
ATOM     10  C   UNL     1      -9.957  -0.105  24.723  1.00  0.00     0.000 C 
BRANCH  10  11
ATOM     11  C   UNL     1     -11.411   0.022  24.220  1.00  0.00     0.000 C 
BRANCH  11  12
ATOM     12  C   UNL     1     -12.311   0.868  25.137  1.00  0.00     0.000 C 
BRANCH  12  13
ATOM     13  C   UNL     1     -13.772   0.389  25.146  1.00  0.00     0.006 C 
BRANCH  13  14
ATOM     14  C   UNL     1     -14.660   1.219  24.208  1.00  0.00     0.053 C 
BRANCH  14  15
ATOM     15  C   UNL     1     -16.020   0.610  24.047  1.00  0.00     0.041 C 
ATOM     16  O   UNL     1     -16.614   0.113  25.039  1.00  0.00    -0.550 OA
ATOM     17  O   UNL     1     -16.618   0.567  22.794  1.00  0.00    -0.550 OA
ENDBRANCH  14  15
ENDBRANCH  13  14
ENDBRANCH  12  13
ENDBRANCH  11  12
ENDBRANCH  10  11
ENDBRANCH   9  10
ENDBRANCH   8   9
ENDBRANCH   7   8
ENDBRANCH   6   7
ENDBRANCH   5   6
ENDBRANCH   4   5
ENDBRANCH   3   4
ENDBRANCH   2   3
ENDBRANCH   1   2
BRANCH   1  18
ATOM     18  C   UNL     1     -10.985   3.096  15.671  1.00  0.00     0.000 C 
BRANCH  18  19
ATOM     19  C   UNL     1     -11.257   4.240  16.657  1.00  0.00     0.000 C 
BRANCH  19  20
ATOM     20  C   UNL     1     -12.479   3.983  17.554  1.00  0.00     0.000 C 
BRANCH  20  21
ATOM     21  C   UNL     1     -12.353   4.658  18.931  1.00  0.00     0.000 C 
BRANCH  21  22
ATOM     22  C   UNL     1     -13.654   4.601  19.752  1.00  0.00     0.000 C 
BRANCH  22  23
ATOM     23  C   UNL     1     -13.698   3.513  20.840  1.00  0.00     0.000 C 
BRANCH  23  24
ATOM     24  C   UNL     1     -12.821   3.841  22.058  1.00  0.00    -0.000 C 
BRANCH  24  25
ATOM     25  C   UNL     1     -11.576   2.948  22.099  1.00  0.00    -0.000 C 
BRANCH  25  26
ATOM     26  C   UNL     1     -10.492   3.558  22.997  1.00  0.00    -0.000 C 
BRANCH  26  27
ATOM     27  C   UNL     1      -9.177   3.743  22.226  1.00  0.00    -0.000 C 
BRANCH  27  28
ATOM     28  C   UNL     1      -9.233   3.162  20.803  1.00  0.00    -0.000 C 
BRANCH  28  29
ATOM     29  C   UNL     1      -8.747   4.112  19.689  1.00  0.00    -0.000 C 
BRANCH  29  30
ATOM     30  C   UNL     1      -7.472   3.658  18.957  1.00  0.00    -0.000 C 
BRANCH  30  31
ATOM     31  C   UNL     1      -6.199   4.315  19.513  1.00  0.00    -0.003 C 
ATOM     32  C   UNL     1      -5.012   4.092  18.581  1.00  0.00     0.004 C 
ENDBRANCH  30  31
ENDBRANCH  29  30
ENDBRANCH  28  29
ENDBRANCH  27  28
ENDBRANCH  26  27
ENDBRANCH  25  26
ENDBRANCH  24  25
ENDBRANCH  23  24
ENDBRANCH  22  23
ENDBRANCH  21  22
ENDBRANCH  20  21
ENDBRANCH  19  20
ENDBRANCH  18  19
ENDBRANCH   1  18
TORSDOF 28
ENDMDL
MODEL 3
REMARK VINA RESULT:    -5.000      3.752      7.645
REMARK INTER + INTRA:         -16.969
REMARK INTER:                 -10.620
REMARK INTRA:                  -6.349
REMARK UNBOUND:                -3.784
REMARK SMILES CCCCCCCCCCCCCCCCCCCCCCCCCCCCCC(=O)[O-]
REMARK SMILES IDX 16 1 17 2 18 3 19 4 20 5 21 6 22 7 23 8 24 9 25 10 26 11
REMARK SMILES IDX 27 12 28 13 29 14 30 15 31 16 32 17 15 18 14 19 13 20 12 21
REMARK SMILES IDX 11 22 10 23 9 24 8 25 7 26 6 27 5 28 4 29 3 30 2 31 1 32
REMARK H PARENT
REMARK Flexibility Score: inf
ROOT
ATOM      1  C   UNL     1      -9.730  -1.335  20.869  1.00  0.00     0.000 C 
ENDROOT
BRANCH   1   2
ATOM      2  C   UNL     1     -11.011  -0.514  20.637  1.00  0.00     0.000 C 
BRANCH   2   3
ATOM      3  C   UNL     1     -10.995   0.390  19.390  1.00  0.00     0.000 C 
BRANCH   3   4
ATOM      4  C   UNL     1      -9.717   0.307  18.535  1.00  0.00     0.000 C 
BRANCH   4   5
ATOM      5  C   UNL     1      -8.619   1.311  18.946  1.00  0.00     0.000 C 
BRANCH   5   6
ATOM      6  C   UNL     1      -9.195   2.615  19.524  1.00  0.00     0.000 C 
BRANCH   6   7
ATOM      7  C   UNL     1      -8.162   3.750  19.570  1.00  0.00     0.000 C 
BRANCH   7   8
ATOM      8  C   UNL     1      -8.568   4.954  18.703  1.00  0.00     0.000 C 
BRANCH   8   9
ATOM      9  C   UNL     1      -9.267   4.533  17.400  1.00  0.00     0.000 C 
BRANCH   9  10
ATOM     10  C   UNL     1     -10.771   4.858  17.404  1.00  0.00     0.000 C 
BRANCH  10  11
ATOM     11  C   UNL     1     -11.535   4.091  16.305  1.00  0.00     0.000 C 
BRANCH  11  12
ATOM     12  C   UNL     1     -12.292   2.856  16.824  1.00  0.00     0.000 C 
BRANCH  12  13
ATOM     13  C   UNL     1     -12.049   1.603  15.968  1.00  0.00     0.006 C 
BRANCH  13  14
ATOM     14  C   UNL     1     -10.674   1.624  15.286  1.00  0.00     0.053 C 
BRANCH  14  15
ATOM     15  C   UNL     1     -10.557   0.562  14.236  1.00  0.00     0.041 C 
ATOM     16  O   UNL     1      -9.430   0.252  13.768  1.00  0.00    -0.550 OA
ATOM     17  O   UNL     1     -11.699  -0.066  13.752  1.00  0.00    -0.550 OA
ENDBRANCH  14  15
ENDBRANCH  13  14
ENDBRANCH  12  13
ENDBRANCH  11  12
ENDBRANCH  10  11
ENDBRANCH   9  10
ENDBRANCH   8   9
ENDBRANCH   7   8
ENDBRANCH   6   7
ENDBRANCH   5   6
ENDBRANCH   4   5
ENDBRANCH   3   4
ENDBRANCH   2   3
ENDBRANCH   1   2
BRANCH   1  18
ATOM     18  C   UNL     1      -8.933  -0.877  22.098  1.00  0.00     0.000 C 
BRANCH  18  19
ATOM     19  C   UNL     1      -9.671   0.251  22.834  1.00  0.00     0.000 C 
BRANCH  19  20
ATOM     20  C   UNL     1      -9.987  -0.094  24.298  1.00  0.00     0.000 C 
BRANCH  20  21
ATOM     21  C   UNL     1     -11.434   0.256  24.688  1.00  0.00     0.000 C 
BRANCH  21  22
ATOM     22  C   UNL     1     -11.802   1.721  24.388  1.00  0.00     0.000 C 
BRANCH  22  23
ATOM     23  C   UNL     1     -13.217   1.942  23.826  1.00  0.00     0.000 C 
BRANCH  23  24
ATOM     24  C   UNL     1     -13.249   2.050  22.294  1.00  0.00    -0.000 C 
BRANCH  24  25
ATOM     25  C   UNL     1     -12.056   2.860  21.772  1.00  0.00    -0.000 C 
BRANCH  25  26
ATOM     26  C   UNL     1     -12.507   3.895  20.733  1.00  0.00    -0.000 C 
BRANCH  26  27
ATOM     27  C   UNL     1     -11.753   5.220  20.912  1.00  0.00    -0.000 C 
BRANCH  27  28
ATOM     28  C   UNL     1     -10.990   5.298  22.246  1.00  0.00    -0.000 C 
BRANCH  28  29
ATOM     29  C   UNL     1      -9.613   5.988  22.173  1.00  0.00    -0.000 C 
BRANCH  29  30
ATOM     30  C   UNL     1      -8.489   5.283  22.951  1.00  0.00    -0.000 C 
BRANCH  30  31
ATOM     31  C   UNL     1      -8.807   3.812  23.259  1.00  0.00    -0.003 C 
ATOM     32  C   UNL     1      -8.630   3.509  24.744  1.00  0.00     0.004 C 
ENDBRANCH  30  31
ENDBRANCH  29  30
ENDBRANCH  28  29
ENDBRANCH  27  28
ENDBRANCH  26  27
ENDBRANCH  25  26
ENDBRANCH  24  25
ENDBRANCH  23  24
ENDBRANCH  22  23
ENDBRANCH  21  22
ENDBRANCH  20  21
ENDBRANCH  19  20
ENDBRANCH  18  19
ENDBRANCH   1  18
TORSDOF 28
ENDMDL
MODEL 4
REMARK VINA RESULT:    -4.997      4.631      9.079
REMARK INTER + INTRA:         -16.960
REMARK INTER:                 -10.872
REMARK INTRA:                  -6.089
REMARK UNBOUND:                -3.784
REMARK SMILES CCCCCCCCCCCCCCCCCCCCCCCCCCCCCC(=O)[O-]
REMARK SMILES IDX 16 1 17 2 18 3 19 4 20 5 21 6 22 7 23 8 24 9 25 10 26 11
REMARK SMILES IDX 27 12 28 13 29 14 30 15 31 16 32 17 15 18 14 19 13 20 12 21
REMARK SMILES IDX 11 22 10 23 9 24 8 25 7 26 6 27 5 28 4 29 3 30 2 31 1 32
REMARK H PARENT
REMARK Flexibility Score: inf
ROOT
ATOM      1  C   UNL     1      -9.080   2.913  17.537  1.00  0.00     0.000 C 
ENDROOT
BRANCH   1   2
ATOM      2  C   UNL     1      -9.516   2.097  16.307  1.00  0.00     0.000 C 
BRANCH   2   3
ATOM      3  C   UNL     1     -10.764   2.627  15.576  1.00  0.00     0.000 C 
BRANCH   3   4
ATOM      4  C   UNL     1     -12.109   2.302  16.252  1.00  0.00     0.000 C 
BRANCH   4   5
ATOM      5  C   UNL     1     -12.887   3.545  16.734  1.00  0.00     0.000 C 
BRANCH   5   6
ATOM      6  C   UNL     1     -12.478   3.988  18.150  1.00  0.00     0.000 C 
BRANCH   6   7
ATOM      7  C   UNL     1     -11.842   5.387  18.172  1.00  0.00     0.000 C 
BRANCH   7   8
ATOM      8  C   UNL     1     -11.771   5.980  19.589  1.00  0.00     0.000 C 
BRANCH   8   9
ATOM      9  C   UNL     1     -10.381   6.544  19.923  1.00  0.00     0.000 C 
BRANCH   9  10
ATOM     10  C   UNL     1      -9.431   6.531  18.712  1.00  0.00     0.000 C 
BRANCH  10  11
ATOM     11  C   UNL     1      -7.951   6.660  19.131  1.00  0.00     0.000 C 
BRANCH  11  12
ATOM     12  C   UNL     1      -7.660   6.126  20.543  1.00  0.00     0.000 C 
BRANCH  12  13
ATOM     13  C   UNL     1      -6.886   4.797  20.531  1.00  0.00     0.006 C 
BRANCH  13  14
ATOM     14  C   UNL     1      -6.341   4.456  19.137  1.00  0.00     0.053 C 
BRANCH  14  15
ATOM     15  C   UNL     1      -4.858   4.652  19.056  1.00  0.00     0.041 C 
ATOM     16  O   UNL     1      -4.182   4.030  18.195  1.00  0.00    -0.550 OA
ATOM     17  O   UNL     1      -4.219   5.500  19.952  1.00  0.00    -0.550 OA
ENDBRANCH  14  15
ENDBRANCH  13  14
ENDBRANCH  12  13
ENDBRANCH  11  12
ENDBRANCH  10  11
ENDBRANCH   9  10
ENDBRANCH   8   9
ENDBRANCH   7   8
ENDBRANCH   6   7
ENDBRANCH   5   6
ENDBRANCH   4   5
ENDBRANCH   3   4
ENDBRANCH   2   3
ENDBRANCH   1   2
BRANCH   1  18
ATOM     18  C   UNL     1      -9.176   2.123  18.850  1.00  0.00     0.000 C 
BRANCH  18  19
ATOM     19  C   UNL     1      -9.791   0.738  18.608  1.00  0.00     0.000 C 
BRANCH  19  20
ATOM     20  C   UNL     1     -11.150   0.554  19.301  1.00  0.00     0.000 C 
BRANCH  20  21
ATOM     21  C   UNL     1     -11.143  -0.604  20.315  1.00  0.00     0.000 C 
BRANCH  21  22
ATOM     22  C   UNL     1      -9.744  -1.214  20.524  1.00  0.00     0.000 C 
BRANCH  22  23
ATOM     23  C   UNL     1      -9.041  -0.814  21.833  1.00  0.00     0.000 C 
BRANCH  23  24
ATOM     24  C   UNL     1      -9.974  -0.106  22.828  1.00  0.00    -0.000 C 
BRANCH  24  25
ATOM     25  C   UNL     1      -9.178   0.751  23.819  1.00  0.00    -0.000 C 
BRANCH  25  26
ATOM     26  C   UNL     1      -9.684   2.199  23.823  1.00  0.00    -0.000 C 
BRANCH  26  27
ATOM     27  C   UNL     1      -9.383   2.892  22.487  1.00  0.00    -0.000 C 
BRANCH  27  28
ATOM     28  C   UNL     1     -10.652   3.392  21.775  1.00  0.00    -0.000 C 
BRANCH  28  29
ATOM     29  C   UNL     1     -11.948   3.294  22.603  1.00  0.00    -0.000 C 
BRANCH  29  30
ATOM     30  C   UNL     1     -12.879   2.130  22.221  1.00  0.00    -0.000 C 
BRANCH  30  31
ATOM     31  C   UNL     1     -13.522   1.454  23.441  1.00  0.00    -0.003 C 
ATOM     32  C   UNL     1     -13.665  -0.049  23.227  1.00  0.00     0.004 C 
ENDBRANCH  30  31
ENDBRANCH  29  30
ENDBRANCH  28  29
ENDBRANCH  27  28
ENDBRANCH  26  27
ENDBRANCH  25  26
ENDBRANCH  24  25
ENDBRANCH  23  24
ENDBRANCH  22  23
ENDBRANCH  21  22
ENDBRANCH  20  21
ENDBRANCH  19  20
ENDBRANCH  18  19
ENDBRANCH   1  18
TORSDOF 28
ENDMDL
MODEL 5
REMARK VINA RESULT:    -4.924      3.936      7.298
REMARK INTER + INTRA:         -16.768
REMARK INTER:                 -11.756
REMARK INTRA:                  -5.012
REMARK UNBOUND:                -3.784
REMARK SMILES CCCCCCCCCCCCCCCCCCCCCCCCCCCCCC(=O)[O-]
REMARK SMILES IDX 16 1 17 2 18 3 19 4 20 5 21 6 22 7 23 8 24 9 25 10 26 11
REMARK SMILES IDX 27 12 28 13 29 14 30 15 31 16 32 17 15 18 14 19 13 20 12 21
REMARK SMILES IDX 11 22 10 23 9 24 8 25 7 26 6 27 5 28 4 29 3 30 2 31 1 32
REMARK H PARENT
REMARK Flexibility Score: inf
ROOT
ATOM      1  C   UNL     1     -10.389  -0.868  20.535  1.00  0.00     0.000 C 
ENDROOT
BRANCH   1   2
ATOM      2  C   UNL     1     -10.137  -0.224  19.160  1.00  0.00     0.000 C 
BRANCH   2   3
ATOM      3  C   UNL     1      -8.801   0.531  19.023  1.00  0.00     0.000 C 
BRANCH   3   4
ATOM      4  C   UNL     1      -8.916   2.066  18.972  1.00  0.00     0.000 C 
BRANCH   4   5
ATOM      5  C   UNL     1      -9.293   2.713  20.323  1.00  0.00     0.000 C 
BRANCH   5   6
ATOM      6  C   UNL     1     -10.508   3.650  20.212  1.00  0.00     0.000 C 
BRANCH   6   7
ATOM      7  C   UNL     1     -11.767   2.929  19.707  1.00  0.00     0.000 C 
BRANCH   7   8
ATOM      8  C   UNL     1     -12.472   3.697  18.576  1.00  0.00     0.000 C 
BRANCH   8   9
ATOM      9  C   UNL     1     -11.684   4.936  18.123  1.00  0.00     0.000 C 
BRANCH   9  10
ATOM     10  C   UNL     1     -11.089   4.775  16.713  1.00  0.00     0.000 C 
BRANCH  10  11
ATOM     11  C   UNL     1     -11.302   3.354  16.149  1.00  0.00     0.000 C 
BRANCH  11  12
ATOM     12  C   UNL     1     -10.031   2.727  15.553  1.00  0.00     0.000 C 
BRANCH  12  13
ATOM     13  C   UNL     1     -10.074   1.191  15.535  1.00  0.00     0.006 C 
BRANCH  13  14
ATOM     14  C   UNL     1     -10.503   0.638  14.168  1.00  0.00     0.053 C 
BRANCH  14  15
ATOM     15  C   UNL     1     -11.946   0.237  14.158  1.00  0.00     0.041 C 
ATOM     16  O   UNL     1     -12.471  -0.220  13.109  1.00  0.00    -0.550 OA
ATOM     17  O   UNL     1     -12.720   0.397  15.301  1.00  0.00    -0.550 OA
ENDBRANCH  14  15
ENDBRANCH  13  14
ENDBRANCH  12  13
ENDBRANCH  11  12
ENDBRANCH  10  11
ENDBRANCH   9  10
ENDBRANCH   8   9
ENDBRANCH   7   8
ENDBRANCH   6   7
ENDBRANCH   5   6
ENDBRANCH   4   5
ENDBRANCH   3   4
ENDBRANCH   2   3
ENDBRANCH   1   2
BRANCH   1  18
ATOM     18  C   UNL     1      -9.139  -0.899  21.425  1.00  0.00     0.000 C 
BRANCH  18  19
ATOM     19  C   UNL     1      -9.406  -0.196  22.763  1.00  0.00     0.000 C 
BRANCH  19  20
ATOM     20  C   UNL     1     -10.753   0.544  22.794  1.00  0.00     0.000 C 
BRANCH  20  21
ATOM     21  C   UNL     1     -10.679   1.871  23.569  1.00  0.00     0.000 C 
BRANCH  21  22
ATOM     22  C   UNL     1      -9.344   2.063  24.311  1.00  0.00     0.000 C 
BRANCH  22  23
ATOM     23  C   UNL     1      -8.641   3.410  24.062  1.00  0.00     0.000 C 
BRANCH  23  24
ATOM     24  C   UNL     1      -9.588   4.496  23.530  1.00  0.00    -0.000 C 
BRANCH  24  25
ATOM     25  C   UNL     1      -8.804   5.708  23.013  1.00  0.00    -0.000 C 
BRANCH  25  26
ATOM     26  C   UNL     1      -7.296   5.422  23.000  1.00  0.00    -0.000 C 
BRANCH  26  27
ATOM     27  C   UNL     1      -6.528   6.550  22.296  1.00  0.00    -0.000 C 
BRANCH  27  28
ATOM     28  C   UNL     1      -6.170   6.209  20.839  1.00  0.00    -0.000 C 
BRANCH  28  29
ATOM     29  C   UNL     1      -6.661   4.832  20.350  1.00  0.00    -0.000 C 
BRANCH  29  30
ATOM     30  C   UNL     1      -6.107   4.390  18.985  1.00  0.00    -0.000 C 
BRANCH  30  31
ATOM     31  C   UNL     1      -4.583   4.552  18.878  1.00  0.00    -0.003 C 
ATOM     32  C   UNL     1      -4.206   5.456  17.709  1.00  0.00     0.004 C 
ENDBRANCH  30  31
ENDBRANCH  29  30
ENDBRANCH  28  29
ENDBRANCH  27  28
ENDBRANCH  26  27
ENDBRANCH  25  26
ENDBRANCH  24  25
ENDBRANCH  23  24
ENDBRANCH  22  23
ENDBRANCH  21  22
ENDBRANCH  20  21
ENDBRANCH  19  20
ENDBRANCH  18  19
ENDBRANCH   1  18
TORSDOF 28
ENDMDL
MODEL 6
REMARK VINA RESULT:    -4.915      3.703      7.482
REMARK INTER + INTRA:         -16.745
REMARK INTER:                 -11.910
REMARK INTRA:                  -4.835
REMARK UNBOUND:                -3.784
REMARK SMILES CCCCCCCCCCCCCCCCCCCCCCCCCCCCCC(=O)[O-]
REMARK SMILES IDX 16 1 17 2 18 3 19 4 20 5 21 6 22 7 23 8 24 9 25 10 26 11
REMARK SMILES IDX 27 12 28 13 29 14 30 15 31 16 32 17 15 18 14 19 13 20 12 21
REMARK SMILES IDX 11 22 10 23 9 24 8 25 7 26 6 27 5 28 4 29 3 30 2 31 1 32
REMARK H PARENT
REMARK Flexibility Score: inf
ROOT
ATOM      1  C   UNL     1     -12.827   1.976  22.488  1.00  0.00     0.000 C 
ENDROOT
BRANCH   1   2
ATOM      2  C   UNL     1     -13.237   3.414  22.121  1.00  0.00     0.000 C 
BRANCH   2   3
ATOM      3  C   UNL     1     -13.350   3.699  20.611  1.00  0.00     0.000 C 
BRANCH   3   4
ATOM      4  C   UNL     1     -13.980   5.055  20.245  1.00  0.00     0.000 C 
BRANCH   4   5
ATOM      5  C   UNL     1     -13.084   6.272  20.566  1.00  0.00     0.000 C 
BRANCH   5   6
ATOM      6  C   UNL     1     -11.632   6.078  20.097  1.00  0.00     0.000 C 
BRANCH   6   7
ATOM      7  C   UNL     1     -11.399   6.585  18.666  1.00  0.00     0.000 C 
BRANCH   7   8
ATOM      8  C   UNL     1     -10.914   5.475  17.718  1.00  0.00     0.000 C 
BRANCH   8   9
ATOM      9  C   UNL     1     -12.072   4.658  17.125  1.00  0.00     0.000 C 
BRANCH   9  10
ATOM     10  C   UNL     1     -11.585   3.445  16.312  1.00  0.00     0.000 C 
BRANCH  10  11
ATOM     11  C   UNL     1     -10.046   3.339  16.291  1.00  0.00     0.000 C 
BRANCH  11  12
ATOM     12  C   UNL     1      -9.506   2.386  15.211  1.00  0.00     0.000 C 
BRANCH  12  13
ATOM     13  C   UNL     1      -9.963   0.933  15.413  1.00  0.00     0.006 C 
BRANCH  13  14
ATOM     14  C   UNL     1     -10.501   0.308  14.118  1.00  0.00     0.053 C 
BRANCH  14  15
ATOM     15  C   UNL     1     -11.996   0.210  14.127  1.00  0.00     0.041 C 
ATOM     16  O   UNL     1     -12.645   0.507  15.164  1.00  0.00    -0.550 OA
ATOM     17  O   UNL     1     -12.670  -0.239  12.998  1.00  0.00    -0.550 OA
ENDBRANCH  14  15
ENDBRANCH  13  14
ENDBRANCH  12  13
ENDBRANCH  11  12
ENDBRANCH  10  11
ENDBRANCH   9  10
ENDBRANCH   8   9
ENDBRANCH   7   8
ENDBRANCH   6   7
ENDBRANCH   5   6
ENDBRANCH   4   5
ENDBRANCH   3   4
ENDBRANCH   2   3
ENDBRANCH   1   2
BRANCH   1  18
ATOM     18  C   UNL     1     -12.041   1.890  23.804  1.00  0.00     0.000 C 
BRANCH  18  19
ATOM     19  C   UNL     1     -11.948   0.437  24.288  1.00  0.00     0.000 C 
BRANCH  19  20
ATOM     20  C   UNL     1     -10.526   0.033  24.711  1.00  0.00     0.000 C 
BRANCH  20  21
ATOM     21  C   UNL     1      -9.466   0.428  23.667  1.00  0.00     0.000 C 
BRANCH  21  22
ATOM     22  C   UNL     1      -8.806  -0.787  22.989  1.00  0.00     0.000 C 
BRANCH  22  23
ATOM     23  C   UNL     1      -9.022  -0.889  21.469  1.00  0.00     0.000 C 
BRANCH  23  24
ATOM     24  C   UNL     1     -10.396  -0.372  21.018  1.00  0.00    -0.000 C 
BRANCH  24  25
ATOM     25  C   UNL     1     -10.449  -0.196  19.496  1.00  0.00    -0.000 C 
BRANCH  25  26
ATOM     26  C   UNL     1     -10.294   1.280  19.108  1.00  0.00    -0.000 C 
BRANCH  26  27
ATOM     27  C   UNL     1     -10.121   2.162  20.353  1.00  0.00    -0.000 C 
BRANCH  27  28
ATOM     28  C   UNL     1      -8.893   3.085  20.265  1.00  0.00    -0.000 C 
BRANCH  28  29
ATOM     29  C   UNL     1      -7.979   2.842  19.047  1.00  0.00    -0.000 C 
BRANCH  29  30
ATOM     30  C   UNL     1      -7.121   4.047  18.626  1.00  0.00    -0.000 C 
BRANCH  30  31
ATOM     31  C   UNL     1      -7.004   5.111  19.728  1.00  0.00    -0.003 C 
ATOM     32  C   UNL     1      -5.552   5.310  20.151  1.00  0.00     0.004 C 
ENDBRANCH  30  31
ENDBRANCH  29  30
ENDBRANCH  28  29
ENDBRANCH  27  28
ENDBRANCH  26  27
ENDBRANCH  25  26
ENDBRANCH  24  25
ENDBRANCH  23  24
ENDBRANCH  22  23
ENDBRANCH  21  22
ENDBRANCH  20  21
ENDBRANCH  19  20
ENDBRANCH  18  19
ENDBRANCH   1  18
TORSDOF 28
ENDMDL
MODEL 7
REMARK VINA RESULT:    -4.873      3.569      7.732
REMARK INTER + INTRA:         -16.635
REMARK INTER:                 -11.645
REMARK INTRA:                  -4.990
REMARK UNBOUND:                -3.784
REMARK SMILES CCCCCCCCCCCCCCCCCCCCCCCCCCCCCC(=O)[O-]
REMARK SMILES IDX 16 1 17 2 18 3 19 4 20 5 21 6 22 7 23 8 24 9 25 10 26 11
REMARK SMILES IDX 27 12 28 13 29 14 30 15 31 16 32 17 15 18 14 19 13 20 12 21
REMARK SMILES IDX 11 22 10 23 9 24 8 25 7 26 6 27 5 28 4 29 3 30 2 31 1 32
REMARK H PARENT
REMARK Flexibility Score: inf
ROOT
ATOM      1  C   UNL     1     -10.080   0.287  19.925  1.00  0.00     0.000 C 
ENDROOT
BRANCH   1   2
ATOM      2  C   UNL     1      -9.179   1.107  18.985  1.00  0.00     0.000 C 
BRANCH   2   3
ATOM      3  C   UNL     1      -8.827   2.522  19.482  1.00  0.00     0.000 C 
BRANCH   3   4
ATOM      4  C   UNL     1      -7.771   3.268  18.644  1.00  0.00     0.000 C 
BRANCH   4   5
ATOM      5  C   UNL     1      -7.803   4.802  18.816  1.00  0.00     0.000 C 
BRANCH   5   6
ATOM      6  C   UNL     1      -8.924   5.270  19.760  1.00  0.00     0.000 C 
BRANCH   6   7
ATOM      7  C   UNL     1      -9.833   6.329  19.119  1.00  0.00     0.000 C 
BRANCH   7   8
ATOM      8  C   UNL     1     -10.055   6.085  17.616  1.00  0.00     0.000 C 
BRANCH   8   9
ATOM      9  C   UNL     1     -11.420   5.444  17.318  1.00  0.00     0.000 C 
BRANCH   9  10
ATOM     10  C   UNL     1     -11.390   4.538  16.075  1.00  0.00     0.000 C 
BRANCH  10  11
ATOM     11  C   UNL     1     -11.019   3.081  16.426  1.00  0.00     0.000 C 
BRANCH  11  12
ATOM     12  C   UNL     1      -9.845   2.526  15.602  1.00  0.00     0.000 C 
BRANCH  12  13
ATOM     13  C   UNL     1      -9.937   1.008  15.377  1.00  0.00     0.006 C 
BRANCH  13  14
ATOM     14  C   UNL     1     -10.545   0.661  14.010  1.00  0.00     0.053 C 
BRANCH  14  15
ATOM     15  C   UNL     1     -11.980   0.247  14.128  1.00  0.00     0.041 C 
ATOM     16  O   UNL     1     -12.622   0.480  15.186  1.00  0.00    -0.550 OA
ATOM     17  O   UNL     1     -12.599  -0.422  13.080  1.00  0.00    -0.550 OA
ENDBRANCH  14  15
ENDBRANCH  13  14
ENDBRANCH  12  13
ENDBRANCH  11  12
ENDBRANCH  10  11
ENDBRANCH   9  10
ENDBRANCH   8   9
ENDBRANCH   7   8
ENDBRANCH   6   7
ENDBRANCH   5   6
ENDBRANCH   4   5
ENDBRANCH   3   4
ENDBRANCH   2   3
ENDBRANCH   1   2
BRANCH   1  18
ATOM     18  C   UNL     1      -9.409  -0.995  20.438  1.00  0.00     0.000 C 
BRANCH  18  19
ATOM     19  C   UNL     1      -9.128  -0.896  21.944  1.00  0.00     0.000 C 
BRANCH  19  20
ATOM     20  C   UNL     1      -9.887   0.255  22.623  1.00  0.00     0.000 C 
BRANCH  20  21
ATOM     21  C   UNL     1      -9.399   0.519  24.058  1.00  0.00     0.000 C 
BRANCH  21  22
ATOM     22  C   UNL     1      -9.979  -0.473  25.084  1.00  0.00     0.000 C 
BRANCH  22  23
ATOM     23  C   UNL     1     -11.242   0.006  25.821  1.00  0.00     0.000 C 
BRANCH  23  24
ATOM     24  C   UNL     1     -12.540  -0.564  25.229  1.00  0.00    -0.000 C 
BRANCH  24  25
ATOM     25  C   UNL     1     -13.129   0.381  24.175  1.00  0.00    -0.000 C 
BRANCH  25  26
ATOM     26  C   UNL     1     -13.474   1.743  24.791  1.00  0.00    -0.000 C 
BRANCH  26  27
ATOM     27  C   UNL     1     -13.152   2.886  23.817  1.00  0.00    -0.000 C 
BRANCH  27  28
ATOM     28  C   UNL     1     -13.114   2.426  22.349  1.00  0.00    -0.000 C 
BRANCH  28  29
ATOM     29  C   UNL     1     -11.978   3.034  21.503  1.00  0.00    -0.000 C 
BRANCH  29  30
ATOM     30  C   UNL     1     -12.385   3.475  20.086  1.00  0.00    -0.000 C 
BRANCH  30  31
ATOM     31  C   UNL     1     -13.745   4.187  20.050  1.00  0.00    -0.003 C 
ATOM     32  C   UNL     1     -13.582   5.695  20.217  1.00  0.00     0.004 C 
ENDBRANCH  30  31
ENDBRANCH  29  30
ENDBRANCH  28  29
ENDBRANCH  27  28
ENDBRANCH  26  27
ENDBRANCH  25  26
ENDBRANCH  24  25
ENDBRANCH  23  24
ENDBRANCH  22  23
ENDBRANCH  21  22
ENDBRANCH  20  21
ENDBRANCH  19  20
ENDBRANCH  18  19
ENDBRANCH   1  18
TORSDOF 28
ENDMDL
MODEL 8
REMARK VINA RESULT:    -4.866      3.819      7.709
REMARK INTER + INTRA:         -16.616
REMARK INTER:                 -10.369
REMARK INTRA:                  -6.247
REMARK UNBOUND:                -3.784
REMARK SMILES CCCCCCCCCCCCCCCCCCCCCCCCCCCCCC(=O)[O-]
REMARK SMILES IDX 16 1 17 2 18 3 19 4 20 5 21 6 22 7 23 8 24 9 25 10 26 11
REMARK SMILES IDX 27 12 28 13 29 14 30 15 31 16 32 17 15 18 14 19 13 20 12 21
REMARK SMILES IDX 11 22 10 23 9 24 8 25 7 26 6 27 5 28 4 29 3 30 2 31 1 32
REMARK H PARENT
REMARK Flexibility Score: inf
ROOT
ATOM      1  C   UNL     1      -9.453   0.479  18.774  1.00  0.00     0.000 C 
ENDROOT
BRANCH   1   2
ATOM      2  C   UNL     1      -9.958   1.762  19.459  1.00  0.00     0.000 C 
BRANCH   2   3
ATOM      3  C   UNL     1      -8.895   2.858  19.666  1.00  0.00     0.000 C 
BRANCH   3   4
ATOM      4  C   UNL     1      -7.759   2.876  18.626  1.00  0.00     0.000 C 
BRANCH   4   5
ATOM      5  C   UNL     1      -6.567   3.776  19.014  1.00  0.00     0.000 C 
BRANCH   5   6
ATOM      6  C   UNL     1      -6.910   4.759  20.147  1.00  0.00     0.000 C 
BRANCH   6   7
ATOM      7  C   UNL     1      -6.912   6.223  19.680  1.00  0.00     0.000 C 
BRANCH   7   8
ATOM      8  C   UNL     1      -8.325   6.736  19.353  1.00  0.00     0.000 C 
BRANCH   8   9
ATOM      9  C   UNL     1      -8.592   6.804  17.841  1.00  0.00     0.000 C 
BRANCH   9  10
ATOM     10  C   UNL     1      -9.607   5.746  17.372  1.00  0.00     0.000 C 
BRANCH  10  11
ATOM     11  C   UNL     1     -10.865   5.710  18.265  1.00  0.00     0.000 C 
BRANCH  11  12
ATOM     12  C   UNL     1     -11.841   4.574  17.913  1.00  0.00     0.000 C 
BRANCH  12  13
ATOM     13  C   UNL     1     -11.454   3.832  16.624  1.00  0.00     0.006 C 
BRANCH  13  14
ATOM     14  C   UNL     1     -12.392   2.652  16.330  1.00  0.00     0.053 C 
BRANCH  14  15
ATOM     15  C   UNL     1     -11.694   1.561  15.578  1.00  0.00     0.041 C 
ATOM     16  O   UNL     1     -10.436   1.499  15.571  1.00  0.00    -0.550 OA
ATOM     17  O   UNL     1     -12.432   0.628  14.861  1.00  0.00    -0.550 OA
ENDBRANCH  14  15
ENDBRANCH  13  14
ENDBRANCH  12  13
ENDBRANCH  11  12
ENDBRANCH  10  11
ENDBRANCH   9  10
ENDBRANCH   8   9
ENDBRANCH   7   8
ENDBRANCH   6   7
ENDBRANCH   5   6
ENDBRANCH   4   5
ENDBRANCH   3   4
ENDBRANCH   2   3
ENDBRANCH   1   2
BRANCH   1  18
ATOM     18  C   UNL     1      -8.790  -0.504  19.749  1.00  0.00     0.000 C 
BRANCH  18  19
ATOM     19  C   UNL     1      -9.657  -0.697  21.001  1.00  0.00     0.000 C 
BRANCH  19  20
ATOM     20  C   UNL     1      -8.830  -0.881  22.283  1.00  0.00     0.000 C 
BRANCH  20  21
ATOM     21  C   UNL     1      -9.341  -0.011  23.445  1.00  0.00     0.000 C 
BRANCH  21  22
ATOM     22  C   UNL     1      -9.572   1.458  23.042  1.00  0.00     0.000 C 
BRANCH  22  23
ATOM     23  C   UNL     1      -9.116   2.502  24.077  1.00  0.00     0.000 C 
BRANCH  23  24
ATOM     24  C   UNL     1      -9.933   3.802  24.023  1.00  0.00    -0.000 C 
BRANCH  24  25
ATOM     25  C   UNL     1      -9.347   4.782  23.000  1.00  0.00    -0.000 C 
BRANCH  25  26
ATOM     26  C   UNL     1     -10.384   5.146  21.930  1.00  0.00    -0.000 C 
BRANCH  26  27
ATOM     27  C   UNL     1     -11.809   5.084  22.500  1.00  0.00    -0.000 C 
BRANCH  27  28
ATOM     28  C   UNL     1     -12.889   5.055  21.405  1.00  0.00    -0.000 C 
BRANCH  28  29
ATOM     29  C   UNL     1     -13.526   3.674  21.152  1.00  0.00    -0.000 C 
BRANCH  29  30
ATOM     30  C   UNL     1     -12.814   2.493  21.833  1.00  0.00    -0.000 C 
BRANCH  30  31
ATOM     31  C   UNL     1     -13.701   1.772  22.860  1.00  0.00    -0.003 C 
ATOM     32  C   UNL     1     -13.037   1.735  24.233  1.00  0.00     0.004 C 
ENDBRANCH  30  31
ENDBRANCH  29  30
ENDBRANCH  28  29
ENDBRANCH  27  28
ENDBRANCH  26  27
ENDBRANCH  25  26
ENDBRANCH  24  25
ENDBRANCH  23  24
ENDBRANCH  22  23
ENDBRANCH  21  22
ENDBRANCH  20  21
ENDBRANCH  19  20
ENDBRANCH  18  19
ENDBRANCH   1  18
TORSDOF 28
ENDMDL
MODEL 9
REMARK VINA RESULT:    -4.862      3.774      7.834
REMARK INTER + INTRA:         -16.604
REMARK INTER:                 -10.984
REMARK INTRA:                  -5.620
REMARK UNBOUND:                -3.784
REMARK SMILES CCCCCCCCCCCCCCCCCCCCCCCCCCCCCC(=O)[O-]
REMARK SMILES IDX 16 1 17 2 18 3 19 4 20 5 21 6 22 7 23 8 24 9 25 10 26 11
REMARK SMILES IDX 27 12 28 13 29 14 30 15 31 16 32 17 15 18 14 19 13 20 12 21
REMARK SMILES IDX 11 22 10 23 9 24 8 25 7 26 6 27 5 28 4 29 3 30 2 31 1 32
REMARK H PARENT
REMARK Flexibility Score: inf
ROOT
ATOM      1  C   UNL     1      -8.430   2.097  18.989  1.00  0.00     0.000 C 
ENDROOT
BRANCH   1   2
ATOM      2  C   UNL     1      -7.899   3.458  18.504  1.00  0.00     0.000 C 
BRANCH   2   3
ATOM      3  C   UNL     1      -6.499   3.839  19.020  1.00  0.00     0.000 C 
BRANCH   3   4
ATOM      4  C   UNL     1      -6.343   5.303  19.475  1.00  0.00     0.000 C 
BRANCH   4   5
ATOM      5  C   UNL     1      -7.674   6.079  19.563  1.00  0.00     0.000 C 
BRANCH   5   6
ATOM      6  C   UNL     1      -7.898   7.010  18.358  1.00  0.00     0.000 C 
BRANCH   6   7
ATOM      7  C   UNL     1      -9.206   6.709  17.612  1.00  0.00     0.000 C 
BRANCH   7   8
ATOM      8  C   UNL     1     -10.430   6.705  18.545  1.00  0.00     0.000 C 
BRANCH   8   9
ATOM      9  C   UNL     1     -11.199   5.375  18.503  1.00  0.00     0.000 C 
BRANCH   9  10
ATOM     10  C   UNL     1     -11.821   5.095  17.123  1.00  0.00     0.000 C 
BRANCH  10  11
ATOM     11  C   UNL     1     -12.673   3.808  17.118  1.00  0.00     0.000 C 
BRANCH  11  12
ATOM     12  C   UNL     1     -11.864   2.532  16.828  1.00  0.00     0.000 C 
BRANCH  12  13
ATOM     13  C   UNL     1     -10.876   2.704  15.663  1.00  0.00     0.006 C 
BRANCH  13  14
ATOM     14  C   UNL     1      -9.907   1.518  15.545  1.00  0.00     0.053 C 
BRANCH  14  15
ATOM     15  C   UNL     1     -10.243   0.639  14.379  1.00  0.00     0.041 C 
ATOM     16  O   UNL     1     -11.439   0.503  14.011  1.00  0.00    -0.550 OA
ATOM     17  O   UNL     1      -9.237  -0.053  13.717  1.00  0.00    -0.550 OA
ENDBRANCH  14  15
ENDBRANCH  13  14
ENDBRANCH  12  13
ENDBRANCH  11  12
ENDBRANCH  10  11
ENDBRANCH   9  10
ENDBRANCH   8   9
ENDBRANCH   7   8
ENDBRANCH   6   7
ENDBRANCH   5   6
ENDBRANCH   4   5
ENDBRANCH   3   4
ENDBRANCH   2   3
ENDBRANCH   1   2
BRANCH   1  18
ATOM     18  C   UNL     1      -9.726   2.210  19.803  1.00  0.00     0.000 C 
BRANCH  18  19
ATOM     19  C   UNL     1      -9.550   3.190  20.972  1.00  0.00     0.000 C 
BRANCH  19  20
ATOM     20  C   UNL     1     -10.882   3.591  21.625  1.00  0.00     0.000 C 
BRANCH  20  21
ATOM     21  C   UNL     1     -12.052   2.695  21.180  1.00  0.00     0.000 C 
BRANCH  21  22
ATOM     22  C   UNL     1     -13.104   2.484  22.285  1.00  0.00     0.000 C 
BRANCH  22  23
ATOM     23  C   UNL     1     -12.991   3.435  23.490  1.00  0.00     0.000 C 
BRANCH  23  24
ATOM     24  C   UNL     1     -12.819   2.698  24.827  1.00  0.00    -0.000 C 
BRANCH  24  25
ATOM     25  C   UNL     1     -12.528   1.209  24.604  1.00  0.00    -0.000 C 
BRANCH  25  26
ATOM     26  C   UNL     1     -11.172   0.818  25.205  1.00  0.00    -0.000 C 
BRANCH  26  27
ATOM     27  C   UNL     1     -10.015   1.363  24.354  1.00  0.00    -0.000 C 
BRANCH  27  28
ATOM     28  C   UNL     1      -9.249   0.256  23.609  1.00  0.00    -0.000 C 
BRANCH  28  29
ATOM     29  C   UNL     1     -10.009  -0.385  22.431  1.00  0.00    -0.000 C 
BRANCH  29  30
ATOM     30  C   UNL     1      -9.119  -1.043  21.363  1.00  0.00    -0.000 C 
BRANCH  30  31
ATOM     31  C   UNL     1      -9.885  -1.393  20.078  1.00  0.00    -0.003 C 
ATOM     32  C   UNL     1     -11.361  -1.025  20.200  1.00  0.00     0.004 C 
ENDBRANCH  30  31
ENDBRANCH  29  30
ENDBRANCH  28  29
ENDBRANCH  27  28
ENDBRANCH  26  27
ENDBRANCH  25  26
ENDBRANCH  24  25
ENDBRANCH  23  24
ENDBRANCH  22  23
ENDBRANCH  21  22
ENDBRANCH  20  21
ENDBRANCH  19  20
ENDBRANCH  18  19
ENDBRANCH   1  18
TORSDOF 28
ENDMDL
