MODEL 1
REMARK VINA RESULT:    -6.150      0.000      0.000
REMARK INTER + INTRA:          -7.510
REMARK INTER:                  -7.229
REMARK INTRA:                  -0.281
REMARK UNBOUND:                -0.281
REMARK SMILES O=c1c(O)c(-c2ccc(O)cc2)oc2cc(O)cc(O)c12
REMARK SMILES IDX 5 1 3 2 2 3 1 4 21 5 19 6 18 7 16 8 15 9 14 10 13 11 6 12
REMARK SMILES IDX 7 13 8 14 9 15 12 16 11 17 10 18 4 20 20 22 17 24
REMARK H PARENT 10 19 4 21 20 23 17 25
REMARK Flexibility Score: inf
ROOT
ATOM      1  C   UNL     1      10.425  -6.177  -9.088  1.00  0.00     0.180 A 
ATOM      2  C   UNL     1       9.865  -7.444  -9.327  1.00  0.00     0.208 A 
ATOM      3  C   UNL     1       8.948  -7.969  -8.402  1.00  0.00     0.238 A 
ATOM      4  O   UNL     1       8.490  -9.125  -8.595  1.00  0.00    -0.285 OA
ATOM      5  C   UNL     1       8.591  -7.215  -7.258  1.00  0.00     0.111 A 
ATOM      6  C   UNL     1       7.643  -7.632  -6.277  1.00  0.00     0.134 A 
ATOM      7  C   UNL     1       7.465  -6.865  -5.118  1.00  0.00     0.093 A 
ATOM      8  C   UNL     1       8.152  -5.665  -4.936  1.00  0.00     0.123 A 
ATOM      9  C   UNL     1       9.038  -5.218  -5.918  1.00  0.00     0.094 A 
ATOM     10  C   UNL     1       9.263  -5.979  -7.067  1.00  0.00     0.146 A 
ATOM     11  O   UNL     1      10.121  -5.523  -7.971  1.00  0.00    -0.452 OA
ENDROOT
BRANCH   1  12
ATOM     12  C   UNL     1      11.379  -5.546 -10.029  1.00  0.00     0.021 A 
ATOM     13  C   UNL     1      10.950  -4.621 -10.997  1.00  0.00     0.016 A 
ATOM     14  C   UNL     1      11.872  -4.020 -11.859  1.00  0.00     0.047 A 
ATOM     15  C   UNL     1      13.235  -4.326 -11.756  1.00  0.00     0.115 A 
ATOM     16  C   UNL     1      12.750  -5.832  -9.919  1.00  0.00     0.016 A 
ATOM     17  C   UNL     1      13.671  -5.231 -10.783  1.00  0.00     0.047 A 
BRANCH  15  18
ATOM     18  O   UNL     1      14.163  -3.735 -12.610  1.00  0.00    -0.508 OA
ATOM     19  H   UNL     1      14.203  -2.729 -12.733  1.00  0.00     0.293 HD
ENDBRANCH  15  18
ENDBRANCH   1  12
BRANCH   2  20
ATOM     20  O   UNL     1      10.246  -8.180 -10.452  1.00  0.00    -0.502 OA
ATOM     21  H   UNL     1       9.980  -7.914 -11.392  1.00  0.00     0.293 HD
ENDBRANCH   2  20
BRANCH   6  22
ATOM     22  O   UNL     1       6.837  -8.767  -6.402  1.00  0.00    -0.507 OA
ATOM     23  H   UNL     1       6.352  -9.037  -7.244  1.00  0.00     0.293 HD
ENDBRANCH   6  22
BRANCH   8  24
ATOM     24  O   UNL     1       7.939  -4.920  -3.779  1.00  0.00    -0.508 OA
ATOM     25  H   UNL     1       7.029  -4.532  -3.558  1.00  0.00     0.293 HD
ENDBRANCH   8  24
TORSDOF 5
ENDMDL
MODEL 2
REMARK VINA RESULT:    -6.109     13.760     15.813
REMARK INTER + INTRA:          -7.462
REMARK INTER:                  -7.404
REMARK INTRA:                  -0.058
REMARK UNBOUND:                -0.281
REMARK SMILES O=c1c(O)c(-c2ccc(O)cc2)oc2cc(O)cc(O)c12
REMARK SMILES IDX 5 1 3 2 2 3 1 4 21 5 19 6 18 7 16 8 15 9 14 10 13 11 6 12
REMARK SMILES IDX 7 13 8 14 9 15 12 16 11 17 10 18 4 20 20 22 17 24
REMARK H PARENT 10 19 4 21 20 23 17 25
REMARK Flexibility Score: inf
ROOT
ATOM      1  C   UNL     1      20.742   0.378 -17.603  1.00  0.00     0.180 A 
ATOM      2  C   UNL     1      19.515   0.312 -16.920  1.00  0.00     0.208 A 
ATOM      3  C   UNL     1      19.473   0.660 -15.560  1.00  0.00     0.238 A 
ATOM      4  O   UNL     1      18.384   0.548 -14.941  1.00  0.00    -0.285 OA
ATOM      5  C   UNL     1      20.654   1.084 -14.904  1.00  0.00     0.111 A 
ATOM      6  C   UNL     1      20.720   1.497 -13.540  1.00  0.00     0.134 A 
ATOM      7  C   UNL     1      21.966   1.771 -12.960  1.00  0.00     0.093 A 
ATOM      8  C   UNL     1      23.139   1.710 -13.711  1.00  0.00     0.123 A 
ATOM      9  C   UNL     1      23.079   1.364 -15.062  1.00  0.00     0.094 A 
ATOM     10  C   UNL     1      21.857   1.050 -15.660  1.00  0.00     0.146 A 
ATOM     11  O   UNL     1      21.845   0.716 -16.944  1.00  0.00    -0.452 OA
ENDROOT
BRANCH   1  12
ATOM     12  C   UNL     1      20.861   0.053 -19.043  1.00  0.00     0.021 A 
ATOM     13  C   UNL     1      21.357   0.988 -19.968  1.00  0.00     0.016 A 
ATOM     14  C   UNL     1      21.483   0.650 -21.319  1.00  0.00     0.047 A 
ATOM     15  C   UNL     1      21.127  -0.631 -21.759  1.00  0.00     0.115 A 
ATOM     16  C   UNL     1      20.525  -1.236 -19.490  1.00  0.00     0.016 A 
ATOM     17  C   UNL     1      20.651  -1.573 -20.841  1.00  0.00     0.047 A 
BRANCH  15  18
ATOM     18  O   UNL     1      21.247  -0.980 -23.103  1.00  0.00    -0.508 OA
ATOM     19  H   UNL     1      21.348  -1.946 -23.392  1.00  0.00     0.293 HD
ENDBRANCH  15  18
ENDBRANCH   1  12
BRANCH   2  20
ATOM     20  O   UNL     1      18.365  -0.129 -17.581  1.00  0.00    -0.502 OA
ATOM     21  H   UNL     1      18.398  -0.795 -18.342  1.00  0.00     0.293 HD
ENDBRANCH   2  20
BRANCH   6  22
ATOM     22  O   UNL     1      19.599   1.680 -12.725  1.00  0.00    -0.507 OA
ATOM     23  H   UNL     1      18.964   0.947 -12.449  1.00  0.00     0.293 HD
ENDBRANCH   6  22
BRANCH   8  24
ATOM     24  O   UNL     1      24.359   2.004 -13.106  1.00  0.00    -0.508 OA
ATOM     25  H   UNL     1      24.544   2.916 -12.703  1.00  0.00     0.293 HD
ENDBRANCH   8  24
TORSDOF 5
ENDMDL
MODEL 3
REMARK VINA RESULT:    -6.048      8.953     12.626
REMARK INTER + INTRA:          -7.390
REMARK INTER:                  -7.195
REMARK INTRA:                  -0.195
REMARK UNBOUND:                -0.281
REMARK SMILES O=c1c(O)c(-c2ccc(O)cc2)oc2cc(O)cc(O)c12
REMARK SMILES IDX 5 1 3 2 2 3 1 4 21 5 19 6 18 7 16 8 15 9 14 10 13 11 6 12
REMARK SMILES IDX 7 13 8 14 9 15 12 16 11 17 10 18 4 20 20 22 17 24
REMARK H PARENT 10 19 4 21 20 23 17 25
REMARK Flexibility Score: inf
ROOT
ATOM      1  C   UNL     1      18.546  -1.036 -16.683  1.00  0.00     0.180 A 
ATOM      2  C   UNL     1      17.914  -0.190 -15.754  1.00  0.00     0.208 A 
ATOM      3  C   UNL     1      17.186  -0.762 -14.698  1.00  0.00     0.238 A 
ATOM      4  O   UNL     1      16.579  -0.001 -13.901  1.00  0.00    -0.285 OA
ATOM      5  C   UNL     1      17.113  -2.170 -14.573  1.00  0.00     0.111 A 
ATOM      6  C   UNL     1      16.438  -2.857 -13.520  1.00  0.00     0.134 A 
ATOM      7  C   UNL     1      16.318  -4.252 -13.570  1.00  0.00     0.093 A 
ATOM      8  C   UNL     1      16.905  -4.989 -14.598  1.00  0.00     0.123 A 
ATOM      9  C   UNL     1      17.619  -4.332 -15.601  1.00  0.00     0.094 A 
ATOM     10  C   UNL     1      17.725  -2.939 -15.599  1.00  0.00     0.146 A 
ATOM     11  O   UNL     1      18.403  -2.353 -16.577  1.00  0.00    -0.452 OA
ENDROOT
BRANCH   1  12
ATOM     12  C   UNL     1      19.351  -0.509 -17.808  1.00  0.00     0.021 A 
ATOM     13  C   UNL     1      20.578   0.144 -17.589  1.00  0.00     0.016 A 
ATOM     14  C   UNL     1      21.332   0.612 -18.669  1.00  0.00     0.047 A 
ATOM     15  C   UNL     1      20.878   0.423 -19.980  1.00  0.00     0.115 A 
ATOM     16  C   UNL     1      18.913  -0.713 -19.127  1.00  0.00     0.016 A 
ATOM     17  C   UNL     1      19.669  -0.243 -20.205  1.00  0.00     0.047 A 
BRANCH  15  18
ATOM     18  O   UNL     1      21.621   0.886 -21.063  1.00  0.00    -0.508 OA
ATOM     19  H   UNL     1      21.797   1.875 -21.201  1.00  0.00     0.293 HD
ENDBRANCH  15  18
ENDBRANCH   1  12
BRANCH   2  20
ATOM     20  O   UNL     1      17.981   1.197 -15.907  1.00  0.00    -0.502 OA
ATOM     21  H   UNL     1      17.205   1.743 -16.259  1.00  0.00     0.293 HD
ENDBRANCH   2  20
BRANCH   6  22
ATOM     22  O   UNL     1      15.894  -2.224 -12.399  1.00  0.00    -0.507 OA
ATOM     23  H   UNL     1      15.245  -2.651 -11.756  1.00  0.00     0.293 HD
ENDBRANCH   6  22
BRANCH   8  24
ATOM     24  O   UNL     1      16.780  -6.376 -14.607  1.00  0.00    -0.508 OA
ATOM     25  H   UNL     1      15.918  -6.829 -14.888  1.00  0.00     0.293 HD
ENDBRANCH   8  24
TORSDOF 5
ENDMDL
MODEL 4
REMARK VINA RESULT:    -5.988     12.425     15.476
REMARK INTER + INTRA:          -7.319
REMARK INTER:                  -7.237
REMARK INTRA:                  -0.082
REMARK UNBOUND:                -0.281
REMARK SMILES O=c1c(O)c(-c2ccc(O)cc2)oc2cc(O)cc(O)c12
REMARK SMILES IDX 5 1 3 2 2 3 1 4 21 5 19 6 18 7 16 8 15 9 14 10 13 11 6 12
REMARK SMILES IDX 7 13 8 14 9 15 12 16 11 17 10 18 4 20 20 22 17 24
REMARK H PARENT 10 19 4 21 20 23 17 25
REMARK Flexibility Score: inf
ROOT
ATOM      1  C   UNL     1      20.859   0.575 -17.510  1.00  0.00     0.180 A 
ATOM      2  C   UNL     1      22.020   0.905 -16.789  1.00  0.00     0.208 A 
ATOM      3  C   UNL     1      21.904   1.250 -15.433  1.00  0.00     0.238 A 
ATOM      4  O   UNL     1      22.939   1.595 -14.806  1.00  0.00    -0.285 OA
ATOM      5  C   UNL     1      20.633   1.246 -14.811  1.00  0.00     0.111 A 
ATOM      6  C   UNL     1      20.403   1.540 -13.433  1.00  0.00     0.134 A 
ATOM      7  C   UNL     1      19.089   1.635 -12.956  1.00  0.00     0.093 A 
ATOM      8  C   UNL     1      18.000   1.382 -13.790  1.00  0.00     0.123 A 
ATOM      9  C   UNL     1      18.216   1.035 -15.125  1.00  0.00     0.094 A 
ATOM     10  C   UNL     1      19.512   0.968 -15.639  1.00  0.00     0.146 A 
ATOM     11  O   UNL     1      19.673   0.645 -16.916  1.00  0.00    -0.452 OA
ENDROOT
BRANCH   1  12
ATOM     12  C   UNL     1      20.904   0.177 -18.936  1.00  0.00     0.021 A 
ATOM     13  C   UNL     1      21.407   1.042 -19.924  1.00  0.00     0.016 A 
ATOM     14  C   UNL     1      21.462   0.635 -21.260  1.00  0.00     0.047 A 
ATOM     15  C   UNL     1      21.026  -0.646 -21.624  1.00  0.00     0.115 A 
ATOM     16  C   UNL     1      20.488  -1.113 -19.306  1.00  0.00     0.016 A 
ATOM     17  C   UNL     1      20.542  -1.518 -20.644  1.00  0.00     0.047 A 
BRANCH  15  18
ATOM     18  O   UNL     1      21.074  -1.062 -22.952  1.00  0.00    -0.508 OA
ATOM     19  H   UNL     1      20.359  -0.793 -23.618  1.00  0.00     0.293 HD
ENDBRANCH  15  18
ENDBRANCH   1  12
BRANCH   2  20
ATOM     20  O   UNL     1      23.263   0.923 -17.427  1.00  0.00    -0.502 OA
ATOM     21  H   UNL     1      24.131   0.755 -16.934  1.00  0.00     0.293 HD
ENDBRANCH   2  20
BRANCH   6  22
ATOM     22  O   UNL     1      21.422   1.719 -12.494  1.00  0.00    -0.507 OA
ATOM     23  H   UNL     1      22.078   1.006 -12.214  1.00  0.00     0.293 HD
ENDBRANCH   6  22
BRANCH   8  24
ATOM     24  O   UNL     1      16.708   1.469 -13.278  1.00  0.00    -0.508 OA
ATOM     25  H   UNL     1      16.536   1.743 -12.318  1.00  0.00     0.293 HD
ENDBRANCH   8  24
TORSDOF 5
ENDMDL
MODEL 5
REMARK VINA RESULT:    -5.941      8.953     15.083
REMARK INTER + INTRA:          -7.264
REMARK INTER:                  -6.983
REMARK INTRA:                  -0.281
REMARK UNBOUND:                -0.281
REMARK SMILES O=c1c(O)c(-c2ccc(O)cc2)oc2cc(O)cc(O)c12
REMARK SMILES IDX 5 1 3 2 2 3 1 4 21 5 19 6 18 7 16 8 15 9 14 10 13 11 6 12
REMARK SMILES IDX 7 13 8 14 9 15 12 16 11 17 10 18 4 20 20 22 17 24
REMARK H PARENT 10 19 4 21 20 23 17 25
REMARK Flexibility Score: inf
ROOT
ATOM      1  C   UNL     1      18.379  -0.353 -16.132  1.00  0.00     0.180 A 
ATOM      2  C   UNL     1      19.461   0.400 -15.644  1.00  0.00     0.208 A 
ATOM      3  C   UNL     1      20.488   0.768 -16.529  1.00  0.00     0.238 A 
ATOM      4  O   UNL     1      21.480   1.395 -16.076  1.00  0.00    -0.285 OA
ATOM      5  C   UNL     1      20.413   0.391 -17.892  1.00  0.00     0.111 A 
ATOM      6  C   UNL     1      21.376   0.743 -18.884  1.00  0.00     0.134 A 
ATOM      7  C   UNL     1      21.268   0.205 -20.173  1.00  0.00     0.093 A 
ATOM      8  C   UNL     1      20.197  -0.617 -20.524  1.00  0.00     0.123 A 
ATOM      9  C   UNL     1      19.217  -0.919 -19.577  1.00  0.00     0.094 A 
ATOM     10  C   UNL     1      19.317  -0.428 -18.273  1.00  0.00     0.146 A 
ATOM     11  O   UNL     1      18.370  -0.747 -17.401  1.00  0.00    -0.452 OA
ENDROOT
BRANCH   1  12
ATOM     12  C   UNL     1      17.247  -0.756 -15.267  1.00  0.00     0.021 A 
ATOM     13  C   UNL     1      17.227  -2.003 -14.618  1.00  0.00     0.016 A 
ATOM     14  C   UNL     1      16.158  -2.352 -13.787  1.00  0.00     0.047 A 
ATOM     15  C   UNL     1      15.103  -1.454 -13.584  1.00  0.00     0.115 A 
ATOM     16  C   UNL     1      16.194   0.147 -15.041  1.00  0.00     0.016 A 
ATOM     17  C   UNL     1      15.125  -0.204 -14.210  1.00  0.00     0.047 A 
BRANCH  15  18
ATOM     18  O   UNL     1      14.032  -1.791 -12.759  1.00  0.00    -0.508 OA
ATOM     19  H   UNL     1      13.436  -1.081 -12.349  1.00  0.00     0.293 HD
ENDBRANCH  15  18
ENDBRANCH   1  12
BRANCH   2  20
ATOM     20  O   UNL     1      19.527   0.743 -14.292  1.00  0.00    -0.502 OA
ATOM     21  H   UNL     1      19.793   0.080 -13.575  1.00  0.00     0.293 HD
ENDBRANCH   2  20
BRANCH   6  22
ATOM     22  O   UNL     1      22.434   1.629 -18.665  1.00  0.00    -0.507 OA
ATOM     23  H   UNL     1      23.380   1.354 -18.447  1.00  0.00     0.293 HD
ENDBRANCH   6  22
BRANCH   8  24
ATOM     24  O   UNL     1      20.113  -1.121 -21.819  1.00  0.00    -0.508 OA
ATOM     25  H   UNL     1      20.526  -2.012 -22.069  1.00  0.00     0.293 HD
ENDBRANCH   8  24
TORSDOF 5
ENDMDL
MODEL 6
REMARK VINA RESULT:    -5.885      2.379      4.097
REMARK INTER + INTRA:          -7.198
REMARK INTER:                  -6.956
REMARK INTRA:                  -0.242
REMARK UNBOUND:                -0.281
REMARK SMILES O=c1c(O)c(-c2ccc(O)cc2)oc2cc(O)cc(O)c12
REMARK SMILES IDX 5 1 3 2 2 3 1 4 21 5 19 6 18 7 16 8 15 9 14 10 13 11 6 12
REMARK SMILES IDX 7 13 8 14 9 15 12 16 11 17 10 18 4 20 20 22 17 24
REMARK H PARENT 10 19 4 21 20 23 17 25
REMARK Flexibility Score: inf
ROOT
ATOM      1  C   UNL     1      12.957  -5.271 -10.638  1.00  0.00     0.180 A 
ATOM      2  C   UNL     1      11.934  -4.542 -11.270  1.00  0.00     0.208 A 
ATOM      3  C   UNL     1      10.603  -4.754 -10.875  1.00  0.00     0.238 A 
ATOM      4  O   UNL     1       9.687  -4.139 -11.479  1.00  0.00    -0.285 OA
ATOM      5  C   UNL     1      10.313  -5.681  -9.844  1.00  0.00     0.111 A 
ATOM      6  C   UNL     1       9.006  -5.946  -9.337  1.00  0.00     0.134 A 
ATOM      7  C   UNL     1       8.821  -6.978  -8.407  1.00  0.00     0.093 A 
ATOM      8  C   UNL     1       9.903  -7.708  -7.918  1.00  0.00     0.123 A 
ATOM      9  C   UNL     1      11.194  -7.417  -8.363  1.00  0.00     0.094 A 
ATOM     10  C   UNL     1      11.405  -6.419  -9.317  1.00  0.00     0.146 A 
ATOM     11  O   UNL     1      12.647  -6.181  -9.721  1.00  0.00    -0.452 OA
ENDROOT
BRANCH   1  12
ATOM     12  C   UNL     1      14.385  -5.084 -10.982  1.00  0.00     0.021 A 
ATOM     13  C   UNL     1      14.936  -5.636 -12.152  1.00  0.00     0.016 A 
ATOM     14  C   UNL     1      16.282  -5.426 -12.468  1.00  0.00     0.047 A 
ATOM     15  C   UNL     1      17.089  -4.651 -11.626  1.00  0.00     0.115 A 
ATOM     16  C   UNL     1      15.197  -4.291 -10.154  1.00  0.00     0.016 A 
ATOM     17  C   UNL     1      16.543  -4.083 -10.471  1.00  0.00     0.047 A 
BRANCH  15  18
ATOM     18  O   UNL     1      18.432  -4.436 -11.929  1.00  0.00    -0.508 OA
ATOM     19  H   UNL     1      18.713  -3.782 -12.651  1.00  0.00     0.293 HD
ENDBRANCH  15  18
ENDBRANCH   1  12
BRANCH   2  20
ATOM     20  O   UNL     1      12.240  -3.648 -12.299  1.00  0.00    -0.502 OA
ATOM     21  H   UNL     1      12.846  -3.895 -13.071  1.00  0.00     0.293 HD
ENDBRANCH   2  20
BRANCH   6  22
ATOM     22  O   UNL     1       7.868  -5.214  -9.690  1.00  0.00    -0.507 OA
ATOM     23  H   UNL     1       7.777  -4.662 -10.529  1.00  0.00     0.293 HD
ENDBRANCH   6  22
BRANCH   8  24
ATOM     24  O   UNL     1       9.685  -8.717  -6.982  1.00  0.00    -0.508 OA
ATOM     25  H   UNL     1      10.184  -8.738  -6.100  1.00  0.00     0.293 HD
ENDBRANCH   8  24
TORSDOF 5
ENDMDL
MODEL 7
REMARK VINA RESULT:    -5.778      8.533     11.866
REMARK INTER + INTRA:          -7.073
REMARK INTER:                  -6.772
REMARK INTRA:                  -0.300
REMARK UNBOUND:                -0.281
REMARK SMILES O=c1c(O)c(-c2ccc(O)cc2)oc2cc(O)cc(O)c12
REMARK SMILES IDX 5 1 3 2 2 3 1 4 21 5 19 6 18 7 16 8 15 9 14 10 13 11 6 12
REMARK SMILES IDX 7 13 8 14 9 15 12 16 11 17 10 18 4 20 20 22 17 24
REMARK H PARENT 10 19 4 21 20 23 17 25
REMARK Flexibility Score: inf
ROOT
ATOM      1  C   UNL     1      18.959  -1.837  -8.082  1.00  0.00     0.180 A 
ATOM      2  C   UNL     1      18.883  -2.493  -6.841  1.00  0.00     0.208 A 
ATOM      3  C   UNL     1      20.070  -2.919  -6.222  1.00  0.00     0.238 A 
ATOM      4  O   UNL     1      19.992  -3.552  -5.138  1.00  0.00    -0.285 OA
ATOM      5  C   UNL     1      21.317  -2.670  -6.844  1.00  0.00     0.111 A 
ATOM      6  C   UNL     1      22.583  -3.022  -6.288  1.00  0.00     0.134 A 
ATOM      7  C   UNL     1      23.746  -2.845  -7.051  1.00  0.00     0.093 A 
ATOM      8  C   UNL     1      23.694  -2.271  -8.320  1.00  0.00     0.123 A 
ATOM      9  C   UNL     1      22.466  -1.869  -8.849  1.00  0.00     0.094 A 
ATOM     10  C   UNL     1      21.286  -2.065  -8.128  1.00  0.00     0.146 A 
ATOM     11  O   UNL     1      20.139  -1.678  -8.671  1.00  0.00    -0.452 OA
ENDROOT
BRANCH   1  12
ATOM     12  C   UNL     1      17.755  -1.337  -8.784  1.00  0.00     0.021 A 
ATOM     13  C   UNL     1      17.253  -0.045  -8.548  1.00  0.00     0.016 A 
ATOM     14  C   UNL     1      16.128   0.415  -9.240  1.00  0.00     0.047 A 
ATOM     15  C   UNL     1      15.500  -0.405 -10.185  1.00  0.00     0.115 A 
ATOM     16  C   UNL     1      17.130  -2.146  -9.748  1.00  0.00     0.016 A 
ATOM     17  C   UNL     1      16.005  -1.685 -10.439  1.00  0.00     0.047 A 
BRANCH  15  18
ATOM     18  O   UNL     1      14.378   0.041 -10.880  1.00  0.00    -0.508 OA
ATOM     19  H   UNL     1      13.644   0.568 -10.420  1.00  0.00     0.293 HD
ENDBRANCH  15  18
ENDBRANCH   1  12
BRANCH   2  20
ATOM     20  O   UNL     1      17.640  -2.748  -6.255  1.00  0.00    -0.502 OA
ATOM     21  H   UNL     1      17.227  -3.671  -6.235  1.00  0.00     0.293 HD
ENDBRANCH   2  20
BRANCH   6  22
ATOM     22  O   UNL     1      22.757  -3.518  -4.993  1.00  0.00    -0.507 OA
ATOM     23  H   UNL     1      23.647  -3.759  -4.584  1.00  0.00     0.293 HD
ENDBRANCH   6  22
BRANCH   8  24
ATOM     24  O   UNL     1      24.871  -2.096  -9.044  1.00  0.00    -0.508 OA
ATOM     25  H   UNL     1      25.046  -1.250  -9.576  1.00  0.00     0.293 HD
ENDBRANCH   8  24
TORSDOF 5
ENDMDL
MODEL 8
REMARK VINA RESULT:    -5.763      2.488      4.128
REMARK INTER + INTRA:          -7.055
REMARK INTER:                  -6.844
REMARK INTRA:                  -0.211
REMARK UNBOUND:                -0.281
REMARK SMILES O=c1c(O)c(-c2ccc(O)cc2)oc2cc(O)cc(O)c12
REMARK SMILES IDX 5 1 3 2 2 3 1 4 21 5 19 6 18 7 16 8 15 9 14 10 13 11 6 12
REMARK SMILES IDX 7 13 8 14 9 15 12 16 11 17 10 18 4 20 20 22 17 24
REMARK H PARENT 10 19 4 21 20 23 17 25
REMARK Flexibility Score: inf
ROOT
ATOM      1  C   UNL     1      11.065  -6.132 -10.806  1.00  0.00     0.180 A 
ATOM      2  C   UNL     1      10.834  -6.391  -9.443  1.00  0.00     0.208 A 
ATOM      3  C   UNL     1       9.733  -7.182  -9.078  1.00  0.00     0.238 A 
ATOM      4  O   UNL     1       9.501  -7.366  -7.855  1.00  0.00    -0.285 OA
ATOM      5  C   UNL     1       8.886  -7.716 -10.078  1.00  0.00     0.111 A 
ATOM      6  C   UNL     1       7.765  -8.563  -9.824  1.00  0.00     0.134 A 
ATOM      7  C   UNL     1       6.920  -8.926 -10.881  1.00  0.00     0.093 A 
ATOM      8  C   UNL     1       7.191  -8.528 -12.189  1.00  0.00     0.123 A 
ATOM      9  C   UNL     1       8.318  -7.749 -12.457  1.00  0.00     0.094 A 
ATOM     10  C   UNL     1       9.159  -7.341 -11.420  1.00  0.00     0.146 A 
ATOM     11  O   UNL     1      10.214  -6.593 -11.716  1.00  0.00    -0.452 OA
ENDROOT
BRANCH   1  12
ATOM     12  C   UNL     1      12.219  -5.329 -11.271  1.00  0.00     0.021 A 
ATOM     13  C   UNL     1      12.057  -4.008 -11.726  1.00  0.00     0.016 A 
ATOM     14  C   UNL     1      13.165  -3.261 -12.137  1.00  0.00     0.047 A 
ATOM     15  C   UNL     1      14.449  -3.819 -12.087  1.00  0.00     0.115 A 
ATOM     16  C   UNL     1      13.512  -5.874 -11.205  1.00  0.00     0.016 A 
ATOM     17  C   UNL     1      14.619  -5.126 -11.618  1.00  0.00     0.047 A 
BRANCH  15  18
ATOM     18  O   UNL     1      15.560  -3.085 -12.496  1.00  0.00    -0.508 OA
ATOM     19  H   UNL     1      16.340  -2.914 -11.871  1.00  0.00     0.293 HD
ENDBRANCH  15  18
ENDBRANCH   1  12
BRANCH   2  20
ATOM     20  O   UNL     1      11.671  -5.837  -8.471  1.00  0.00    -0.502 OA
ATOM     21  H   UNL     1      11.422  -5.812  -7.490  1.00  0.00     0.293 HD
ENDBRANCH   2  20
BRANCH   6  22
ATOM     22  O   UNL     1       7.456  -9.092  -8.568  1.00  0.00    -0.507 OA
ATOM     23  H   UNL     1       7.139 -10.035  -8.404  1.00  0.00     0.293 HD
ENDBRANCH   6  22
BRANCH   8  24
ATOM     24  O   UNL     1       6.337  -8.921 -13.218  1.00  0.00    -0.508 OA
ATOM     25  H   UNL     1       5.793  -9.774 -13.158  1.00  0.00     0.293 HD
ENDBRANCH   8  24
TORSDOF 5
ENDMDL
MODEL 9
REMARK VINA RESULT:    -5.609      7.323     11.159
REMARK INTER + INTRA:          -6.874
REMARK INTER:                  -6.706
REMARK INTRA:                  -0.167
REMARK UNBOUND:                -0.281
REMARK SMILES O=c1c(O)c(-c2ccc(O)cc2)oc2cc(O)cc(O)c12
REMARK SMILES IDX 5 1 3 2 2 3 1 4 21 5 19 6 18 7 16 8 15 9 14 10 13 11 6 12
REMARK SMILES IDX 7 13 8 14 9 15 12 16 11 17 10 18 4 20 20 22 17 24
REMARK H PARENT 10 19 4 21 20 23 17 25
REMARK Flexibility Score: inf
ROOT
ATOM      1  C   UNL     1      17.366  -0.505 -15.254  1.00  0.00     0.180 A 
ATOM      2  C   UNL     1      16.442   0.470 -14.841  1.00  0.00     0.208 A 
ATOM      3  C   UNL     1      15.369   0.086 -14.019  1.00  0.00     0.238 A 
ATOM      4  O   UNL     1      14.516   0.952 -13.696  1.00  0.00    -0.285 OA
ATOM      5  C   UNL     1      15.243  -1.263 -13.609  1.00  0.00     0.111 A 
ATOM      6  C   UNL     1      14.219  -1.756 -12.746  1.00  0.00     0.134 A 
ATOM      7  C   UNL     1      14.115  -3.133 -12.512  1.00  0.00     0.093 A 
ATOM      8  C   UNL     1      15.036  -4.028 -13.057  1.00  0.00     0.123 A 
ATOM      9  C   UNL     1      16.077  -3.550 -13.855  1.00  0.00     0.094 A 
ATOM     10  C   UNL     1      16.186  -2.186 -14.136  1.00  0.00     0.146 A 
ATOM     11  O   UNL     1      17.184  -1.775 -14.907  1.00  0.00    -0.452 OA
ENDROOT
BRANCH   1  12
ATOM     12  C   UNL     1      18.536  -0.174 -16.099  1.00  0.00     0.021 A 
ATOM     13  C   UNL     1      19.569   0.657 -15.628  1.00  0.00     0.016 A 
ATOM     14  C   UNL     1      20.675   0.937 -16.436  1.00  0.00     0.047 A 
ATOM     15  C   UNL     1      20.771   0.380 -17.717  1.00  0.00     0.115 A 
ATOM     16  C   UNL     1      18.650  -0.744 -17.378  1.00  0.00     0.016 A 
ATOM     17  C   UNL     1      19.757  -0.462 -18.184  1.00  0.00     0.047 A 
BRANCH  15  18
ATOM     18  O   UNL     1      21.868   0.653 -18.531  1.00  0.00    -0.508 OA
ATOM     19  H   UNL     1      21.814   0.566 -19.539  1.00  0.00     0.293 HD
ENDBRANCH  15  18
ENDBRANCH   1  12
BRANCH   2  20
ATOM     20  O   UNL     1      16.573   1.791 -15.274  1.00  0.00    -0.502 OA
ATOM     21  H   UNL     1      16.332   2.582 -14.689  1.00  0.00     0.293 HD
ENDBRANCH   2  20
BRANCH   6  22
ATOM     22  O   UNL     1      13.304  -0.939 -12.076  1.00  0.00    -0.507 OA
ATOM     23  H   UNL     1      13.440   0.042 -11.885  1.00  0.00     0.293 HD
ENDBRANCH   6  22
BRANCH   8  24
ATOM     24  O   UNL     1      14.912  -5.389 -12.791  1.00  0.00    -0.508 OA
ATOM     25  H   UNL     1      15.528  -6.071 -13.219  1.00  0.00     0.293 HD
ENDBRANCH   8  24
TORSDOF 5
ENDMDL
