MODEL 1
REMARK VINA RESULT:    -4.640      0.000      0.000
REMARK INTER + INTRA:          -9.934
REMARK INTER:                  -8.708
REMARK INTRA:                  -1.226
REMARK UNBOUND:                -1.226
REMARK SMILES CCCCCCCCC=CCCCCCCCC(=O)[O-]
REMARK SMILES IDX 10 1 9 2 11 3 12 4 13 5 14 6 15 7 16 8 17 9 18 10 19 11
REMARK SMILES IDX 20 12 8 13 7 14 6 15 5 16 4 17 3 18 2 19 1 20
REMARK H PARENT
REMARK Flexibility Score: inf
ROOT
ATOM      1  C   UNL     1      31.353  27.360  62.569  1.00  0.00    -0.031 C 
ATOM      2  C   UNL     1      30.017  27.394  62.401  1.00  0.00    -0.031 C 
ENDROOT
BRANCH   1   3
ATOM      3  C   UNL     1      32.081  26.489  63.561  1.00  0.00     0.027 C 
BRANCH   3   4
ATOM      4  C   UNL     1      32.488  25.146  62.936  1.00  0.00     0.004 C 
BRANCH   4   5
ATOM      5  C   UNL     1      31.798  23.949  63.609  1.00  0.00     0.000 C 
BRANCH   5   6
ATOM      6  C   UNL     1      31.240  24.302  64.999  1.00  0.00     0.000 C 
BRANCH   6   7
ATOM      7  C   UNL     1      32.223  23.982  66.139  1.00  0.00     0.000 C 
BRANCH   7   8
ATOM      8  C   UNL     1      31.827  24.539  67.522  1.00  0.00     0.006 C 
BRANCH   8   9
ATOM      9  C   UNL     1      32.822  24.220  68.649  1.00  0.00     0.053 C 
BRANCH   9  10
ATOM     10  C   UNL     1      32.469  24.921  69.925  1.00  0.00     0.041 C 
ATOM     11  O   UNL     1      33.363  25.187  70.770  1.00  0.00    -0.550 OA
ATOM     12  O   UNL     1      31.146  25.246  70.198  1.00  0.00    -0.550 OA
ENDBRANCH   9  10
ENDBRANCH   8   9
ENDBRANCH   7   8
ENDBRANCH   6   7
ENDBRANCH   5   6
ENDBRANCH   4   5
ENDBRANCH   3   4
ENDBRANCH   1   3
BRANCH   2  13
ATOM     13  C   UNL     1      29.015  26.592  63.199  1.00  0.00     0.027 C 
BRANCH  13  14
ATOM     14  C   UNL     1      28.508  25.376  62.410  1.00  0.00     0.004 C 
BRANCH  14  15
ATOM     15  C   UNL     1      26.977  25.352  62.287  1.00  0.00     0.000 C 
BRANCH  15  16
ATOM     16  C   UNL     1      26.493  24.018  61.705  1.00  0.00     0.000 C 
BRANCH  16  17
ATOM     17  C   UNL     1      25.042  24.121  61.219  1.00  0.00    -0.000 C 
BRANCH  17  18
ATOM     18  C   UNL     1      24.176  25.027  62.110  1.00  0.00    -0.000 C 
BRANCH  18  19
ATOM     19  C   UNL     1      23.713  24.349  63.417  1.00  0.00    -0.003 C 
ATOM     20  C   UNL     1      22.560  25.097  64.085  1.00  0.00     0.004 C 
ENDBRANCH  18  19
ENDBRANCH  17  18
ENDBRANCH  16  17
ENDBRANCH  15  16
ENDBRANCH  14  15
ENDBRANCH  13  14
ENDBRANCH   2  13
TORSDOF 15
ENDMDL
MODEL 2
REMARK VINA RESULT:    -4.586      4.657     10.851
REMARK INTER + INTRA:          -9.834
REMARK INTER:                  -8.527
REMARK INTRA:                  -1.307
REMARK UNBOUND:                -1.226
REMARK SMILES CCCCCCCCC=CCCCCCCCC(=O)[O-]
REMARK SMILES IDX 10 1 9 2 11 3 12 4 13 5 14 6 15 7 16 8 17 9 18 10 19 11
REMARK SMILES IDX 20 12 8 13 7 14 6 15 5 16 4 17 3 18 2 19 1 20
REMARK H PARENT
REMARK Flexibility Score: inf
ROOT
ATOM      1  C   UNL     1      32.499  26.648  70.880  1.00  0.00    -0.031 C 
ATOM      2  C   UNL     1      33.842  26.616  70.788  1.00  0.00    -0.031 C 
ENDROOT
BRANCH   1   3
ATOM      3  C   UNL     1      31.644  25.563  71.486  1.00  0.00     0.027 C 
BRANCH   3   4
ATOM      4  C   UNL     1      30.742  24.904  70.431  1.00  0.00     0.004 C 
BRANCH   4   5
ATOM      5  C   UNL     1      31.519  23.968  69.492  1.00  0.00     0.000 C 
BRANCH   5   6
ATOM      6  C   UNL     1      31.417  24.401  68.020  1.00  0.00     0.000 C 
BRANCH   6   7
ATOM      7  C   UNL     1      32.761  24.313  67.274  1.00  0.00     0.000 C 
BRANCH   7   8
ATOM      8  C   UNL     1      32.678  24.518  65.747  1.00  0.00     0.006 C 
BRANCH   8   9
ATOM      9  C   UNL     1      31.268  24.819  65.217  1.00  0.00     0.053 C 
BRANCH   9  10
ATOM     10  C   UNL     1      31.295  25.348  63.816  1.00  0.00     0.041 C 
ATOM     11  O   UNL     1      30.360  25.077  63.018  1.00  0.00    -0.550 OA
ATOM     12  O   UNL     1      32.373  26.109  63.380  1.00  0.00    -0.550 OA
ENDBRANCH   9  10
ENDBRANCH   8   9
ENDBRANCH   7   8
ENDBRANCH   6   7
ENDBRANCH   5   6
ENDBRANCH   4   5
ENDBRANCH   3   4
ENDBRANCH   1   3
BRANCH   2  13
ATOM     13  C   UNL     1      34.723  25.475  71.245  1.00  0.00     0.027 C 
BRANCH  13  14
ATOM     14  C   UNL     1      34.809  24.367  70.185  1.00  0.00     0.004 C 
BRANCH  14  15
ATOM     15  C   UNL     1      36.244  24.140  69.687  1.00  0.00     0.000 C 
BRANCH  15  16
ATOM     16  C   UNL     1      37.236  24.131  70.858  1.00  0.00     0.000 C 
BRANCH  16  17
ATOM     17  C   UNL     1      38.681  24.255  70.357  1.00  0.00    -0.000 C 
BRANCH  17  18
ATOM     18  C   UNL     1      39.716  24.185  71.493  1.00  0.00    -0.000 C 
BRANCH  18  19
ATOM     19  C   UNL     1      39.092  24.264  72.903  1.00  0.00    -0.003 C 
ATOM     20  C   UNL     1      39.697  25.387  73.745  1.00  0.00     0.004 C 
ENDBRANCH  18  19
ENDBRANCH  17  18
ENDBRANCH  16  17
ENDBRANCH  15  16
ENDBRANCH  14  15
ENDBRANCH  13  14
ENDBRANCH   2  13
TORSDOF 15
ENDMDL
MODEL 3
REMARK VINA RESULT:    -4.572      3.828      9.431
REMARK INTER + INTRA:          -9.808
REMARK INTER:                  -8.840
REMARK INTRA:                  -0.968
REMARK UNBOUND:                -1.226
REMARK SMILES CCCCCCCCC=CCCCCCCCC(=O)[O-]
REMARK SMILES IDX 10 1 9 2 11 3 12 4 13 5 14 6 15 7 16 8 17 9 18 10 19 11
REMARK SMILES IDX 20 12 8 13 7 14 6 15 5 16 4 17 3 18 2 19 1 20
REMARK H PARENT
REMARK Flexibility Score: inf
ROOT
ATOM      1  C   UNL     1      32.117  23.925  68.095  1.00  0.00    -0.031 C 
ATOM      2  C   UNL     1      32.294  24.263  69.387  1.00  0.00    -0.031 C 
ENDROOT
BRANCH   1   3
ATOM      3  C   UNL     1      30.924  24.304  67.254  1.00  0.00     0.027 C 
BRANCH   3   4
ATOM      4  C   UNL     1      31.273  24.320  65.759  1.00  0.00     0.004 C 
BRANCH   4   5
ATOM      5  C   UNL     1      32.735  24.718  65.498  1.00  0.00     0.000 C 
BRANCH   5   6
ATOM      6  C   UNL     1      33.128  24.564  64.019  1.00  0.00     0.000 C 
BRANCH   6   7
ATOM      7  C   UNL     1      32.112  25.207  63.059  1.00  0.00     0.000 C 
BRANCH   7   8
ATOM      8  C   UNL     1      31.728  26.665  63.389  1.00  0.00     0.006 C 
BRANCH   8   9
ATOM      9  C   UNL     1      30.513  27.198  62.615  1.00  0.00     0.053 C 
BRANCH   9  10
ATOM     10  C   UNL     1      29.245  26.511  63.019  1.00  0.00     0.041 C 
ATOM     11  O   UNL     1      28.532  26.988  63.941  1.00  0.00    -0.550 OA
ATOM     12  O   UNL     1      28.869  25.324  62.403  1.00  0.00    -0.550 OA
ENDBRANCH   9  10
ENDBRANCH   8   9
ENDBRANCH   7   8
ENDBRANCH   6   7
ENDBRANCH   5   6
ENDBRANCH   4   5
ENDBRANCH   3   4
ENDBRANCH   1   3
BRANCH   2  13
ATOM     13  C   UNL     1      31.315  25.052  70.227  1.00  0.00     0.027 C 
BRANCH  13  14
ATOM     14  C   UNL     1      32.007  26.202  70.971  1.00  0.00     0.004 C 
BRANCH  14  15
ATOM     15  C   UNL     1      33.383  25.801  71.525  1.00  0.00     0.000 C 
BRANCH  15  16
ATOM     16  C   UNL     1      34.503  26.599  70.845  1.00  0.00     0.000 C 
BRANCH  16  17
ATOM     17  C   UNL     1      35.333  25.703  69.917  1.00  0.00    -0.000 C 
BRANCH  17  18
ATOM     18  C   UNL     1      35.852  24.435  70.615  1.00  0.00    -0.000 C 
BRANCH  18  19
ATOM     19  C   UNL     1      37.313  24.087  70.256  1.00  0.00    -0.003 C 
ATOM     20  C   UNL     1      38.189  23.904  71.495  1.00  0.00     0.004 C 
ENDBRANCH  18  19
ENDBRANCH  17  18
ENDBRANCH  16  17
ENDBRANCH  15  16
ENDBRANCH  14  15
ENDBRANCH  13  14
ENDBRANCH   2  13
TORSDOF 15
ENDMDL
MODEL 4
REMARK VINA RESULT:    -4.259      2.339      4.825
REMARK INTER + INTRA:          -9.219
REMARK INTER:                  -7.764
REMARK INTRA:                  -1.455
REMARK UNBOUND:                -1.226
REMARK SMILES CCCCCCCCC=CCCCCCCCC(=O)[O-]
REMARK SMILES IDX 10 1 9 2 11 3 12 4 13 5 14 6 15 7 16 8 17 9 18 10 19 11
REMARK SMILES IDX 20 12 8 13 7 14 6 15 5 16 4 17 3 18 2 19 1 20
REMARK H PARENT
REMARK Flexibility Score: inf
ROOT
ATOM      1  C   UNL     1      31.976  24.392  66.308  1.00  0.00    -0.031 C 
ATOM      2  C   UNL     1      31.427  24.538  65.087  1.00  0.00    -0.031 C 
ENDROOT
BRANCH   1   3
ATOM      3  C   UNL     1      33.442  24.157  66.578  1.00  0.00     0.027 C 
BRANCH   3   4
ATOM      4  C   UNL     1      33.730  24.083  68.085  1.00  0.00     0.004 C 
BRANCH   4   5
ATOM      5  C   UNL     1      35.190  24.424  68.424  1.00  0.00     0.000 C 
BRANCH   5   6
ATOM      6  C   UNL     1      35.472  24.347  69.934  1.00  0.00     0.000 C 
BRANCH   6   7
ATOM      7  C   UNL     1      35.461  25.725  70.618  1.00  0.00     0.000 C 
BRANCH   7   8
ATOM      8  C   UNL     1      34.059  26.308  70.897  1.00  0.00     0.006 C 
BRANCH   8   9
ATOM      9  C   UNL     1      33.004  25.268  71.305  1.00  0.00     0.053 C 
BRANCH   9  10
ATOM     10  C   UNL     1      31.624  25.676  70.888  1.00  0.00     0.041 C 
ATOM     11  O   UNL     1      30.983  24.982  70.056  1.00  0.00    -0.550 OA
ATOM     12  O   UNL     1      31.062  26.843  71.388  1.00  0.00    -0.550 OA
ENDBRANCH   9  10
ENDBRANCH   8   9
ENDBRANCH   7   8
ENDBRANCH   6   7
ENDBRANCH   5   6
ENDBRANCH   4   5
ENDBRANCH   3   4
ENDBRANCH   1   3
BRANCH   2  13
ATOM     13  C   UNL     1      32.176  24.461  63.776  1.00  0.00     0.027 C 
BRANCH  13  14
ATOM     14  C   UNL     1      32.862  25.793  63.437  1.00  0.00     0.004 C 
BRANCH  14  15
ATOM     15  C   UNL     1      32.060  26.626  62.427  1.00  0.00     0.000 C 
BRANCH  15  16
ATOM     16  C   UNL     1      31.137  27.620  63.144  1.00  0.00     0.000 C 
BRANCH  16  17
ATOM     17  C   UNL     1      29.702  27.524  62.610  1.00  0.00    -0.000 C 
BRANCH  17  18
ATOM     18  C   UNL     1      28.878  26.424  63.302  1.00  0.00    -0.000 C 
BRANCH  18  19
ATOM     19  C   UNL     1      28.227  25.429  62.318  1.00  0.00    -0.003 C 
ATOM     20  C   UNL     1      29.006  24.117  62.216  1.00  0.00     0.004 C 
ENDBRANCH  18  19
ENDBRANCH  17  18
ENDBRANCH  16  17
ENDBRANCH  15  16
ENDBRANCH  14  15
ENDBRANCH  13  14
ENDBRANCH   2  13
TORSDOF 15
ENDMDL
MODEL 5
REMARK VINA RESULT:    -4.178      4.840     10.703
REMARK INTER + INTRA:          -9.068
REMARK INTER:                  -8.503
REMARK INTRA:                  -0.565
REMARK UNBOUND:                -1.226
REMARK SMILES CCCCCCCCC=CCCCCCCCC(=O)[O-]
REMARK SMILES IDX 10 1 9 2 11 3 12 4 13 5 14 6 15 7 16 8 17 9 18 10 19 11
REMARK SMILES IDX 20 12 8 13 7 14 6 15 5 16 4 17 3 18 2 19 1 20
REMARK H PARENT
REMARK Flexibility Score: inf
ROOT
ATOM      1  C   UNL     1      32.286  26.932  70.590  1.00  0.00    -0.031 C 
ATOM      2  C   UNL     1      33.627  26.918  70.721  1.00  0.00    -0.031 C 
ENDROOT
BRANCH   1   3
ATOM      3  C   UNL     1      31.340  25.961  71.251  1.00  0.00     0.027 C 
BRANCH   3   4
ATOM      4  C   UNL     1      31.415  24.572  70.599  1.00  0.00     0.004 C 
BRANCH   4   5
ATOM      5  C   UNL     1      30.989  24.591  69.122  1.00  0.00     0.000 C 
BRANCH   5   6
ATOM      6  C   UNL     1      32.176  24.366  68.169  1.00  0.00     0.000 C 
BRANCH   6   7
ATOM      7  C   UNL     1      31.805  24.570  66.690  1.00  0.00     0.000 C 
BRANCH   7   8
ATOM      8  C   UNL     1      32.976  24.428  65.694  1.00  0.00     0.006 C 
BRANCH   8   9
ATOM      9  C   UNL     1      32.552  24.304  64.223  1.00  0.00     0.053 C 
BRANCH   9  10
ATOM     10  C   UNL     1      31.794  25.508  63.754  1.00  0.00     0.041 C 
ATOM     11  O   UNL     1      32.407  26.492  63.262  1.00  0.00    -0.550 OA
ATOM     12  O   UNL     1      30.413  25.559  63.894  1.00  0.00    -0.550 OA
ENDBRANCH   9  10
ENDBRANCH   8   9
ENDBRANCH   7   8
ENDBRANCH   6   7
ENDBRANCH   5   6
ENDBRANCH   4   5
ENDBRANCH   3   4
ENDBRANCH   1   3
BRANCH   2  13
ATOM     13  C   UNL     1      34.417  25.910  71.525  1.00  0.00     0.027 C 
BRANCH  13  14
ATOM     14  C   UNL     1      34.524  24.564  70.794  1.00  0.00     0.004 C 
BRANCH  14  15
ATOM     15  C   UNL     1      35.878  23.876  71.026  1.00  0.00     0.000 C 
BRANCH  15  16
ATOM     16  C   UNL     1      36.851  24.178  69.879  1.00  0.00     0.000 C 
BRANCH  16  17
ATOM     17  C   UNL     1      38.307  24.034  70.339  1.00  0.00    -0.000 C 
BRANCH  17  18
ATOM     18  C   UNL     1      38.450  23.990  71.870  1.00  0.00    -0.000 C 
BRANCH  18  19
ATOM     19  C   UNL     1      39.720  24.695  72.392  1.00  0.00    -0.003 C 
ATOM     20  C   UNL     1      39.545  25.235  73.811  1.00  0.00     0.004 C 
ENDBRANCH  18  19
ENDBRANCH  17  18
ENDBRANCH  16  17
ENDBRANCH  15  16
ENDBRANCH  14  15
ENDBRANCH  13  14
ENDBRANCH   2  13
TORSDOF 15
ENDMDL
MODEL 6
REMARK VINA RESULT:    -4.002      5.592     12.180
REMARK INTER + INTRA:          -8.737
REMARK INTER:                  -7.925
REMARK INTRA:                  -0.813
REMARK UNBOUND:                -1.226
REMARK SMILES CCCCCCCCC=CCCCCCCCC(=O)[O-]
REMARK SMILES IDX 10 1 9 2 11 3 12 4 13 5 14 6 15 7 16 8 17 9 18 10 19 11
REMARK SMILES IDX 20 12 8 13 7 14 6 15 5 16 4 17 3 18 2 19 1 20
REMARK H PARENT
REMARK Flexibility Score: inf
ROOT
ATOM      1  C   UNL     1      35.043  25.015  69.424  1.00  0.00    -0.031 C 
ATOM      2  C   UNL     1      36.124  24.226  69.577  1.00  0.00    -0.031 C 
ENDROOT
BRANCH   1   3
ATOM      3  C   UNL     1      34.425  25.861  70.510  1.00  0.00     0.027 C 
BRANCH   3   4
ATOM      4  C   UNL     1      32.893  25.738  70.513  1.00  0.00     0.004 C 
BRANCH   4   5
ATOM      5  C   UNL     1      32.409  24.382  69.976  1.00  0.00     0.000 C 
BRANCH   5   6
ATOM      6  C   UNL     1      31.615  24.522  68.666  1.00  0.00     0.000 C 
BRANCH   6   7
ATOM      7  C   UNL     1      32.344  23.915  67.454  1.00  0.00     0.000 C 
BRANCH   7   8
ATOM      8  C   UNL     1      32.292  24.763  66.166  1.00  0.00     0.006 C 
BRANCH   8   9
ATOM      9  C   UNL     1      31.219  24.327  65.156  1.00  0.00     0.053 C 
BRANCH   9  10
ATOM     10  C   UNL     1      31.132  25.264  63.990  1.00  0.00     0.041 C 
ATOM     11  O   UNL     1      32.117  25.412  63.221  1.00  0.00    -0.550 OA
ATOM     12  O   UNL     1      29.975  26.003  63.776  1.00  0.00    -0.550 OA
ENDBRANCH   9  10
ENDBRANCH   8   9
ENDBRANCH   7   8
ENDBRANCH   6   7
ENDBRANCH   5   6
ENDBRANCH   4   5
ENDBRANCH   3   4
ENDBRANCH   1   3
BRANCH   2  13
ATOM     13  C   UNL     1      36.884  24.025  70.869  1.00  0.00     0.027 C 
BRANCH  13  14
ATOM     14  C   UNL     1      38.400  24.137  70.656  1.00  0.00     0.004 C 
BRANCH  14  15
ATOM     15  C   UNL     1      39.196  23.875  71.943  1.00  0.00     0.000 C 
BRANCH  15  16
ATOM     16  C   UNL     1      38.804  24.871  73.043  1.00  0.00     0.000 C 
BRANCH  16  17
ATOM     17  C   UNL     1      40.047  25.495  73.689  1.00  0.00    -0.000 C 
BRANCH  17  18
ATOM     18  C   UNL     1      39.762  26.098  75.075  1.00  0.00    -0.000 C 
BRANCH  18  19
ATOM     19  C   UNL     1      39.846  27.639  75.108  1.00  0.00    -0.003 C 
ATOM     20  C   UNL     1      39.610  28.205  76.508  1.00  0.00     0.004 C 
ENDBRANCH  18  19
ENDBRANCH  17  18
ENDBRANCH  16  17
ENDBRANCH  15  16
ENDBRANCH  14  15
ENDBRANCH  13  14
ENDBRANCH   2  13
TORSDOF 15
ENDMDL
MODEL 7
REMARK VINA RESULT:    -3.987      4.471      7.632
REMARK INTER + INTRA:          -8.708
REMARK INTER:                  -7.602
REMARK INTRA:                  -1.106
REMARK UNBOUND:                -1.226
REMARK SMILES CCCCCCCCC=CCCCCCCCC(=O)[O-]
REMARK SMILES IDX 10 1 9 2 11 3 12 4 13 5 14 6 15 7 16 8 17 9 18 10 19 11
REMARK SMILES IDX 20 12 8 13 7 14 6 15 5 16 4 17 3 18 2 19 1 20
REMARK H PARENT
REMARK Flexibility Score: inf
ROOT
ATOM      1  C   UNL     1      32.694  26.858  71.001  1.00  0.00    -0.031 C 
ATOM      2  C   UNL     1      31.530  26.276  70.653  1.00  0.00    -0.031 C 
ENDROOT
BRANCH   1   3
ATOM      3  C   UNL     1      33.794  26.192  71.791  1.00  0.00     0.027 C 
BRANCH   3   4
ATOM      4  C   UNL     1      34.624  25.246  70.909  1.00  0.00     0.004 C 
BRANCH   4   5
ATOM      5  C   UNL     1      35.427  25.995  69.834  1.00  0.00     0.000 C 
BRANCH   5   6
ATOM      6  C   UNL     1      35.884  25.067  68.695  1.00  0.00     0.000 C 
BRANCH   6   7
ATOM      7  C   UNL     1      36.721  23.875  69.191  1.00  0.00     0.000 C 
BRANCH   7   8
ATOM      8  C   UNL     1      38.031  24.250  69.915  1.00  0.00     0.006 C 
BRANCH   8   9
ATOM      9  C   UNL     1      37.962  24.166  71.448  1.00  0.00     0.053 C 
BRANCH   9  10
ATOM     10  C   UNL     1      39.313  24.307  72.080  1.00  0.00     0.041 C 
ATOM     11  O   UNL     1      40.344  23.940  71.459  1.00  0.00    -0.550 OA
ATOM     12  O   UNL     1      39.428  24.808  73.370  1.00  0.00    -0.550 OA
ENDBRANCH   9  10
ENDBRANCH   8   9
ENDBRANCH   7   8
ENDBRANCH   6   7
ENDBRANCH   5   6
ENDBRANCH   4   5
ENDBRANCH   3   4
ENDBRANCH   1   3
BRANCH   2  13
ATOM     13  C   UNL     1      31.109  24.871  71.020  1.00  0.00     0.027 C 
BRANCH  13  14
ATOM     14  C   UNL     1      30.574  24.105  69.802  1.00  0.00     0.004 C 
BRANCH  14  15
ATOM     15  C   UNL     1      31.519  24.188  68.594  1.00  0.00     0.000 C 
BRANCH  15  16
ATOM     16  C   UNL     1      30.755  23.960  67.283  1.00  0.00     0.000 C 
BRANCH  16  17
ATOM     17  C   UNL     1      31.448  24.668  66.112  1.00  0.00    -0.000 C 
BRANCH  17  18
ATOM     18  C   UNL     1      30.956  24.176  64.740  1.00  0.00    -0.000 C 
BRANCH  18  19
ATOM     19  C   UNL     1      30.761  25.310  63.710  1.00  0.00    -0.003 C 
ATOM     20  C   UNL     1      31.966  26.249  63.643  1.00  0.00     0.004 C 
ENDBRANCH  18  19
ENDBRANCH  17  18
ENDBRANCH  16  17
ENDBRANCH  15  16
ENDBRANCH  14  15
ENDBRANCH  13  14
ENDBRANCH   2  13
TORSDOF 15
ENDMDL
MODEL 8
REMARK VINA RESULT:    -3.898      4.258      8.616
REMARK INTER + INTRA:          -8.543
REMARK INTER:                  -7.473
REMARK INTRA:                  -1.069
REMARK UNBOUND:                -1.226
REMARK SMILES CCCCCCCCC=CCCCCCCCC(=O)[O-]
REMARK SMILES IDX 10 1 9 2 11 3 12 4 13 5 14 6 15 7 16 8 17 9 18 10 19 11
REMARK SMILES IDX 20 12 8 13 7 14 6 15 5 16 4 17 3 18 2 19 1 20
REMARK H PARENT
REMARK Flexibility Score: inf
ROOT
ATOM      1  C   UNL     1      33.695  23.875  66.979  1.00  0.00    -0.031 C 
ATOM      2  C   UNL     1      34.953  24.009  67.441  1.00  0.00    -0.031 C 
ENDROOT
BRANCH   1   3
ATOM      3  C   UNL     1      32.514  24.701  67.426  1.00  0.00     0.027 C 
BRANCH   3   4
ATOM      4  C   UNL     1      31.229  24.282  66.697  1.00  0.00     0.004 C 
BRANCH   4   5
ATOM      5  C   UNL     1      31.384  24.304  65.168  1.00  0.00     0.000 C 
BRANCH   5   6
ATOM      6  C   UNL     1      32.203  25.512  64.681  1.00  0.00     0.000 C 
BRANCH   6   7
ATOM      7  C   UNL     1      32.508  25.461  63.174  1.00  0.00     0.000 C 
BRANCH   7   8
ATOM      8  C   UNL     1      32.089  26.715  62.377  1.00  0.00     0.006 C 
BRANCH   8   9
ATOM      9  C   UNL     1      31.034  27.590  63.070  1.00  0.00     0.053 C 
BRANCH   9  10
ATOM     10  C   UNL     1      29.643  27.085  62.833  1.00  0.00     0.041 C 
ATOM     11  O   UNL     1      28.650  27.785  63.164  1.00  0.00    -0.550 OA
ATOM     12  O   UNL     1      29.444  25.826  62.283  1.00  0.00    -0.550 OA
ENDBRANCH   9  10
ENDBRANCH   8   9
ENDBRANCH   7   8
ENDBRANCH   6   7
ENDBRANCH   5   6
ENDBRANCH   4   5
ENDBRANCH   3   4
ENDBRANCH   1   3
BRANCH   2  13
ATOM     13  C   UNL     1      35.394  24.986  68.507  1.00  0.00     0.027 C 
BRANCH  13  14
ATOM     14  C   UNL     1      35.666  24.280  69.844  1.00  0.00     0.004 C 
BRANCH  14  15
ATOM     15  C   UNL     1      35.073  25.039  71.040  1.00  0.00     0.000 C 
BRANCH  15  16
ATOM     16  C   UNL     1      34.733  26.485  70.659  1.00  0.00     0.000 C 
BRANCH  16  17
ATOM     17  C   UNL     1      33.219  26.727  70.705  1.00  0.00    -0.000 C 
BRANCH  17  18
ATOM     18  C   UNL     1      32.556  26.135  71.960  1.00  0.00    -0.000 C 
BRANCH  18  19
ATOM     19  C   UNL     1      31.099  25.680  71.733  1.00  0.00    -0.003 C 
ATOM     20  C   UNL     1      30.916  24.957  70.399  1.00  0.00     0.004 C 
ENDBRANCH  18  19
ENDBRANCH  17  18
ENDBRANCH  16  17
ENDBRANCH  15  16
ENDBRANCH  14  15
ENDBRANCH  13  14
ENDBRANCH   2  13
TORSDOF 15
ENDMDL
MODEL 9
REMARK VINA RESULT:    -3.848      4.759      7.282
REMARK INTER + INTRA:          -8.448
REMARK INTER:                  -7.242
REMARK INTRA:                  -1.206
REMARK UNBOUND:                -1.226
REMARK SMILES CCCCCCCCC=CCCCCCCCC(=O)[O-]
REMARK SMILES IDX 10 1 9 2 11 3 12 4 13 5 14 6 15 7 16 8 17 9 18 10 19 11
REMARK SMILES IDX 20 12 8 13 7 14 6 15 5 16 4 17 3 18 2 19 1 20
REMARK H PARENT
REMARK Flexibility Score: inf
ROOT
ATOM      1  C   UNL     1      31.194  24.464  70.250  1.00  0.00    -0.031 C 
ATOM      2  C   UNL     1      30.895  23.913  69.058  1.00  0.00    -0.031 C 
ENDROOT
BRANCH   1   3
ATOM      3  C   UNL     1      31.501  25.923  70.479  1.00  0.00     0.027 C 
BRANCH   3   4
ATOM      4  C   UNL     1      32.740  26.103  71.369  1.00  0.00     0.004 C 
BRANCH   4   5
ATOM      5  C   UNL     1      33.789  25.001  71.149  1.00  0.00     0.000 C 
BRANCH   5   6
ATOM      6  C   UNL     1      35.140  25.566  70.678  1.00  0.00     0.000 C 
BRANCH   6   7
ATOM      7  C   UNL     1      35.756  24.760  69.521  1.00  0.00     0.000 C 
BRANCH   7   8
ATOM      8  C   UNL     1      37.115  24.098  69.834  1.00  0.00     0.006 C 
BRANCH   8   9
ATOM      9  C   UNL     1      37.496  24.091  71.322  1.00  0.00     0.053 C 
BRANCH   9  10
ATOM     10  C   UNL     1      38.950  24.386  71.530  1.00  0.00     0.041 C 
ATOM     11  O   UNL     1      39.694  24.634  70.546  1.00  0.00    -0.550 OA
ATOM     12  O   UNL     1      39.491  24.348  72.809  1.00  0.00    -0.550 OA
ENDBRANCH   9  10
ENDBRANCH   8   9
ENDBRANCH   7   8
ENDBRANCH   6   7
ENDBRANCH   5   6
ENDBRANCH   4   5
ENDBRANCH   3   4
ENDBRANCH   1   3
BRANCH   2  13
ATOM     13  C   UNL     1      30.849  24.652  67.740  1.00  0.00     0.027 C 
BRANCH  13  14
ATOM     14  C   UNL     1      31.572  23.875  66.630  1.00  0.00     0.004 C 
BRANCH  14  15
ATOM     15  C   UNL     1      32.943  24.477  66.289  1.00  0.00     0.000 C 
BRANCH  15  16
ATOM     16  C   UNL     1      33.119  24.619  64.772  1.00  0.00     0.000 C 
BRANCH  16  17
ATOM     17  C   UNL     1      31.761  24.746  64.069  1.00  0.00    -0.000 C 
BRANCH  17  18
ATOM     18  C   UNL     1      31.402  26.200  63.719  1.00  0.00    -0.000 C 
BRANCH  18  19
ATOM     19  C   UNL     1      32.458  26.903  62.840  1.00  0.00    -0.003 C 
ATOM     20  C   UNL     1      31.831  27.664  61.672  1.00  0.00     0.004 C 
ENDBRANCH  18  19
ENDBRANCH  17  18
ENDBRANCH  16  17
ENDBRANCH  15  16
ENDBRANCH  14  15
ENDBRANCH  13  14
ENDBRANCH   2  13
TORSDOF 15
ENDMDL
