MODEL 1
REMARK VINA RESULT:   -10.165      0.000      0.000
REMARK INTER + INTRA:         -12.234
REMARK INTER:                 -11.947
REMARK INTRA:                  -0.286
REMARK UNBOUND:                -0.286
REMARK SMILES O=c1cc(-c2ccc(O)c(O)c2)oc2cc(O)cc(O)c12
REMARK SMILES IDX 4 1 3 2 2 3 1 4 21 5 19 6 18 7 16 8 15 9 14 10 13 11 5 12
REMARK SMILES IDX 6 13 7 14 8 15 12 16 10 17 9 18 11 20 20 22 17 24
REMARK H PARENT 9 19 11 21 20 23 17 25
REMARK Flexibility Score: inf
ROOT
ATOM      1  C   UNL     1     118.991 120.070 114.907  1.00  0.00     0.138 A 
ATOM      2  C   UNL     1     119.340 121.197 115.664  1.00  0.00     0.100 A 
ATOM      3  C   UNL     1     119.674 121.048 117.010  1.00  0.00     0.197 A 
ATOM      4  O   UNL     1     120.042 122.068 117.648  1.00  0.00    -0.289 OA
ATOM      5  C   UNL     1     119.627 119.767 117.609  1.00  0.00     0.107 A 
ATOM      6  C   UNL     1     119.907 119.500 118.982  1.00  0.00     0.134 A 
ATOM      7  C   UNL     1     119.942 118.175 119.435  1.00  0.00     0.093 A 
ATOM      8  C   UNL     1     119.650 117.113 118.581  1.00  0.00     0.123 A 
ATOM      9  C   UNL     1     119.322 117.365 117.248  1.00  0.00     0.094 A 
ATOM     10  C   UNL     1     119.312 118.673 116.758  1.00  0.00     0.146 A 
ATOM     11  O   UNL     1     119.009 118.871 115.479  1.00  0.00    -0.456 OA
ENDROOT
BRANCH   1  12
ATOM     12  C   UNL     1     118.627 120.172 113.471  1.00  0.00     0.021 A 
ATOM     13  C   UNL     1     117.690 119.275 112.930  1.00  0.00     0.016 A 
ATOM     14  C   UNL     1     117.325 119.355 111.584  1.00  0.00     0.051 A 
ATOM     15  C   UNL     1     117.882 120.339 110.757  1.00  0.00     0.157 A 
ATOM     16  C   UNL     1     119.174 121.167 112.637  1.00  0.00     0.062 A 
ATOM     17  C   UNL     1     118.809 121.250 111.288  1.00  0.00     0.158 A 
BRANCH  15  18
ATOM     18  O   UNL     1     117.517 120.415 109.414  1.00  0.00    -0.504 OA
ATOM     19  H   UNL     1     117.452 119.586 108.834  1.00  0.00     0.293 HD
ENDBRANCH  15  18
BRANCH  17  20
ATOM     20  O   UNL     1     119.373 122.249 110.495  1.00  0.00    -0.504 OA
ATOM     21  H   UNL     1     118.949 122.548 109.625  1.00  0.00     0.293 HD
ENDBRANCH  17  20
ENDBRANCH   1  12
BRANCH   6  22
ATOM     22  O   UNL     1     120.129 120.493 119.941  1.00  0.00    -0.507 OA
ATOM     23  H   UNL     1     119.818 121.449 119.864  1.00  0.00     0.293 HD
ENDBRANCH   6  22
BRANCH   8  24
ATOM     24  O   UNL     1     119.680 115.809 119.070  1.00  0.00    -0.508 OA
ATOM     25  H   UNL     1     119.389 115.590 120.015  1.00  0.00     0.293 HD
ENDBRANCH   8  24
TORSDOF 5
ENDMDL
MODEL 2
REMARK VINA RESULT:   -10.162      2.359      3.721
REMARK INTER + INTRA:         -12.231
REMARK INTER:                 -11.945
REMARK INTRA:                  -0.286
REMARK UNBOUND:                -0.286
REMARK SMILES O=c1cc(-c2ccc(O)c(O)c2)oc2cc(O)cc(O)c12
REMARK SMILES IDX 4 1 3 2 2 3 1 4 21 5 19 6 18 7 16 8 15 9 14 10 13 11 5 12
REMARK SMILES IDX 6 13 7 14 8 15 12 16 10 17 9 18 11 20 20 22 17 24
REMARK H PARENT 9 19 11 21 20 23 17 25
REMARK Flexibility Score: inf
ROOT
ATOM      1  C   UNL     1     120.057 118.961 114.882  1.00  0.00     0.138 A 
ATOM      2  C   UNL     1     119.711 117.824 115.624  1.00  0.00     0.100 A 
ATOM      3  C   UNL     1     119.377 117.955 116.972  1.00  0.00     0.197 A 
ATOM      4  O   UNL     1     119.011 116.925 117.596  1.00  0.00    -0.289 OA
ATOM      5  C   UNL     1     119.421 119.228 117.588  1.00  0.00     0.107 A 
ATOM      6  C   UNL     1     119.141 119.475 118.965  1.00  0.00     0.134 A 
ATOM      7  C   UNL     1     119.103 120.794 119.435  1.00  0.00     0.093 A 
ATOM      8  C   UNL     1     119.392 121.868 118.595  1.00  0.00     0.123 A 
ATOM      9  C   UNL     1     119.721 121.634 117.259  1.00  0.00     0.094 A 
ATOM     10  C   UNL     1     119.734 120.333 116.751  1.00  0.00     0.146 A 
ATOM     11  O   UNL     1     120.037 120.153 115.470  1.00  0.00    -0.456 OA
ENDROOT
BRANCH   1  12
ATOM     12  C   UNL     1     120.421 118.880 113.445  1.00  0.00     0.021 A 
ATOM     13  C   UNL     1     121.355 119.786 112.915  1.00  0.00     0.016 A 
ATOM     14  C   UNL     1     121.721 119.725 111.568  1.00  0.00     0.051 A 
ATOM     15  C   UNL     1     121.167 118.750 110.729  1.00  0.00     0.157 A 
ATOM     16  C   UNL     1     119.877 117.894 112.598  1.00  0.00     0.062 A 
ATOM     17  C   UNL     1     120.243 117.829 111.248  1.00  0.00     0.158 A 
BRANCH  15  18
ATOM     18  O   UNL     1     121.531 118.692 109.385  1.00  0.00    -0.504 OA
ATOM     19  H   UNL     1     120.838 118.718 108.646  1.00  0.00     0.293 HD
ENDBRANCH  15  18
BRANCH  17  20
ATOM     20  O   UNL     1     119.682 116.839 110.442  1.00  0.00    -0.504 OA
ATOM     21  H   UNL     1     119.977 115.872 110.494  1.00  0.00     0.293 HD
ENDBRANCH  17  20
ENDBRANCH   1  12
BRANCH   6  22
ATOM     22  O   UNL     1     118.921 118.469 119.910  1.00  0.00    -0.507 OA
ATOM     23  H   UNL     1     118.453 118.600 120.794  1.00  0.00     0.293 HD
ENDBRANCH   6  22
BRANCH   8  24
ATOM     24  O   UNL     1     119.359 123.166 119.101  1.00  0.00    -0.508 OA
ATOM     25  H   UNL     1     119.090 123.953 118.524  1.00  0.00     0.293 HD
ENDBRANCH   8  24
TORSDOF 5
ENDMDL
MODEL 3
REMARK VINA RESULT:   -10.161      2.175      2.640
REMARK INTER + INTRA:         -12.230
REMARK INTER:                 -11.943
REMARK INTRA:                  -0.286
REMARK UNBOUND:                -0.286
REMARK SMILES O=c1cc(-c2ccc(O)c(O)c2)oc2cc(O)cc(O)c12
REMARK SMILES IDX 4 1 3 2 2 3 1 4 21 5 19 6 18 7 16 8 15 9 14 10 13 11 5 12
REMARK SMILES IDX 6 13 7 14 8 15 12 16 10 17 9 18 11 20 20 22 17 24
REMARK H PARENT 9 19 11 21 20 23 17 25
REMARK Flexibility Score: inf
ROOT
ATOM      1  C   UNL     1     118.946 118.991 114.899  1.00  0.00     0.138 A 
ATOM      2  C   UNL     1     117.816 119.335 115.653  1.00  0.00     0.100 A 
ATOM      3  C   UNL     1     117.960 119.668 117.001  1.00  0.00     0.197 A 
ATOM      4  O   UNL     1     116.937 120.031 117.637  1.00  0.00    -0.289 OA
ATOM      5  C   UNL     1     119.240 119.625 117.602  1.00  0.00     0.107 A 
ATOM      6  C   UNL     1     119.502 119.904 118.977  1.00  0.00     0.134 A 
ATOM      7  C   UNL     1     120.826 119.944 119.433  1.00  0.00     0.093 A 
ATOM      8  C   UNL     1     121.891 119.657 118.581  1.00  0.00     0.123 A 
ATOM      9  C   UNL     1     121.644 119.330 117.247  1.00  0.00     0.094 A 
ATOM     10  C   UNL     1     120.337 119.315 116.753  1.00  0.00     0.146 A 
ATOM     11  O   UNL     1     120.143 119.013 115.474  1.00  0.00    -0.456 OA
ENDROOT
BRANCH   1  12
ATOM     12  C   UNL     1     118.849 118.629 113.462  1.00  0.00     0.021 A 
ATOM     13  C   UNL     1     119.746 117.692 112.924  1.00  0.00     0.016 A 
ATOM     14  C   UNL     1     119.671 117.327 111.577  1.00  0.00     0.051 A 
ATOM     15  C   UNL     1     118.691 117.886 110.748  1.00  0.00     0.157 A 
ATOM     16  C   UNL     1     117.857 119.177 112.625  1.00  0.00     0.062 A 
ATOM     17  C   UNL     1     117.778 118.813 111.276  1.00  0.00     0.158 A 
BRANCH  15  18
ATOM     18  O   UNL     1     118.619 117.522 109.404  1.00  0.00    -0.504 OA
ATOM     19  H   UNL     1     119.195 116.780 109.024  1.00  0.00     0.293 HD
ENDBRANCH  15  18
BRANCH  17  20
ATOM     20  O   UNL     1     116.783 119.378 110.480  1.00  0.00    -0.504 OA
ATOM     21  H   UNL     1     116.069 119.987 110.862  1.00  0.00     0.293 HD
ENDBRANCH  17  20
ENDBRANCH   1  12
BRANCH   6  22
ATOM     22  O   UNL     1     118.506 120.122 119.933  1.00  0.00    -0.507 OA
ATOM     23  H   UNL     1     117.770 120.807 119.855  1.00  0.00     0.293 HD
ENDBRANCH   6  22
BRANCH   8  24
ATOM     24  O   UNL     1     123.194 119.692 119.073  1.00  0.00    -0.508 OA
ATOM     25  H   UNL     1     123.944 120.138 118.558  1.00  0.00     0.293 HD
ENDBRANCH   8  24
TORSDOF 5
ENDMDL
MODEL 4
REMARK VINA RESULT:   -10.155      2.174      2.636
REMARK INTER + INTRA:         -12.222
REMARK INTER:                 -11.936
REMARK INTRA:                  -0.286
REMARK UNBOUND:                -0.286
REMARK SMILES O=c1cc(-c2ccc(O)c(O)c2)oc2cc(O)cc(O)c12
REMARK SMILES IDX 4 1 3 2 2 3 1 4 21 5 19 6 18 7 16 8 15 9 14 10 13 11 5 12
REMARK SMILES IDX 6 13 7 14 8 15 12 16 10 17 9 18 11 20 20 22 17 24
REMARK H PARENT 9 19 11 21 20 23 17 25
REMARK Flexibility Score: inf
ROOT
ATOM      1  C   UNL     1     120.046 120.061 114.890  1.00  0.00     0.138 A 
ATOM      2  C   UNL     1     121.171 119.724 115.656  1.00  0.00     0.100 A 
ATOM      3  C   UNL     1     121.014 119.390 117.002  1.00  0.00     0.197 A 
ATOM      4  O   UNL     1     122.033 119.033 117.648  1.00  0.00    -0.289 OA
ATOM      5  C   UNL     1     119.728 119.424 117.590  1.00  0.00     0.107 A 
ATOM      6  C   UNL     1     119.454 119.143 118.962  1.00  0.00     0.134 A 
ATOM      7  C   UNL     1     118.126 119.094 119.405  1.00  0.00     0.093 A 
ATOM      8  C   UNL     1     117.068 119.374 118.542  1.00  0.00     0.123 A 
ATOM      9  C   UNL     1     117.326 119.704 117.211  1.00  0.00     0.094 A 
ATOM     10  C   UNL     1     118.638 119.727 116.730  1.00  0.00     0.146 A 
ATOM     11  O   UNL     1     118.843 120.031 115.453  1.00  0.00    -0.456 OA
ENDROOT
BRANCH   1  12
ATOM     12  C   UNL     1     120.155 120.425 113.455  1.00  0.00     0.021 A 
ATOM     13  C   UNL     1     119.249 121.346 112.904  1.00  0.00     0.016 A 
ATOM     14  C   UNL     1     119.335 121.711 111.558  1.00  0.00     0.051 A 
ATOM     15  C   UNL     1     120.336 121.169 110.742  1.00  0.00     0.157 A 
ATOM     16  C   UNL     1     121.166 119.892 112.631  1.00  0.00     0.062 A 
ATOM     17  C   UNL     1     121.256 120.257 111.283  1.00  0.00     0.158 A 
BRANCH  15  18
ATOM     18  O   UNL     1     120.419 121.533 109.399  1.00  0.00    -0.504 OA
ATOM     19  H   UNL     1     120.922 120.966 108.726  1.00  0.00     0.293 HD
ENDBRANCH  15  18
BRANCH  17  20
ATOM     20  O   UNL     1     122.271 119.709 110.499  1.00  0.00    -0.504 OA
ATOM     21  H   UNL     1     122.110 119.403 109.547  1.00  0.00     0.293 HD
ENDBRANCH  17  20
ENDBRANCH   1  12
BRANCH   6  22
ATOM     22  O   UNL     1     120.441 118.931 119.928  1.00  0.00    -0.507 OA
ATOM     23  H   UNL     1     120.478 119.389 120.827  1.00  0.00     0.293 HD
ENDBRANCH   6  22
BRANCH   8  24
ATOM     24  O   UNL     1     115.760 119.331 119.021  1.00  0.00    -0.508 OA
ATOM     25  H   UNL     1     115.325 118.459 119.297  1.00  0.00     0.293 HD
ENDBRANCH   8  24
TORSDOF 5
ENDMDL
MODEL 5
REMARK VINA RESULT:   -10.037      2.595      2.753
REMARK INTER + INTRA:         -12.084
REMARK INTER:                 -11.802
REMARK INTRA:                  -0.282
REMARK UNBOUND:                -0.286
REMARK SMILES O=c1cc(-c2ccc(O)c(O)c2)oc2cc(O)cc(O)c12
REMARK SMILES IDX 4 1 3 2 2 3 1 4 21 5 19 6 18 7 16 8 15 9 14 10 13 11 5 12
REMARK SMILES IDX 6 13 7 14 8 15 12 16 10 17 9 18 11 20 20 22 17 24
REMARK H PARENT 9 19 11 21 20 23 17 25
REMARK Flexibility Score: inf
ROOT
ATOM      1  C   UNL     1     120.162 119.106 115.019  1.00  0.00     0.138 A 
ATOM      2  C   UNL     1     121.229 119.455 115.857  1.00  0.00     0.100 A 
ATOM      3  C   UNL     1     120.986 119.743 117.201  1.00  0.00     0.197 A 
ATOM      4  O   UNL     1     121.971 119.993 117.942  1.00  0.00    -0.289 OA
ATOM      5  C   UNL     1     119.662 119.711 117.699  1.00  0.00     0.107 A 
ATOM      6  C   UNL     1     119.290 120.025 119.040  1.00  0.00     0.134 A 
ATOM      7  C   UNL     1     117.963 119.846 119.448  1.00  0.00     0.093 A 
ATOM      8  C   UNL     1     116.984 119.421 118.551  1.00  0.00     0.123 A 
ATOM      9  C   UNL     1     117.325 119.162 117.223  1.00  0.00     0.094 A 
ATOM     10  C   UNL     1     118.648 119.299 116.793  1.00  0.00     0.146 A 
ATOM     11  O   UNL     1     118.935 119.029 115.524  1.00  0.00    -0.456 OA
ENDROOT
BRANCH   1  12
ATOM     12  C   UNL     1     120.364 118.790 113.582  1.00  0.00     0.021 A 
ATOM     13  C   UNL     1     119.639 117.738 112.996  1.00  0.00     0.016 A 
ATOM     14  C   UNL     1     119.805 117.427 111.645  1.00  0.00     0.051 A 
ATOM     15  C   UNL     1     120.690 118.168 110.852  1.00  0.00     0.157 A 
ATOM     16  C   UNL     1     121.243 119.540 112.776  1.00  0.00     0.062 A 
ATOM     17  C   UNL     1     121.410 119.231 111.421  1.00  0.00     0.158 A 
BRANCH  15  18
ATOM     18  O   UNL     1     120.855 117.854 109.504  1.00  0.00    -0.504 OA
ATOM     19  H   UNL     1     120.802 116.898 109.172  1.00  0.00     0.293 HD
ENDBRANCH  15  18
BRANCH  17  20
ATOM     20  O   UNL     1     122.290 119.996 110.656  1.00  0.00    -0.504 OA
ATOM     21  H   UNL     1     122.777 119.614 109.854  1.00  0.00     0.293 HD
ENDBRANCH  17  20
ENDBRANCH   1  12
BRANCH   6  22
ATOM     22  O   UNL     1     120.173 120.538 119.995  1.00  0.00    -0.507 OA
ATOM     23  H   UNL     1     121.107 120.865 119.802  1.00  0.00     0.293 HD
ENDBRANCH   6  22
BRANCH   8  24
ATOM     24  O   UNL     1     115.670 119.268 118.989  1.00  0.00    -0.508 OA
ATOM     25  H   UNL     1     115.433 118.635 119.743  1.00  0.00     0.293 HD
ENDBRANCH   8  24
TORSDOF 5
ENDMDL
MODEL 6
REMARK VINA RESULT:    -9.782      1.490      1.839
REMARK INTER + INTRA:         -11.784
REMARK INTER:                 -11.506
REMARK INTRA:                  -0.278
REMARK UNBOUND:                -0.286
REMARK SMILES O=c1cc(-c2ccc(O)c(O)c2)oc2cc(O)cc(O)c12
REMARK SMILES IDX 4 1 3 2 2 3 1 4 21 5 19 6 18 7 16 8 15 9 14 10 13 11 5 12
REMARK SMILES IDX 6 13 7 14 8 15 12 16 10 17 9 18 11 20 20 22 17 24
REMARK H PARENT 9 19 11 21 20 23 17 25
REMARK Flexibility Score: inf
ROOT
ATOM      1  C   UNL     1     119.066 119.039 114.698  1.00  0.00     0.138 A 
ATOM      2  C   UNL     1     119.431 120.311 115.160  1.00  0.00     0.100 A 
ATOM      3  C   UNL     1     119.745 120.492 116.507  1.00  0.00     0.197 A 
ATOM      4  O   UNL     1     120.129 121.631 116.880  1.00  0.00    -0.289 OA
ATOM      5  C   UNL     1     119.662 119.399 117.402  1.00  0.00     0.107 A 
ATOM      6  C   UNL     1     119.919 119.474 118.804  1.00  0.00     0.134 A 
ATOM      7  C   UNL     1     119.918 118.302 119.570  1.00  0.00     0.093 A 
ATOM      8  C   UNL     1     119.612 117.068 118.998  1.00  0.00     0.123 A 
ATOM      9  C   UNL     1     119.306 116.989 117.639  1.00  0.00     0.094 A 
ATOM     10  C   UNL     1     119.332 118.136 116.841  1.00  0.00     0.146 A 
ATOM     11  O   UNL     1     119.049 118.018 115.548  1.00  0.00    -0.456 OA
ENDROOT
BRANCH   1  12
ATOM     12  C   UNL     1     118.721 118.791 113.275  1.00  0.00     0.021 A 
ATOM     13  C   UNL     1     117.651 119.488 112.691  1.00  0.00     0.016 A 
ATOM     14  C   UNL     1     117.311 119.278 111.352  1.00  0.00     0.051 A 
ATOM     15  C   UNL     1     118.043 118.375 110.571  1.00  0.00     0.157 A 
ATOM     16  C   UNL     1     119.460 117.893 112.481  1.00  0.00     0.062 A 
ATOM     17  C   UNL     1     119.124 117.681 111.138  1.00  0.00     0.158 A 
BRANCH  15  18
ATOM     18  O   UNL     1     117.702 118.165 109.235  1.00  0.00    -0.504 OA
ATOM     19  H   UNL     1     118.344 118.386 108.483  1.00  0.00     0.293 HD
ENDBRANCH  15  18
BRANCH  17  20
ATOM     20  O   UNL     1     119.880 116.784 110.384  1.00  0.00    -0.504 OA
ATOM     21  H   UNL     1     120.890 116.840 110.335  1.00  0.00     0.293 HD
ENDBRANCH  17  20
ENDBRANCH   1  12
BRANCH   6  22
ATOM     22  O   UNL     1     120.153 120.668 119.492  1.00  0.00    -0.507 OA
ATOM     23  H   UNL     1     119.691 121.545 119.301  1.00  0.00     0.293 HD
ENDBRANCH   6  22
BRANCH   8  24
ATOM     24  O   UNL     1     119.606 115.924 119.794  1.00  0.00    -0.508 OA
ATOM     25  H   UNL     1     119.374 115.014 119.413  1.00  0.00     0.293 HD
ENDBRANCH   8  24
TORSDOF 5
ENDMDL
MODEL 7
REMARK VINA RESULT:    -9.767      2.621      2.841
REMARK INTER + INTRA:         -11.766
REMARK INTER:                 -11.487
REMARK INTRA:                  -0.280
REMARK UNBOUND:                -0.286
REMARK SMILES O=c1cc(-c2ccc(O)c(O)c2)oc2cc(O)cc(O)c12
REMARK SMILES IDX 4 1 3 2 2 3 1 4 21 5 19 6 18 7 16 8 15 9 14 10 13 11 5 12
REMARK SMILES IDX 6 13 7 14 8 15 12 16 10 17 9 18 11 20 20 22 17 24
REMARK H PARENT 9 19 11 21 20 23 17 25
REMARK Flexibility Score: inf
ROOT
ATOM      1  C   UNL     1     119.986 119.052 114.722  1.00  0.00     0.138 A 
ATOM      2  C   UNL     1     118.702 119.382 115.177  1.00  0.00     0.100 A 
ATOM      3  C   UNL     1     118.502 119.676 116.526  1.00  0.00     0.197 A 
ATOM      4  O   UNL     1     117.351 120.028 116.893  1.00  0.00    -0.289 OA
ATOM      5  C   UNL     1     119.589 119.608 117.429  1.00  0.00     0.107 A 
ATOM      6  C   UNL     1     119.495 119.847 118.833  1.00  0.00     0.134 A 
ATOM      7  C   UNL     1     120.661 119.866 119.609  1.00  0.00     0.093 A 
ATOM      8  C   UNL     1     121.907 119.596 119.045  1.00  0.00     0.123 A 
ATOM      9  C   UNL     1     122.004 119.308 117.683  1.00  0.00     0.094 A 
ATOM     10  C   UNL     1     120.864 119.315 116.876  1.00  0.00     0.146 A 
ATOM     11  O   UNL     1     121.000 119.050 115.581  1.00  0.00    -0.456 OA
ENDROOT
BRANCH   1  12
ATOM     12  C   UNL     1     120.255 118.731 113.297  1.00  0.00     0.021 A 
ATOM     13  C   UNL     1     119.565 117.671 112.686  1.00  0.00     0.016 A 
ATOM     14  C   UNL     1     119.794 117.353 111.345  1.00  0.00     0.051 A 
ATOM     15  C   UNL     1     120.710 118.096 110.589  1.00  0.00     0.157 A 
ATOM     16  C   UNL     1     121.166 119.481 112.528  1.00  0.00     0.062 A 
ATOM     17  C   UNL     1     121.396 119.167 111.184  1.00  0.00     0.158 A 
BRANCH  15  18
ATOM     18  O   UNL     1     120.939 117.776 109.251  1.00  0.00    -0.504 OA
ATOM     19  H   UNL     1     120.380 117.080 108.770  1.00  0.00     0.293 HD
ENDBRANCH  15  18
BRANCH  17  20
ATOM     20  O   UNL     1     122.306 119.933 110.456  1.00  0.00    -0.504 OA
ATOM     21  H   UNL     1     122.046 120.405 109.598  1.00  0.00     0.293 HD
ENDBRANCH  17  20
ENDBRANCH   1  12
BRANCH   6  22
ATOM     22  O   UNL     1     118.290 120.044 119.513  1.00  0.00    -0.507 OA
ATOM     23  H   UNL     1     117.764 120.905 119.518  1.00  0.00     0.293 HD
ENDBRANCH   6  22
BRANCH   8  24
ATOM     24  O   UNL     1     123.044 119.609 119.851  1.00  0.00    -0.508 OA
ATOM     25  H   UNL     1     123.497 120.475 120.115  1.00  0.00     0.293 HD
ENDBRANCH   8  24
TORSDOF 5
ENDMDL
MODEL 8
REMARK VINA RESULT:    -9.734      1.802      2.475
REMARK INTER + INTRA:         -11.728
REMARK INTER:                 -11.446
REMARK INTRA:                  -0.282
REMARK UNBOUND:                -0.286
REMARK SMILES O=c1cc(-c2ccc(O)c(O)c2)oc2cc(O)cc(O)c12
REMARK SMILES IDX 4 1 3 2 2 3 1 4 21 5 19 6 18 7 16 8 15 9 14 10 13 11 5 12
REMARK SMILES IDX 6 13 7 14 8 15 12 16 10 17 9 18 11 20 20 22 17 24
REMARK H PARENT 9 19 11 21 20 23 17 25
REMARK Flexibility Score: inf
ROOT
ATOM      1  C   UNL     1     118.957 120.042 114.433  1.00  0.00     0.138 A 
ATOM      2  C   UNL     1     120.235 119.752 114.930  1.00  0.00     0.100 A 
ATOM      3  C   UNL     1     120.396 119.445 116.281  1.00  0.00     0.197 A 
ATOM      4  O   UNL     1     121.545 119.130 116.686  1.00  0.00    -0.289 OA
ATOM      5  C   UNL     1     119.276 119.460 117.145  1.00  0.00     0.107 A 
ATOM      6  C   UNL     1     119.327 119.202 118.548  1.00  0.00     0.134 A 
ATOM      7  C   UNL     1     118.136 119.130 119.280  1.00  0.00     0.093 A 
ATOM      8  C   UNL     1     116.902 119.363 118.675  1.00  0.00     0.123 A 
ATOM      9  C   UNL     1     116.843 119.668 117.314  1.00  0.00     0.094 A 
ATOM     10  C   UNL     1     118.011 119.714 116.549  1.00  0.00     0.146 A 
ATOM     11  O   UNL     1     117.913 119.994 115.254  1.00  0.00    -0.456 OA
ENDROOT
BRANCH   1  12
ATOM     12  C   UNL     1     118.728 120.376 113.004  1.00  0.00     0.021 A 
ATOM     13  C   UNL     1     119.434 121.441 112.421  1.00  0.00     0.016 A 
ATOM     14  C   UNL     1     119.242 121.770 111.077  1.00  0.00     0.051 A 
ATOM     15  C   UNL     1     118.349 121.033 110.289  1.00  0.00     0.157 A 
ATOM     16  C   UNL     1     117.840 119.631 112.203  1.00  0.00     0.062 A 
ATOM     17  C   UNL     1     117.648 119.957 110.856  1.00  0.00     0.158 A 
BRANCH  15  18
ATOM     18  O   UNL     1     118.158 121.365 108.949  1.00  0.00    -0.504 OA
ATOM     19  H   UNL     1     118.299 120.685 108.210  1.00  0.00     0.293 HD
ENDBRANCH  15  18
BRANCH  17  20
ATOM     20  O   UNL     1     116.760 119.196 110.095  1.00  0.00    -0.504 OA
ATOM     21  H   UNL     1     115.787 119.085 110.355  1.00  0.00     0.293 HD
ENDBRANCH  17  20
ENDBRANCH   1  12
BRANCH   6  22
ATOM     22  O   UNL     1     120.513 119.039 119.269  1.00  0.00    -0.507 OA
ATOM     23  H   UNL     1     121.222 118.350 119.067  1.00  0.00     0.293 HD
ENDBRANCH   6  22
BRANCH   8  24
ATOM     24  O   UNL     1     115.738 119.297 119.438  1.00  0.00    -0.508 OA
ATOM     25  H   UNL     1     115.405 120.094 119.967  1.00  0.00     0.293 HD
ENDBRANCH   8  24
TORSDOF 5
ENDMDL
MODEL 9
REMARK VINA RESULT:    -9.248      2.286      3.244
REMARK INTER + INTRA:         -11.156
REMARK INTER:                 -10.882
REMARK INTRA:                  -0.273
REMARK UNBOUND:                -0.286
REMARK SMILES O=c1cc(-c2ccc(O)c(O)c2)oc2cc(O)cc(O)c12
REMARK SMILES IDX 4 1 3 2 2 3 1 4 21 5 19 6 18 7 16 8 15 9 14 10 13 11 5 12
REMARK SMILES IDX 6 13 7 14 8 15 12 16 10 17 9 18 11 20 20 22 17 24
REMARK H PARENT 9 19 11 21 20 23 17 25
REMARK Flexibility Score: inf
ROOT
ATOM      1  C   UNL     1     119.212 120.036 116.463  1.00  0.00     0.138 A 
ATOM      2  C   UNL     1     117.847 119.817 116.699  1.00  0.00     0.100 A 
ATOM      3  C   UNL     1     117.383 119.704 118.010  1.00  0.00     0.197 A 
ATOM      4  O   UNL     1     116.145 119.569 118.193  1.00  0.00    -0.289 OA
ATOM      5  C   UNL     1     118.296 119.779 119.088  1.00  0.00     0.107 A 
ATOM      6  C   UNL     1     117.943 119.637 120.464  1.00  0.00     0.134 A 
ATOM      7  C   UNL     1     118.914 119.846 121.451  1.00  0.00     0.093 A 
ATOM      8  C   UNL     1     120.236 120.133 121.112  1.00  0.00     0.123 A 
ATOM      9  C   UNL     1     120.605 120.221 119.770  1.00  0.00     0.094 A 
ATOM     10  C   UNL     1     119.652 120.051 118.762  1.00  0.00     0.146 A 
ATOM     11  O   UNL     1     120.039 120.158 117.495  1.00  0.00    -0.456 OA
ENDROOT
BRANCH   1  12
ATOM     12  C   UNL     1     119.759 120.164 115.089  1.00  0.00     0.021 A 
ATOM     13  C   UNL     1     120.869 119.388 114.712  1.00  0.00     0.016 A 
ATOM     14  C   UNL     1     121.398 119.484 113.422  1.00  0.00     0.051 A 
ATOM     15  C   UNL     1     120.821 120.349 112.484  1.00  0.00     0.157 A 
ATOM     16  C   UNL     1     119.176 121.022 114.136  1.00  0.00     0.062 A 
ATOM     17  C   UNL     1     119.703 121.119 112.843  1.00  0.00     0.158 A 
BRANCH  15  18
ATOM     18  O   UNL     1     121.352 120.444 111.198  1.00  0.00    -0.504 OA
ATOM     19  H   UNL     1     121.142 121.232 110.596  1.00  0.00     0.293 HD
ENDBRANCH  15  18
BRANCH  17  20
ATOM     20  O   UNL     1     119.098 121.981 111.928  1.00  0.00    -0.504 OA
ATOM     21  H   UNL     1     119.638 122.565 111.301  1.00  0.00     0.293 HD
ENDBRANCH  17  20
ENDBRANCH   1  12
BRANCH   6  22
ATOM     22  O   UNL     1     116.670 119.269 120.909  1.00  0.00    -0.507 OA
ATOM     23  H   UNL     1     115.845 119.844 120.838  1.00  0.00     0.293 HD
ENDBRANCH   6  22
BRANCH   8  24
ATOM     24  O   UNL     1     121.179 120.320 122.121  1.00  0.00    -0.508 OA
ATOM     25  H   UNL     1     122.121 119.956 122.041  1.00  0.00     0.293 HD
ENDBRANCH   8  24
TORSDOF 5
ENDMDL
