MODEL 1
REMARK VINA RESULT:    -3.537      0.000      0.000
REMARK INTER + INTRA:          -8.932
REMARK INTER:                  -6.638
REMARK INTRA:                  -2.294
REMARK UNBOUND:                -2.294
REMARK SMILES CCCCCCCCC=CCCCCCCCC(=O)[O-]
REMARK SMILES IDX 10 1 9 2 11 3 12 4 13 5 14 6 15 7 16 8 17 9 18 10 19 11
REMARK SMILES IDX 20 12 8 13 7 14 6 15 5 16 4 17 3 18 2 19 1 20
REMARK H PARENT
REMARK Flexibility Score: inf
ROOT
ATOM      1  C   UNL     1      19.968  -1.790  42.161  1.00  0.00    -0.031 C 
ATOM      2  C   UNL     1      19.769  -1.595  43.474  1.00  0.00    -0.031 C 
ENDROOT
BRANCH   1   3
ATOM      3  C   UNL     1      19.438  -0.829  41.133  1.00  0.00     0.027 C 
BRANCH   3   4
ATOM      4  C   UNL     1      20.565   0.022  40.536  1.00  0.00     0.004 C 
BRANCH   4   5
ATOM      5  C   UNL     1      20.373   1.506  40.880  1.00  0.00     0.000 C 
BRANCH   5   6
ATOM      6  C   UNL     1      20.760   1.841  42.332  1.00  0.00     0.000 C 
BRANCH   6   7
ATOM      7  C   UNL     1      19.603   2.337  43.220  1.00  0.00     0.000 C 
BRANCH   7   8
ATOM      8  C   UNL     1      19.658   1.884  44.692  1.00  0.00     0.006 C 
BRANCH   8   9
ATOM      9  C   UNL     1      18.336   2.080  45.456  1.00  0.00     0.053 C 
BRANCH   9  10
ATOM     10  C   UNL     1      18.402   3.217  46.431  1.00  0.00     0.041 C 
ATOM     11  O   UNL     1      18.930   4.310  46.096  1.00  0.00    -0.550 OA
ATOM     12  O   UNL     1      17.848   3.082  47.699  1.00  0.00    -0.550 OA
ENDBRANCH   9  10
ENDBRANCH   8   9
ENDBRANCH   7   8
ENDBRANCH   6   7
ENDBRANCH   5   6
ENDBRANCH   4   5
ENDBRANCH   3   4
ENDBRANCH   1   3
BRANCH   2  13
ATOM     13  C   UNL     1      20.291  -2.561  44.504  1.00  0.00     0.027 C 
BRANCH  13  14
ATOM     14  C   UNL     1      21.407  -3.460  43.951  1.00  0.00     0.004 C 
BRANCH  14  15
ATOM     15  C   UNL     1      21.068  -4.954  44.091  1.00  0.00     0.000 C 
BRANCH  15  16
ATOM     16  C   UNL     1      19.924  -5.214  45.085  1.00  0.00     0.000 C 
BRANCH  16  17
ATOM     17  C   UNL     1      18.659  -5.809  44.427  1.00  0.00    -0.000 C 
BRANCH  17  18
ATOM     18  C   UNL     1      18.549  -5.491  42.920  1.00  0.00    -0.000 C 
BRANCH  18  19
ATOM     19  C   UNL     1      17.418  -4.505  42.581  1.00  0.00    -0.003 C 
ATOM     20  C   UNL     1      16.826  -3.831  43.817  1.00  0.00     0.004 C 
ENDBRANCH  18  19
ENDBRANCH  17  18
ENDBRANCH  16  17
ENDBRANCH  15  16
ENDBRANCH  14  15
ENDBRANCH  13  14
ENDBRANCH   2  13
TORSDOF 15
ENDMDL
MODEL 2
REMARK VINA RESULT:    -3.520      8.205     11.047
REMARK INTER + INTRA:          -8.902
REMARK INTER:                  -7.281
REMARK INTRA:                  -1.621
REMARK UNBOUND:                -2.294
REMARK SMILES CCCCCCCCC=CCCCCCCCC(=O)[O-]
REMARK SMILES IDX 10 1 9 2 11 3 12 4 13 5 14 6 15 7 16 8 17 9 18 10 19 11
REMARK SMILES IDX 20 12 8 13 7 14 6 15 5 16 4 17 3 18 2 19 1 20
REMARK H PARENT
REMARK Flexibility Score: inf
ROOT
ATOM      1  C   UNL     1       8.928   0.549  45.440  1.00  0.00    -0.031 C 
ATOM      2  C   UNL     1       7.842   0.147  46.117  1.00  0.00    -0.031 C 
ENDROOT
BRANCH   1   3
ATOM      3  C   UNL     1      10.313   0.376  45.998  1.00  0.00     0.027 C 
BRANCH   3   4
ATOM      4  C   UNL     1      11.231  -0.334  44.995  1.00  0.00     0.004 C 
BRANCH   4   5
ATOM      5  C   UNL     1      12.661  -0.445  45.544  1.00  0.00     0.000 C 
BRANCH   5   6
ATOM      6  C   UNL     1      13.705  -0.721  44.446  1.00  0.00     0.000 C 
BRANCH   6   7
ATOM      7  C   UNL     1      14.962   0.169  44.501  1.00  0.00     0.000 C 
BRANCH   7   8
ATOM      8  C   UNL     1      15.053   1.109  45.720  1.00  0.00     0.006 C 
BRANCH   8   9
ATOM      9  C   UNL     1      16.368   1.905  45.798  1.00  0.00     0.053 C 
BRANCH   9  10
ATOM     10  C   UNL     1      16.766   2.215  47.210  1.00  0.00     0.041 C 
ATOM     11  O   UNL     1      16.233   1.599  48.169  1.00  0.00    -0.550 OA
ATOM     12  O   UNL     1      17.753   3.160  47.465  1.00  0.00    -0.550 OA
ENDBRANCH   9  10
ENDBRANCH   8   9
ENDBRANCH   7   8
ENDBRANCH   6   7
ENDBRANCH   5   6
ENDBRANCH   4   5
ENDBRANCH   3   4
ENDBRANCH   1   3
BRANCH   2  13
ATOM     13  C   UNL     1       6.454   0.328  45.565  1.00  0.00     0.027 C 
BRANCH  13  14
ATOM     14  C   UNL     1       6.455   1.028  44.197  1.00  0.00     0.004 C 
BRANCH  14  15
ATOM     15  C   UNL     1       5.566   2.283  44.190  1.00  0.00     0.000 C 
BRANCH  15  16
ATOM     16  C   UNL     1       6.379   3.588  44.151  1.00  0.00     0.000 C 
BRANCH  16  17
ATOM     17  C   UNL     1       6.885   4.041  45.539  1.00  0.00    -0.000 C 
BRANCH  17  18
ATOM     18  C   UNL     1       8.421   4.182  45.612  1.00  0.00    -0.000 C 
BRANCH  18  19
ATOM     19  C   UNL     1       9.000   3.876  47.004  1.00  0.00    -0.003 C 
ATOM     20  C   UNL     1      10.525   3.947  47.043  1.00  0.00     0.004 C 
ENDBRANCH  18  19
ENDBRANCH  17  18
ENDBRANCH  16  17
ENDBRANCH  15  16
ENDBRANCH  14  15
ENDBRANCH  13  14
ENDBRANCH   2  13
TORSDOF 15
ENDMDL
MODEL 3
REMARK VINA RESULT:    -3.492      4.806      7.422
REMARK INTER + INTRA:          -8.848
REMARK INTER:                  -6.265
REMARK INTRA:                  -2.582
REMARK UNBOUND:                -2.294
REMARK SMILES CCCCCCCCC=CCCCCCCCC(=O)[O-]
REMARK SMILES IDX 10 1 9 2 11 3 12 4 13 5 14 6 15 7 16 8 17 9 18 10 19 11
REMARK SMILES IDX 20 12 8 13 7 14 6 15 5 16 4 17 3 18 2 19 1 20
REMARK H PARENT
REMARK Flexibility Score: inf
ROOT
ATOM      1  C   UNL     1      14.960   1.261  38.859  1.00  0.00    -0.031 C 
ATOM      2  C   UNL     1      15.482   2.495  38.920  1.00  0.00    -0.031 C 
ENDROOT
BRANCH   1   3
ATOM      3  C   UNL     1      14.281   0.754  37.617  1.00  0.00     0.027 C 
BRANCH   3   4
ATOM      4  C   UNL     1      15.162   0.963  36.379  1.00  0.00     0.004 C 
BRANCH   4   5
ATOM      5  C   UNL     1      15.950  -0.312  36.045  1.00  0.00     0.000 C 
BRANCH   5   6
ATOM      6  C   UNL     1      17.421  -0.244  36.497  1.00  0.00     0.000 C 
BRANCH   6   7
ATOM      7  C   UNL     1      17.740  -0.998  37.802  1.00  0.00     0.000 C 
BRANCH   7   8
ATOM      8  C   UNL     1      18.451  -0.166  38.888  1.00  0.00     0.006 C 
BRANCH   8   9
ATOM      9  C   UNL     1      18.978   1.192  38.389  1.00  0.00     0.053 C 
BRANCH   9  10
ATOM     10  C   UNL     1      20.458   1.178  38.149  1.00  0.00     0.041 C 
ATOM     11  O   UNL     1      20.918   0.785  37.045  1.00  0.00    -0.550 OA
ATOM     12  O   UNL     1      21.329   1.631  39.133  1.00  0.00    -0.550 OA
ENDBRANCH   9  10
ENDBRANCH   8   9
ENDBRANCH   7   8
ENDBRANCH   6   7
ENDBRANCH   5   6
ENDBRANCH   4   5
ENDBRANCH   3   4
ENDBRANCH   1   3
BRANCH   2  13
ATOM     13  C   UNL     1      16.154   3.008  40.165  1.00  0.00     0.027 C 
BRANCH  13  14
ATOM     14  C   UNL     1      16.425   1.893  41.187  1.00  0.00     0.004 C 
BRANCH  14  15
ATOM     15  C   UNL     1      16.688   2.451  42.596  1.00  0.00     0.000 C 
BRANCH  15  16
ATOM     16  C   UNL     1      16.814   1.346  43.659  1.00  0.00     0.000 C 
BRANCH  16  17
ATOM     17  C   UNL     1      18.266   1.109  44.132  1.00  0.00    -0.000 C 
BRANCH  17  18
ATOM     18  C   UNL     1      19.000   0.019  43.320  1.00  0.00    -0.000 C 
BRANCH  18  19
ATOM     19  C   UNL     1      19.948   0.587  42.249  1.00  0.00    -0.003 C 
ATOM     20  C   UNL     1      20.521   1.951  42.624  1.00  0.00     0.004 C 
ENDBRANCH  18  19
ENDBRANCH  17  18
ENDBRANCH  16  17
ENDBRANCH  15  16
ENDBRANCH  14  15
ENDBRANCH  13  14
ENDBRANCH   2  13
TORSDOF 15
ENDMDL
MODEL 4
REMARK VINA RESULT:    -3.471      4.582      6.577
REMARK INTER + INTRA:          -8.808
REMARK INTER:                  -5.972
REMARK INTRA:                  -2.836
REMARK UNBOUND:                -2.294
REMARK SMILES CCCCCCCCC=CCCCCCCCC(=O)[O-]
REMARK SMILES IDX 10 1 9 2 11 3 12 4 13 5 14 6 15 7 16 8 17 9 18 10 19 11
REMARK SMILES IDX 20 12 8 13 7 14 6 15 5 16 4 17 3 18 2 19 1 20
REMARK H PARENT
REMARK Flexibility Score: inf
ROOT
ATOM      1  C   UNL     1      17.827   2.338  41.398  1.00  0.00    -0.031 C 
ATOM      2  C   UNL     1      18.226   1.192  41.971  1.00  0.00    -0.031 C 
ENDROOT
BRANCH   1   3
ATOM      3  C   UNL     1      16.465   2.476  40.775  1.00  0.00     0.027 C 
BRANCH   3   4
ATOM      4  C   UNL     1      15.866   3.860  41.053  1.00  0.00     0.004 C 
BRANCH   4   5
ATOM      5  C   UNL     1      16.940   4.829  41.566  1.00  0.00     0.000 C 
BRANCH   5   6
ATOM      6  C   UNL     1      16.372   6.209  41.946  1.00  0.00     0.000 C 
BRANCH   6   7
ATOM      7  C   UNL     1      16.222   6.461  43.459  1.00  0.00     0.000 C 
BRANCH   7   8
ATOM      8  C   UNL     1      14.803   6.254  44.025  1.00  0.00     0.006 C 
BRANCH   8   9
ATOM      9  C   UNL     1      13.707   6.171  42.947  1.00  0.00     0.053 C 
BRANCH   9  10
ATOM     10  C   UNL     1      12.712   7.287  43.056  1.00  0.00     0.041 C 
ATOM     11  O   UNL     1      11.601   7.095  43.616  1.00  0.00    -0.550 OA
ATOM     12  O   UNL     1      13.026   8.551  42.570  1.00  0.00    -0.550 OA
ENDBRANCH   9  10
ENDBRANCH   8   9
ENDBRANCH   7   8
ENDBRANCH   6   7
ENDBRANCH   5   6
ENDBRANCH   4   5
ENDBRANCH   3   4
ENDBRANCH   1   3
BRANCH   2  13
ATOM     13  C   UNL     1      19.591   1.049  42.586  1.00  0.00     0.027 C 
BRANCH  13  14
ATOM     14  C   UNL     1      19.531   0.869  44.111  1.00  0.00     0.004 C 
BRANCH  14  15
ATOM     15  C   UNL     1      19.662   2.207  44.857  1.00  0.00     0.000 C 
BRANCH  15  16
ATOM     16  C   UNL     1      18.445   2.514  45.746  1.00  0.00     0.000 C 
BRANCH  16  17
ATOM     17  C   UNL     1      17.448   3.507  45.106  1.00  0.00    -0.000 C 
BRANCH  17  18
ATOM     18  C   UNL     1      16.125   2.843  44.666  1.00  0.00    -0.000 C 
BRANCH  18  19
ATOM     19  C   UNL     1      15.855   1.495  45.358  1.00  0.00    -0.003 C 
ATOM     20  C   UNL     1      15.613   0.358  44.369  1.00  0.00     0.004 C 
ENDBRANCH  18  19
ENDBRANCH  17  18
ENDBRANCH  16  17
ENDBRANCH  15  16
ENDBRANCH  14  15
ENDBRANCH  13  14
ENDBRANCH   2  13
TORSDOF 15
ENDMDL
MODEL 5
REMARK VINA RESULT:    -3.470      5.239      7.718
REMARK INTER + INTRA:          -8.806
REMARK INTER:                  -6.193
REMARK INTRA:                  -2.613
REMARK UNBOUND:                -2.294
REMARK SMILES CCCCCCCCC=CCCCCCCCC(=O)[O-]
REMARK SMILES IDX 10 1 9 2 11 3 12 4 13 5 14 6 15 7 16 8 17 9 18 10 19 11
REMARK SMILES IDX 20 12 8 13 7 14 6 15 5 16 4 17 3 18 2 19 1 20
REMARK H PARENT
REMARK Flexibility Score: inf
ROOT
ATOM      1  C   UNL     1      17.965   3.329  40.140  1.00  0.00    -0.031 C 
ATOM      2  C   UNL     1      17.168   4.009  40.979  1.00  0.00    -0.031 C 
ENDROOT
BRANCH   1   3
ATOM      3  C   UNL     1      18.446   3.931  38.849  1.00  0.00     0.027 C 
BRANCH   3   4
ATOM      4  C   UNL     1      18.397   2.907  37.708  1.00  0.00     0.004 C 
BRANCH   4   5
ATOM      5  C   UNL     1      17.430   3.361  36.605  1.00  0.00     0.000 C 
BRANCH   5   6
ATOM      6  C   UNL     1      16.357   4.341  37.113  1.00  0.00     0.000 C 
BRANCH   6   7
ATOM      7  C   UNL     1      14.938   3.754  37.231  1.00  0.00     0.000 C 
BRANCH   7   8
ATOM      8  C   UNL     1      14.693   2.859  38.462  1.00  0.00     0.006 C 
BRANCH   8   9
ATOM      9  C   UNL     1      14.103   1.478  38.124  1.00  0.00     0.053 C 
BRANCH   9  10
ATOM     10  C   UNL     1      15.039   0.642  37.303  1.00  0.00     0.041 C 
ATOM     11  O   UNL     1      16.083   0.166  37.820  1.00  0.00    -0.550 OA
ATOM     12  O   UNL     1      14.739   0.359  35.976  1.00  0.00    -0.550 OA
ENDBRANCH   9  10
ENDBRANCH   8   9
ENDBRANCH   7   8
ENDBRANCH   6   7
ENDBRANCH   5   6
ENDBRANCH   4   5
ENDBRANCH   3   4
ENDBRANCH   1   3
BRANCH   2  13
ATOM     13  C   UNL     1      16.679   3.405  42.267  1.00  0.00     0.027 C 
BRANCH  13  14
ATOM     14  C   UNL     1      16.613   1.871  42.208  1.00  0.00     0.004 C 
BRANCH  14  15
ATOM     15  C   UNL     1      17.243   1.218  43.450  1.00  0.00     0.000 C 
BRANCH  15  16
ATOM     16  C   UNL     1      18.230   2.148  44.176  1.00  0.00     0.000 C 
BRANCH  16  17
ATOM     17  C   UNL     1      19.704   1.703  44.047  1.00  0.00    -0.000 C 
BRANCH  17  18
ATOM     18  C   UNL     1      20.345   2.100  42.699  1.00  0.00    -0.000 C 
BRANCH  18  19
ATOM     19  C   UNL     1      20.388   0.950  41.678  1.00  0.00    -0.003 C 
ATOM     20  C   UNL     1      21.122   1.323  40.392  1.00  0.00     0.004 C 
ENDBRANCH  18  19
ENDBRANCH  17  18
ENDBRANCH  16  17
ENDBRANCH  15  16
ENDBRANCH  14  15
ENDBRANCH  13  14
ENDBRANCH   2  13
TORSDOF 15
ENDMDL
MODEL 6
REMARK VINA RESULT:    -3.440      4.543      6.994
REMARK INTER + INTRA:          -8.751
REMARK INTER:                  -6.280
REMARK INTRA:                  -2.471
REMARK UNBOUND:                -2.294
REMARK SMILES CCCCCCCCC=CCCCCCCCC(=O)[O-]
REMARK SMILES IDX 10 1 9 2 11 3 12 4 13 5 14 6 15 7 16 8 17 9 18 10 19 11
REMARK SMILES IDX 20 12 8 13 7 14 6 15 5 16 4 17 3 18 2 19 1 20
REMARK H PARENT
REMARK Flexibility Score: inf
ROOT
ATOM      1  C   UNL     1      20.143   1.155  41.688  1.00  0.00    -0.031 C 
ATOM      2  C   UNL     1      19.909  -0.006  42.318  1.00  0.00    -0.031 C 
ENDROOT
BRANCH   1   3
ATOM      3  C   UNL     1      20.961   1.217  40.428  1.00  0.00     0.027 C 
BRANCH   3   4
ATOM      4  C   UNL     1      20.141   1.781  39.261  1.00  0.00     0.004 C 
BRANCH   4   5
ATOM      5  C   UNL     1      18.783   2.304  39.748  1.00  0.00     0.000 C 
BRANCH   5   6
ATOM      6  C   UNL     1      18.457   3.713  39.218  1.00  0.00     0.000 C 
BRANCH   6   7
ATOM      7  C   UNL     1      16.978   3.951  38.859  1.00  0.00     0.000 C 
BRANCH   7   8
ATOM      8  C   UNL     1      15.997   2.866  39.347  1.00  0.00     0.006 C 
BRANCH   8   9
ATOM      9  C   UNL     1      14.694   2.790  38.531  1.00  0.00     0.053 C 
BRANCH   9  10
ATOM     10  C   UNL     1      14.320   1.380  38.181  1.00  0.00     0.041 C 
ATOM     11  O   UNL     1      13.111   1.064  38.027  1.00  0.00    -0.550 OA
ATOM     12  O   UNL     1      15.310   0.423  37.992  1.00  0.00    -0.550 OA
ENDBRANCH   9  10
ENDBRANCH   8   9
ENDBRANCH   7   8
ENDBRANCH   6   7
ENDBRANCH   5   6
ENDBRANCH   4   5
ENDBRANCH   3   4
ENDBRANCH   1   3
BRANCH   2  13
ATOM     13  C   UNL     1      19.098  -0.069  43.584  1.00  0.00     0.027 C 
BRANCH  13  14
ATOM     14  C   UNL     1      19.393   1.107  44.527  1.00  0.00     0.004 C 
BRANCH  14  15
ATOM     15  C   UNL     1      18.126   1.916  44.855  1.00  0.00     0.000 C 
BRANCH  15  16
ATOM     16  C   UNL     1      16.950   1.585  43.920  1.00  0.00     0.000 C 
BRANCH  16  17
ATOM     17  C   UNL     1      16.681   2.676  42.859  1.00  0.00    -0.000 C 
BRANCH  17  18
ATOM     18  C   UNL     1      17.702   3.834  42.902  1.00  0.00    -0.000 C 
BRANCH  18  19
ATOM     19  C   UNL     1      17.060   5.223  42.738  1.00  0.00    -0.003 C 
ATOM     20  C   UNL     1      15.614   5.158  42.253  1.00  0.00     0.004 C 
ENDBRANCH  18  19
ENDBRANCH  17  18
ENDBRANCH  16  17
ENDBRANCH  15  16
ENDBRANCH  14  15
ENDBRANCH  13  14
ENDBRANCH   2  13
TORSDOF 15
ENDMDL
MODEL 7
REMARK VINA RESULT:    -3.411      6.244      8.532
REMARK INTER + INTRA:          -8.696
REMARK INTER:                  -7.091
REMARK INTRA:                  -1.605
REMARK UNBOUND:                -2.294
REMARK SMILES CCCCCCCCC=CCCCCCCCC(=O)[O-]
REMARK SMILES IDX 10 1 9 2 11 3 12 4 13 5 14 6 15 7 16 8 17 9 18 10 19 11
REMARK SMILES IDX 20 12 8 13 7 14 6 15 5 16 4 17 3 18 2 19 1 20
REMARK H PARENT
REMARK Flexibility Score: inf
ROOT
ATOM      1  C   UNL     1      16.845   2.052  41.309  1.00  0.00    -0.031 C 
ATOM      2  C   UNL     1      18.032   2.002  41.933  1.00  0.00    -0.031 C 
ENDROOT
BRANCH   1   3
ATOM      3  C   UNL     1      16.201   3.360  40.945  1.00  0.00     0.027 C 
BRANCH   3   4
ATOM      4  C   UNL     1      16.250   3.602  39.432  1.00  0.00     0.004 C 
BRANCH   4   5
ATOM      5  C   UNL     1      15.110   2.858  38.720  1.00  0.00     0.000 C 
BRANCH   5   6
ATOM      6  C   UNL     1      15.497   1.429  38.299  1.00  0.00     0.000 C 
BRANCH   6   7
ATOM      7  C   UNL     1      14.446   0.690  37.449  1.00  0.00     0.000 C 
BRANCH   7   8
ATOM      8  C   UNL     1      15.006  -0.110  36.256  1.00  0.00     0.006 C 
BRANCH   8   9
ATOM      9  C   UNL     1      15.276   0.743  35.003  1.00  0.00     0.053 C 
BRANCH   9  10
ATOM     10  C   UNL     1      15.088  -0.030  33.733  1.00  0.00     0.041 C 
ATOM     11  O   UNL     1      16.041  -0.694  33.246  1.00  0.00    -0.550 OA
ATOM     12  O   UNL     1      13.848  -0.047  33.104  1.00  0.00    -0.550 OA
ENDBRANCH   9  10
ENDBRANCH   8   9
ENDBRANCH   7   8
ENDBRANCH   6   7
ENDBRANCH   5   6
ENDBRANCH   4   5
ENDBRANCH   3   4
ENDBRANCH   1   3
BRANCH   2  13
ATOM     13  C   UNL     1      18.674   0.693  42.305  1.00  0.00     0.027 C 
BRANCH  13  14
ATOM     14  C   UNL     1      19.628   0.829  43.502  1.00  0.00     0.004 C 
BRANCH  14  15
ATOM     15  C   UNL     1      19.530   2.213  44.166  1.00  0.00     0.000 C 
BRANCH  15  16
ATOM     16  C   UNL     1      18.771   2.179  45.503  1.00  0.00     0.000 C 
BRANCH  16  17
ATOM     17  C   UNL     1      17.622   3.209  45.585  1.00  0.00    -0.000 C 
BRANCH  17  18
ATOM     18  C   UNL     1      16.303   2.703  44.961  1.00  0.00    -0.000 C 
BRANCH  18  19
ATOM     19  C   UNL     1      15.862   1.327  45.491  1.00  0.00    -0.003 C 
ATOM     20  C   UNL     1      15.655   0.300  44.381  1.00  0.00     0.004 C 
ENDBRANCH  18  19
ENDBRANCH  17  18
ENDBRANCH  16  17
ENDBRANCH  15  16
ENDBRANCH  14  15
ENDBRANCH  13  14
ENDBRANCH   2  13
TORSDOF 15
ENDMDL
MODEL 8
REMARK VINA RESULT:    -3.410      5.431      7.804
REMARK INTER + INTRA:          -8.694
REMARK INTER:                  -5.838
REMARK INTRA:                  -2.857
REMARK UNBOUND:                -2.294
REMARK SMILES CCCCCCCCC=CCCCCCCCC(=O)[O-]
REMARK SMILES IDX 10 1 9 2 11 3 12 4 13 5 14 6 15 7 16 8 17 9 18 10 19 11
REMARK SMILES IDX 20 12 8 13 7 14 6 15 5 16 4 17 3 18 2 19 1 20
REMARK H PARENT
REMARK Flexibility Score: inf
ROOT
ATOM      1  C   UNL     1      15.746   3.888  37.482  1.00  0.00    -0.031 C 
ATOM      2  C   UNL     1      15.342   2.938  38.340  1.00  0.00    -0.031 C 
ENDROOT
BRANCH   1   3
ATOM      3  C   UNL     1      16.970   4.720  37.748  1.00  0.00     0.027 C 
BRANCH   3   4
ATOM      4  C   UNL     1      18.244   3.991  37.303  1.00  0.00     0.004 C 
BRANCH   4   5
ATOM      5  C   UNL     1      19.095   3.586  38.514  1.00  0.00     0.000 C 
BRANCH   5   6
ATOM      6  C   UNL     1      19.145   2.062  38.731  1.00  0.00     0.000 C 
BRANCH   6   7
ATOM      7  C   UNL     1      18.459   1.561  40.017  1.00  0.00     0.000 C 
BRANCH   7   8
ATOM      8  C   UNL     1      17.966   2.664  40.974  1.00  0.00     0.006 C 
BRANCH   8   9
ATOM      9  C   UNL     1      16.636   2.333  41.675  1.00  0.00     0.053 C 
BRANCH   9  10
ATOM     10  C   UNL     1      16.819   2.018  43.130  1.00  0.00     0.041 C 
ATOM     11  O   UNL     1      16.467   0.899  43.587  1.00  0.00    -0.550 OA
ATOM     12  O   UNL     1      17.412   2.949  43.975  1.00  0.00    -0.550 OA
ENDBRANCH   9  10
ENDBRANCH   8   9
ENDBRANCH   7   8
ENDBRANCH   6   7
ENDBRANCH   5   6
ENDBRANCH   4   5
ENDBRANCH   3   4
ENDBRANCH   1   3
BRANCH   2  13
ATOM     13  C   UNL     1      14.113   2.110  38.080  1.00  0.00     0.027 C 
BRANCH  13  14
ATOM     14  C   UNL     1      14.452   0.702  37.568  1.00  0.00     0.004 C 
BRANCH  14  15
ATOM     15  C   UNL     1      15.908   0.311  37.873  1.00  0.00     0.000 C 
BRANCH  15  16
ATOM     16  C   UNL     1      16.646  -0.243  36.643  1.00  0.00     0.000 C 
BRANCH  16  17
ATOM     17  C   UNL     1      17.206   0.857  35.713  1.00  0.00    -0.000 C 
BRANCH  17  18
ATOM     18  C   UNL     1      16.362   1.063  34.436  1.00  0.00    -0.000 C 
BRANCH  18  19
ATOM     19  C   UNL     1      15.797  -0.246  33.856  1.00  0.00    -0.003 C 
ATOM     20  C   UNL     1      14.316  -0.148  33.500  1.00  0.00     0.004 C 
ENDBRANCH  18  19
ENDBRANCH  17  18
ENDBRANCH  16  17
ENDBRANCH  15  16
ENDBRANCH  14  15
ENDBRANCH  13  14
ENDBRANCH   2  13
TORSDOF 15
ENDMDL
MODEL 9
REMARK VINA RESULT:    -3.398      5.710      8.195
REMARK INTER + INTRA:          -8.672
REMARK INTER:                  -6.017
REMARK INTRA:                  -2.655
REMARK UNBOUND:                -2.294
REMARK SMILES CCCCCCCCC=CCCCCCCCC(=O)[O-]
REMARK SMILES IDX 10 1 9 2 11 3 12 4 13 5 14 6 15 7 16 8 17 9 18 10 19 11
REMARK SMILES IDX 20 12 8 13 7 14 6 15 5 16 4 17 3 18 2 19 1 20
REMARK H PARENT
REMARK Flexibility Score: inf
ROOT
ATOM      1  C   UNL     1      18.622   2.746  39.750  1.00  0.00    -0.031 C 
ATOM      2  C   UNL     1      18.923   1.442  39.850  1.00  0.00    -0.031 C 
ENDROOT
BRANCH   1   3
ATOM      3  C   UNL     1      18.014   3.320  38.500  1.00  0.00     0.027 C 
BRANCH   3   4
ATOM      4  C   UNL     1      16.670   3.996  38.797  1.00  0.00     0.004 C 
BRANCH   4   5
ATOM      5  C   UNL     1      15.515   3.232  38.132  1.00  0.00     0.000 C 
BRANCH   5   6
ATOM      6  C   UNL     1      15.120   1.956  38.897  1.00  0.00     0.000 C 
BRANCH   6   7
ATOM      7  C   UNL     1      15.028   0.680  38.038  1.00  0.00     0.000 C 
BRANCH   7   8
ATOM      8  C   UNL     1      16.318   0.298  37.284  1.00  0.00     0.006 C 
BRANCH   8   9
ATOM      9  C   UNL     1      16.070  -0.483  35.980  1.00  0.00     0.053 C 
BRANCH   9  10
ATOM     10  C   UNL     1      15.407   0.356  34.928  1.00  0.00     0.041 C 
ATOM     11  O   UNL     1      14.419  -0.092  34.290  1.00  0.00    -0.550 OA
ATOM     12  O   UNL     1      15.860   1.646  34.678  1.00  0.00    -0.550 OA
ENDBRANCH   9  10
ENDBRANCH   8   9
ENDBRANCH   7   8
ENDBRANCH   6   7
ENDBRANCH   5   6
ENDBRANCH   4   5
ENDBRANCH   3   4
ENDBRANCH   1   3
BRANCH   2  13
ATOM     13  C   UNL     1      19.540   0.868  41.096  1.00  0.00     0.027 C 
BRANCH  13  14
ATOM     14  C   UNL     1      20.408   1.890  41.846  1.00  0.00     0.004 C 
BRANCH  14  15
ATOM     15  C   UNL     1      20.131   1.885  43.359  1.00  0.00     0.000 C 
BRANCH  15  16
ATOM     16  C   UNL     1      18.791   1.218  43.716  1.00  0.00     0.000 C 
BRANCH  16  17
ATOM     17  C   UNL     1      17.661   2.228  44.015  1.00  0.00    -0.000 C 
BRANCH  17  18
ATOM     18  C   UNL     1      16.665   2.393  42.846  1.00  0.00    -0.000 C 
BRANCH  18  19
ATOM     19  C   UNL     1      16.363   3.861  42.499  1.00  0.00    -0.003 C 
ATOM     20  C   UNL     1      17.589   4.764  42.613  1.00  0.00     0.004 C 
ENDBRANCH  18  19
ENDBRANCH  17  18
ENDBRANCH  16  17
ENDBRANCH  15  16
ENDBRANCH  14  15
ENDBRANCH  13  14
ENDBRANCH   2  13
TORSDOF 15
ENDMDL
