MODEL 1
REMARK VINA RESULT:    -5.927      0.000      0.000
REMARK INTER + INTRA:          -6.946
REMARK INTER:                  -6.793
REMARK INTRA:                  -0.153
REMARK UNBOUND:                -0.153
REMARK SMILES O=C([O-])C=Cc1ccc(O)cc1
REMARK SMILES IDX 6 1 7 2 12 3 8 4 11 5 9 6 5 7 4 8 2 9 1 10 3 11 10 12
REMARK H PARENT 10 13
REMARK Flexibility Score: inf
ROOT
ATOM      1  C   UNL     1      12.388  -5.347 -12.618  1.00  0.00    -0.025 A 
ATOM      2  C   UNL     1      11.591  -4.383 -11.977  1.00  0.00     0.012 A 
ATOM      3  C   UNL     1      12.023  -6.706 -12.519  1.00  0.00     0.012 A 
ATOM      4  C   UNL     1      10.443  -4.762 -11.275  1.00  0.00     0.047 A 
ATOM      5  C   UNL     1      10.874  -7.079 -11.815  1.00  0.00     0.047 A 
ATOM      6  C   UNL     1      10.080  -6.112 -11.195  1.00  0.00     0.115 A 
ENDROOT
BRANCH   1   7
ATOM      7  C   UNL     1      13.602  -4.896 -13.342  1.00  0.00     0.010 C 
ATOM      8  C   UNL     1      14.134  -3.671 -13.214  1.00  0.00     0.025 C 
BRANCH   8   9
ATOM      9  C   UNL     1      15.349  -3.263 -13.938  1.00  0.00     0.064 C 
ATOM     10  O   UNL     1      16.125  -4.117 -14.445  1.00  0.00    -0.545 OA
ATOM     11  O   UNL     1      15.643  -1.912 -14.070  1.00  0.00    -0.545 OA
ENDBRANCH   8   9
ENDBRANCH   1   7
BRANCH   6  12
ATOM     12  O   UNL     1       8.938  -6.501 -10.499  1.00  0.00    -0.508 OA
ATOM     13  H   UNL     1       8.009  -6.318 -10.860  1.00  0.00     0.293 HD
ENDBRANCH   6  12
TORSDOF 3
ENDMDL
MODEL 2
REMARK VINA RESULT:    -5.883      7.340     11.424
REMARK INTER + INTRA:          -6.896
REMARK INTER:                  -6.760
REMARK INTRA:                  -0.136
REMARK UNBOUND:                -0.153
REMARK SMILES O=C([O-])C=Cc1ccc(O)cc1
REMARK SMILES IDX 6 1 7 2 12 3 8 4 11 5 9 6 5 7 4 8 2 9 1 10 3 11 10 12
REMARK H PARENT 10 13
REMARK Flexibility Score: inf
ROOT
ATOM      1  C   UNL     1       3.667  -6.764  -9.016  1.00  0.00    -0.025 A 
ATOM      2  C   UNL     1       3.957  -6.978 -10.374  1.00  0.00     0.012 A 
ATOM      3  C   UNL     1       4.735  -6.592  -8.112  1.00  0.00     0.012 A 
ATOM      4  C   UNL     1       5.280  -6.992 -10.825  1.00  0.00     0.047 A 
ATOM      5  C   UNL     1       6.057  -6.607  -8.568  1.00  0.00     0.047 A 
ATOM      6  C   UNL     1       6.334  -6.804  -9.923  1.00  0.00     0.115 A 
ENDROOT
BRANCH   1   7
ATOM      7  C   UNL     1       2.247  -6.768  -8.585  1.00  0.00     0.010 C 
ATOM      8  C   UNL     1       1.470  -5.675  -8.567  1.00  0.00     0.025 C 
BRANCH   8   9
ATOM      9  C   UNL     1       0.061  -5.719  -8.145  1.00  0.00     0.064 C 
ATOM     10  O   UNL     1      -0.373  -6.651  -7.415  1.00  0.00    -0.545 OA
ATOM     11  O   UNL     1      -0.806  -4.714  -8.554  1.00  0.00    -0.545 OA
ENDBRANCH   8   9
ENDBRANCH   1   7
BRANCH   6  12
ATOM     12  O   UNL     1       7.656  -6.816 -10.361  1.00  0.00    -0.508 OA
ATOM     13  H   UNL     1       8.410  -7.129  -9.760  1.00  0.00     0.293 HD
ENDBRANCH   6  12
TORSDOF 3
ENDMDL
MODEL 3
REMARK VINA RESULT:    -5.876      7.247     11.282
REMARK INTER + INTRA:          -6.888
REMARK INTER:                  -6.751
REMARK INTRA:                  -0.137
REMARK UNBOUND:                -0.153
REMARK SMILES O=C([O-])C=Cc1ccc(O)cc1
REMARK SMILES IDX 6 1 7 2 12 3 8 4 11 5 9 6 5 7 4 8 2 9 1 10 3 11 10 12
REMARK H PARENT 10 13
REMARK Flexibility Score: inf
ROOT
ATOM      1  C   UNL     1       3.770  -6.711  -9.014  1.00  0.00    -0.025 A 
ATOM      2  C   UNL     1       4.854  -6.495  -8.145  1.00  0.00     0.012 A 
ATOM      3  C   UNL     1       4.031  -6.952 -10.379  1.00  0.00     0.012 A 
ATOM      4  C   UNL     1       6.167  -6.545  -8.620  1.00  0.00     0.047 A 
ATOM      5  C   UNL     1       5.348  -7.000 -10.849  1.00  0.00     0.047 A 
ATOM      6  C   UNL     1       6.418  -6.800  -9.973  1.00  0.00     0.115 A 
ENDROOT
BRANCH   1   7
ATOM      7  C   UNL     1       2.394  -6.638  -8.464  1.00  0.00     0.010 C 
ATOM      8  C   UNL     1       1.599  -5.564  -8.586  1.00  0.00     0.025 C 
BRANCH   8   9
ATOM      9  C   UNL     1       0.233  -5.531  -8.038  1.00  0.00     0.064 C 
ATOM     10  O   UNL     1      -0.338  -6.584  -7.646  1.00  0.00    -0.545 OA
ATOM     11  O   UNL     1      -0.437  -4.319  -7.947  1.00  0.00    -0.545 OA
ENDBRANCH   8   9
ENDBRANCH   1   7
BRANCH   6  12
ATOM     12  O   UNL     1       7.722  -6.852 -10.458  1.00  0.00    -0.508 OA
ATOM     13  H   UNL     1       8.440  -7.394  -9.990  1.00  0.00     0.293 HD
ENDBRANCH   6  12
TORSDOF 3
ENDMDL
MODEL 4
REMARK VINA RESULT:    -5.805      1.647      6.352
REMARK INTER + INTRA:          -6.806
REMARK INTER:                  -6.670
REMARK INTRA:                  -0.136
REMARK UNBOUND:                -0.153
REMARK SMILES O=C([O-])C=Cc1ccc(O)cc1
REMARK SMILES IDX 6 1 7 2 12 3 8 4 11 5 9 6 5 7 4 8 2 9 1 10 3 11 10 12
REMARK H PARENT 10 13
REMARK Flexibility Score: inf
ROOT
ATOM      1  C   UNL     1      11.064  -5.657 -11.472  1.00  0.00    -0.025 A 
ATOM      2  C   UNL     1      11.848  -6.100 -12.551  1.00  0.00     0.012 A 
ATOM      3  C   UNL     1      11.294  -4.367 -10.950  1.00  0.00     0.012 A 
ATOM      4  C   UNL     1      12.819  -5.268 -13.114  1.00  0.00     0.047 A 
ATOM      5  C   UNL     1      12.268  -3.539 -11.516  1.00  0.00     0.047 A 
ATOM      6  C   UNL     1      13.030  -3.984 -12.599  1.00  0.00     0.115 A 
ENDROOT
BRANCH   1   7
ATOM      7  C   UNL     1      10.053  -6.581 -10.902  1.00  0.00     0.010 C 
ATOM      8  C   UNL     1       8.801  -6.214 -10.588  1.00  0.00     0.025 C 
BRANCH   8   9
ATOM      9  C   UNL     1       7.820  -7.163 -10.035  1.00  0.00     0.064 C 
ATOM     10  O   UNL     1       6.920  -6.782  -9.240  1.00  0.00    -0.545 OA
ATOM     11  O   UNL     1       7.884  -8.501 -10.401  1.00  0.00    -0.545 OA
ENDBRANCH   8   9
ENDBRANCH   1   7
BRANCH   6  12
ATOM     12  O   UNL     1      13.996  -3.146 -13.152  1.00  0.00    -0.508 OA
ATOM     13  H   UNL     1      14.881  -2.979 -12.688  1.00  0.00     0.293 HD
ENDBRANCH   6  12
TORSDOF 3
ENDMDL
MODEL 5
REMARK VINA RESULT:    -5.786      4.814      7.183
REMARK INTER + INTRA:          -6.784
REMARK INTER:                  -6.648
REMARK INTRA:                  -0.136
REMARK UNBOUND:                -0.153
REMARK SMILES O=C([O-])C=Cc1ccc(O)cc1
REMARK SMILES IDX 6 1 7 2 12 3 8 4 11 5 9 6 5 7 4 8 2 9 1 10 3 11 10 12
REMARK H PARENT 10 13
REMARK Flexibility Score: inf
ROOT
ATOM      1  C   UNL     1       6.122  -6.918  -9.573  1.00  0.00    -0.025 A 
ATOM      2  C   UNL     1       5.842  -6.508  -8.258  1.00  0.00     0.012 A 
ATOM      3  C   UNL     1       5.047  -7.131 -10.461  1.00  0.00     0.012 A 
ATOM      4  C   UNL     1       4.525  -6.290  -7.845  1.00  0.00     0.047 A 
ATOM      5  C   UNL     1       3.731  -6.912 -10.043  1.00  0.00     0.047 A 
ATOM      6  C   UNL     1       3.465  -6.489  -8.738  1.00  0.00     0.115 A 
ENDROOT
BRANCH   1   7
ATOM      7  C   UNL     1       7.536  -7.146  -9.960  1.00  0.00     0.010 C 
ATOM      8  C   UNL     1       8.364  -6.173 -10.368  1.00  0.00     0.025 C 
BRANCH   8   9
ATOM      9  C   UNL     1       9.765  -6.435 -10.733  1.00  0.00     0.064 C 
ATOM     10  O   UNL     1      10.149  -7.590 -11.062  1.00  0.00    -0.545 OA
ATOM     11  O   UNL     1      10.681  -5.391 -10.717  1.00  0.00    -0.545 OA
ENDBRANCH   8   9
ENDBRANCH   1   7
BRANCH   6  12
ATOM     12  O   UNL     1       2.149  -6.274  -8.338  1.00  0.00    -0.508 OA
ATOM     13  H   UNL     1       1.831  -6.519  -7.408  1.00  0.00     0.293 HD
ENDBRANCH   6  12
TORSDOF 3
ENDMDL
MODEL 6
REMARK VINA RESULT:    -5.726      2.756      5.936
REMARK INTER + INTRA:          -6.716
REMARK INTER:                  -6.574
REMARK INTRA:                  -0.142
REMARK UNBOUND:                -0.153
REMARK SMILES O=C([O-])C=Cc1ccc(O)cc1
REMARK SMILES IDX 6 1 7 2 12 3 8 4 11 5 9 6 5 7 4 8 2 9 1 10 3 11 10 12
REMARK H PARENT 10 13
REMARK Flexibility Score: inf
ROOT
ATOM      1  C   UNL     1      11.375  -6.836 -12.134  1.00  0.00    -0.025 A 
ATOM      2  C   UNL     1      12.238  -6.158 -13.013  1.00  0.00     0.012 A 
ATOM      3  C   UNL     1      10.858  -6.142 -11.020  1.00  0.00     0.012 A 
ATOM      4  C   UNL     1      12.557  -4.814 -12.801  1.00  0.00     0.047 A 
ATOM      5  C   UNL     1      11.181  -4.797 -10.813  1.00  0.00     0.047 A 
ATOM      6  C   UNL     1      12.026  -4.129 -11.702  1.00  0.00     0.115 A 
ENDROOT
BRANCH   1   7
ATOM      7  C   UNL     1      11.075  -8.265 -12.395  1.00  0.00     0.010 C 
ATOM      8  C   UNL     1      10.471  -9.074 -11.511  1.00  0.00     0.025 C 
BRANCH   8   9
ATOM      9  C   UNL     1      10.179 -10.485 -11.810  1.00  0.00     0.064 C 
ATOM     10  O   UNL     1      10.851 -11.125 -12.663  1.00  0.00    -0.545 OA
ATOM     11  O   UNL     1       9.145 -11.125 -11.138  1.00  0.00    -0.545 OA
ENDBRANCH   8   9
ENDBRANCH   1   7
BRANCH   6  12
ATOM     12  O   UNL     1      12.337  -2.790 -11.481  1.00  0.00    -0.508 OA
ATOM     13  H   UNL     1      13.044  -2.312 -12.028  1.00  0.00     0.293 HD
ENDBRANCH   6  12
TORSDOF 3
ENDMDL
MODEL 7
REMARK VINA RESULT:    -5.601      6.145      8.898
REMARK INTER + INTRA:          -6.572
REMARK INTER:                  -6.432
REMARK INTRA:                  -0.140
REMARK UNBOUND:                -0.153
REMARK SMILES O=C([O-])C=Cc1ccc(O)cc1
REMARK SMILES IDX 6 1 7 2 12 3 8 4 11 5 9 6 5 7 4 8 2 9 1 10 3 11 10 12
REMARK H PARENT 10 13
REMARK Flexibility Score: inf
ROOT
ATOM      1  C   UNL     1       4.511  -6.227  -8.855  1.00  0.00    -0.025 A 
ATOM      2  C   UNL     1       4.671  -5.041  -8.118  1.00  0.00     0.012 A 
ATOM      3  C   UNL     1       3.208  -6.639  -9.203  1.00  0.00     0.012 A 
ATOM      4  C   UNL     1       3.562  -4.271  -7.759  1.00  0.00     0.047 A 
ATOM      5  C   UNL     1       2.101  -5.865  -8.841  1.00  0.00     0.047 A 
ATOM      6  C   UNL     1       2.273  -4.680  -8.122  1.00  0.00     0.115 A 
ENDROOT
BRANCH   1   7
ATOM      7  C   UNL     1       5.719  -7.016  -9.202  1.00  0.00     0.010 C 
ATOM      8  C   UNL     1       6.721  -6.548  -9.962  1.00  0.00     0.025 C 
BRANCH   8   9
ATOM      9  C   UNL     1       7.911  -7.356 -10.276  1.00  0.00     0.064 C 
ATOM     10  O   UNL     1       7.858  -8.615 -10.298  1.00  0.00    -0.545 OA
ATOM     11  O   UNL     1       9.113  -6.719 -10.557  1.00  0.00    -0.545 OA
ENDBRANCH   8   9
ENDBRANCH   1   7
BRANCH   6  12
ATOM     12  O   UNL     1       1.161  -3.920  -7.770  1.00  0.00    -0.508 OA
ATOM     13  H   UNL     1       1.227  -2.920  -7.621  1.00  0.00     0.293 HD
ENDBRANCH   6  12
TORSDOF 3
ENDMDL
MODEL 8
REMARK VINA RESULT:    -5.500     10.812     13.701
REMARK INTER + INTRA:          -6.457
REMARK INTER:                  -6.320
REMARK INTRA:                  -0.137
REMARK UNBOUND:                -0.153
REMARK SMILES O=C([O-])C=Cc1ccc(O)cc1
REMARK SMILES IDX 6 1 7 2 12 3 8 4 11 5 9 6 5 7 4 8 2 9 1 10 3 11 10 12
REMARK H PARENT 10 13
REMARK Flexibility Score: inf
ROOT
ATOM      1  C   UNL     1      -0.133  -4.003  -8.220  1.00  0.00    -0.025 A 
ATOM      2  C   UNL     1      -1.098  -4.064  -9.240  1.00  0.00     0.012 A 
ATOM      3  C   UNL     1      -0.469  -3.371  -7.005  1.00  0.00     0.012 A 
ATOM      4  C   UNL     1      -2.375  -3.532  -9.045  1.00  0.00     0.047 A 
ATOM      5  C   UNL     1      -1.748  -2.840  -6.814  1.00  0.00     0.047 A 
ATOM      6  C   UNL     1      -2.705  -2.920  -7.829  1.00  0.00     0.115 A 
ENDROOT
BRANCH   1   7
ATOM      7  C   UNL     1       1.212  -4.572  -8.480  1.00  0.00     0.010 C 
ATOM      8  C   UNL     1       1.451  -5.885  -8.624  1.00  0.00     0.025 C 
BRANCH   8   9
ATOM      9  C   UNL     1       2.798  -6.413  -8.893  1.00  0.00     0.064 C 
ATOM     10  O   UNL     1       3.782  -6.087  -8.177  1.00  0.00    -0.545 OA
ATOM     11  O   UNL     1       2.987  -7.289  -9.954  1.00  0.00    -0.545 OA
ENDBRANCH   8   9
ENDBRANCH   1   7
BRANCH   6  12
ATOM     12  O   UNL     1      -3.974  -2.387  -7.623  1.00  0.00    -0.508 OA
ATOM     13  H   UNL     1      -4.123  -1.593  -7.010  1.00  0.00     0.293 HD
ENDBRANCH   6  12
TORSDOF 3
ENDMDL
MODEL 9
REMARK VINA RESULT:    -5.403      2.742      6.985
REMARK INTER + INTRA:          -6.345
REMARK INTER:                  -6.201
REMARK INTRA:                  -0.145
REMARK UNBOUND:                -0.153
REMARK SMILES O=C([O-])C=Cc1ccc(O)cc1
REMARK SMILES IDX 6 1 7 2 12 3 8 4 11 5 9 6 5 7 4 8 2 9 1 10 3 11 10 12
REMARK H PARENT 10 13
REMARK Flexibility Score: inf
ROOT
ATOM      1  C   UNL     1       9.503  -6.428 -10.765  1.00  0.00    -0.025 A 
ATOM      2  C   UNL     1       9.762  -5.093 -11.119  1.00  0.00     0.012 A 
ATOM      3  C   UNL     1      10.432  -7.421 -11.134  1.00  0.00     0.012 A 
ATOM      4  C   UNL     1      10.933  -4.752 -11.802  1.00  0.00     0.047 A 
ATOM      5  C   UNL     1      11.602  -7.076 -11.818  1.00  0.00     0.047 A 
ATOM      6  C   UNL     1      11.858  -5.744 -12.151  1.00  0.00     0.115 A 
ENDROOT
BRANCH   1   7
ATOM      7  C   UNL     1       8.241  -6.739 -10.049  1.00  0.00     0.010 C 
ATOM      8  C   UNL     1       7.045  -6.238 -10.393  1.00  0.00     0.025 C 
BRANCH   8   9
ATOM      9  C   UNL     1       5.811  -6.580  -9.667  1.00  0.00     0.064 C 
ATOM     10  O   UNL     1       4.744  -6.845 -10.283  1.00  0.00    -0.545 OA
ATOM     11  O   UNL     1       5.824  -6.614  -8.279  1.00  0.00    -0.545 OA
ENDBRANCH   8   9
ENDBRANCH   1   7
BRANCH   6  12
ATOM     12  O   UNL     1      13.028  -5.417 -12.832  1.00  0.00    -0.508 OA
ATOM     13  H   UNL     1      13.792  -6.077 -12.921  1.00  0.00     0.293 HD
ENDBRANCH   6  12
TORSDOF 3
ENDMDL
