MODEL 1
REMARK VINA RESULT:    -4.259      0.000      0.000
REMARK INTER + INTRA:          -8.046
REMARK INTER:                  -7.247
REMARK INTRA:                  -0.799
REMARK UNBOUND:                -0.799
REMARK SMILES CCCCCCCCCCCCCC(=O)[O-]
REMARK SMILES IDX 8 1 9 2 10 3 11 4 12 5 13 6 14 7 15 8 16 9 7 10 6 11 5 12
REMARK SMILES IDX 4 13 3 14 2 15 1 16
REMARK H PARENT
REMARK Flexibility Score: inf
ROOT
ATOM      1  C   UNL     1       5.396  29.632  54.384  1.00  0.00     0.000 C 
ENDROOT
BRANCH   1   2
ATOM      2  C   UNL     1       5.287  29.076  55.819  1.00  0.00     0.000 C 
BRANCH   2   3
ATOM      3  C   UNL     1       4.307  27.893  55.952  1.00  0.00     0.000 C 
BRANCH   3   4
ATOM      4  C   UNL     1       3.624  27.861  57.332  1.00  0.00     0.000 C 
BRANCH   4   5
ATOM      5  C   UNL     1       2.199  28.434  57.294  1.00  0.00     0.006 C 
BRANCH   5   6
ATOM      6  C   UNL     1       1.599  28.406  55.882  1.00  0.00     0.053 C 
BRANCH   6   7
ATOM      7  C   UNL     1       0.456  29.366  55.776  1.00  0.00     0.041 C 
ATOM      8  O   UNL     1      -0.410  29.425  56.689  1.00  0.00    -0.550 OA
ATOM      9  O   UNL     1       0.360  30.214  54.680  1.00  0.00    -0.550 OA
ENDBRANCH   6   7
ENDBRANCH   5   6
ENDBRANCH   4   5
ENDBRANCH   3   4
ENDBRANCH   2   3
ENDBRANCH   1   2
BRANCH   1  10
ATOM     10  C   UNL     1       4.355  29.085  53.393  1.00  0.00     0.000 C 
BRANCH  10  11
ATOM     11  C   UNL     1       4.137  30.012  52.185  1.00  0.00    -0.000 C 
BRANCH  11  12
ATOM     12  C   UNL     1       4.354  29.296  50.838  1.00  0.00    -0.000 C 
BRANCH  12  13
ATOM     13  C   UNL     1       4.797  27.824  50.941  1.00  0.00    -0.000 C 
BRANCH  13  14
ATOM     14  C   UNL     1       4.712  27.079  49.597  1.00  0.00    -0.000 C 
BRANCH  14  15
ATOM     15  C   UNL     1       4.293  25.609  49.765  1.00  0.00    -0.003 C 
ATOM     16  C   UNL     1       5.378  24.627  49.323  1.00  0.00     0.004 C 
ENDBRANCH  14  15
ENDBRANCH  13  14
ENDBRANCH  12  13
ENDBRANCH  11  12
ENDBRANCH  10  11
ENDBRANCH   1  10
TORSDOF 12
ENDMDL
MODEL 2
REMARK VINA RESULT:    -4.037      2.578      6.021
REMARK INTER + INTRA:          -7.668
REMARK INTER:                  -6.405
REMARK INTRA:                  -1.263
REMARK UNBOUND:                -0.799
REMARK SMILES CCCCCCCCCCCCCC(=O)[O-]
REMARK SMILES IDX 8 1 9 2 10 3 11 4 12 5 13 6 14 7 15 8 16 9 7 10 6 11 5 12
REMARK SMILES IDX 4 13 3 14 2 15 1 16
REMARK H PARENT
REMARK Flexibility Score: inf
ROOT
ATOM      1  C   UNL     1       4.975  29.576  54.612  1.00  0.00     0.000 C 
ENDROOT
BRANCH   1   2
ATOM      2  C   UNL     1       4.231  28.500  53.795  1.00  0.00     0.000 C 
BRANCH   2   3
ATOM      3  C   UNL     1       4.570  28.520  52.290  1.00  0.00     0.000 C 
BRANCH   3   4
ATOM      4  C   UNL     1       5.777  29.424  51.982  1.00  0.00     0.000 C 
BRANCH   4   5
ATOM      5  C   UNL     1       5.433  30.539  50.982  1.00  0.00     0.006 C 
BRANCH   5   6
ATOM      6  C   UNL     1       3.920  30.697  50.786  1.00  0.00     0.053 C 
BRANCH   6   7
ATOM      7  C   UNL     1       3.406  31.863  51.569  1.00  0.00     0.041 C 
ATOM      8  O   UNL     1       2.869  31.685  52.695  1.00  0.00    -0.550 OA
ATOM      9  O   UNL     1       3.543  33.152  51.068  1.00  0.00    -0.550 OA
ENDBRANCH   6   7
ENDBRANCH   5   6
ENDBRANCH   4   5
ENDBRANCH   3   4
ENDBRANCH   2   3
ENDBRANCH   1   2
BRANCH   1  10
ATOM     10  C   UNL     1       5.767  29.045  55.820  1.00  0.00     0.000 C 
BRANCH  10  11
ATOM     11  C   UNL     1       4.926  28.991  57.107  1.00  0.00    -0.000 C 
BRANCH  11  12
ATOM     12  C   UNL     1       4.121  27.684  57.239  1.00  0.00    -0.000 C 
BRANCH  12  13
ATOM     13  C   UNL     1       2.760  27.820  57.947  1.00  0.00    -0.000 C 
BRANCH  13  14
ATOM     14  C   UNL     1       1.879  28.925  57.338  1.00  0.00    -0.000 C 
BRANCH  14  15
ATOM     15  C   UNL     1       0.628  28.362  56.642  1.00  0.00    -0.003 C 
ATOM     16  C   UNL     1       0.839  28.113  55.149  1.00  0.00     0.004 C 
ENDBRANCH  14  15
ENDBRANCH  13  14
ENDBRANCH  12  13
ENDBRANCH  11  12
ENDBRANCH  10  11
ENDBRANCH   1  10
TORSDOF 12
ENDMDL
MODEL 3
REMARK VINA RESULT:    -3.866      1.485      2.334
REMARK INTER + INTRA:          -7.377
REMARK INTER:                  -6.708
REMARK INTRA:                  -0.669
REMARK UNBOUND:                -0.799
REMARK SMILES CCCCCCCCCCCCCC(=O)[O-]
REMARK SMILES IDX 8 1 9 2 10 3 11 4 12 5 13 6 14 7 15 8 16 9 7 10 6 11 5 12
REMARK SMILES IDX 4 13 3 14 2 15 1 16
REMARK H PARENT
REMARK Flexibility Score: inf
ROOT
ATOM      1  C   UNL     1       4.219  28.492  52.946  1.00  0.00     0.000 C 
ENDROOT
BRANCH   1   2
ATOM      2  C   UNL     1       4.234  28.828  54.451  1.00  0.00     0.000 C 
BRANCH   2   3
ATOM      3  C   UNL     1       2.989  28.327  55.210  1.00  0.00     0.000 C 
BRANCH   3   4
ATOM      4  C   UNL     1       3.184  28.374  56.737  1.00  0.00     0.000 C 
BRANCH   4   5
ATOM      5  C   UNL     1       1.924  28.849  57.475  1.00  0.00     0.006 C 
BRANCH   5   6
ATOM      6  C   UNL     1       0.637  28.340  56.813  1.00  0.00     0.053 C 
BRANCH   6   7
ATOM      7  C   UNL     1      -0.275  29.480  56.487  1.00  0.00     0.041 C 
ATOM      8  O   UNL     1      -0.300  29.960  55.323  1.00  0.00    -0.550 OA
ATOM      9  O   UNL     1      -1.117  29.999  57.464  1.00  0.00    -0.550 OA
ENDBRANCH   6   7
ENDBRANCH   5   6
ENDBRANCH   4   5
ENDBRANCH   3   4
ENDBRANCH   2   3
ENDBRANCH   1   2
BRANCH   1  10
ATOM     10  C   UNL     1       5.407  29.048  52.142  1.00  0.00     0.000 C 
BRANCH  10  11
ATOM     11  C   UNL     1       5.491  28.466  50.720  1.00  0.00    -0.000 C 
BRANCH  11  12
ATOM     12  C   UNL     1       4.707  27.148  50.569  1.00  0.00    -0.000 C 
BRANCH  12  13
ATOM     13  C   UNL     1       4.418  26.719  49.118  1.00  0.00    -0.000 C 
BRANCH  13  14
ATOM     14  C   UNL     1       5.324  27.426  48.095  1.00  0.00    -0.000 C 
BRANCH  14  15
ATOM     15  C   UNL     1       4.524  28.110  46.975  1.00  0.00    -0.003 C 
ATOM     16  C   UNL     1       3.276  28.829  47.488  1.00  0.00     0.004 C 
ENDBRANCH  14  15
ENDBRANCH  13  14
ENDBRANCH  12  13
ENDBRANCH  11  12
ENDBRANCH  10  11
ENDBRANCH   1  10
TORSDOF 12
ENDMDL
MODEL 4
REMARK VINA RESULT:    -3.861      9.157     12.335
REMARK INTER + INTRA:          -7.369
REMARK INTER:                  -6.470
REMARK INTRA:                  -0.899
REMARK UNBOUND:                -0.799
REMARK SMILES CCCCCCCCCCCCCC(=O)[O-]
REMARK SMILES IDX 8 1 9 2 10 3 11 4 12 5 13 6 14 7 15 8 16 9 7 10 6 11 5 12
REMARK SMILES IDX 4 13 3 14 2 15 1 16
REMARK H PARENT
REMARK Flexibility Score: inf
ROOT
ATOM      1  C   UNL     1      -6.590  28.704  57.143  1.00  0.00     0.000 C 
ENDROOT
BRANCH   1   2
ATOM      2  C   UNL     1      -7.694  27.628  57.206  1.00  0.00     0.000 C 
BRANCH   2   3
ATOM      3  C   UNL     1      -7.670  26.646  56.016  1.00  0.00     0.000 C 
BRANCH   3   4
ATOM      4  C   UNL     1      -7.621  27.379  54.663  1.00  0.00     0.000 C 
BRANCH   4   5
ATOM      5  C   UNL     1      -7.003  26.517  53.551  1.00  0.00     0.006 C 
BRANCH   5   6
ATOM      6  C   UNL     1      -5.570  26.948  53.211  1.00  0.00     0.053 C 
BRANCH   6   7
ATOM      7  C   UNL     1      -5.153  26.390  51.887  1.00  0.00     0.041 C 
ATOM      8  O   UNL     1      -3.971  26.542  51.478  1.00  0.00    -0.550 OA
ATOM      9  O   UNL     1      -6.063  25.679  51.114  1.00  0.00    -0.550 OA
ENDBRANCH   6   7
ENDBRANCH   5   6
ENDBRANCH   4   5
ENDBRANCH   3   4
ENDBRANCH   2   3
ENDBRANCH   1   2
BRANCH   1  10
ATOM     10  C   UNL     1      -5.633  28.726  58.348  1.00  0.00     0.000 C 
BRANCH  10  11
ATOM     11  C   UNL     1      -4.758  29.991  58.392  1.00  0.00    -0.000 C 
BRANCH  11  12
ATOM     12  C   UNL     1      -5.062  30.883  59.611  1.00  0.00    -0.000 C 
BRANCH  12  13
ATOM     13  C   UNL     1      -6.457  31.537  59.615  1.00  0.00    -0.000 C 
BRANCH  13  14
ATOM     14  C   UNL     1      -6.829  32.156  58.256  1.00  0.00    -0.000 C 
BRANCH  14  15
ATOM     15  C   UNL     1      -8.311  31.946  57.901  1.00  0.00    -0.003 C 
ATOM     16  C   UNL     1      -9.237  32.072  59.111  1.00  0.00     0.004 C 
ENDBRANCH  14  15
ENDBRANCH  13  14
ENDBRANCH  12  13
ENDBRANCH  11  12
ENDBRANCH  10  11
ENDBRANCH   1  10
TORSDOF 12
ENDMDL
MODEL 5
REMARK VINA RESULT:    -3.850      3.216      6.844
REMARK INTER + INTRA:          -7.350
REMARK INTER:                  -6.419
REMARK INTRA:                  -0.932
REMARK UNBOUND:                -0.799
REMARK SMILES CCCCCCCCCCCCCC(=O)[O-]
REMARK SMILES IDX 8 1 9 2 10 3 11 4 12 5 13 6 14 7 15 8 16 9 7 10 6 11 5 12
REMARK SMILES IDX 4 13 3 14 2 15 1 16
REMARK H PARENT
REMARK Flexibility Score: inf
ROOT
ATOM      1  C   UNL     1       5.462  29.594  54.816  1.00  0.00     0.000 C 
ENDROOT
BRANCH   1   2
ATOM      2  C   UNL     1       4.369  29.083  53.856  1.00  0.00     0.000 C 
BRANCH   2   3
ATOM      3  C   UNL     1       4.739  29.224  52.364  1.00  0.00     0.000 C 
BRANCH   3   4
ATOM      4  C   UNL     1       4.650  27.881  51.618  1.00  0.00     0.000 C 
BRANCH   4   5
ATOM      5  C   UNL     1       5.660  27.784  50.464  1.00  0.00     0.006 C 
BRANCH   5   6
ATOM      6  C   UNL     1       5.109  26.984  49.276  1.00  0.00     0.053 C 
BRANCH   6   7
ATOM      7  C   UNL     1       4.454  27.895  48.286  1.00  0.00     0.041 C 
ATOM      8  O   UNL     1       4.450  29.141  48.475  1.00  0.00    -0.550 OA
ATOM      9  O   UNL     1       3.867  27.370  47.141  1.00  0.00    -0.550 OA
ENDBRANCH   6   7
ENDBRANCH   5   6
ENDBRANCH   4   5
ENDBRANCH   3   4
ENDBRANCH   2   3
ENDBRANCH   1   2
BRANCH   1  10
ATOM     10  C   UNL     1       5.626  28.778  56.110  1.00  0.00     0.000 C 
BRANCH  10  11
ATOM     11  C   UNL     1       4.506  29.046  57.130  1.00  0.00    -0.000 C 
BRANCH  11  12
ATOM     12  C   UNL     1       3.840  27.752  57.637  1.00  0.00    -0.000 C 
BRANCH  12  13
ATOM     13  C   UNL     1       2.299  27.753  57.609  1.00  0.00    -0.000 C 
BRANCH  13  14
ATOM     14  C   UNL     1       1.708  29.149  57.349  1.00  0.00    -0.000 C 
BRANCH  14  15
ATOM     15  C   UNL     1       0.820  29.187  56.094  1.00  0.00    -0.003 C 
ATOM     16  C   UNL     1       1.083  28.020  55.143  1.00  0.00     0.004 C 
ENDBRANCH  14  15
ENDBRANCH  13  14
ENDBRANCH  12  13
ENDBRANCH  11  12
ENDBRANCH  10  11
ENDBRANCH   1  10
TORSDOF 12
ENDMDL
MODEL 6
REMARK VINA RESULT:    -3.761     14.922     16.839
REMARK INTER + INTRA:          -7.198
REMARK INTER:                  -5.323
REMARK INTRA:                  -1.875
REMARK UNBOUND:                -0.799
REMARK SMILES CCCCCCCCCCCCCC(=O)[O-]
REMARK SMILES IDX 8 1 9 2 10 3 11 4 12 5 13 6 14 7 15 8 16 9 7 10 6 11 5 12
REMARK SMILES IDX 4 13 3 14 2 15 1 16
REMARK H PARENT
REMARK Flexibility Score: inf
ROOT
ATOM      1  C   UNL     1      -4.619  38.174  44.157  1.00  0.00     0.000 C 
ENDROOT
BRANCH   1   2
ATOM      2  C   UNL     1      -4.185  36.694  44.156  1.00  0.00     0.000 C 
BRANCH   2   3
ATOM      3  C   UNL     1      -5.000  35.810  43.189  1.00  0.00     0.000 C 
BRANCH   3   4
ATOM      4  C   UNL     1      -5.638  34.606  43.904  1.00  0.00     0.000 C 
BRANCH   4   5
ATOM      5  C   UNL     1      -6.641  33.858  43.013  1.00  0.00     0.006 C 
BRANCH   5   6
ATOM      6  C   UNL     1      -8.012  33.704  43.684  1.00  0.00     0.053 C 
BRANCH   6   7
ATOM      7  C   UNL     1      -8.937  32.910  42.817  1.00  0.00     0.041 C 
ATOM      8  O   UNL     1      -9.912  32.294  43.324  1.00  0.00    -0.550 OA
ATOM      9  O   UNL     1      -8.738  32.871  41.442  1.00  0.00    -0.550 OA
ENDBRANCH   6   7
ENDBRANCH   5   6
ENDBRANCH   4   5
ENDBRANCH   3   4
ENDBRANCH   2   3
ENDBRANCH   1   2
BRANCH   1  10
ATOM     10  C   UNL     1      -5.658  38.549  43.085  1.00  0.00     0.000 C 
BRANCH  10  11
ATOM     11  C   UNL     1      -6.734  39.515  43.610  1.00  0.00    -0.000 C 
BRANCH  11  12
ATOM     12  C   UNL     1      -7.323  39.072  44.963  1.00  0.00    -0.000 C 
BRANCH  12  13
ATOM     13  C   UNL     1      -8.325  37.904  44.891  1.00  0.00    -0.000 C 
BRANCH  13  14
ATOM     14  C   UNL     1      -7.932  36.724  45.796  1.00  0.00    -0.000 C 
BRANCH  14  15
ATOM     15  C   UNL     1      -7.102  37.167  47.013  1.00  0.00    -0.003 C 
ATOM     16  C   UNL     1      -5.967  36.198  47.344  1.00  0.00     0.004 C 
ENDBRANCH  14  15
ENDBRANCH  13  14
ENDBRANCH  12  13
ENDBRANCH  11  12
ENDBRANCH  10  11
ENDBRANCH   1  10
TORSDOF 12
ENDMDL
MODEL 7
REMARK VINA RESULT:    -3.682      3.003      6.021
REMARK INTER + INTRA:          -7.065
REMARK INTER:                  -5.950
REMARK INTRA:                  -1.115
REMARK UNBOUND:                -0.799
REMARK SMILES CCCCCCCCCCCCCC(=O)[O-]
REMARK SMILES IDX 8 1 9 2 10 3 11 4 12 5 13 6 14 7 15 8 16 9 7 10 6 11 5 12
REMARK SMILES IDX 4 13 3 14 2 15 1 16
REMARK H PARENT
REMARK Flexibility Score: inf
ROOT
ATOM      1  C   UNL     1       3.702  29.419  53.942  1.00  0.00     0.000 C 
ENDROOT
BRANCH   1   2
ATOM      2  C   UNL     1       4.337  29.326  52.540  1.00  0.00     0.000 C 
BRANCH   2   3
ATOM      3  C   UNL     1       5.193  30.554  52.164  1.00  0.00     0.000 C 
BRANCH   3   4
ATOM      4  C   UNL     1       4.437  31.875  52.390  1.00  0.00     0.000 C 
BRANCH   4   5
ATOM      5  C   UNL     1       3.181  31.990  51.511  1.00  0.00     0.006 C 
BRANCH   5   6
ATOM      6  C   UNL     1       1.922  32.292  52.335  1.00  0.00     0.053 C 
BRANCH   6   7
ATOM      7  C   UNL     1       1.363  33.631  51.970  1.00  0.00     0.041 C 
ATOM      8  O   UNL     1       0.143  33.883  52.159  1.00  0.00    -0.550 OA
ATOM      9  O   UNL     1       2.195  34.611  51.442  1.00  0.00    -0.550 OA
ENDBRANCH   6   7
ENDBRANCH   5   6
ENDBRANCH   4   5
ENDBRANCH   3   4
ENDBRANCH   2   3
ENDBRANCH   1   2
BRANCH   1  10
ATOM     10  C   UNL     1       4.595  28.931  55.096  1.00  0.00     0.000 C 
BRANCH  10  11
ATOM     11  C   UNL     1       4.010  27.712  55.829  1.00  0.00    -0.000 C 
BRANCH  11  12
ATOM     12  C   UNL     1       3.444  28.067  57.218  1.00  0.00    -0.000 C 
BRANCH  12  13
ATOM     13  C   UNL     1       2.195  28.969  57.207  1.00  0.00    -0.000 C 
BRANCH  13  14
ATOM     14  C   UNL     1       0.907  28.200  56.864  1.00  0.00    -0.000 C 
BRANCH  14  15
ATOM     15  C   UNL     1       0.514  28.341  55.384  1.00  0.00    -0.003 C 
ATOM     16  C   UNL     1       0.171  29.779  54.994  1.00  0.00     0.004 C 
ENDBRANCH  14  15
ENDBRANCH  13  14
ENDBRANCH  12  13
ENDBRANCH  11  12
ENDBRANCH  10  11
ENDBRANCH   1  10
TORSDOF 12
ENDMDL
MODEL 8
REMARK VINA RESULT:    -3.645     15.737     17.108
REMARK INTER + INTRA:          -7.002
REMARK INTER:                  -5.882
REMARK INTRA:                  -1.120
REMARK UNBOUND:                -0.799
REMARK SMILES CCCCCCCCCCCCCC(=O)[O-]
REMARK SMILES IDX 8 1 9 2 10 3 11 4 12 5 13 6 14 7 15 8 16 9 7 10 6 11 5 12
REMARK SMILES IDX 4 13 3 14 2 15 1 16
REMARK H PARENT
REMARK Flexibility Score: inf
ROOT
ATOM      1  C   UNL     1      -7.910  37.146  46.631  1.00  0.00     0.000 C 
ENDROOT
BRANCH   1   2
ATOM      2  C   UNL     1      -7.309  35.811  46.147  1.00  0.00     0.000 C 
BRANCH   2   3
ATOM      3  C   UNL     1      -7.728  35.427  44.713  1.00  0.00     0.000 C 
BRANCH   3   4
ATOM      4  C   UNL     1      -6.528  34.973  43.862  1.00  0.00     0.000 C 
BRANCH   4   5
ATOM      5  C   UNL     1      -6.785  33.636  43.151  1.00  0.00     0.006 C 
BRANCH   5   6
ATOM      6  C   UNL     1      -7.897  32.823  43.827  1.00  0.00     0.053 C 
BRANCH   6   7
ATOM      7  C   UNL     1      -9.047  32.623  42.891  1.00  0.00     0.041 C 
ATOM      8  O   UNL     1     -10.171  32.266  43.333  1.00  0.00    -0.550 OA
ATOM      9  O   UNL     1      -8.883  32.854  41.530  1.00  0.00    -0.550 OA
ENDBRANCH   6   7
ENDBRANCH   5   6
ENDBRANCH   4   5
ENDBRANCH   3   4
ENDBRANCH   2   3
ENDBRANCH   1   2
BRANCH   1  10
ATOM     10  C   UNL     1      -8.507  38.032  45.523  1.00  0.00     0.000 C 
BRANCH  10  11
ATOM     11  C   UNL     1      -8.083  39.505  45.643  1.00  0.00    -0.000 C 
BRANCH  11  12
ATOM     12  C   UNL     1      -6.932  39.874  44.688  1.00  0.00    -0.000 C 
BRANCH  12  13
ATOM     13  C   UNL     1      -6.619  38.826  43.603  1.00  0.00    -0.000 C 
BRANCH  13  14
ATOM     14  C   UNL     1      -5.161  38.889  43.116  1.00  0.00    -0.000 C 
BRANCH  14  15
ATOM     15  C   UNL     1      -4.721  37.597  42.408  1.00  0.00    -0.003 C 
ATOM     16  C   UNL     1      -3.715  37.847  41.283  1.00  0.00     0.004 C 
ENDBRANCH  14  15
ENDBRANCH  13  14
ENDBRANCH  12  13
ENDBRANCH  11  12
ENDBRANCH  10  11
ENDBRANCH   1  10
TORSDOF 12
ENDMDL
MODEL 9
REMARK VINA RESULT:    -3.561      9.210     12.242
REMARK INTER + INTRA:          -6.859
REMARK INTER:                  -5.359
REMARK INTRA:                  -1.500
REMARK UNBOUND:                -0.799
REMARK SMILES CCCCCCCCCCCCCC(=O)[O-]
REMARK SMILES IDX 8 1 9 2 10 3 11 4 12 5 13 6 14 7 15 8 16 9 7 10 6 11 5 12
REMARK SMILES IDX 4 13 3 14 2 15 1 16
REMARK H PARENT
REMARK Flexibility Score: inf
ROOT
ATOM      1  C   UNL     1      -9.806  28.218  55.607  1.00  0.00     0.000 C 
ENDROOT
BRANCH   1   2
ATOM      2  C   UNL     1      -9.592  26.896  54.842  1.00  0.00     0.000 C 
BRANCH   2   3
ATOM      3  C   UNL     1      -8.318  26.135  55.264  1.00  0.00     0.000 C 
BRANCH   3   4
ATOM      4  C   UNL     1      -7.353  25.924  54.083  1.00  0.00     0.000 C 
BRANCH   4   5
ATOM      5  C   UNL     1      -6.261  27.002  54.018  1.00  0.00     0.006 C 
BRANCH   5   6
ATOM      6  C   UNL     1      -6.272  27.760  52.684  1.00  0.00     0.053 C 
BRANCH   6   7
ATOM      7  C   UNL     1      -5.058  27.424  51.877  1.00  0.00     0.041 C 
ATOM      8  O   UNL     1      -4.805  26.227  51.578  1.00  0.00    -0.550 OA
ATOM      9  O   UNL     1      -4.217  28.437  51.432  1.00  0.00    -0.550 OA
ENDBRANCH   6   7
ENDBRANCH   5   6
ENDBRANCH   4   5
ENDBRANCH   3   4
ENDBRANCH   2   3
ENDBRANCH   1   2
BRANCH   1  10
ATOM     10  C   UNL     1      -9.122  29.448  54.986  1.00  0.00     0.000 C 
BRANCH  10  11
ATOM     11  C   UNL     1      -7.785  29.793  55.663  1.00  0.00    -0.000 C 
BRANCH  11  12
ATOM     12  C   UNL     1      -7.736  29.359  57.141  1.00  0.00    -0.000 C 
BRANCH  12  13
ATOM     13  C   UNL     1      -6.577  28.413  57.509  1.00  0.00    -0.000 C 
BRANCH  13  14
ATOM     14  C   UNL     1      -5.435  29.128  58.252  1.00  0.00    -0.000 C 
BRANCH  14  15
ATOM     15  C   UNL     1      -5.814  30.557  58.675  1.00  0.00    -0.003 C 
ATOM     16  C   UNL     1      -4.885  31.126  59.748  1.00  0.00     0.004 C 
ENDBRANCH  14  15
ENDBRANCH  13  14
ENDBRANCH  12  13
ENDBRANCH  11  12
ENDBRANCH  10  11
ENDBRANCH   1  10
TORSDOF 12
ENDMDL
