MODEL 1
REMARK VINA RESULT:    -5.541      0.000      0.000
REMARK INTER + INTRA:         -10.947
REMARK INTER:                  -9.752
REMARK INTRA:                  -1.195
REMARK UNBOUND:                -1.195
REMARK SMILES COc1cc(-c2[o+]c3cc(O)cc(O[C@H]4O[C@H](CO)[C@H](O)[C@H](O)[C@@H]4O)c3cc2O[C@H]2O[C@@H](CO)[C@H](O)[C@@H](O)[C@@H]2O)ccc1O
REMARK SMILES IDX 6 1 28 2 27 3 26 4 13 5 12 6 10 7 9 8 8 9 7 10 5 11 3 12
REMARK SMILES IDX 43 13 4 14 42 15 41 16 2 17 1 18 44 19 29 21 30 22 39 23
REMARK SMILES IDX 31 24 37 25 32 26 35 27 40 28 38 30 33 32 34 33 36 35 14 37
REMARK SMILES IDX 15 38 24 39 16 40 22 41 17 42 20 43 25 44 23 46 18 48 19 49
REMARK SMILES IDX 21 51 11 53
REMARK H PARENT 44 20 40 29 38 31 34 34 36 36 25 45 23 47 19 50 21 52 11 54
REMARK Flexibility Score: inf
ROOT
ATOM      1  C   UNL     1      -7.332  32.257   6.196  1.00  0.00     0.402 A 
ATOM      2  C   UNL     1      -8.687  31.926   6.566  1.00  0.00     0.229 A 
ATOM      3  C   UNL     1      -9.483  33.101   6.757  1.00  0.00     0.079 A 
ATOM      4  C   UNL     1      -9.197  34.279   6.063  1.00  0.00     0.126 A 
ATOM      5  C   UNL     1     -10.089  35.303   5.863  1.00  0.00     0.143 A 
ATOM      6  C   UNL     1      -9.569  36.644   5.658  1.00  0.00     0.094 A 
ATOM      7  C   UNL     1      -8.233  36.827   5.379  1.00  0.00     0.128 A 
ATOM      8  C   UNL     1      -7.377  35.729   5.368  1.00  0.00     0.162 A 
ATOM      9  C   UNL     1      -7.848  34.447   5.782  1.00  0.00     0.368 A 
ATOM     10  O   UNL     1      -7.014  33.542   6.102  1.00  0.00    -0.202 OA
ENDROOT
BRANCH   1  11
ATOM     11  C   UNL     1      -6.235  31.284   6.182  1.00  0.00     0.087 A 
ATOM     12  C   UNL     1      -5.543  29.069   5.375  1.00  0.00     0.161 A 
ATOM     13  C   UNL     1      -4.296  29.263   5.964  1.00  0.00     0.157 A 
ATOM     14  C   UNL     1      -6.532  30.051   5.489  1.00  0.00     0.068 A 
ATOM     15  C   UNL     1      -4.113  30.336   6.869  1.00  0.00     0.051 A 
ATOM     16  C   UNL     1      -5.025  31.407   6.862  1.00  0.00     0.022 A 
BRANCH  12  17
ATOM     17  O   UNL     1      -5.731  27.965   4.544  1.00  0.00    -0.493 OA
ATOM     18  C   UNL     1      -7.033  27.520   4.163  1.00  0.00     0.278 C 
ENDBRANCH  12  17
BRANCH  13  19
ATOM     19  O   UNL     1      -3.203  28.467   5.728  1.00  0.00    -0.504 OA
ATOM     20  H   UNL     1      -2.367  28.820   5.250  1.00  0.00     0.293 HD
ENDBRANCH  13  19
ENDBRANCH   1  11
BRANCH   2  21
ATOM     21  O   UNL     1      -9.063  30.581   6.913  1.00  0.00    -0.452 OA
BRANCH  21  22
ATOM     22  C   UNL     1      -9.393  29.168   7.215  1.00  0.00     0.339 C 
ATOM     23  C   UNL     1     -10.552  28.576   6.388  1.00  0.00     0.214 C 
ATOM     24  O   UNL     1      -9.891  29.089   8.635  1.00  0.00    -0.332 OA
ATOM     25  C   UNL     1     -11.451  30.044   6.772  1.00  0.00     0.180 C 
ATOM     26  C   UNL     1     -11.321  28.988   8.750  1.00  0.00     0.179 C 
ATOM     27  C   UNL     1     -12.323  29.200   7.296  1.00  0.00     0.177 C 
BRANCH  23  28
ATOM     28  O   UNL     1     -11.045  27.184   6.766  1.00  0.00    -0.384 OA
ATOM     29  H   UNL     1     -11.000  26.766   7.702  1.00  0.00     0.211 HD
ENDBRANCH  23  28
BRANCH  25  30
ATOM     30  O   UNL     1     -11.907  31.148   7.785  1.00  0.00    -0.387 OA
ATOM     31  H   UNL     1     -11.592  31.286   8.763  1.00  0.00     0.211 HD
ENDBRANCH  25  30
BRANCH  26  32
ATOM     32  C   UNL     1     -11.658  29.181  10.294  1.00  0.00     0.191 C 
BRANCH  32  33
ATOM     33  O   UNL     1     -11.723  30.548  10.762  1.00  0.00    -0.394 OA
ATOM     34  H   UNL     1     -11.756  30.516  11.742  1.00  0.00     0.210 HD
ENDBRANCH  32  33
ENDBRANCH  26  32
BRANCH  27  35
ATOM     35  O   UNL     1     -13.119  29.423   6.105  1.00  0.00    -0.387 OA
ATOM     36  H   UNL     1     -12.563  30.034   5.615  1.00  0.00     0.211 HD
ENDBRANCH  27  35
ENDBRANCH  21  22
ENDBRANCH   2  21
BRANCH   5  37
ATOM     37  O   UNL     1     -11.437  35.013   5.792  1.00  0.00    -0.461 OA
BRANCH  37  38
ATOM     38  C   UNL     1     -12.274  35.313   7.009  1.00  0.00     0.339 C 
ATOM     39  C   UNL     1     -12.018  36.715   7.502  1.00  0.00     0.214 C 
ATOM     40  O   UNL     1     -12.268  34.341   8.094  1.00  0.00    -0.332 OA
ATOM     41  C   UNL     1     -10.840  36.760   8.513  1.00  0.00     0.180 C 
ATOM     42  C   UNL     1     -11.923  34.638   9.481  1.00  0.00     0.179 C 
ATOM     43  C   UNL     1     -11.095  35.968   9.768  1.00  0.00     0.177 C 
BRANCH  39  44
ATOM     44  O   UNL     1     -13.124  37.316   8.220  1.00  0.00    -0.384 OA
ATOM     45  H   UNL     1     -12.973  38.285   8.324  1.00  0.00     0.211 HD
ENDBRANCH  39  44
BRANCH  41  46
ATOM     46  O   UNL     1     -10.632  38.134   8.735  1.00  0.00    -0.387 OA
ATOM     47  H   UNL     1     -11.275  38.349   9.487  1.00  0.00     0.211 HD
ENDBRANCH  41  46
BRANCH  42  48
ATOM     48  C   UNL     1     -13.122  34.222  10.581  1.00  0.00     0.191 C 
BRANCH  48  49
ATOM     49  O   UNL     1     -12.599  33.221  11.463  1.00  0.00    -0.394 OA
ATOM     50  H   UNL     1     -12.212  32.584  10.787  1.00  0.00     0.210 HD
ENDBRANCH  48  49
ENDBRANCH  42  48
BRANCH  43  51
ATOM     51  O   UNL     1     -11.781  36.807  10.667  1.00  0.00    -0.387 OA
ATOM     52  H   UNL     1     -12.133  37.501  10.077  1.00  0.00     0.211 HD
ENDBRANCH  43  51
ENDBRANCH  37  38
ENDBRANCH   5  37
BRANCH   7  53
ATOM     53  O   UNL     1      -7.632  38.047   5.459  1.00  0.00    -0.507 OA
ATOM     54  H   UNL     1      -6.794  38.226   4.942  1.00  0.00     0.293 HD
ENDBRANCH   7  53
TORSDOF 18
ENDMDL
MODEL 2
REMARK VINA RESULT:    -4.841     13.847     18.942
REMARK INTER + INTRA:          -9.714
REMARK INTER:                  -7.981
REMARK INTRA:                  -1.734
REMARK UNBOUND:                -1.195
REMARK SMILES COc1cc(-c2[o+]c3cc(O)cc(O[C@H]4O[C@H](CO)[C@H](O)[C@H](O)[C@@H]4O)c3cc2O[C@H]2O[C@@H](CO)[C@H](O)[C@@H](O)[C@@H]2O)ccc1O
REMARK SMILES IDX 6 1 28 2 27 3 26 4 13 5 12 6 10 7 9 8 8 9 7 10 5 11 3 12
REMARK SMILES IDX 43 13 4 14 42 15 41 16 2 17 1 18 44 19 29 21 30 22 39 23
REMARK SMILES IDX 31 24 37 25 32 26 35 27 40 28 38 30 33 32 34 33 36 35 14 37
REMARK SMILES IDX 15 38 24 39 16 40 22 41 17 42 20 43 25 44 23 46 18 48 19 49
REMARK SMILES IDX 21 51 11 53
REMARK H PARENT 44 20 40 29 38 31 34 34 36 36 25 45 23 47 19 50 21 52 11 54
REMARK Flexibility Score: inf
ROOT
ATOM      1  C   UNL     1       1.885  45.825   3.543  1.00  0.00     0.402 A 
ATOM      2  C   UNL     1       2.221  45.452   2.191  1.00  0.00     0.229 A 
ATOM      3  C   UNL     1       3.607  45.682   1.908  1.00  0.00     0.079 A 
ATOM      4  C   UNL     1       4.561  45.624   2.925  1.00  0.00     0.126 A 
ATOM      5  C   UNL     1       5.906  45.433   2.723  1.00  0.00     0.143 A 
ATOM      6  C   UNL     1       6.835  45.940   3.719  1.00  0.00     0.094 A 
ATOM      7  C   UNL     1       6.372  46.330   4.955  1.00  0.00     0.128 A 
ATOM      8  C   UNL     1       5.004  46.303   5.215  1.00  0.00     0.162 A 
ATOM      9  C   UNL     1       4.078  46.012   4.167  1.00  0.00     0.368 A 
ATOM     10  O   UNL     1       2.853  46.321   4.305  1.00  0.00    -0.202 OA
ENDROOT
BRANCH   1  11
ATOM     11  C   UNL     1       0.510  45.940   4.035  1.00  0.00     0.087 A 
ATOM     12  C   UNL     1      -1.324  44.730   5.136  1.00  0.00     0.161 A 
ATOM     13  C   UNL     1      -2.094  45.890   5.091  1.00  0.00     0.157 A 
ATOM     14  C   UNL     1      -0.034  44.724   4.596  1.00  0.00     0.068 A 
ATOM     15  C   UNL     1      -1.665  46.979   4.296  1.00  0.00     0.051 A 
ATOM     16  C   UNL     1      -0.318  47.052   3.895  1.00  0.00     0.022 A 
BRANCH  12  17
ATOM     17  O   UNL     1      -1.795  43.636   5.863  1.00  0.00    -0.493 OA
ATOM     18  C   UNL     1      -1.239  42.331   5.707  1.00  0.00     0.278 C 
ENDBRANCH  12  17
BRANCH  13  19
ATOM     19  O   UNL     1      -3.271  46.058   5.777  1.00  0.00    -0.504 OA
ATOM     20  H   UNL     1      -3.548  45.433   6.541  1.00  0.00     0.293 HD
ENDBRANCH  13  19
ENDBRANCH   1  11
BRANCH   2  21
ATOM     21  O   UNL     1       1.203  45.124   1.228  1.00  0.00    -0.452 OA
BRANCH  21  22
ATOM     22  C   UNL     1       0.096  44.801   0.296  1.00  0.00     0.339 C 
ATOM     23  C   UNL     1      -0.757  43.580   0.694  1.00  0.00     0.214 C 
ATOM     24  O   UNL     1       0.691  44.404  -1.030  1.00  0.00    -0.332 OA
ATOM     25  C   UNL     1       0.761  42.727   0.969  1.00  0.00     0.180 C 
ATOM     26  C   UNL     1       0.713  42.986  -1.261  1.00  0.00     0.179 C 
ATOM     27  C   UNL     1       0.284  41.885   0.069  1.00  0.00     0.177 C 
BRANCH  23  28
ATOM     28  O   UNL     1      -1.804  43.100  -0.305  1.00  0.00    -0.384 OA
ATOM     29  H   UNL     1      -2.430  43.701  -0.853  1.00  0.00     0.211 HD
ENDBRANCH  23  28
BRANCH  25  30
ATOM     30  O   UNL     1       2.223  42.356   0.546  1.00  0.00    -0.387 OA
ATOM     31  H   UNL     1       3.002  42.998   0.315  1.00  0.00     0.211 HD
ENDBRANCH  25  30
BRANCH  26  32
ATOM     32  C   UNL     1       1.600  42.760  -2.565  1.00  0.00     0.191 C 
BRANCH  32  33
ATOM     33  O   UNL     1       1.881  41.384  -2.909  1.00  0.00    -0.394 OA
ATOM     34  H   UNL     1       1.888  41.328  -3.889  1.00  0.00     0.210 HD
ENDBRANCH  32  33
ENDBRANCH  26  32
BRANCH  27  35
ATOM     35  O   UNL     1      -0.024  41.009   1.182  1.00  0.00    -0.387 OA
ATOM     36  H   UNL     1      -0.115  40.162   0.737  1.00  0.00     0.211 HD
ENDBRANCH  27  35
ENDBRANCH  21  22
ENDBRANCH   2  21
BRANCH   5  37
ATOM     37  O   UNL     1       6.322  44.707   1.624  1.00  0.00    -0.461 OA
BRANCH  37  38
ATOM     38  C   UNL     1       5.417  43.604   1.141  1.00  0.00     0.339 C 
ATOM     39  C   UNL     1       5.449  42.431   2.088  1.00  0.00     0.214 C 
ATOM     40  O   UNL     1       5.536  43.188  -0.250  1.00  0.00    -0.332 OA
ATOM     41  C   UNL     1       6.579  41.431   1.721  1.00  0.00     0.180 C 
ATOM     42  C   UNL     1       5.795  41.822  -0.695  1.00  0.00     0.179 C 
ATOM     43  C   UNL     1       6.409  40.803   0.364  1.00  0.00     0.177 C 
BRANCH  39  44
ATOM     44  O   UNL     1       4.247  41.622   2.091  1.00  0.00    -0.384 OA
ATOM     45  H   UNL     1       4.045  41.321   3.009  1.00  0.00     0.211 HD
ENDBRANCH  39  44
BRANCH  41  46
ATOM     46  O   UNL     1       6.576  40.507   2.784  1.00  0.00    -0.387 OA
ATOM     47  H   UNL     1       6.562  41.099   3.606  1.00  0.00     0.211 HD
ENDBRANCH  41  46
BRANCH  42  48
ATOM     48  C   UNL     1       4.640  41.227  -1.761  1.00  0.00     0.191 C 
BRANCH  48  49
ATOM     49  O   UNL     1       5.205  40.116  -2.466  1.00  0.00    -0.394 OA
ATOM     50  H   UNL     1       4.548  40.043  -3.224  1.00  0.00     0.210 HD
ENDBRANCH  48  49
ENDBRANCH  42  48
BRANCH  43  51
ATOM     51  O   UNL     1       5.582  39.675   0.518  1.00  0.00    -0.387 OA
ATOM     52  H   UNL     1       5.688  39.220  -0.340  1.00  0.00     0.211 HD
ENDBRANCH  43  51
ENDBRANCH  37  38
ENDBRANCH   5  37
BRANCH   7  53
ATOM     53  O   UNL     1       7.125  47.068   5.816  1.00  0.00    -0.507 OA
ATOM     54  H   UNL     1       6.773  47.286   6.728  1.00  0.00     0.293 HD
ENDBRANCH   7  53
TORSDOF 18
ENDMDL
MODEL 3
REMARK VINA RESULT:    -3.957     13.660     16.519
REMARK INTER + INTRA:          -8.160
REMARK INTER:                  -6.542
REMARK INTRA:                  -1.618
REMARK UNBOUND:                -1.195
REMARK SMILES COc1cc(-c2[o+]c3cc(O)cc(O[C@H]4O[C@H](CO)[C@H](O)[C@H](O)[C@@H]4O)c3cc2O[C@H]2O[C@@H](CO)[C@H](O)[C@@H](O)[C@@H]2O)ccc1O
REMARK SMILES IDX 6 1 28 2 27 3 26 4 13 5 12 6 10 7 9 8 8 9 7 10 5 11 3 12
REMARK SMILES IDX 43 13 4 14 42 15 41 16 2 17 1 18 44 19 29 21 30 22 39 23
REMARK SMILES IDX 31 24 37 25 32 26 35 27 40 28 38 30 33 32 34 33 36 35 14 37
REMARK SMILES IDX 15 38 24 39 16 40 22 41 17 42 20 43 25 44 23 46 18 48 19 49
REMARK SMILES IDX 21 51 11 53
REMARK H PARENT 44 20 40 29 38 31 34 34 36 36 25 45 23 47 19 50 21 52 11 54
REMARK Flexibility Score: inf
ROOT
ATOM      1  C   UNL     1       1.693  43.857   3.257  1.00  0.00     0.402 A 
ATOM      2  C   UNL     1       0.390  43.946   2.644  1.00  0.00     0.229 A 
ATOM      3  C   UNL     1      -0.555  44.595   3.503  1.00  0.00     0.079 A 
ATOM      4  C   UNL     1      -0.136  45.545   4.435  1.00  0.00     0.126 A 
ATOM      5  C   UNL     1      -0.953  46.489   5.008  1.00  0.00     0.143 A 
ATOM      6  C   UNL     1      -0.592  47.017   6.313  1.00  0.00     0.094 A 
ATOM      7  C   UNL     1       0.671  46.800   6.816  1.00  0.00     0.128 A 
ATOM      8  C   UNL     1       1.570  46.012   6.101  1.00  0.00     0.162 A 
ATOM      9  C   UNL     1       1.141  45.318   4.929  1.00  0.00     0.368 A 
ATOM     10  O   UNL     1       1.833  44.350   4.482  1.00  0.00    -0.202 OA
ENDROOT
BRANCH   1  11
ATOM     11  C   UNL     1       2.783  43.031   2.730  1.00  0.00     0.087 A 
ATOM     12  C   UNL     1       4.952  43.087   1.578  1.00  0.00     0.161 A 
ATOM     13  C   UNL     1       5.017  41.699   1.667  1.00  0.00     0.157 A 
ATOM     14  C   UNL     1       3.840  43.771   2.079  1.00  0.00     0.068 A 
ATOM     15  C   UNL     1       3.863  40.972   2.045  1.00  0.00     0.051 A 
ATOM     16  C   UNL     1       2.813  41.638   2.703  1.00  0.00     0.022 A 
BRANCH  12  17
ATOM     17  O   UNL     1       6.074  43.787   1.131  1.00  0.00    -0.493 OA
ATOM     18  C   UNL     1       6.589  44.916   1.837  1.00  0.00     0.278 C 
ENDBRANCH  12  17
BRANCH  13  19
ATOM     19  O   UNL     1       6.146  40.964   1.405  1.00  0.00    -0.504 OA
ATOM     20  H   UNL     1       6.459  40.210   2.025  1.00  0.00     0.293 HD
ENDBRANCH  13  19
ENDBRANCH   1  11
BRANCH   2  21
ATOM     21  O   UNL     1       0.085  43.243   1.425  1.00  0.00    -0.452 OA
BRANCH  21  22
ATOM     22  C   UNL     1      -0.252  42.452   0.218  1.00  0.00     0.339 C 
ATOM     23  C   UNL     1       0.944  42.104  -0.690  1.00  0.00     0.214 C 
ATOM     24  O   UNL     1      -1.140  43.289  -0.667  1.00  0.00    -0.332 OA
ATOM     25  C   UNL     1       1.419  43.797  -0.556  1.00  0.00     0.180 C 
ATOM     26  C   UNL     1      -0.460  43.885  -1.784  1.00  0.00     0.179 C 
ATOM     27  C   UNL     1       1.314  43.781  -1.873  1.00  0.00     0.177 C 
BRANCH  23  28
ATOM     28  O   UNL     1       0.640  41.436  -2.027  1.00  0.00    -0.384 OA
ATOM     29  H   UNL     1      -0.215  40.918  -2.257  1.00  0.00     0.211 HD
ENDBRANCH  23  28
BRANCH  25  30
ATOM     30  O   UNL     1       1.067  45.323  -0.544  1.00  0.00    -0.387 OA
ATOM     31  H   UNL     1       1.514  46.085  -1.087  1.00  0.00     0.211 HD
ENDBRANCH  25  30
BRANCH  26  32
ATOM     32  C   UNL     1      -1.484  44.919  -2.429  1.00  0.00     0.191 C 
BRANCH  32  33
ATOM     33  O   UNL     1      -2.833  44.883  -1.908  1.00  0.00    -0.394 OA
ATOM     34  H   UNL     1      -2.948  44.013  -1.468  1.00  0.00     0.210 HD
ENDBRANCH  32  33
ENDBRANCH  26  32
BRANCH  27  35
ATOM     35  O   UNL     1       2.762  43.723  -1.898  1.00  0.00    -0.387 OA
ATOM     36  H   UNL     1       2.917  43.158  -2.660  1.00  0.00     0.211 HD
ENDBRANCH  27  35
ENDBRANCH  21  22
ENDBRANCH   2  21
BRANCH   5  37
ATOM     37  O   UNL     1      -2.042  46.953   4.297  1.00  0.00    -0.461 OA
BRANCH  37  38
ATOM     38  C   UNL     1      -3.336  47.125   5.049  1.00  0.00     0.339 C 
ATOM     39  C   UNL     1      -3.400  46.186   6.227  1.00  0.00     0.214 C 
ATOM     40  O   UNL     1      -4.574  47.125   4.281  1.00  0.00    -0.332 OA
ATOM     41  C   UNL     1      -4.012  44.814   5.833  1.00  0.00     0.180 C 
ATOM     42  C   UNL     1      -5.705  46.233   4.518  1.00  0.00     0.179 C 
ATOM     43  C   UNL     1      -5.437  44.906   5.357  1.00  0.00     0.177 C 
BRANCH  39  44
ATOM     44  O   UNL     1      -4.232  46.644   7.322  1.00  0.00    -0.384 OA
ATOM     45  H   UNL     1      -5.152  46.305   7.211  1.00  0.00     0.211 HD
ENDBRANCH  39  44
BRANCH  41  46
ATOM     46  O   UNL     1      -3.841  44.020   6.983  1.00  0.00    -0.387 OA
ATOM     47  H   UNL     1      -3.791  44.702   7.730  1.00  0.00     0.211 HD
ENDBRANCH  41  46
BRANCH  42  48
ATOM     48  C   UNL     1      -7.156  47.035   4.783  1.00  0.00     0.191 C 
BRANCH  48  49
ATOM     49  O   UNL     1      -8.208  46.064   4.837  1.00  0.00    -0.394 OA
ATOM     50  H   UNL     1      -7.726  45.270   4.450  1.00  0.00     0.210 HD
ENDBRANCH  48  49
ENDBRANCH  42  48
BRANCH  43  51
ATOM     51  O   UNL     1      -6.267  44.849   6.492  1.00  0.00    -0.387 OA
ATOM     52  H   UNL     1      -6.834  44.078   6.298  1.00  0.00     0.211 HD
ENDBRANCH  43  51
ENDBRANCH  37  38
ENDBRANCH   5  37
BRANCH   7  53
ATOM     53  O   UNL     1       0.980  47.012   8.125  1.00  0.00    -0.507 OA
ATOM     54  H   UNL     1       1.266  47.922   8.430  1.00  0.00     0.293 HD
ENDBRANCH   7  53
TORSDOF 18
ENDMDL
MODEL 4
REMARK VINA RESULT:    -3.822     15.323     17.808
REMARK INTER + INTRA:          -7.922
REMARK INTER:                  -6.843
REMARK INTRA:                  -1.079
REMARK UNBOUND:                -1.195
REMARK SMILES COc1cc(-c2[o+]c3cc(O)cc(O[C@H]4O[C@H](CO)[C@H](O)[C@H](O)[C@@H]4O)c3cc2O[C@H]2O[C@@H](CO)[C@H](O)[C@@H](O)[C@@H]2O)ccc1O
REMARK SMILES IDX 6 1 28 2 27 3 26 4 13 5 12 6 10 7 9 8 8 9 7 10 5 11 3 12
REMARK SMILES IDX 43 13 4 14 42 15 41 16 2 17 1 18 44 19 29 21 30 22 39 23
REMARK SMILES IDX 31 24 37 25 32 26 35 27 40 28 38 30 33 32 34 33 36 35 14 37
REMARK SMILES IDX 15 38 24 39 16 40 22 41 17 42 20 43 25 44 23 46 18 48 19 49
REMARK SMILES IDX 21 51 11 53
REMARK H PARENT 44 20 40 29 38 31 34 34 36 36 25 45 23 47 19 50 21 52 11 54
REMARK Flexibility Score: inf
ROOT
ATOM      1  C   UNL     1       4.705  43.199   1.547  1.00  0.00     0.402 A 
ATOM      2  C   UNL     1       3.287  43.463   1.524  1.00  0.00     0.229 A 
ATOM      3  C   UNL     1       2.894  44.332   2.592  1.00  0.00     0.079 A 
ATOM      4  C   UNL     1       3.788  45.268   3.116  1.00  0.00     0.126 A 
ATOM      5  C   UNL     1       3.421  46.382   3.831  1.00  0.00     0.143 A 
ATOM      6  C   UNL     1       4.373  46.942   4.775  1.00  0.00     0.094 A 
ATOM      7  C   UNL     1       5.692  46.551   4.735  1.00  0.00     0.128 A 
ATOM      8  C   UNL     1       6.089  45.565   3.835  1.00  0.00     0.162 A 
ATOM      9  C   UNL     1       5.114  44.864   3.062  1.00  0.00     0.368 A 
ATOM     10  O   UNL     1       5.421  43.757   2.515  1.00  0.00    -0.202 OA
ENDROOT
BRANCH   1  11
ATOM     11  C   UNL     1       5.349  42.158   0.742  1.00  0.00     0.087 A 
ATOM     12  C   UNL     1       6.614  40.054   0.843  1.00  0.00     0.161 A 
ATOM     13  C   UNL     1       6.627  40.013  -0.549  1.00  0.00     0.157 A 
ATOM     14  C   UNL     1       6.005  41.123   1.508  1.00  0.00     0.068 A 
ATOM     15  C   UNL     1       6.236  41.160  -1.281  1.00  0.00     0.051 A 
ATOM     16  C   UNL     1       5.475  42.158  -0.646  1.00  0.00     0.022 A 
BRANCH  12  17
ATOM     17  O   UNL     1       7.073  38.943   1.553  1.00  0.00    -0.493 OA
ATOM     18  C   UNL     1       6.807  37.609   1.120  1.00  0.00     0.278 C 
ENDBRANCH  12  17
BRANCH  13  19
ATOM     19  O   UNL     1       7.002  38.916  -1.283  1.00  0.00    -0.504 OA
ATOM     20  H   UNL     1       7.873  38.897  -1.825  1.00  0.00     0.293 HD
ENDBRANCH  13  19
ENDBRANCH   1  11
BRANCH   2  21
ATOM     21  O   UNL     1       2.400  42.728   0.659  1.00  0.00    -0.452 OA
BRANCH  21  22
ATOM     22  C   UNL     1       1.470  41.920  -0.164  1.00  0.00     0.339 C 
ATOM     23  C   UNL     1       1.803  41.872  -1.669  1.00  0.00     0.214 C 
ATOM     24  O   UNL     1       0.110  42.569  -0.120  1.00  0.00    -0.332 OA
ATOM     25  C   UNL     1       1.995  43.623  -1.587  1.00  0.00     0.180 C 
ATOM     26  C   UNL     1      -0.213  43.334  -1.293  1.00  0.00     0.179 C 
ATOM     27  C   UNL     1       1.051  43.625  -2.511  1.00  0.00     0.177 C 
BRANCH  23  28
ATOM     28  O   UNL     1       0.793  41.195  -2.590  1.00  0.00    -0.384 OA
ATOM     29  H   UNL     1       0.690  41.369  -3.596  1.00  0.00     0.211 HD
ENDBRANCH  23  28
BRANCH  25  30
ATOM     30  O   UNL     1       1.523  45.034  -1.097  1.00  0.00    -0.387 OA
ATOM     31  H   UNL     1       0.606  45.490  -1.255  1.00  0.00     0.211 HD
ENDBRANCH  25  30
BRANCH  26  32
ATOM     32  C   UNL     1      -1.543  44.138  -0.949  1.00  0.00     0.191 C 
BRANCH  32  33
ATOM     33  O   UNL     1      -2.244  44.714  -2.075  1.00  0.00    -0.394 OA
ATOM     34  H   UNL     1      -1.574  45.170  -2.629  1.00  0.00     0.210 HD
ENDBRANCH  32  33
ENDBRANCH  26  32
BRANCH  27  35
ATOM     35  O   UNL     1       2.110  43.888  -3.466  1.00  0.00    -0.387 OA
ATOM     36  H   UNL     1       1.664  44.466  -4.090  1.00  0.00     0.211 HD
ENDBRANCH  27  35
ENDBRANCH  21  22
ENDBRANCH   2  21
BRANCH   5  37
ATOM     37  O   UNL     1       2.198  46.968   3.577  1.00  0.00    -0.461 OA
BRANCH  37  38
ATOM     38  C   UNL     1       1.164  46.913   4.672  1.00  0.00     0.339 C 
ATOM     39  C   UNL     1       1.344  45.678   5.517  1.00  0.00     0.214 C 
ATOM     40  O   UNL     1      -0.229  47.125   4.302  1.00  0.00    -0.332 OA
ATOM     41  C   UNL     1       0.552  44.471   4.944  1.00  0.00     0.180 C 
ATOM     42  C   UNL     1      -1.320  46.197   4.585  1.00  0.00     0.179 C 
ATOM     43  C   UNL     1      -0.937  44.687   4.920  1.00  0.00     0.177 C 
BRANCH  39  44
ATOM     44  O   UNL     1       0.866  45.800   6.880  1.00  0.00    -0.384 OA
ATOM     45  H   UNL     1       1.418  46.451   7.374  1.00  0.00     0.211 HD
ENDBRANCH  39  44
BRANCH  41  46
ATOM     46  O   UNL     1       0.962  43.384   5.739  1.00  0.00    -0.387 OA
ATOM     47  H   UNL     1       1.261  43.825   6.599  1.00  0.00     0.211 HD
ENDBRANCH  41  46
BRANCH  42  48
ATOM     48  C   UNL     1      -2.587  46.883   5.447  1.00  0.00     0.191 C 
BRANCH  48  49
ATOM     49  O   UNL     1      -3.480  45.837   5.849  1.00  0.00    -0.394 OA
ATOM     50  H   UNL     1      -4.218  45.976   5.179  1.00  0.00     0.210 HD
ENDBRANCH  48  49
ENDBRANCH  42  48
BRANCH  43  51
ATOM     51  O   UNL     1      -1.441  44.305   6.178  1.00  0.00    -0.387 OA
ATOM     52  H   UNL     1      -1.036  44.965   6.774  1.00  0.00     0.211 HD
ENDBRANCH  43  51
ENDBRANCH  37  38
ENDBRANCH   5  37
BRANCH   7  53
ATOM     53  O   UNL     1       6.561  46.811   5.751  1.00  0.00    -0.507 OA
ATOM     54  H   UNL     1       7.543  46.876   5.564  1.00  0.00     0.293 HD
ENDBRANCH   7  53
TORSDOF 18
ENDMDL
MODEL 5
REMARK VINA RESULT:    -3.213      1.587      2.503
REMARK INTER + INTRA:          -6.850
REMARK INTER:                  -9.211
REMARK INTRA:                   2.361
REMARK UNBOUND:                -1.195
REMARK SMILES COc1cc(-c2[o+]c3cc(O)cc(O[C@H]4O[C@H](CO)[C@H](O)[C@H](O)[C@@H]4O)c3cc2O[C@H]2O[C@@H](CO)[C@H](O)[C@@H](O)[C@@H]2O)ccc1O
REMARK SMILES IDX 6 1 28 2 27 3 26 4 13 5 12 6 10 7 9 8 8 9 7 10 5 11 3 12
REMARK SMILES IDX 43 13 4 14 42 15 41 16 2 17 1 18 44 19 29 21 30 22 39 23
REMARK SMILES IDX 31 24 37 25 32 26 35 27 40 28 38 30 33 32 34 33 36 35 14 37
REMARK SMILES IDX 15 38 24 39 16 40 22 41 17 42 20 43 25 44 23 46 18 48 19 49
REMARK SMILES IDX 21 51 11 53
REMARK H PARENT 44 20 40 29 38 31 34 34 36 36 25 45 23 47 19 50 21 52 11 54
REMARK Flexibility Score: inf
ROOT
ATOM      1  C   UNL     1      -8.234  31.197   5.809  1.00  0.00     0.402 A 
ATOM      2  C   UNL     1      -9.397  31.000   6.639  1.00  0.00     0.229 A 
ATOM      3  C   UNL     1      -9.792  32.213   7.291  1.00  0.00     0.079 A 
ATOM      4  C   UNL     1      -9.529  33.454   6.709  1.00  0.00     0.126 A 
ATOM      5  C   UNL     1     -10.187  34.618   7.024  1.00  0.00     0.143 A 
ATOM      6  C   UNL     1      -9.498  35.881   6.815  1.00  0.00     0.094 A 
ATOM      7  C   UNL     1      -8.351  35.919   6.055  1.00  0.00     0.128 A 
ATOM      8  C   UNL     1      -7.820  34.734   5.552  1.00  0.00     0.162 A 
ATOM      9  C   UNL     1      -8.375  33.477   5.940  1.00  0.00     0.368 A 
ATOM     10  O   UNL     1      -7.700  32.412   5.773  1.00  0.00    -0.202 OA
ENDROOT
BRANCH   1  11
ATOM     11  C   UNL     1      -7.459  30.099   5.225  1.00  0.00     0.087 A 
ATOM     12  C   UNL     1      -5.314  28.904   5.308  1.00  0.00     0.161 A 
ATOM     13  C   UNL     1      -5.772  28.044   4.315  1.00  0.00     0.157 A 
ATOM     14  C   UNL     1      -6.126  29.949   5.762  1.00  0.00     0.068 A 
ATOM     15  C   UNL     1      -6.953  28.369   3.604  1.00  0.00     0.051 A 
ATOM     16  C   UNL     1      -7.853  29.302   4.152  1.00  0.00     0.022 A 
BRANCH  12  17
ATOM     17  O   UNL     1      -4.109  28.612   5.949  1.00  0.00    -0.493 OA
ATOM     18  C   UNL     1      -3.478  29.541   6.830  1.00  0.00     0.278 C 
ENDBRANCH  12  17
BRANCH  13  19
ATOM     19  O   UNL     1      -5.147  26.875   3.961  1.00  0.00    -0.504 OA
ATOM     20  H   UNL     1      -4.518  26.380   4.602  1.00  0.00     0.293 HD
ENDBRANCH  13  19
ENDBRANCH   1  11
BRANCH   2  21
ATOM     21  O   UNL     1      -9.905  29.683   6.920  1.00  0.00    -0.452 OA
BRANCH  21  22
ATOM     22  C   UNL     1     -10.472  28.331   7.136  1.00  0.00     0.339 C 
ATOM     23  C   UNL     1     -11.942  28.305   7.600  1.00  0.00     0.214 C 
ATOM     24  O   UNL     1      -9.728  27.679   8.273  1.00  0.00    -0.332 OA
ATOM     25  C   UNL     1     -11.492  29.535   8.782  1.00  0.00     0.180 C 
ATOM     26  C   UNL     1     -10.435  27.696   9.524  1.00  0.00     0.179 C 
ATOM     27  C   UNL     1     -11.933  28.648   9.657  1.00  0.00     0.177 C 
BRANCH  23  28
ATOM     28  O   UNL     1     -12.530  26.955   7.997  1.00  0.00    -0.384 OA
ATOM     29  H   UNL     1     -12.091  26.272   8.624  1.00  0.00     0.211 HD
ENDBRANCH  23  28
BRANCH  25  30
ATOM     30  O   UNL     1     -10.508  30.110   9.856  1.00  0.00    -0.387 OA
ATOM     31  H   UNL     1      -9.583  30.550   9.702  1.00  0.00     0.211 HD
ENDBRANCH  25  30
BRANCH  26  32
ATOM     32  C   UNL     1      -9.398  27.213  10.630  1.00  0.00     0.191 C 
BRANCH  32  33
ATOM     33  O   UNL     1      -9.577  27.771  11.952  1.00  0.00    -0.394 OA
ATOM     34  H   UNL     1     -10.218  28.509  11.869  1.00  0.00     0.210 HD
ENDBRANCH  32  33
ENDBRANCH  26  32
BRANCH  27  35
ATOM     35  O   UNL     1     -13.125  29.468   9.754  1.00  0.00    -0.387 OA
ATOM     36  H   UNL     1     -12.919  30.175   9.137  1.00  0.00     0.211 HD
ENDBRANCH  27  35
ENDBRANCH  21  22
ENDBRANCH   2  21
BRANCH   5  37
ATOM     37  O   UNL     1     -11.496  34.552   7.458  1.00  0.00    -0.461 OA
BRANCH  37  38
ATOM     38  C   UNL     1     -12.130  35.831   7.939  1.00  0.00     0.339 C 
ATOM     39  C   UNL     1     -12.076  36.892   6.868  1.00  0.00     0.214 C 
ATOM     40  O   UNL     1     -11.722  36.345   9.240  1.00  0.00    -0.332 OA
ATOM     41  C   UNL     1     -10.762  37.716   6.946  1.00  0.00     0.180 C 
ATOM     42  C   UNL     1     -11.189  37.682   9.480  1.00  0.00     0.179 C 
ATOM     43  C   UNL     1     -10.608  38.483   8.231  1.00  0.00     0.177 C 
BRANCH  39  44
ATOM     44  O   UNL     1     -13.125  37.888   6.948  1.00  0.00    -0.384 OA
ATOM     45  H   UNL     1     -13.729  37.806   6.173  1.00  0.00     0.211 HD
ENDBRANCH  39  44
BRANCH  41  46
ATOM     46  O   UNL     1     -10.799  38.527   5.795  1.00  0.00    -0.387 OA
ATOM     47  H   UNL     1     -10.190  39.299   6.035  1.00  0.00     0.211 HD
ENDBRANCH  41  46
BRANCH  42  48
ATOM     48  C   UNL     1     -12.048  38.558  10.628  1.00  0.00     0.191 C 
BRANCH  48  49
ATOM     49  O   UNL     1     -12.825  37.642  11.408  1.00  0.00    -0.394 OA
ATOM     50  H   UNL     1     -12.085  37.117  11.842  1.00  0.00     0.210 HD
ENDBRANCH  48  49
ENDBRANCH  42  48
BRANCH  43  51
ATOM     51  O   UNL     1     -11.268  39.717   8.071  1.00  0.00    -0.387 OA
ATOM     52  H   UNL     1     -11.211  39.859   7.106  1.00  0.00     0.211 HD
ENDBRANCH  43  51
ENDBRANCH  37  38
ENDBRANCH   5  37
BRANCH   7  53
ATOM     53  O   UNL     1      -7.512  36.992   6.055  1.00  0.00    -0.507 OA
ATOM     54  H   UNL     1      -6.648  36.951   6.558  1.00  0.00     0.293 HD
ENDBRANCH   7  53
TORSDOF 18
ENDMDL
MODEL 6
REMARK VINA RESULT:    -3.176     15.597     18.858
REMARK INTER + INTRA:          -6.786
REMARK INTER:                  -6.329
REMARK INTRA:                  -0.457
REMARK UNBOUND:                -1.195
REMARK SMILES COc1cc(-c2[o+]c3cc(O)cc(O[C@H]4O[C@H](CO)[C@H](O)[C@H](O)[C@@H]4O)c3cc2O[C@H]2O[C@@H](CO)[C@H](O)[C@@H](O)[C@@H]2O)ccc1O
REMARK SMILES IDX 6 1 28 2 27 3 26 4 13 5 12 6 10 7 9 8 8 9 7 10 5 11 3 12
REMARK SMILES IDX 43 13 4 14 42 15 41 16 2 17 1 18 44 19 29 21 30 22 39 23
REMARK SMILES IDX 31 24 37 25 32 26 35 27 40 28 38 30 33 32 34 33 36 35 14 37
REMARK SMILES IDX 15 38 24 39 16 40 22 41 17 42 20 43 25 44 23 46 18 48 19 49
REMARK SMILES IDX 21 51 11 53
REMARK H PARENT 44 20 40 29 38 31 34 34 36 36 25 45 23 47 19 50 21 52 11 54
REMARK Flexibility Score: inf
ROOT
ATOM      1  C   UNL     1       0.865  44.499   2.897  1.00  0.00     0.402 A 
ATOM      2  C   UNL     1       2.037  45.136   3.447  1.00  0.00     0.229 A 
ATOM      3  C   UNL     1       1.689  46.175   4.369  1.00  0.00     0.079 A 
ATOM      4  C   UNL     1       0.499  46.115   5.096  1.00  0.00     0.126 A 
ATOM      5  C   UNL     1       0.257  46.811   6.255  1.00  0.00     0.143 A 
ATOM      6  C   UNL     1      -1.120  47.125   6.599  1.00  0.00     0.094 A 
ATOM      7  C   UNL     1      -2.153  46.493   5.945  1.00  0.00     0.128 A 
ATOM      8  C   UNL     1      -1.870  45.609   4.906  1.00  0.00     0.162 A 
ATOM      9  C   UNL     1      -0.532  45.469   4.428  1.00  0.00     0.368 A 
ATOM     10  O   UNL     1      -0.322  44.948   3.287  1.00  0.00    -0.202 OA
ENDROOT
BRANCH   1  11
ATOM     11  C   UNL     1       0.901  43.585   1.752  1.00  0.00     0.087 A 
ATOM     12  C   UNL     1       0.159  43.261  -0.568  1.00  0.00     0.161 A 
ATOM     13  C   UNL     1       0.837  42.045  -0.598  1.00  0.00     0.157 A 
ATOM     14  C   UNL     1       0.156  44.034   0.598  1.00  0.00     0.068 A 
ATOM     15  C   UNL     1       1.318  41.488   0.611  1.00  0.00     0.051 A 
ATOM     16  C   UNL     1       1.473  42.315   1.739  1.00  0.00     0.022 A 
BRANCH  12  17
ATOM     17  O   UNL     1      -0.376  43.763  -1.755  1.00  0.00    -0.493 OA
ATOM     18  C   UNL     1      -0.876  45.097  -1.852  1.00  0.00     0.278 C 
ENDBRANCH  12  17
BRANCH  13  19
ATOM     19  O   UNL     1       1.077  41.327  -1.742  1.00  0.00    -0.504 OA
ATOM     20  H   UNL     1       0.977  40.307  -1.775  1.00  0.00     0.293 HD
ENDBRANCH  13  19
ENDBRANCH   1  11
BRANCH   2  21
ATOM     21  O   UNL     1       3.350  44.876   2.918  1.00  0.00    -0.452 OA
BRANCH  21  22
ATOM     22  C   UNL     1       4.731  44.601   2.454  1.00  0.00     0.339 C 
ATOM     23  C   UNL     1       5.412  45.763   1.704  1.00  0.00     0.214 C 
ATOM     24  O   UNL     1       4.677  43.498   1.429  1.00  0.00    -0.332 OA
ATOM     25  C   UNL     1       3.923  45.908   0.769  1.00  0.00     0.180 C 
ATOM     26  C   UNL     1       4.781  43.954   0.070  1.00  0.00     0.179 C 
ATOM     27  C   UNL     1       4.721  45.700  -0.263  1.00  0.00     0.177 C 
BRANCH  23  28
ATOM     28  O   UNL     1       6.766  45.486   1.060  1.00  0.00    -0.384 OA
ATOM     29  H   UNL     1       6.915  45.112   0.116  1.00  0.00     0.211 HD
ENDBRANCH  23  28
BRANCH  25  30
ATOM     30  O   UNL     1       2.730  45.269  -0.020  1.00  0.00    -0.387 OA
ATOM     31  H   UNL     1       1.851  45.723  -0.325  1.00  0.00     0.211 HD
ENDBRANCH  25  30
BRANCH  26  32
ATOM     32  C   UNL     1       4.443  42.698  -0.848  1.00  0.00     0.191 C 
BRANCH  32  33
ATOM     33  O   UNL     1       5.354  41.579  -0.751  1.00  0.00    -0.394 OA
ATOM     34  H   UNL     1       5.647  41.367  -1.663  1.00  0.00     0.210 HD
ENDBRANCH  32  33
ENDBRANCH  26  32
BRANCH  27  35
ATOM     35  O   UNL     1       4.623  47.125  -0.513  1.00  0.00    -0.387 OA
ATOM     36  H   UNL     1       4.916  47.179  -1.426  1.00  0.00     0.211 HD
ENDBRANCH  27  35
ENDBRANCH  21  22
ENDBRANCH   2  21
BRANCH   5  37
ATOM     37  O   UNL     1       1.316  47.123   7.083  1.00  0.00    -0.461 OA
BRANCH  37  38
ATOM     38  C   UNL     1       2.532  46.235   7.016  1.00  0.00     0.339 C 
ATOM     39  C   UNL     1       2.848  45.656   8.371  1.00  0.00     0.214 C 
ATOM     40  O   UNL     1       3.719  46.758   6.353  1.00  0.00    -0.332 OA
ATOM     41  C   UNL     1       3.786  46.587   9.186  1.00  0.00     0.180 C 
ATOM     42  C   UNL     1       5.043  46.849   6.959  1.00  0.00     0.179 C 
ATOM     43  C   UNL     1       5.134  46.790   8.549  1.00  0.00     0.177 C 
BRANCH  39  44
ATOM     44  O   UNL     1       3.548  44.387   8.339  1.00  0.00    -0.384 OA
ATOM     45  H   UNL     1       3.380  43.930   7.482  1.00  0.00     0.211 HD
ENDBRANCH  39  44
BRANCH  41  46
ATOM     46  O   UNL     1       3.838  45.989  10.460  1.00  0.00    -0.387 OA
ATOM     47  H   UNL     1       2.872  45.749  10.644  1.00  0.00     0.211 HD
ENDBRANCH  41  46
BRANCH  42  48
ATOM     48  C   UNL     1       6.244  46.063   6.087  1.00  0.00     0.191 C 
BRANCH  48  49
ATOM     49  O   UNL     1       6.230  46.564   4.745  1.00  0.00    -0.394 OA
ATOM     50  H   UNL     1       5.430  47.170   4.797  1.00  0.00     0.210 HD
ENDBRANCH  48  49
ENDBRANCH  42  48
BRANCH  43  51
ATOM     51  O   UNL     1       5.965  45.733   8.968  1.00  0.00    -0.387 OA
ATOM     52  H   UNL     1       6.834  46.172   9.051  1.00  0.00     0.211 HD
ENDBRANCH  43  51
ENDBRANCH  37  38
ENDBRANCH   5  37
BRANCH   7  53
ATOM     53  O   UNL     1      -3.438  46.937   6.012  1.00  0.00    -0.507 OA
ATOM     54  H   UNL     1      -4.165  46.440   5.534  1.00  0.00     0.293 HD
ENDBRANCH   7  53
TORSDOF 18
ENDMDL
MODEL 7
REMARK VINA RESULT:    -2.705      1.346      2.013
REMARK INTER + INTRA:          -5.955
REMARK INTER:                  -4.953
REMARK INTRA:                  -1.003
REMARK UNBOUND:                -1.195
REMARK SMILES COc1cc(-c2[o+]c3cc(O)cc(O[C@H]4O[C@H](CO)[C@H](O)[C@H](O)[C@@H]4O)c3cc2O[C@H]2O[C@@H](CO)[C@H](O)[C@@H](O)[C@@H]2O)ccc1O
REMARK SMILES IDX 6 1 28 2 27 3 26 4 13 5 12 6 10 7 9 8 8 9 7 10 5 11 3 12
REMARK SMILES IDX 43 13 4 14 42 15 41 16 2 17 1 18 44 19 29 21 30 22 39 23
REMARK SMILES IDX 31 24 37 25 32 26 35 27 40 28 38 30 33 32 34 33 36 35 14 37
REMARK SMILES IDX 15 38 24 39 16 40 22 41 17 42 20 43 25 44 23 46 18 48 19 49
REMARK SMILES IDX 21 51 11 53
REMARK H PARENT 44 20 40 29 38 31 34 34 36 36 25 45 23 47 19 50 21 52 11 54
REMARK Flexibility Score: inf
ROOT
ATOM      1  C   UNL     1      -7.788  31.731   5.828  1.00  0.00     0.402 A 
ATOM      2  C   UNL     1      -9.164  31.445   6.154  1.00  0.00     0.229 A 
ATOM      3  C   UNL     1      -9.848  32.612   6.627  1.00  0.00     0.079 A 
ATOM      4  C   UNL     1      -9.461  33.886   6.205  1.00  0.00     0.126 A 
ATOM      5  C   UNL     1     -10.258  35.002   6.266  1.00  0.00     0.143 A 
ATOM      6  C   UNL     1      -9.619  36.305   6.351  1.00  0.00     0.094 A 
ATOM      7  C   UNL     1      -8.274  36.429   6.080  1.00  0.00     0.128 A 
ATOM      8  C   UNL     1      -7.522  35.291   5.798  1.00  0.00     0.162 A 
ATOM      9  C   UNL     1      -8.105  33.994   5.929  1.00  0.00     0.368 A 
ATOM     10  O   UNL     1      -7.354  32.972   6.014  1.00  0.00    -0.202 OA
ENDROOT
BRANCH   1  11
ATOM     11  C   UNL     1      -6.785  30.695   5.564  1.00  0.00     0.087 A 
ATOM     12  C   UNL     1      -4.497  29.957   6.069  1.00  0.00     0.161 A 
ATOM     13  C   UNL     1      -4.697  28.839   5.264  1.00  0.00     0.157 A 
ATOM     14  C   UNL     1      -5.513  30.907   6.216  1.00  0.00     0.068 A 
ATOM     15  C   UNL     1      -5.829  28.787   4.416  1.00  0.00     0.051 A 
ATOM     16  C   UNL     1      -6.923  29.634   4.672  1.00  0.00     0.022 A 
BRANCH  12  17
ATOM     17  O   UNL     1      -3.339  30.030   6.845  1.00  0.00    -0.493 OA
ATOM     18  C   UNL     1      -3.142  29.196   7.986  1.00  0.00     0.278 C 
ENDBRANCH  12  17
BRANCH  13  19
ATOM     19  O   UNL     1      -3.855  27.756   5.229  1.00  0.00    -0.504 OA
ATOM     20  H   UNL     1      -2.839  27.854   5.332  1.00  0.00     0.293 HD
ENDBRANCH  13  19
ENDBRANCH   1  11
BRANCH   2  21
ATOM     21  O   UNL     1      -9.659  30.095   6.203  1.00  0.00    -0.452 OA
BRANCH  21  22
ATOM     22  C   UNL     1     -10.114  28.684   6.191  1.00  0.00     0.339 C 
ATOM     23  C   UNL     1     -11.616  28.480   6.474  1.00  0.00     0.214 C 
ATOM     24  O   UNL     1      -9.435  27.955   7.322  1.00  0.00    -0.332 OA
ATOM     25  C   UNL     1     -11.413  29.580   7.837  1.00  0.00     0.180 C 
ATOM     26  C   UNL     1     -10.270  27.755   8.475  1.00  0.00     0.179 C 
ATOM     27  C   UNL     1     -11.857  28.556   8.544  1.00  0.00     0.177 C 
BRANCH  23  28
ATOM     28  O   UNL     1     -12.111  27.047   6.637  1.00  0.00    -0.384 OA
ATOM     29  H   UNL     1     -12.653  26.687   7.430  1.00  0.00     0.211 HD
ENDBRANCH  23  28
BRANCH  25  30
ATOM     30  O   UNL     1     -10.607  30.092   9.079  1.00  0.00    -0.387 OA
ATOM     31  H   UNL     1     -10.166  29.529   9.829  1.00  0.00     0.211 HD
ENDBRANCH  25  30
BRANCH  26  32
ATOM     32  C   UNL     1      -9.313  27.220   9.630  1.00  0.00     0.191 C 
BRANCH  32  33
ATOM     33  O   UNL     1      -9.933  27.016  10.921  1.00  0.00    -0.394 OA
ATOM     34  H   UNL     1     -10.613  26.318  10.807  1.00  0.00     0.210 HD
ENDBRANCH  32  33
ENDBRANCH  26  32
BRANCH  27  35
ATOM     35  O   UNL     1     -13.125  29.256   8.597  1.00  0.00    -0.387 OA
ATOM     36  H   UNL     1     -13.713  28.616   8.188  1.00  0.00     0.211 HD
ENDBRANCH  27  35
ENDBRANCH  21  22
ENDBRANCH   2  21
BRANCH   5  37
ATOM     37  O   UNL     1     -11.627  34.855   6.172  1.00  0.00    -0.461 OA
BRANCH  37  38
ATOM     38  C   UNL     1     -12.381  34.576   7.446  1.00  0.00     0.339 C 
ATOM     39  C   UNL     1     -12.009  35.569   8.517  1.00  0.00     0.214 C 
ATOM     40  O   UNL     1     -12.388  33.208   7.946  1.00  0.00    -0.332 OA
ATOM     41  C   UNL     1     -10.783  35.090   9.341  1.00  0.00     0.180 C 
ATOM     42  C   UNL     1     -11.956  32.804   9.281  1.00  0.00     0.179 C 
ATOM     43  C   UNL     1     -11.028  33.811  10.095  1.00  0.00     0.177 C 
BRANCH  39  44
ATOM     44  O   UNL     1     -13.036  35.800   9.513  1.00  0.00    -0.384 OA
ATOM     45  H   UNL     1     -13.249  36.762   9.563  1.00  0.00     0.211 HD
ENDBRANCH  39  44
BRANCH  41  46
ATOM     46  O   UNL     1     -10.473  36.190  10.164  1.00  0.00    -0.387 OA
ATOM     47  H   UNL     1      -9.971  36.811   9.541  1.00  0.00     0.211 HD
ENDBRANCH  41  46
BRANCH  42  48
ATOM     48  C   UNL     1     -13.125  31.961  10.144  1.00  0.00     0.191 C 
BRANCH  48  49
ATOM     49  O   UNL     1     -12.467  31.158  11.132  1.00  0.00    -0.394 OA
ATOM     50  H   UNL     1     -11.524  31.488  11.020  1.00  0.00     0.210 HD
ENDBRANCH  48  49
ENDBRANCH  42  48
BRANCH  43  51
ATOM     51  O   UNL     1     -11.612  34.151  11.330  1.00  0.00    -0.387 OA
ATOM     52  H   UNL     1     -12.565  34.144  11.118  1.00  0.00     0.211 HD
ENDBRANCH  43  51
ENDBRANCH  37  38
ENDBRANCH   5  37
BRANCH   7  53
ATOM     53  O   UNL     1      -7.564  37.542   6.413  1.00  0.00    -0.507 OA
ATOM     54  H   UNL     1      -6.584  37.589   6.212  1.00  0.00     0.293 HD
ENDBRANCH   7  53
TORSDOF 18
ENDMDL
