MODEL 1
REMARK VINA RESULT:    -7.485      0.000      0.000
REMARK INTER + INTRA:          -9.111
REMARK INTER:                  -8.798
REMARK INTRA:                  -0.313
REMARK UNBOUND:                -0.313
REMARK SMILES O=c1cc(-c2ccc(O)c(O)c2)oc2cc(O)cc(O)c12
REMARK SMILES IDX 4 1 3 2 2 3 1 4 21 5 19 6 18 7 16 8 15 9 14 10 13 11 5 12
REMARK SMILES IDX 6 13 7 14 8 15 12 16 10 17 9 18 11 20 20 22 17 24
REMARK H PARENT 9 19 11 21 20 23 17 25
REMARK Flexibility Score: inf
ROOT
ATOM      1  C   UNL     1      14.291 -32.083 -20.130  1.00  0.00     0.138 A 
ATOM      2  C   UNL     1      13.394 -31.007 -20.084  1.00  0.00     0.100 A 
ATOM      3  C   UNL     1      12.077 -31.222 -19.673  1.00  0.00     0.197 A 
ATOM      4  O   UNL     1      11.280 -30.250 -19.702  1.00  0.00    -0.289 OA
ATOM      5  C   UNL     1      11.667 -32.517 -19.276  1.00  0.00     0.107 A 
ATOM      6  C   UNL     1      10.362 -32.846 -18.801  1.00  0.00     0.134 A 
ATOM      7  C   UNL     1      10.037 -34.185 -18.547  1.00  0.00     0.093 A 
ATOM      8  C   UNL     1      10.985 -35.196 -18.694  1.00  0.00     0.123 A 
ATOM      9  C   UNL     1      12.281 -34.880 -19.106  1.00  0.00     0.094 A 
ATOM     10  C   UNL     1      12.625 -33.558 -19.401  1.00  0.00     0.146 A 
ATOM     11  O   UNL     1      13.864 -33.300 -19.804  1.00  0.00    -0.456 OA
ENDROOT
BRANCH   1  12
ATOM     12  C   UNL     1      15.702 -31.911 -20.558  1.00  0.00     0.021 A 
ATOM     13  C   UNL     1      16.333 -30.653 -20.532  1.00  0.00     0.016 A 
ATOM     14  C   UNL     1      17.666 -30.522 -20.931  1.00  0.00     0.051 A 
ATOM     15  C   UNL     1      18.393 -31.638 -21.355  1.00  0.00     0.157 A 
ATOM     16  C   UNL     1      16.442 -33.032 -20.972  1.00  0.00     0.062 A 
ATOM     17  C   UNL     1      17.779 -32.901 -21.374  1.00  0.00     0.158 A 
BRANCH  15  18
ATOM     18  O   UNL     1      19.720 -31.474 -21.748  1.00  0.00    -0.504 OA
ATOM     19  H   UNL     1      20.003 -31.520 -22.719  1.00  0.00     0.293 HD
ENDBRANCH  15  18
BRANCH  17  20
ATOM     20  O   UNL     1      18.498 -34.020 -21.791  1.00  0.00    -0.504 OA
ATOM     21  H   UNL     1      18.037 -34.891 -22.026  1.00  0.00     0.293 HD
ENDBRANCH  17  20
ENDBRANCH   1  12
BRANCH   6  22
ATOM     22  O   UNL     1       9.365 -31.901 -18.539  1.00  0.00    -0.507 OA
ATOM     23  H   UNL     1       9.134 -31.125 -19.139  1.00  0.00     0.293 HD
ENDBRANCH   6  22
BRANCH   8  24
ATOM     24  O   UNL     1      10.631 -36.516 -18.418  1.00  0.00    -0.508 OA
ATOM     25  H   UNL     1       9.689 -36.855 -18.571  1.00  0.00     0.293 HD
ENDBRANCH   8  24
TORSDOF 5
ENDMDL
MODEL 2
REMARK VINA RESULT:    -7.445      1.426      6.870
REMARK INTER + INTRA:          -9.065
REMARK INTER:                  -8.748
REMARK INTRA:                  -0.317
REMARK UNBOUND:                -0.313
REMARK SMILES O=c1cc(-c2ccc(O)c(O)c2)oc2cc(O)cc(O)c12
REMARK SMILES IDX 4 1 3 2 2 3 1 4 21 5 19 6 18 7 16 8 15 9 14 10 13 11 5 12
REMARK SMILES IDX 6 13 7 14 8 15 12 16 10 17 9 18 11 20 20 22 17 24
REMARK H PARENT 9 19 11 21 20 23 17 25
REMARK Flexibility Score: inf
ROOT
ATOM      1  C   UNL     1      14.659 -32.004 -20.153  1.00  0.00     0.138 A 
ATOM      2  C   UNL     1      15.033 -30.654 -20.098  1.00  0.00     0.100 A 
ATOM      3  C   UNL     1      16.318 -30.277 -20.492  1.00  0.00     0.197 A 
ATOM      4  O   UNL     1      16.645 -29.069 -20.373  1.00  0.00    -0.289 OA
ATOM      5  C   UNL     1      17.222 -31.255 -20.972  1.00  0.00     0.107 A 
ATOM      6  C   UNL     1      18.543 -30.982 -21.438  1.00  0.00     0.134 A 
ATOM      7  C   UNL     1      19.388 -32.045 -21.780  1.00  0.00     0.093 A 
ATOM      8  C   UNL     1      18.942 -33.365 -21.731  1.00  0.00     0.123 A 
ATOM      9  C   UNL     1      17.634 -33.641 -21.328  1.00  0.00     0.094 A 
ATOM     10  C   UNL     1      16.778 -32.604 -20.947  1.00  0.00     0.146 A 
ATOM     11  O   UNL     1      15.546 -32.909 -20.556  1.00  0.00    -0.456 OA
ENDROOT
BRANCH   1  12
ATOM     12  C   UNL     1      13.305 -32.460 -19.748  1.00  0.00     0.021 A 
ATOM     13  C   UNL     1      12.258 -31.549 -19.518  1.00  0.00     0.016 A 
ATOM     14  C   UNL     1      10.990 -32.006 -19.148  1.00  0.00     0.051 A 
ATOM     15  C   UNL     1      10.743 -33.375 -19.007  1.00  0.00     0.157 A 
ATOM     16  C   UNL     1      13.048 -33.836 -19.618  1.00  0.00     0.062 A 
ATOM     17  C   UNL     1      11.777 -34.296 -19.245  1.00  0.00     0.158 A 
BRANCH  15  18
ATOM     18  O   UNL     1       9.469 -33.800 -18.635  1.00  0.00    -0.504 OA
ATOM     19  H   UNL     1       8.705 -33.853 -19.297  1.00  0.00     0.293 HD
ENDBRANCH  15  18
BRANCH  17  20
ATOM     20  O   UNL     1      11.538 -35.662 -19.111  1.00  0.00    -0.504 OA
ATOM     21  H   UNL     1      10.789 -36.016 -18.527  1.00  0.00     0.293 HD
ENDBRANCH  17  20
ENDBRANCH   1  12
BRANCH   6  22
ATOM     22  O   UNL     1      19.061 -29.694 -21.606  1.00  0.00    -0.507 OA
ATOM     23  H   UNL     1      19.761 -29.438 -22.285  1.00  0.00     0.293 HD
ENDBRANCH   6  22
BRANCH   8  24
ATOM     24  O   UNL     1      19.805 -34.397 -22.093  1.00  0.00    -0.508 OA
ATOM     25  H   UNL     1      20.202 -35.023 -21.403  1.00  0.00     0.293 HD
ENDBRANCH   8  24
TORSDOF 5
ENDMDL
MODEL 3
REMARK VINA RESULT:    -7.114      1.776      7.364
REMARK INTER + INTRA:          -8.674
REMARK INTER:                  -8.406
REMARK INTRA:                  -0.269
REMARK UNBOUND:                -0.313
REMARK SMILES O=c1cc(-c2ccc(O)c(O)c2)oc2cc(O)cc(O)c12
REMARK SMILES IDX 4 1 3 2 2 3 1 4 21 5 19 6 18 7 16 8 15 9 14 10 13 11 5 12
REMARK SMILES IDX 6 13 7 14 8 15 12 16 10 17 9 18 11 20 20 22 17 24
REMARK H PARENT 9 19 11 21 20 23 17 25
REMARK Flexibility Score: inf
ROOT
ATOM      1  C   UNL     1      15.220 -32.633 -19.908  1.00  0.00     0.138 A 
ATOM      2  C   UNL     1      16.200 -33.368 -20.589  1.00  0.00     0.100 A 
ATOM      3  C   UNL     1      17.326 -32.715 -21.093  1.00  0.00     0.197 A 
ATOM      4  O   UNL     1      18.157 -33.390 -21.754  1.00  0.00    -0.289 OA
ATOM      5  C   UNL     1      17.485 -31.324 -20.886  1.00  0.00     0.107 A 
ATOM      6  C   UNL     1      18.611 -30.561 -21.320  1.00  0.00     0.134 A 
ATOM      7  C   UNL     1      18.604 -29.170 -21.160  1.00  0.00     0.093 A 
ATOM      8  C   UNL     1      17.542 -28.522 -20.531  1.00  0.00     0.123 A 
ATOM      9  C   UNL     1      16.460 -29.264 -20.055  1.00  0.00     0.094 A 
ATOM     10  C   UNL     1      16.421 -30.650 -20.230  1.00  0.00     0.146 A 
ATOM     11  O   UNL     1      15.367 -31.318 -19.775  1.00  0.00    -0.456 OA
ENDROOT
BRANCH   1  12
ATOM     12  C   UNL     1      14.003 -33.276 -19.350  1.00  0.00     0.021 A 
ATOM     13  C   UNL     1      14.019 -33.929 -18.103  1.00  0.00     0.016 A 
ATOM     14  C   UNL     1      12.856 -34.517 -17.598  1.00  0.00     0.051 A 
ATOM     15  C   UNL     1      11.661 -34.459 -18.319  1.00  0.00     0.157 A 
ATOM     16  C   UNL     1      12.795 -33.209 -20.066  1.00  0.00     0.062 A 
ATOM     17  C   UNL     1      11.628 -33.800 -19.560  1.00  0.00     0.158 A 
BRANCH  15  18
ATOM     18  O   UNL     1      10.518 -35.056 -17.789  1.00  0.00    -0.504 OA
ATOM     19  H   UNL     1      10.521 -35.514 -16.885  1.00  0.00     0.293 HD
ENDBRANCH  15  18
BRANCH  17  20
ATOM     20  O   UNL     1      10.439 -33.734 -20.283  1.00  0.00    -0.504 OA
ATOM     21  H   UNL     1       9.983 -34.568 -20.633  1.00  0.00     0.293 HD
ENDBRANCH  17  20
ENDBRANCH   1  12
BRANCH   6  22
ATOM     22  O   UNL     1      19.762 -31.119 -21.884  1.00  0.00    -0.507 OA
ATOM     23  H   UNL     1      20.030 -31.032 -22.851  1.00  0.00     0.293 HD
ENDBRANCH   6  22
BRANCH   8  24
ATOM     24  O   UNL     1      17.576 -27.138 -20.376  1.00  0.00    -0.508 OA
ATOM     25  H   UNL     1      16.903 -26.536 -20.836  1.00  0.00     0.293 HD
ENDBRANCH   8  24
TORSDOF 5
ENDMDL
MODEL 4
REMARK VINA RESULT:    -6.896      1.369      2.396
REMARK INTER + INTRA:          -8.418
REMARK INTER:                  -8.156
REMARK INTRA:                  -0.263
REMARK UNBOUND:                -0.313
REMARK SMILES O=c1cc(-c2ccc(O)c(O)c2)oc2cc(O)cc(O)c12
REMARK SMILES IDX 4 1 3 2 2 3 1 4 21 5 19 6 18 7 16 8 15 9 14 10 13 11 5 12
REMARK SMILES IDX 6 13 7 14 8 15 12 16 10 17 9 18 11 20 20 22 17 24
REMARK H PARENT 9 19 11 21 20 23 17 25
REMARK Flexibility Score: inf
ROOT
ATOM      1  C   UNL     1      14.504 -32.856 -19.614  1.00  0.00     0.138 A 
ATOM      2  C   UNL     1      14.450 -33.611 -18.435  1.00  0.00     0.100 A 
ATOM      3  C   UNL     1      13.219 -34.074 -17.967  1.00  0.00     0.197 A 
ATOM      4  O   UNL     1      13.195 -34.696 -16.874  1.00  0.00    -0.289 OA
ATOM      5  C   UNL     1      12.040 -33.804 -18.703  1.00  0.00     0.107 A 
ATOM      6  C   UNL     1      10.736 -34.260 -18.344  1.00  0.00     0.134 A 
ATOM      7  C   UNL     1       9.627 -33.832 -19.086  1.00  0.00     0.093 A 
ATOM      8  C   UNL     1       9.781 -33.018 -20.207  1.00  0.00     0.123 A 
ATOM      9  C   UNL     1      11.058 -32.610 -20.599  1.00  0.00     0.094 A 
ATOM     10  C   UNL     1      12.180 -32.991 -19.859  1.00  0.00     0.146 A 
ATOM     11  O   UNL     1      13.376 -32.570 -20.256  1.00  0.00    -0.456 OA
ENDROOT
BRANCH   1  12
ATOM     12  C   UNL     1      15.786 -32.339 -20.157  1.00  0.00     0.021 A 
ATOM     13  C   UNL     1      16.252 -31.048 -19.847  1.00  0.00     0.016 A 
ATOM     14  C   UNL     1      17.468 -30.591 -20.364  1.00  0.00     0.051 A 
ATOM     15  C   UNL     1      18.240 -31.412 -21.190  1.00  0.00     0.157 A 
ATOM     16  C   UNL     1      16.574 -33.166 -20.977  1.00  0.00     0.062 A 
ATOM     17  C   UNL     1      17.793 -32.707 -21.498  1.00  0.00     0.158 A 
BRANCH  15  18
ATOM     18  O   UNL     1      19.447 -30.927 -21.690  1.00  0.00    -0.504 OA
ATOM     19  H   UNL     1      20.247 -31.529 -21.844  1.00  0.00     0.293 HD
ENDBRANCH  15  18
BRANCH  17  20
ATOM     20  O   UNL     1      18.560 -33.534 -22.317  1.00  0.00    -0.504 OA
ATOM     21  H   UNL     1      18.195 -33.910 -23.183  1.00  0.00     0.293 HD
ENDBRANCH  17  20
ENDBRANCH   1  12
BRANCH   6  22
ATOM     22  O   UNL     1      10.480 -35.145 -17.293  1.00  0.00    -0.507 OA
ATOM     23  H   UNL     1      11.177 -35.706 -16.828  1.00  0.00     0.293 HD
ENDBRANCH   6  22
BRANCH   8  24
ATOM     24  O   UNL     1       8.658 -32.624 -20.930  1.00  0.00    -0.508 OA
ATOM     25  H   UNL     1       7.862 -33.240 -21.050  1.00  0.00     0.293 HD
ENDBRANCH   8  24
TORSDOF 5
ENDMDL
MODEL 5
REMARK VINA RESULT:    -6.829      3.481      5.443
REMARK INTER + INTRA:          -8.340
REMARK INTER:                  -8.077
REMARK INTRA:                  -0.263
REMARK UNBOUND:                -0.313
REMARK SMILES O=c1cc(-c2ccc(O)c(O)c2)oc2cc(O)cc(O)c12
REMARK SMILES IDX 4 1 3 2 2 3 1 4 21 5 19 6 18 7 16 8 15 9 14 10 13 11 5 12
REMARK SMILES IDX 6 13 7 14 8 15 12 16 10 17 9 18 11 20 20 22 17 24
REMARK H PARENT 9 19 11 21 20 23 17 25
REMARK Flexibility Score: inf
ROOT
ATOM      1  C   UNL     1      17.369 -29.258 -21.452  1.00  0.00     0.138 A 
ATOM      2  C   UNL     1      17.574 -29.194 -20.067  1.00  0.00     0.100 A 
ATOM      3  C   UNL     1      17.014 -30.170 -19.241  1.00  0.00     0.197 A 
ATOM      4  O   UNL     1      17.163 -30.052 -17.997  1.00  0.00    -0.289 OA
ATOM      5  C   UNL     1      16.271 -31.232 -19.810  1.00  0.00     0.107 A 
ATOM      6  C   UNL     1      15.689 -32.305 -19.069  1.00  0.00     0.134 A 
ATOM      7  C   UNL     1      14.876 -33.237 -19.728  1.00  0.00     0.093 A 
ATOM      8  C   UNL     1      14.675 -33.170 -21.105  1.00  0.00     0.123 A 
ATOM      9  C   UNL     1      15.283 -32.157 -21.848  1.00  0.00     0.094 A 
ATOM     10  C   UNL     1      16.071 -31.192 -21.215  1.00  0.00     0.146 A 
ATOM     11  O   UNL     1      16.621 -30.236 -21.955  1.00  0.00    -0.456 OA
ENDROOT
BRANCH   1  12
ATOM     12  C   UNL     1      17.941 -28.248 -22.378  1.00  0.00     0.021 A 
ATOM     13  C   UNL     1      17.138 -27.267 -22.989  1.00  0.00     0.016 A 
ATOM     14  C   UNL     1      17.705 -26.322 -23.848  1.00  0.00     0.051 A 
ATOM     15  C   UNL     1      19.078 -26.333 -24.106  1.00  0.00     0.157 A 
ATOM     16  C   UNL     1      19.324 -28.246 -22.631  1.00  0.00     0.062 A 
ATOM     17  C   UNL     1      19.894 -27.299 -23.494  1.00  0.00     0.158 A 
BRANCH  15  18
ATOM     18  O   UNL     1      19.614 -25.377 -24.969  1.00  0.00    -0.504 OA
ATOM     19  H   UNL     1      19.464 -25.412 -25.970  1.00  0.00     0.293 HD
ENDBRANCH  15  18
BRANCH  17  20
ATOM     20  O   UNL     1      21.265 -27.313 -23.743  1.00  0.00    -0.504 OA
ATOM     21  H   UNL     1      21.678 -26.746 -24.474  1.00  0.00     0.293 HD
ENDBRANCH  17  20
ENDBRANCH   1  12
BRANCH   6  22
ATOM     22  O   UNL     1      15.896 -32.513 -17.702  1.00  0.00    -0.507 OA
ATOM     23  H   UNL     1      15.485 -33.259 -17.164  1.00  0.00     0.293 HD
ENDBRANCH   6  22
BRANCH   8  24
ATOM     24  O   UNL     1      13.873 -34.123 -21.730  1.00  0.00    -0.508 OA
ATOM     25  H   UNL     1      13.738 -35.045 -21.332  1.00  0.00     0.293 HD
ENDBRANCH   8  24
TORSDOF 5
ENDMDL
MODEL 6
REMARK VINA RESULT:    -6.817      2.144      2.474
REMARK INTER + INTRA:          -8.326
REMARK INTER:                  -8.028
REMARK INTRA:                  -0.299
REMARK UNBOUND:                -0.313
REMARK SMILES O=c1cc(-c2ccc(O)c(O)c2)oc2cc(O)cc(O)c12
REMARK SMILES IDX 4 1 3 2 2 3 1 4 21 5 19 6 18 7 16 8 15 9 14 10 13 11 5 12
REMARK SMILES IDX 6 13 7 14 8 15 12 16 10 17 9 18 11 20 20 22 17 24
REMARK H PARENT 9 19 11 21 20 23 17 25
REMARK Flexibility Score: inf
ROOT
ATOM      1  C   UNL     1      15.332 -32.529 -18.656  1.00  0.00     0.138 A 
ATOM      2  C   UNL     1      15.283 -32.119 -17.316  1.00  0.00     0.100 A 
ATOM      3  C   UNL     1      14.294 -32.629 -16.474  1.00  0.00     0.197 A 
ATOM      4  O   UNL     1      14.237 -32.196 -15.295  1.00  0.00    -0.289 OA
ATOM      5  C   UNL     1      13.368 -33.578 -16.970  1.00  0.00     0.107 A 
ATOM      6  C   UNL     1      12.343 -34.196 -16.192  1.00  0.00     0.134 A 
ATOM      7  C   UNL     1      11.411 -35.033 -16.820  1.00  0.00     0.093 A 
ATOM      8  C   UNL     1      11.504 -35.322 -18.180  1.00  0.00     0.123 A 
ATOM      9  C   UNL     1      12.535 -34.766 -18.940  1.00  0.00     0.094 A 
ATOM     10  C   UNL     1      13.459 -33.899 -18.350  1.00  0.00     0.146 A 
ATOM     11  O   UNL     1      14.417 -33.380 -19.110  1.00  0.00    -0.456 OA
ENDROOT
BRANCH   1  12
ATOM     12  C   UNL     1      16.363 -32.020 -19.595  1.00  0.00     0.021 A 
ATOM     13  C   UNL     1      16.811 -30.686 -19.548  1.00  0.00     0.016 A 
ATOM     14  C   UNL     1      17.790 -30.236 -20.437  1.00  0.00     0.051 A 
ATOM     15  C   UNL     1      18.343 -31.105 -21.382  1.00  0.00     0.157 A 
ATOM     16  C   UNL     1      16.932 -32.893 -20.538  1.00  0.00     0.062 A 
ATOM     17  C   UNL     1      17.914 -32.442 -21.433  1.00  0.00     0.158 A 
BRANCH  15  18
ATOM     18  O   UNL     1      19.317 -30.626 -22.256  1.00  0.00    -0.504 OA
ATOM     19  H   UNL     1      20.183 -30.217 -21.926  1.00  0.00     0.293 HD
ENDBRANCH  15  18
BRANCH  17  20
ATOM     20  O   UNL     1      18.465 -33.316 -22.368  1.00  0.00    -0.504 OA
ATOM     21  H   UNL     1      19.407 -33.193 -22.720  1.00  0.00     0.293 HD
ENDBRANCH  17  20
ENDBRANCH   1  12
BRANCH   6  22
ATOM     22  O   UNL     1      12.211 -34.042 -14.809  1.00  0.00    -0.507 OA
ATOM     23  H   UNL     1      11.545 -34.534 -14.235  1.00  0.00     0.293 HD
ENDBRANCH   6  22
BRANCH   8  24
ATOM     24  O   UNL     1      10.569 -36.171 -18.768  1.00  0.00    -0.508 OA
ATOM     25  H   UNL     1       9.840 -35.818 -19.376  1.00  0.00     0.293 HD
ENDBRANCH   8  24
TORSDOF 5
ENDMDL
MODEL 7
REMARK VINA RESULT:    -6.661      6.570      8.862
REMARK INTER + INTRA:          -8.143
REMARK INTER:                  -7.835
REMARK INTRA:                  -0.308
REMARK UNBOUND:                -0.313
REMARK SMILES O=c1cc(-c2ccc(O)c(O)c2)oc2cc(O)cc(O)c12
REMARK SMILES IDX 4 1 3 2 2 3 1 4 21 5 19 6 18 7 16 8 15 9 14 10 13 11 5 12
REMARK SMILES IDX 6 13 7 14 8 15 12 16 10 17 9 18 11 20 20 22 17 24
REMARK H PARENT 9 19 11 21 20 23 17 25
REMARK Flexibility Score: inf
ROOT
ATOM      1  C   UNL     1      17.161 -26.203 -18.562  1.00  0.00     0.138 A 
ATOM      2  C   UNL     1      16.766 -25.434 -19.666  1.00  0.00     0.100 A 
ATOM      3  C   UNL     1      16.919 -25.947 -20.955  1.00  0.00     0.197 A 
ATOM      4  O   UNL     1      16.614 -25.210 -21.928  1.00  0.00    -0.289 OA
ATOM      5  C   UNL     1      17.441 -27.250 -21.136  1.00  0.00     0.107 A 
ATOM      6  C   UNL     1      17.603 -27.892 -22.401  1.00  0.00     0.134 A 
ATOM      7  C   UNL     1      18.239 -29.139 -22.465  1.00  0.00     0.093 A 
ATOM      8  C   UNL     1      18.662 -29.792 -21.308  1.00  0.00     0.123 A 
ATOM      9  C   UNL     1      18.460 -29.198 -20.061  1.00  0.00     0.094 A 
ATOM     10  C   UNL     1      17.860 -27.939 -19.967  1.00  0.00     0.146 A 
ATOM     11  O   UNL     1      17.699 -27.401 -18.763  1.00  0.00    -0.456 OA
ENDROOT
BRANCH   1  12
ATOM     12  C   UNL     1      17.020 -25.706 -17.170  1.00  0.00     0.021 A 
ATOM     13  C   UNL     1      15.999 -24.807 -16.806  1.00  0.00     0.016 A 
ATOM     14  C   UNL     1      15.884 -24.364 -15.486  1.00  0.00     0.051 A 
ATOM     15  C   UNL     1      16.775 -24.812 -14.507  1.00  0.00     0.157 A 
ATOM     16  C   UNL     1      17.906 -26.164 -16.179  1.00  0.00     0.062 A 
ATOM     17  C   UNL     1      17.791 -25.718 -14.854  1.00  0.00     0.158 A 
BRANCH  15  18
ATOM     18  O   UNL     1      16.635 -24.351 -13.199  1.00  0.00    -0.504 OA
ATOM     19  H   UNL     1      16.414 -24.972 -12.431  1.00  0.00     0.293 HD
ENDBRANCH  15  18
BRANCH  17  20
ATOM     20  O   UNL     1      18.681 -26.173 -13.883  1.00  0.00    -0.504 OA
ATOM     21  H   UNL     1      18.626 -27.114 -13.511  1.00  0.00     0.293 HD
ENDBRANCH  17  20
ENDBRANCH   1  12
BRANCH   6  22
ATOM     22  O   UNL     1      17.139 -27.365 -23.609  1.00  0.00    -0.507 OA
ATOM     23  H   UNL     1      16.676 -26.476 -23.710  1.00  0.00     0.293 HD
ENDBRANCH   6  22
BRANCH   8  24
ATOM     24  O   UNL     1      19.277 -31.039 -21.408  1.00  0.00    -0.508 OA
ATOM     25  H   UNL     1      19.171 -31.742 -20.687  1.00  0.00     0.293 HD
ENDBRANCH   8  24
TORSDOF 5
ENDMDL
MODEL 8
REMARK VINA RESULT:    -6.620      1.658      2.748
REMARK INTER + INTRA:          -8.095
REMARK INTER:                  -7.832
REMARK INTRA:                  -0.262
REMARK UNBOUND:                -0.313
REMARK SMILES O=c1cc(-c2ccc(O)c(O)c2)oc2cc(O)cc(O)c12
REMARK SMILES IDX 4 1 3 2 2 3 1 4 21 5 19 6 18 7 16 8 15 9 14 10 13 11 5 12
REMARK SMILES IDX 6 13 7 14 8 15 12 16 10 17 9 18 11 20 20 22 17 24
REMARK H PARENT 9 19 11 21 20 23 17 25
REMARK Flexibility Score: inf
ROOT
ATOM      1  C   UNL     1      14.448 -32.849 -19.299  1.00  0.00     0.138 A 
ATOM      2  C   UNL     1      14.387 -33.338 -17.987  1.00  0.00     0.100 A 
ATOM      3  C   UNL     1      13.152 -33.683 -17.436  1.00  0.00     0.197 A 
ATOM      4  O   UNL     1      13.121 -34.060 -16.236  1.00  0.00    -0.289 OA
ATOM      5  C   UNL     1      11.976 -33.565 -18.215  1.00  0.00     0.107 A 
ATOM      6  C   UNL     1      10.668 -33.925 -17.772  1.00  0.00     0.134 A 
ATOM      7  C   UNL     1       9.564 -33.656 -18.591  1.00  0.00     0.093 A 
ATOM      8  C   UNL     1       9.725 -33.096 -19.857  1.00  0.00     0.123 A 
ATOM      9  C   UNL     1      11.005 -32.790 -20.323  1.00  0.00     0.094 A 
ATOM     10  C   UNL     1      12.124 -33.015 -19.516  1.00  0.00     0.146 A 
ATOM     11  O   UNL     1      13.323 -32.696 -19.990  1.00  0.00    -0.456 OA
ENDROOT
BRANCH   1  12
ATOM     12  C   UNL     1      15.735 -32.468 -19.935  1.00  0.00     0.021 A 
ATOM     13  C   UNL     1      16.420 -33.345 -20.797  1.00  0.00     0.016 A 
ATOM     14  C   UNL     1      17.625 -32.956 -21.390  1.00  0.00     0.051 A 
ATOM     15  C   UNL     1      18.162 -31.690 -21.141  1.00  0.00     0.157 A 
ATOM     16  C   UNL     1      16.273 -31.191 -19.699  1.00  0.00     0.062 A 
ATOM     17  C   UNL     1      17.482 -30.801 -20.292  1.00  0.00     0.158 A 
BRANCH  15  18
ATOM     18  O   UNL     1      19.366 -31.333 -21.747  1.00  0.00    -0.504 OA
ATOM     19  H   UNL     1      19.428 -30.574 -22.413  1.00  0.00     0.293 HD
ENDBRANCH  15  18
BRANCH  17  20
ATOM     20  O   UNL     1      18.009 -29.535 -20.043  1.00  0.00    -0.504 OA
ATOM     21  H   UNL     1      17.751 -28.732 -20.605  1.00  0.00     0.293 HD
ENDBRANCH  17  20
ENDBRANCH   1  12
BRANCH   6  22
ATOM     22  O   UNL     1      10.404 -34.567 -16.559  1.00  0.00    -0.507 OA
ATOM     23  H   UNL     1      10.194 -34.098 -15.692  1.00  0.00     0.293 HD
ENDBRANCH   6  22
BRANCH   8  24
ATOM     24  O   UNL     1       8.606 -32.856 -20.651  1.00  0.00    -0.508 OA
ATOM     25  H   UNL     1       8.171 -33.594 -21.192  1.00  0.00     0.293 HD
ENDBRANCH   8  24
TORSDOF 5
ENDMDL
MODEL 9
REMARK VINA RESULT:    -6.523      2.615      3.192
REMARK INTER + INTRA:          -7.981
REMARK INTER:                  -7.717
REMARK INTRA:                  -0.263
REMARK UNBOUND:                -0.313
REMARK SMILES O=c1cc(-c2ccc(O)c(O)c2)oc2cc(O)cc(O)c12
REMARK SMILES IDX 4 1 3 2 2 3 1 4 21 5 19 6 18 7 16 8 15 9 14 10 13 11 5 12
REMARK SMILES IDX 6 13 7 14 8 15 12 16 10 17 9 18 11 20 20 22 17 24
REMARK H PARENT 9 19 11 21 20 23 17 25
REMARK Flexibility Score: inf
ROOT
ATOM      1  C   UNL     1      15.838 -32.450 -19.593  1.00  0.00     0.138 A 
ATOM      2  C   UNL     1      14.654 -32.992 -20.112  1.00  0.00     0.100 A 
ATOM      3  C   UNL     1      13.642 -33.398 -19.241  1.00  0.00     0.197 A 
ATOM      4  O   UNL     1      12.618 -33.939 -19.732  1.00  0.00    -0.289 OA
ATOM      5  C   UNL     1      13.805 -33.231 -17.845  1.00  0.00     0.107 A 
ATOM      6  C   UNL     1      12.824 -33.571 -16.866  1.00  0.00     0.134 A 
ATOM      7  C   UNL     1      13.143 -33.469 -15.506  1.00  0.00     0.093 A 
ATOM      8  C   UNL     1      14.382 -32.984 -15.091  1.00  0.00     0.123 A 
ATOM      9  C   UNL     1      15.330 -32.597 -16.040  1.00  0.00     0.094 A 
ATOM     10  C   UNL     1      15.054 -32.720 -17.404  1.00  0.00     0.146 A 
ATOM     11  O   UNL     1      15.988 -32.354 -18.276  1.00  0.00    -0.456 OA
ENDROOT
BRANCH   1  12
ATOM     12  C   UNL     1      16.947 -32.000 -20.473  1.00  0.00     0.021 A 
ATOM     13  C   UNL     1      17.378 -30.661 -20.491  1.00  0.00     0.016 A 
ATOM     14  C   UNL     1      18.431 -30.267 -21.322  1.00  0.00     0.051 A 
ATOM     15  C   UNL     1      19.074 -31.199 -22.141  1.00  0.00     0.157 A 
ATOM     16  C   UNL     1      17.606 -32.936 -21.289  1.00  0.00     0.062 A 
ATOM     17  C   UNL     1      18.662 -32.542 -22.124  1.00  0.00     0.158 A 
BRANCH  15  18
ATOM     18  O   UNL     1      20.120 -30.776 -22.959  1.00  0.00    -0.504 OA
ATOM     19  H   UNL     1      20.343 -31.240 -23.831  1.00  0.00     0.293 HD
ENDBRANCH  15  18
BRANCH  17  20
ATOM     20  O   UNL     1      19.301 -33.478 -22.934  1.00  0.00    -0.504 OA
ATOM     21  H   UNL     1      18.801 -34.259 -23.341  1.00  0.00     0.293 HD
ENDBRANCH  17  20
ENDBRANCH   1  12
BRANCH   6  22
ATOM     22  O   UNL     1      11.525 -33.986 -17.173  1.00  0.00    -0.507 OA
ATOM     23  H   UNL     1      10.975 -34.620 -16.614  1.00  0.00     0.293 HD
ENDBRANCH   6  22
BRANCH   8  24
ATOM     24  O   UNL     1      14.659 -32.881 -13.729  1.00  0.00    -0.508 OA
ATOM     25  H   UNL     1      14.463 -32.033 -13.210  1.00  0.00     0.293 HD
ENDBRANCH   8  24
TORSDOF 5
ENDMDL
