MODEL 1
REMARK VINA RESULT:     0.138      0.000      0.000
REMARK INTER + INTRA:          -0.504
REMARK INTER:                   0.268
REMARK INTRA:                  -0.771
REMARK UNBOUND:                -0.771
REMARK SMILES CCCCCCCCCCCCCCCCCC(=O)[O-]
REMARK SMILES IDX 10 1 11 2 12 3 13 4 14 5 15 6 16 7 17 8 18 9 19 10 20 11
REMARK SMILES IDX 9 12 8 13 7 14 6 15 5 16 4 17 3 18 2 19 1 20
REMARK H PARENT
REMARK Flexibility Score: inf
ROOT
ATOM      1  C   UNL     1      20.868  54.813  33.410  1.00  0.00     0.000 C 
ENDROOT
BRANCH   1   2
ATOM      2  C   UNL     1      20.082  54.939  32.095  1.00  0.00     0.000 C 
BRANCH   2   3
ATOM      3  C   UNL     1      20.681  54.082  30.966  1.00  0.00     0.000 C 
BRANCH   3   4
ATOM      4  C   UNL     1      20.545  54.744  29.586  1.00  0.00     0.000 C 
BRANCH   4   5
ATOM      5  C   UNL     1      20.724  53.747  28.428  1.00  0.00     0.000 C 
BRANCH   5   6
ATOM      6  C   UNL     1      21.606  52.548  28.812  1.00  0.00     0.000 C 
BRANCH   6   7
ATOM      7  C   UNL     1      21.978  51.675  27.601  1.00  0.00     0.006 C 
BRANCH   7   8
ATOM      8  C   UNL     1      23.448  51.844  27.196  1.00  0.00     0.053 C 
BRANCH   8   9
ATOM      9  C   UNL     1      23.589  52.600  25.910  1.00  0.00     0.041 C 
ATOM     10  O   UNL     1      23.033  53.722  25.772  1.00  0.00    -0.550 OA
ATOM     11  O   UNL     1      24.299  52.047  24.852  1.00  0.00    -0.550 OA
ENDBRANCH   8   9
ENDBRANCH   7   8
ENDBRANCH   6   7
ENDBRANCH   5   6
ENDBRANCH   4   5
ENDBRANCH   3   4
ENDBRANCH   2   3
ENDBRANCH   1   2
BRANCH   1  12
ATOM     12  C   UNL     1      19.958  54.843  34.648  1.00  0.00     0.000 C 
BRANCH  12  13
ATOM     13  C   UNL     1      20.118  53.561  35.478  1.00  0.00    -0.000 C 
BRANCH  13  14
ATOM     14  C   UNL     1      21.579  53.272  35.862  1.00  0.00    -0.000 C 
BRANCH  14  15
ATOM     15  C   UNL     1      22.497  54.509  35.930  1.00  0.00    -0.000 C 
BRANCH  15  16
ATOM     16  C   UNL     1      24.007  54.208  35.883  1.00  0.00    -0.000 C 
BRANCH  16  17
ATOM     17  C   UNL     1      24.770  54.906  34.742  1.00  0.00    -0.000 C 
BRANCH  17  18
ATOM     18  C   UNL     1      23.924  55.111  33.466  1.00  0.00    -0.000 C 
BRANCH  18  19
ATOM     19  C   UNL     1      24.779  55.117  32.190  1.00  0.00    -0.003 C 
ATOM     20  C   UNL     1      24.285  54.075  31.191  1.00  0.00     0.004 C 
ENDBRANCH  18  19
ENDBRANCH  17  18
ENDBRANCH  16  17
ENDBRANCH  15  16
ENDBRANCH  14  15
ENDBRANCH  13  14
ENDBRANCH  12  13
ENDBRANCH   1  12
TORSDOF 16
ENDMDL
