MODEL 1
REMARK VINA RESULT:    -3.302      0.000      0.000
REMARK INTER + INTRA:          -4.414
REMARK INTER:                  -4.074
REMARK INTRA:                  -0.341
REMARK UNBOUND:                -0.341
REMARK SMILES Oc1cc(O)c2cc(O)c(-c3cc(O)c(O)c(O)c3)[o+]c2c1
REMARK SMILES IDX 10 1 20 2 21 3 22 4 2 5 3 6 4 7 6 8 7 9 8 10 11 11 12 12
REMARK SMILES IDX 13 13 19 14 15 15 17 16 14 17 16 19 18 21 9 23 1 25 5 27
REMARK H PARENT 14 18 16 20 18 22 9 24 1 26 5 28
REMARK Flexibility Score: inf
ROOT
ATOM      1  C   UNL     1      -4.443  13.249 -32.371  1.00  0.00     0.402 A 
ATOM      2  O   UNL     1      -4.614  12.199 -33.171  1.00  0.00    -0.202 OA
ATOM      3  C   UNL     1      -5.446  12.199 -34.207  1.00  0.00     0.368 A 
ATOM      4  C   UNL     1      -5.555  11.048 -34.992  1.00  0.00     0.162 A 
ATOM      5  C   UNL     1      -6.420  11.021 -36.090  1.00  0.00     0.128 A 
ATOM      6  C   UNL     1      -7.179  12.151 -36.404  1.00  0.00     0.093 A 
ATOM      7  C   UNL     1      -7.088  13.316 -35.633  1.00  0.00     0.136 A 
ATOM      8  C   UNL     1      -6.213  13.348 -34.517  1.00  0.00     0.125 A 
ATOM      9  C   UNL     1      -6.068  14.467 -33.681  1.00  0.00     0.078 A 
ATOM     10  C   UNL     1      -5.188  14.422 -32.595  1.00  0.00     0.223 A 
ENDROOT
BRANCH   1  11
ATOM     11  C   UNL     1      -3.479  13.129 -31.254  1.00  0.00     0.091 A 
ATOM     12  C   UNL     1      -3.910  12.893 -29.938  1.00  0.00     0.068 A 
ATOM     13  C   UNL     1      -2.983  12.804 -28.889  1.00  0.00     0.162 A 
ATOM     14  C   UNL     1      -2.109  13.311 -31.502  1.00  0.00     0.068 A 
ATOM     15  C   UNL     1      -1.612  12.966 -29.151  1.00  0.00     0.200 A 
ATOM     16  C   UNL     1      -1.178  13.223 -30.462  1.00  0.00     0.162 A 
BRANCH  13  17
ATOM     17  O   UNL     1      -3.422  12.564 -27.588  1.00  0.00    -0.504 OA
ATOM     18  H   UNL     1      -3.046  11.804 -27.032  1.00  0.00     0.293 HD
ENDBRANCH  13  17
BRANCH  15  19
ATOM     19  O   UNL     1      -0.675  12.877 -28.120  1.00  0.00    -0.502 OA
ATOM     20  H   UNL     1      -0.861  12.367 -27.264  1.00  0.00     0.293 HD
ENDBRANCH  15  19
BRANCH  16  21
ATOM     21  O   UNL     1       0.175  13.396 -30.753  1.00  0.00    -0.504 OA
ATOM     22  H   UNL     1       0.850  12.648 -30.644  1.00  0.00     0.293 HD
ENDBRANCH  16  21
ENDBRANCH   1  11
BRANCH  10  23
ATOM     23  O   UNL     1      -5.080  15.515 -31.736  1.00  0.00    -0.500 OA
ATOM     24  H   UNL     1      -4.845  15.400 -30.756  1.00  0.00     0.294 HD
ENDBRANCH  10  23
BRANCH   5  25
ATOM     25  O   UNL     1      -6.534   9.877 -36.875  1.00  0.00    -0.507 OA
ATOM     26  H   UNL     1      -6.179   8.981 -36.562  1.00  0.00     0.293 HD
ENDBRANCH   5  25
BRANCH   7  27
ATOM     27  O   UNL     1      -7.878  14.404 -36.017  1.00  0.00    -0.507 OA
ATOM     28  H   UNL     1      -8.775  14.629 -35.610  1.00  0.00     0.293 HD
ENDBRANCH   7  27
TORSDOF 7
ENDMDL
MODEL 2
REMARK VINA RESULT:    -3.295      0.139      1.796
REMARK INTER + INTRA:          -4.407
REMARK INTER:                  -4.038
REMARK INTRA:                  -0.369
REMARK UNBOUND:                -0.341
REMARK SMILES Oc1cc(O)c2cc(O)c(-c3cc(O)c(O)c(O)c3)[o+]c2c1
REMARK SMILES IDX 10 1 20 2 21 3 22 4 2 5 3 6 4 7 6 8 7 9 8 10 11 11 12 12
REMARK SMILES IDX 13 13 19 14 15 15 17 16 14 17 16 19 18 21 9 23 1 25 5 27
REMARK H PARENT 14 18 16 20 18 22 9 24 1 26 5 28
REMARK Flexibility Score: inf
ROOT
ATOM      1  C   UNL     1      -4.467  13.247 -32.349  1.00  0.00     0.402 A 
ATOM      2  O   UNL     1      -4.641  12.197 -33.148  1.00  0.00    -0.202 OA
ATOM      3  C   UNL     1      -5.468  12.200 -34.188  1.00  0.00     0.368 A 
ATOM      4  C   UNL     1      -5.581  11.048 -34.971  1.00  0.00     0.162 A 
ATOM      5  C   UNL     1      -6.442  11.025 -36.072  1.00  0.00     0.128 A 
ATOM      6  C   UNL     1      -7.194  12.158 -36.391  1.00  0.00     0.093 A 
ATOM      7  C   UNL     1      -7.100  13.324 -35.622  1.00  0.00     0.136 A 
ATOM      8  C   UNL     1      -6.229  13.353 -34.502  1.00  0.00     0.125 A 
ATOM      9  C   UNL     1      -6.081  14.472 -33.667  1.00  0.00     0.078 A 
ATOM     10  C   UNL     1      -5.205  14.424 -32.578  1.00  0.00     0.223 A 
ENDROOT
BRANCH   1  11
ATOM     11  C   UNL     1      -3.508  13.124 -31.229  1.00  0.00     0.091 A 
ATOM     12  C   UNL     1      -2.131  13.328 -31.420  1.00  0.00     0.068 A 
ATOM     13  C   UNL     1      -1.234  13.184 -30.351  1.00  0.00     0.162 A 
ATOM     14  C   UNL     1      -3.972  12.738 -29.962  1.00  0.00     0.068 A 
ATOM     15  C   UNL     1      -1.711  12.820 -29.080  1.00  0.00     0.200 A 
ATOM     16  C   UNL     1      -3.085  12.594 -28.890  1.00  0.00     0.162 A 
BRANCH  13  17
ATOM     17  O   UNL     1       0.129  13.396 -30.550  1.00  0.00    -0.504 OA
ATOM     18  H   UNL     1       0.618  14.166 -30.108  1.00  0.00     0.293 HD
ENDBRANCH  13  17
BRANCH  15  19
ATOM     19  O   UNL     1      -0.834  12.677 -28.004  1.00  0.00    -0.502 OA
ATOM     20  H   UNL     1      -0.306  13.457 -27.630  1.00  0.00     0.293 HD
ENDBRANCH  15  19
BRANCH  16  21
ATOM     21  O   UNL     1      -3.589  12.224 -27.643  1.00  0.00    -0.504 OA
ATOM     22  H   UNL     1      -4.563  11.980 -27.506  1.00  0.00     0.293 HD
ENDBRANCH  16  21
ENDBRANCH   1  11
BRANCH  10  23
ATOM     23  O   UNL     1      -5.094  15.517 -31.720  1.00  0.00    -0.500 OA
ATOM     24  H   UNL     1      -4.504  15.490 -30.896  1.00  0.00     0.294 HD
ENDBRANCH  10  23
BRANCH   5  25
ATOM     25  O   UNL     1      -6.559   9.880 -36.857  1.00  0.00    -0.507 OA
ATOM     26  H   UNL     1      -5.779   9.247 -36.991  1.00  0.00     0.293 HD
ENDBRANCH   5  25
BRANCH   7  27
ATOM     27  O   UNL     1      -7.883  14.415 -36.010  1.00  0.00    -0.507 OA
ATOM     28  H   UNL     1      -8.458  14.438 -36.840  1.00  0.00     0.293 HD
ENDBRANCH   7  27
TORSDOF 7
ENDMDL
MODEL 3
REMARK VINA RESULT:    -2.009      1.374      6.977
REMARK INTER + INTRA:          -2.820
REMARK INTER:                  -2.856
REMARK INTRA:                   0.036
REMARK UNBOUND:                -0.341
REMARK SMILES Oc1cc(O)c2cc(O)c(-c3cc(O)c(O)c(O)c3)[o+]c2c1
REMARK SMILES IDX 10 1 20 2 21 3 22 4 2 5 3 6 4 7 6 8 7 9 8 10 11 11 12 12
REMARK SMILES IDX 13 13 19 14 15 15 17 16 14 17 16 19 18 21 9 23 1 25 5 27
REMARK H PARENT 14 18 16 20 18 22 9 24 1 26 5 28
REMARK Flexibility Score: inf
ROOT
ATOM      1  C   UNL     1      -4.622  12.881 -32.523  1.00  0.00     0.402 A 
ATOM      2  O   UNL     1      -4.464  11.881 -31.660  1.00  0.00    -0.202 OA
ATOM      3  C   UNL     1      -3.765  11.992 -30.535  1.00  0.00     0.368 A 
ATOM      4  C   UNL     1      -3.658  10.885 -29.689  1.00  0.00     0.162 A 
ATOM      5  C   UNL     1      -2.931  10.975 -28.498  1.00  0.00     0.128 A 
ATOM      6  C   UNL     1      -2.308  12.176 -28.152  1.00  0.00     0.093 A 
ATOM      7  C   UNL     1      -2.400  13.300 -28.983  1.00  0.00     0.136 A 
ATOM      8  C   UNL     1      -3.135  13.214 -30.194  1.00  0.00     0.125 A 
ATOM      9  C   UNL     1      -3.269  14.283 -31.094  1.00  0.00     0.078 A 
ATOM     10  C   UNL     1      -4.007  14.122 -32.271  1.00  0.00     0.223 A 
ENDROOT
BRANCH   1  11
ATOM     11  C   UNL     1      -5.434  12.637 -33.737  1.00  0.00     0.091 A 
ATOM     12  C   UNL     1      -6.320  13.609 -34.233  1.00  0.00     0.068 A 
ATOM     13  C   UNL     1      -7.097  13.350 -35.371  1.00  0.00     0.162 A 
ATOM     14  C   UNL     1      -5.362  11.389 -34.375  1.00  0.00     0.068 A 
ATOM     15  C   UNL     1      -7.001  12.105 -36.017  1.00  0.00     0.200 A 
ATOM     16  C   UNL     1      -6.132  11.123 -35.512  1.00  0.00     0.162 A 
BRANCH  13  17
ATOM     17  O   UNL     1      -7.967  14.323 -35.858  1.00  0.00    -0.504 OA
ATOM     18  H   UNL     1      -8.306  14.304 -36.813  1.00  0.00     0.293 HD
ENDBRANCH  13  17
BRANCH  15  19
ATOM     19  O   UNL     1      -7.764  11.833 -37.153  1.00  0.00    -0.502 OA
ATOM     20  H   UNL     1      -8.716  11.491 -37.096  1.00  0.00     0.293 HD
ENDBRANCH  15  19
BRANCH  16  21
ATOM     21  O   UNL     1      -6.021   9.875 -36.125  1.00  0.00    -0.504 OA
ATOM     22  H   UNL     1      -5.132   9.509 -36.443  1.00  0.00     0.293 HD
ENDBRANCH  16  21
ENDBRANCH   1  11
BRANCH  10  23
ATOM     23  O   UNL     1      -4.099  15.168 -33.188  1.00  0.00    -0.500 OA
ATOM     24  H   UNL     1      -4.776  15.155 -33.943  1.00  0.00     0.294 HD
ENDBRANCH  10  23
BRANCH   5  25
ATOM     25  O   UNL     1      -2.819   9.875 -27.650  1.00  0.00    -0.507 OA
ATOM     26  H   UNL     1      -1.918   9.473 -27.419  1.00  0.00     0.293 HD
ENDBRANCH   5  25
BRANCH   7  27
ATOM     27  O   UNL     1      -1.752  14.464 -28.563  1.00  0.00    -0.507 OA
ATOM     28  H   UNL     1      -0.757  14.539 -28.405  1.00  0.00     0.293 HD
ENDBRANCH   7  27
TORSDOF 7
ENDMDL
MODEL 4
REMARK VINA RESULT:    -1.789      1.412      7.017
REMARK INTER + INTRA:          -2.548
REMARK INTER:                  -2.710
REMARK INTRA:                   0.162
REMARK UNBOUND:                -0.341
REMARK SMILES Oc1cc(O)c2cc(O)c(-c3cc(O)c(O)c(O)c3)[o+]c2c1
REMARK SMILES IDX 10 1 20 2 21 3 22 4 2 5 3 6 4 7 6 8 7 9 8 10 11 11 12 12
REMARK SMILES IDX 13 13 19 14 15 15 17 16 14 17 16 19 18 21 9 23 1 25 5 27
REMARK H PARENT 14 18 16 20 18 22 9 24 1 26 5 28
REMARK Flexibility Score: inf
ROOT
ATOM      1  C   UNL     1      -4.735  12.828 -32.517  1.00  0.00     0.402 A 
ATOM      2  O   UNL     1      -4.513  11.827 -31.670  1.00  0.00    -0.202 OA
ATOM      3  C   UNL     1      -3.845  11.969 -30.530  1.00  0.00     0.368 A 
ATOM      4  C   UNL     1      -3.666  10.857 -29.703  1.00  0.00     0.162 A 
ATOM      5  C   UNL     1      -2.969  10.980 -28.497  1.00  0.00     0.128 A 
ATOM      6  C   UNL     1      -2.449  12.219 -28.117  1.00  0.00     0.093 A 
ATOM      7  C   UNL     1      -2.615  13.348 -28.928  1.00  0.00     0.136 A 
ATOM      8  C   UNL     1      -3.320  13.229 -30.154  1.00  0.00     0.125 A 
ATOM      9  C   UNL     1      -3.522  14.303 -31.036  1.00  0.00     0.078 A 
ATOM     10  C   UNL     1      -4.224  14.108 -32.230  1.00  0.00     0.223 A 
ENDROOT
BRANCH   1  11
ATOM     11  C   UNL     1      -5.503  12.545 -33.751  1.00  0.00     0.091 A 
ATOM     12  C   UNL     1      -5.357  11.330 -34.441  1.00  0.00     0.068 A 
ATOM     13  C   UNL     1      -6.076  11.088 -35.620  1.00  0.00     0.162 A 
ATOM     14  C   UNL     1      -6.352  13.531 -34.277  1.00  0.00     0.068 A 
ATOM     15  C   UNL     1      -6.941  12.073 -36.127  1.00  0.00     0.200 A 
ATOM     16  C   UNL     1      -7.075  13.298 -35.451  1.00  0.00     0.162 A 
BRANCH  13  17
ATOM     17  O   UNL     1      -5.928   9.877 -36.292  1.00  0.00    -0.504 OA
ATOM     18  H   UNL     1      -6.551   9.095 -36.124  1.00  0.00     0.293 HD
ENDBRANCH  13  17
BRANCH  15  19
ATOM     19  O   UNL     1      -7.668  11.848 -37.296  1.00  0.00    -0.502 OA
ATOM     20  H   UNL     1      -7.783  12.561 -38.007  1.00  0.00     0.293 HD
ENDBRANCH  15  19
BRANCH  16  21
ATOM     21  O   UNL     1      -7.920  14.298 -35.933  1.00  0.00    -0.504 OA
ATOM     22  H   UNL     1      -8.681  14.100 -36.570  1.00  0.00     0.293 HD
ENDBRANCH  16  21
ENDBRANCH   1  11
BRANCH  10  23
ATOM     23  O   UNL     1      -4.383  15.162 -33.129  1.00  0.00    -0.500 OA
ATOM     24  H   UNL     1      -5.240  15.288 -33.656  1.00  0.00     0.294 HD
ENDBRANCH  10  23
BRANCH   5  25
ATOM     25  O   UNL     1      -2.786   9.875 -27.668  1.00  0.00    -0.507 OA
ATOM     26  H   UNL     1      -1.875   9.641 -27.290  1.00  0.00     0.293 HD
ENDBRANCH   5  25
BRANCH   7  27
ATOM     27  O   UNL     1      -2.068  14.552 -28.475  1.00  0.00    -0.507 OA
ATOM     28  H   UNL     1      -1.955  14.797 -27.501  1.00  0.00     0.293 HD
ENDBRANCH   7  27
TORSDOF 7
ENDMDL
MODEL 5
REMARK VINA RESULT:    -1.456      4.109      5.460
REMARK INTER + INTRA:          -2.137
REMARK INTER:                  -1.757
REMARK INTRA:                  -0.380
REMARK UNBOUND:                -0.341
REMARK SMILES Oc1cc(O)c2cc(O)c(-c3cc(O)c(O)c(O)c3)[o+]c2c1
REMARK SMILES IDX 10 1 20 2 21 3 22 4 2 5 3 6 4 7 6 8 7 9 8 10 11 11 12 12
REMARK SMILES IDX 13 13 19 14 15 15 17 16 14 17 16 19 18 21 9 23 1 25 5 27
REMARK H PARENT 14 18 16 20 18 22 9 24 1 26 5 28
REMARK Flexibility Score: inf
ROOT
ATOM      1  C   UNL     1      -3.899  13.388 -29.502  1.00  0.00     0.402 A 
ATOM      2  O   UNL     1      -4.273  14.558 -30.013  1.00  0.00    -0.202 OA
ATOM      3  C   UNL     1      -5.452  15.119 -29.765  1.00  0.00     0.368 A 
ATOM      4  C   UNL     1      -5.754  16.354 -30.347  1.00  0.00     0.162 A 
ATOM      5  C   UNL     1      -6.986  16.967 -30.101  1.00  0.00     0.128 A 
ATOM      6  C   UNL     1      -7.920  16.344 -29.270  1.00  0.00     0.093 A 
ATOM      7  C   UNL     1      -7.642  15.107 -28.676  1.00  0.00     0.136 A 
ATOM      8  C   UNL     1      -6.394  14.478 -28.924  1.00  0.00     0.125 A 
ATOM      9  C   UNL     1      -6.035  13.234 -28.382  1.00  0.00     0.078 A 
ATOM     10  C   UNL     1      -4.787  12.674 -28.675  1.00  0.00     0.223 A 
ENDROOT
BRANCH   1  11
ATOM     11  C   UNL     1      -2.554  12.873 -29.844  1.00  0.00     0.091 A 
ATOM     12  C   UNL     1      -1.422  13.225 -29.090  1.00  0.00     0.068 A 
ATOM     13  C   UNL     1      -0.152  12.745 -29.443  1.00  0.00     0.162 A 
ATOM     14  C   UNL     1      -2.394  12.062 -30.979  1.00  0.00     0.068 A 
ATOM     15  C   UNL     1      -0.006  11.914 -30.568  1.00  0.00     0.200 A 
ATOM     16  C   UNL     1      -1.132  11.577 -31.337  1.00  0.00     0.162 A 
BRANCH  13  17
ATOM     17  O   UNL     1       0.963  13.095 -28.685  1.00  0.00    -0.504 OA
ATOM     18  H   UNL     1       1.905  12.997 -29.047  1.00  0.00     0.293 HD
ENDBRANCH  13  17
BRANCH  15  19
ATOM     19  O   UNL     1       1.249  11.424 -30.931  1.00  0.00    -0.502 OA
ATOM     20  H   UNL     1       2.076  11.586 -30.369  1.00  0.00     0.293 HD
ENDBRANCH  15  19
BRANCH  16  21
ATOM     21  O   UNL     1      -1.019  10.762 -32.463  1.00  0.00    -0.504 OA
ATOM     22  H   UNL     1      -0.137  10.626 -32.943  1.00  0.00     0.293 HD
ENDBRANCH  16  21
ENDBRANCH   1  11
BRANCH  10  23
ATOM     23  O   UNL     1      -4.449  11.416 -28.178  1.00  0.00    -0.500 OA
ATOM     24  H   UNL     1      -5.065  10.619 -28.286  1.00  0.00     0.294 HD
ENDBRANCH  10  23
BRANCH   5  25
ATOM     25  O   UNL     1      -7.294  18.197 -30.678  1.00  0.00    -0.507 OA
ATOM     26  H   UNL     1      -7.915  18.268 -31.476  1.00  0.00     0.293 HD
ENDBRANCH   5  25
BRANCH   7  27
ATOM     27  O   UNL     1      -8.628  14.552 -27.855  1.00  0.00    -0.507 OA
ATOM     28  H   UNL     1      -8.535  14.427 -26.857  1.00  0.00     0.293 HD
ENDBRANCH   7  27
TORSDOF 7
ENDMDL
MODEL 6
REMARK VINA RESULT:    -1.384      1.106      2.545
REMARK INTER + INTRA:          -2.049
REMARK INTER:                  -1.673
REMARK INTRA:                  -0.376
REMARK UNBOUND:                -0.341
REMARK SMILES Oc1cc(O)c2cc(O)c(-c3cc(O)c(O)c(O)c3)[o+]c2c1
REMARK SMILES IDX 10 1 20 2 21 3 22 4 2 5 3 6 4 7 6 8 7 9 8 10 11 11 12 12
REMARK SMILES IDX 13 13 19 14 15 15 17 16 14 17 16 19 18 21 9 23 1 25 5 27
REMARK H PARENT 14 18 16 20 18 22 9 24 1 26 5 28
REMARK Flexibility Score: inf
ROOT
ATOM      1  C   UNL     1      -4.274  12.206 -32.131  1.00  0.00     0.402 A 
ATOM      2  O   UNL     1      -4.977  13.104 -32.817  1.00  0.00    -0.202 OA
ATOM      3  C   UNL     1      -5.718  12.797 -33.876  1.00  0.00     0.368 A 
ATOM      4  C   UNL     1      -6.424  13.810 -34.530  1.00  0.00     0.162 A 
ATOM      5  C   UNL     1      -7.213  13.513 -35.646  1.00  0.00     0.128 A 
ATOM      6  C   UNL     1      -7.296  12.198 -36.109  1.00  0.00     0.093 A 
ATOM      7  C   UNL     1      -6.598  11.165 -35.472  1.00  0.00     0.136 A 
ATOM      8  C   UNL     1      -5.794  11.461 -34.340  1.00  0.00     0.125 A 
ATOM      9  C   UNL     1      -5.050  10.493 -33.648  1.00  0.00     0.078 A 
ATOM     10  C   UNL     1      -4.276  10.860 -32.543  1.00  0.00     0.223 A 
ENDROOT
BRANCH   1  11
ATOM     11  C   UNL     1      -3.495  12.672 -30.961  1.00  0.00     0.091 A 
ATOM     12  C   UNL     1      -4.083  12.786 -29.690  1.00  0.00     0.068 A 
ATOM     13  C   UNL     1      -3.335  13.251 -28.598  1.00  0.00     0.162 A 
ATOM     14  C   UNL     1      -2.158  13.062 -31.133  1.00  0.00     0.068 A 
ATOM     15  C   UNL     1      -1.990  13.618 -28.776  1.00  0.00     0.200 A 
ATOM     16  C   UNL     1      -1.405  13.525 -30.050  1.00  0.00     0.162 A 
BRANCH  13  17
ATOM     17  O   UNL     1      -3.926  13.354 -27.341  1.00  0.00    -0.504 OA
ATOM     18  H   UNL     1      -4.802  12.891 -27.125  1.00  0.00     0.293 HD
ENDBRANCH  13  17
BRANCH  15  19
ATOM     19  O   UNL     1      -1.230  14.078 -27.700  1.00  0.00    -0.502 OA
ATOM     20  H   UNL     1      -0.941  15.045 -27.617  1.00  0.00     0.293 HD
ENDBRANCH  15  19
BRANCH  16  21
ATOM     21  O   UNL     1      -0.074  13.889 -30.260  1.00  0.00    -0.504 OA
ATOM     22  H   UNL     1       0.533  14.171 -29.501  1.00  0.00     0.293 HD
ENDBRANCH  16  21
ENDBRANCH   1  11
BRANCH  10  23
ATOM     23  O   UNL     1      -3.497   9.908 -31.885  1.00  0.00    -0.500 OA
ATOM     24  H   UNL     1      -2.512  10.061 -31.702  1.00  0.00     0.294 HD
ENDBRANCH  10  23
BRANCH   5  25
ATOM     25  O   UNL     1      -7.919  14.519 -36.303  1.00  0.00    -0.507 OA
ATOM     26  H   UNL     1      -8.924  14.468 -36.425  1.00  0.00     0.293 HD
ENDBRANCH   5  25
BRANCH   7  27
ATOM     27  O   UNL     1      -6.738   9.877 -35.995  1.00  0.00    -0.507 OA
ATOM     28  H   UNL     1      -6.270   9.059 -35.631  1.00  0.00     0.293 HD
ENDBRANCH   7  27
TORSDOF 7
ENDMDL
MODEL 7
REMARK VINA RESULT:    -1.194      1.341      7.010
REMARK INTER + INTRA:          -1.814
REMARK INTER:                  -1.841
REMARK INTRA:                   0.027
REMARK UNBOUND:                -0.341
REMARK SMILES Oc1cc(O)c2cc(O)c(-c3cc(O)c(O)c(O)c3)[o+]c2c1
REMARK SMILES IDX 10 1 20 2 21 3 22 4 2 5 3 6 4 7 6 8 7 9 8 10 11 11 12 12
REMARK SMILES IDX 13 13 19 14 15 15 17 16 14 17 16 19 18 21 9 23 1 25 5 27
REMARK H PARENT 14 18 16 20 18 22 9 24 1 26 5 28
REMARK Flexibility Score: inf
ROOT
ATOM      1  C   UNL     1      -4.272  13.161 -32.054  1.00  0.00     0.402 A 
ATOM      2  O   UNL     1      -2.994  12.788 -32.054  1.00  0.00    -0.202 OA
ATOM      3  C   UNL     1      -2.165  13.026 -31.043  1.00  0.00     0.368 A 
ATOM      4  C   UNL     1      -0.840  12.593 -31.134  1.00  0.00     0.162 A 
ATOM      5  C   UNL     1       0.053  12.828 -30.084  1.00  0.00     0.128 A 
ATOM      6  C   UNL     1      -0.381  13.499 -28.939  1.00  0.00     0.093 A 
ATOM      7  C   UNL     1      -1.704  13.944 -28.824  1.00  0.00     0.136 A 
ATOM      8  C   UNL     1      -2.614  13.710 -29.887  1.00  0.00     0.125 A 
ATOM      9  C   UNL     1      -3.953  14.131 -29.864  1.00  0.00     0.078 A 
ATOM     10  C   UNL     1      -4.790  13.868 -30.953  1.00  0.00     0.223 A 
ENDROOT
BRANCH   1  11
ATOM     11  C   UNL     1      -5.098  12.828 -33.237  1.00  0.00     0.091 A 
ATOM     12  C   UNL     1      -5.960  13.774 -33.816  1.00  0.00     0.068 A 
ATOM     13  C   UNL     1      -6.752  13.434 -34.922  1.00  0.00     0.162 A 
ATOM     14  C   UNL     1      -5.066  11.525 -33.756  1.00  0.00     0.068 A 
ATOM     15  C   UNL     1      -6.696  12.133 -35.450  1.00  0.00     0.200 A 
ATOM     16  C   UNL     1      -5.851  11.177 -34.860  1.00  0.00     0.162 A 
BRANCH  13  17
ATOM     17  O   UNL     1      -7.599  14.382 -35.493  1.00  0.00    -0.504 OA
ATOM     18  H   UNL     1      -7.289  14.988 -36.246  1.00  0.00     0.293 HD
ENDBRANCH  13  17
BRANCH  15  19
ATOM     19  O   UNL     1      -7.474  11.778 -36.553  1.00  0.00    -0.502 OA
ATOM     20  H   UNL     1      -8.062  12.446 -37.037  1.00  0.00     0.293 HD
ENDBRANCH  15  19
BRANCH  16  21
ATOM     21  O   UNL     1      -5.779   9.875 -35.356  1.00  0.00    -0.504 OA
ATOM     22  H   UNL     1      -5.783   9.066 -34.747  1.00  0.00     0.293 HD
ENDBRANCH  16  21
ENDBRANCH   1  11
BRANCH  10  23
ATOM     23  O   UNL     1      -6.106  14.329 -30.952  1.00  0.00    -0.500 OA
ATOM     24  H   UNL     1      -6.856  13.798 -30.524  1.00  0.00     0.294 HD
ENDBRANCH  10  23
BRANCH   5  25
ATOM     25  O   UNL     1       1.376  12.399 -30.169  1.00  0.00    -0.507 OA
ATOM     26  H   UNL     1       1.709  11.860 -30.960  1.00  0.00     0.293 HD
ENDBRANCH   5  25
BRANCH   7  27
ATOM     27  O   UNL     1      -2.059  14.604 -27.644  1.00  0.00    -0.507 OA
ATOM     28  H   UNL     1      -1.400  14.939 -26.956  1.00  0.00     0.293 HD
ENDBRANCH   7  27
TORSDOF 7
ENDMDL
MODEL 8
REMARK VINA RESULT:    -0.872      2.284      7.596
REMARK INTER + INTRA:          -1.416
REMARK INTER:                  -1.639
REMARK INTRA:                   0.223
REMARK UNBOUND:                -0.341
REMARK SMILES Oc1cc(O)c2cc(O)c(-c3cc(O)c(O)c(O)c3)[o+]c2c1
REMARK SMILES IDX 10 1 20 2 21 3 22 4 2 5 3 6 4 7 6 8 7 9 8 10 11 11 12 12
REMARK SMILES IDX 13 13 19 14 15 15 17 16 14 17 16 19 18 21 9 23 1 25 5 27
REMARK H PARENT 14 18 16 20 18 22 9 24 1 26 5 28
REMARK Flexibility Score: inf
ROOT
ATOM      1  C   UNL     1      -4.127  11.927 -30.611  1.00  0.00     0.402 A 
ATOM      2  O   UNL     1      -4.516  12.823 -29.707  1.00  0.00    -0.202 OA
ATOM      3  C   UNL     1      -4.130  12.792 -28.436  1.00  0.00     0.368 A 
ATOM      4  C   UNL     1      -4.590  13.781 -27.561  1.00  0.00     0.162 A 
ATOM      5  C   UNL     1      -4.198  13.773 -26.219  1.00  0.00     0.128 A 
ATOM      6  C   UNL     1      -3.343  12.773 -25.750  1.00  0.00     0.093 A 
ATOM      7  C   UNL     1      -2.869  11.771 -26.606  1.00  0.00     0.136 A 
ATOM      8  C   UNL     1      -3.266  11.772 -27.968  1.00  0.00     0.125 A 
ATOM      9  C   UNL     1      -2.852  10.802 -28.894  1.00  0.00     0.078 A 
ATOM     10  C   UNL     1      -3.288  10.866 -30.221  1.00  0.00     0.223 A 
ENDROOT
BRANCH   1  11
ATOM     11  C   UNL     1      -4.617  12.075 -32.000  1.00  0.00     0.091 A 
ATOM     12  C   UNL     1      -4.892  13.340 -32.547  1.00  0.00     0.068 A 
ATOM     13  C   UNL     1      -5.377  13.460 -33.857  1.00  0.00     0.162 A 
ATOM     14  C   UNL     1      -4.868  10.929 -32.769  1.00  0.00     0.068 A 
ATOM     15  C   UNL     1      -5.603  12.307 -34.628  1.00  0.00     0.200 A 
ATOM     16  C   UNL     1      -5.350  11.039 -34.077  1.00  0.00     0.162 A 
BRANCH  13  17
ATOM     17  O   UNL     1      -5.640  14.719 -34.392  1.00  0.00    -0.504 OA
ATOM     18  H   UNL     1      -5.193  15.555 -34.031  1.00  0.00     0.293 HD
ENDBRANCH  13  17
BRANCH  15  19
ATOM     19  O   UNL     1      -6.081  12.407 -35.935  1.00  0.00    -0.502 OA
ATOM     20  H   UNL     1      -5.756  13.121 -36.576  1.00  0.00     0.293 HD
ENDBRANCH  15  19
BRANCH  16  21
ATOM     21  O   UNL     1      -5.572   9.875 -34.814  1.00  0.00    -0.504 OA
ATOM     22  H   UNL     1      -6.503   9.567 -35.066  1.00  0.00     0.293 HD
ENDBRANCH  16  21
ENDBRANCH   1  11
BRANCH  10  23
ATOM     23  O   UNL     1      -2.917   9.875 -31.129  1.00  0.00    -0.500 OA
ATOM     24  H   UNL     1      -1.954   9.754 -31.421  1.00  0.00     0.294 HD
ENDBRANCH  10  23
BRANCH   5  25
ATOM     25  O   UNL     1      -4.652  14.755 -25.342  1.00  0.00    -0.507 OA
ATOM     26  H   UNL     1      -4.214  15.668 -25.295  1.00  0.00     0.293 HD
ENDBRANCH   5  25
BRANCH   7  27
ATOM     27  O   UNL     1      -2.015  10.809 -26.059  1.00  0.00    -0.507 OA
ATOM     28  H   UNL     1      -1.023  10.939 -25.921  1.00  0.00     0.293 HD
ENDBRANCH   7  27
TORSDOF 7
ENDMDL
MODEL 9
REMARK VINA RESULT:    -0.844      2.274      7.560
REMARK INTER + INTRA:          -1.383
REMARK INTER:                  -1.582
REMARK INTRA:                   0.199
REMARK UNBOUND:                -0.341
REMARK SMILES Oc1cc(O)c2cc(O)c(-c3cc(O)c(O)c(O)c3)[o+]c2c1
REMARK SMILES IDX 10 1 20 2 21 3 22 4 2 5 3 6 4 7 6 8 7 9 8 10 11 11 12 12
REMARK SMILES IDX 13 13 19 14 15 15 17 16 14 17 16 19 18 21 9 23 1 25 5 27
REMARK H PARENT 14 18 16 20 18 22 9 24 1 26 5 28
REMARK Flexibility Score: inf
ROOT
ATOM      1  C   UNL     1      -4.192  11.910 -30.646  1.00  0.00     0.402 A 
ATOM      2  O   UNL     1      -4.586  12.814 -29.753  1.00  0.00    -0.202 OA
ATOM      3  C   UNL     1      -4.181  12.815 -28.487  1.00  0.00     0.368 A 
ATOM      4  C   UNL     1      -4.648  13.810 -27.624  1.00  0.00     0.162 A 
ATOM      5  C   UNL     1      -4.236  13.835 -26.288  1.00  0.00     0.128 A 
ATOM      6  C   UNL     1      -3.353  12.862 -25.814  1.00  0.00     0.093 A 
ATOM      7  C   UNL     1      -2.871  11.855 -26.659  1.00  0.00     0.136 A 
ATOM      8  C   UNL     1      -3.288  11.823 -28.015  1.00  0.00     0.125 A 
ATOM      9  C   UNL     1      -2.867  10.844 -28.929  1.00  0.00     0.078 A 
ATOM     10  C   UNL     1      -3.324  10.875 -30.251  1.00  0.00     0.223 A 
ENDROOT
BRANCH   1  11
ATOM     11  C   UNL     1      -4.706  12.022 -32.030  1.00  0.00     0.091 A 
ATOM     12  C   UNL     1      -4.912  10.884 -32.828  1.00  0.00     0.068 A 
ATOM     13  C   UNL     1      -5.378  11.011 -34.144  1.00  0.00     0.162 A 
ATOM     14  C   UNL     1      -4.938  13.292 -32.579  1.00  0.00     0.068 A 
ATOM     15  C   UNL     1      -5.630  12.287 -34.678  1.00  0.00     0.200 A 
ATOM     16  C   UNL     1      -5.404  13.428 -33.891  1.00  0.00     0.162 A 
BRANCH  13  17
ATOM     17  O   UNL     1      -5.585   9.875 -34.924  1.00  0.00    -0.504 OA
ATOM     18  H   UNL     1      -6.144   9.097 -34.593  1.00  0.00     0.293 HD
ENDBRANCH  13  17
BRANCH  15  19
ATOM     19  O   UNL     1      -6.098  12.432 -35.984  1.00  0.00    -0.502 OA
ATOM     20  H   UNL     1      -6.875  11.890 -36.343  1.00  0.00     0.293 HD
ENDBRANCH  15  19
BRANCH  16  21
ATOM     21  O   UNL     1      -5.637  14.709 -34.394  1.00  0.00    -0.504 OA
ATOM     22  H   UNL     1      -6.389  15.294 -34.050  1.00  0.00     0.293 HD
ENDBRANCH  16  21
ENDBRANCH   1  11
BRANCH  10  23
ATOM     23  O   UNL     1      -2.946   9.875 -31.146  1.00  0.00    -0.500 OA
ATOM     24  H   UNL     1      -3.176   9.929 -32.132  1.00  0.00     0.294 HD
ENDBRANCH  10  23
BRANCH   5  25
ATOM     25  O   UNL     1      -4.699  14.823 -25.422  1.00  0.00    -0.507 OA
ATOM     26  H   UNL     1      -5.686  14.933 -25.222  1.00  0.00     0.293 HD
ENDBRANCH   5  25
BRANCH   7  27
ATOM     27  O   UNL     1      -1.988  10.922 -26.108  1.00  0.00    -0.507 OA
ATOM     28  H   UNL     1      -1.011  11.100 -25.924  1.00  0.00     0.293 HD
ENDBRANCH   7  27
TORSDOF 7
ENDMDL
