MODEL 1
REMARK VINA RESULT:    -7.666      0.000      0.000
REMARK INTER + INTRA:          -9.191
REMARK INTER:                  -9.010
REMARK INTRA:                  -0.181
REMARK UNBOUND:                -0.181
REMARK SMILES O=c1c(O)c(-c2ccc(O)cc2)oc2cc(O)cc(O)c12
REMARK SMILES IDX 5 1 3 2 2 3 1 4 21 5 19 6 18 7 16 8 15 9 14 10 13 11 6 12
REMARK SMILES IDX 7 13 8 14 9 15 12 16 11 17 10 18 4 20 20 22 17 24
REMARK H PARENT 10 19 4 21 20 23 17 25
REMARK Flexibility Score: inf
ROOT
ATOM      1  C   UNL     1     167.697 151.262 147.182  1.00  0.00     0.180 A 
ATOM      2  C   UNL     1     168.572 152.359 147.257  1.00  0.00     0.208 A 
ATOM      3  C   UNL     1     169.956 152.126 147.320  1.00  0.00     0.238 A 
ATOM      4  O   UNL     1     170.728 153.109 147.463  1.00  0.00    -0.285 OA
ATOM      5  C   UNL     1     170.450 150.800 147.250  1.00  0.00     0.111 A 
ATOM      6  C   UNL     1     171.834 150.448 147.259  1.00  0.00     0.134 A 
ATOM      7  C   UNL     1     172.202 149.097 147.292  1.00  0.00     0.093 A 
ATOM      8  C   UNL     1     171.243 148.087 147.252  1.00  0.00     0.123 A 
ATOM      9  C   UNL     1     169.889 148.419 147.186  1.00  0.00     0.094 A 
ATOM     10  C   UNL     1     169.488 149.758 147.191  1.00  0.00     0.146 A 
ATOM     11  O   UNL     1     168.190 150.029 147.149  1.00  0.00    -0.452 OA
ENDROOT
BRANCH   1  12
ATOM     12  C   UNL     1     166.228 151.428 147.126  1.00  0.00     0.021 A 
ATOM     13  C   UNL     1     165.404 151.034 148.197  1.00  0.00     0.016 A 
ATOM     14  C   UNL     1     164.016 151.178 148.111  1.00  0.00     0.047 A 
ATOM     15  C   UNL     1     163.433 151.704 146.951  1.00  0.00     0.115 A 
ATOM     16  C   UNL     1     165.632 151.934 145.958  1.00  0.00     0.016 A 
ATOM     17  C   UNL     1     164.244 152.077 145.876  1.00  0.00     0.047 A 
BRANCH  15  18
ATOM     18  O   UNL     1     162.051 151.853 146.854  1.00  0.00    -0.508 OA
ATOM     19  H   UNL     1     161.416 151.240 147.352  1.00  0.00     0.293 HD
ENDBRANCH  15  18
ENDBRANCH   1  12
BRANCH   2  20
ATOM     20  O   UNL     1     168.068 153.663 147.249  1.00  0.00    -0.502 OA
ATOM     21  H   UNL     1     167.831 154.160 148.099  1.00  0.00     0.293 HD
ENDBRANCH   2  20
BRANCH   6  22
ATOM     22  O   UNL     1     172.878 151.376 147.212  1.00  0.00    -0.507 OA
ATOM     23  H   UNL     1     173.449 151.645 147.998  1.00  0.00     0.293 HD
ENDBRANCH   6  22
BRANCH   8  24
ATOM     24  O   UNL     1     171.647 146.755 147.268  1.00  0.00    -0.508 OA
ATOM     25  H   UNL     1     172.273 146.398 147.980  1.00  0.00     0.293 HD
ENDBRANCH   8  24
TORSDOF 5
ENDMDL
MODEL 2
REMARK VINA RESULT:    -7.645      4.729      7.095
REMARK INTER + INTRA:          -9.167
REMARK INTER:                  -8.890
REMARK INTRA:                  -0.277
REMARK UNBOUND:                -0.181
REMARK SMILES O=c1c(O)c(-c2ccc(O)cc2)oc2cc(O)cc(O)c12
REMARK SMILES IDX 5 1 3 2 2 3 1 4 21 5 19 6 18 7 16 8 15 9 14 10 13 11 6 12
REMARK SMILES IDX 7 13 8 14 9 15 12 16 11 17 10 18 4 20 20 22 17 24
REMARK H PARENT 10 19 4 21 20 23 17 25
REMARK Flexibility Score: inf
ROOT
ATOM      1  C   UNL     1     165.025 152.759 150.719  1.00  0.00     0.180 A 
ATOM      2  C   UNL     1     165.512 152.613 149.409  1.00  0.00     0.208 A 
ATOM      3  C   UNL     1     165.249 151.422 148.712  1.00  0.00     0.238 A 
ATOM      4  O   UNL     1     165.753 151.269 147.568  1.00  0.00    -0.285 OA
ATOM      5  C   UNL     1     164.453 150.416 149.312  1.00  0.00     0.111 A 
ATOM      6  C   UNL     1     164.085 149.189 148.681  1.00  0.00     0.134 A 
ATOM      7  C   UNL     1     163.383 148.221 149.411  1.00  0.00     0.093 A 
ATOM      8  C   UNL     1     162.982 148.459 150.723  1.00  0.00     0.123 A 
ATOM      9  C   UNL     1     163.288 149.678 151.332  1.00  0.00     0.094 A 
ATOM     10  C   UNL     1     164.020 150.648 150.643  1.00  0.00     0.146 A 
ATOM     11  O   UNL     1     164.309 151.784 151.266  1.00  0.00    -0.452 OA
ENDROOT
BRANCH   1  12
ATOM     12  C   UNL     1     165.273 153.977 151.521  1.00  0.00     0.021 A 
ATOM     13  C   UNL     1     164.470 155.124 151.383  1.00  0.00     0.016 A 
ATOM     14  C   UNL     1     164.740 156.272 152.134  1.00  0.00     0.047 A 
ATOM     15  C   UNL     1     165.823 156.293 153.022  1.00  0.00     0.115 A 
ATOM     16  C   UNL     1     166.371 154.016 152.398  1.00  0.00     0.016 A 
ATOM     17  C   UNL     1     166.638 155.165 153.148  1.00  0.00     0.047 A 
BRANCH  15  18
ATOM     18  O   UNL     1     166.101 157.431 153.777  1.00  0.00    -0.508 OA
ATOM     19  H   UNL     1     166.107 158.354 153.360  1.00  0.00     0.293 HD
ENDBRANCH  15  18
ENDBRANCH   1  12
BRANCH   2  20
ATOM     20  O   UNL     1     166.232 153.650 148.806  1.00  0.00    -0.502 OA
ATOM     21  H   UNL     1     166.920 154.197 149.308  1.00  0.00     0.293 HD
ENDBRANCH   2  20
BRANCH   6  22
ATOM     22  O   UNL     1     164.359 148.882 147.345  1.00  0.00    -0.507 OA
ATOM     23  H   UNL     1     165.242 148.539 146.999  1.00  0.00     0.293 HD
ENDBRANCH   6  22
BRANCH   8  24
ATOM     24  O   UNL     1     162.269 147.482 151.413  1.00  0.00    -0.508 OA
ATOM     25  H   UNL     1     161.422 147.702 151.922  1.00  0.00     0.293 HD
ENDBRANCH   8  24
TORSDOF 5
ENDMDL
MODEL 3
REMARK VINA RESULT:    -7.583      4.784      7.311
REMARK INTER + INTRA:          -9.093
REMARK INTER:                  -8.828
REMARK INTRA:                  -0.266
REMARK UNBOUND:                -0.181
REMARK SMILES O=c1c(O)c(-c2ccc(O)cc2)oc2cc(O)cc(O)c12
REMARK SMILES IDX 5 1 3 2 2 3 1 4 21 5 19 6 18 7 16 8 15 9 14 10 13 11 6 12
REMARK SMILES IDX 7 13 8 14 9 15 12 16 11 17 10 18 4 20 20 22 17 24
REMARK H PARENT 10 19 4 21 20 23 17 25
REMARK Flexibility Score: inf
ROOT
ATOM      1  C   UNL     1     164.885 153.134 151.253  1.00  0.00     0.180 A 
ATOM      2  C   UNL     1     164.034 152.229 151.910  1.00  0.00     0.208 A 
ATOM      3  C   UNL     1     163.686 151.030 151.268  1.00  0.00     0.238 A 
ATOM      4  O   UNL     1     162.865 150.260 151.831  1.00  0.00    -0.285 OA
ATOM      5  C   UNL     1     164.240 150.724 150.001  1.00  0.00     0.111 A 
ATOM      6  C   UNL     1     163.994 149.517 149.278  1.00  0.00     0.134 A 
ATOM      7  C   UNL     1     164.511 149.370 147.984  1.00  0.00     0.093 A 
ATOM      8  C   UNL     1     165.316 150.354 147.414  1.00  0.00     0.123 A 
ATOM      9  C   UNL     1     165.609 151.514 148.133  1.00  0.00     0.094 A 
ATOM     10  C   UNL     1     165.076 151.707 149.410  1.00  0.00     0.146 A 
ATOM     11  O   UNL     1     165.362 152.833 150.051  1.00  0.00    -0.452 OA
ENDROOT
BRANCH   1  12
ATOM     12  C   UNL     1     165.284 154.424 151.860  1.00  0.00     0.021 A 
ATOM     13  C   UNL     1     166.308 154.498 152.821  1.00  0.00     0.016 A 
ATOM     14  C   UNL     1     166.649 155.725 153.398  1.00  0.00     0.047 A 
ATOM     15  C   UNL     1     165.964 156.890 153.032  1.00  0.00     0.115 A 
ATOM     16  C   UNL     1     164.586 155.595 151.515  1.00  0.00     0.016 A 
ATOM     17  C   UNL     1     164.931 156.820 152.093  1.00  0.00     0.047 A 
BRANCH  15  18
ATOM     18  O   UNL     1     166.296 158.118 153.599  1.00  0.00    -0.508 OA
ATOM     19  H   UNL     1     166.034 158.351 154.550  1.00  0.00     0.293 HD
ENDBRANCH  15  18
ENDBRANCH   1  12
BRANCH   2  20
ATOM     20  O   UNL     1     163.559 152.516 153.194  1.00  0.00    -0.502 OA
ATOM     21  H   UNL     1     163.516 153.459 153.560  1.00  0.00     0.293 HD
ENDBRANCH   2  20
BRANCH   6  22
ATOM     22  O   UNL     1     163.276 148.431 149.787  1.00  0.00    -0.507 OA
ATOM     23  H   UNL     1     162.329 148.474 150.133  1.00  0.00     0.293 HD
ENDBRANCH   6  22
BRANCH   8  24
ATOM     24  O   UNL     1     165.828 150.165 146.133  1.00  0.00    -0.508 OA
ATOM     25  H   UNL     1     166.727 150.546 145.859  1.00  0.00     0.293 HD
ENDBRANCH   8  24
TORSDOF 5
ENDMDL
MODEL 4
REMARK VINA RESULT:    -7.384      1.364      6.424
REMARK INTER + INTRA:          -8.860
REMARK INTER:                  -8.642
REMARK INTRA:                  -0.218
REMARK UNBOUND:                -0.181
REMARK SMILES O=c1c(O)c(-c2ccc(O)cc2)oc2cc(O)cc(O)c12
REMARK SMILES IDX 5 1 3 2 2 3 1 4 21 5 19 6 18 7 16 8 15 9 14 10 13 11 6 12
REMARK SMILES IDX 7 13 8 14 9 15 12 16 11 17 10 18 4 20 20 22 17 24
REMARK H PARENT 10 19 4 21 20 23 17 25
REMARK Flexibility Score: inf
ROOT
ATOM      1  C   UNL     1     169.440 149.575 146.970  1.00  0.00     0.180 A 
ATOM      2  C   UNL     1     170.040 150.819 147.228  1.00  0.00     0.208 A 
ATOM      3  C   UNL     1     169.243 151.975 147.223  1.00  0.00     0.238 A 
ATOM      4  O   UNL     1     169.800 153.093 147.381  1.00  0.00    -0.285 OA
ATOM      5  C   UNL     1     167.846 151.866 147.018  1.00  0.00     0.111 A 
ATOM      6  C   UNL     1     166.934 152.965 147.038  1.00  0.00     0.134 A 
ATOM      7  C   UNL     1     165.588 152.752 146.716  1.00  0.00     0.093 A 
ATOM      8  C   UNL     1     165.108 151.474 146.438  1.00  0.00     0.123 A 
ATOM      9  C   UNL     1     165.979 150.383 146.470  1.00  0.00     0.094 A 
ATOM     10  C   UNL     1     167.335 150.569 146.750  1.00  0.00     0.146 A 
ATOM     11  O   UNL     1     168.132 149.508 146.749  1.00  0.00    -0.452 OA
ENDROOT
BRANCH   1  12
ATOM     12  C   UNL     1     170.217 148.315 146.943  1.00  0.00     0.021 A 
ATOM     13  C   UNL     1     171.103 148.021 145.890  1.00  0.00     0.016 A 
ATOM     14  C   UNL     1     171.806 146.813 145.875  1.00  0.00     0.047 A 
ATOM     15  C   UNL     1     171.624 145.879 146.902  1.00  0.00     0.115 A 
ATOM     16  C   UNL     1     170.024 147.362 147.958  1.00  0.00     0.016 A 
ATOM     17  C   UNL     1     170.729 146.155 147.940  1.00  0.00     0.047 A 
BRANCH  15  18
ATOM     18  O   UNL     1     172.321 144.672 146.898  1.00  0.00    -0.508 OA
ATOM     19  H   UNL     1     172.507 144.172 146.037  1.00  0.00     0.293 HD
ENDBRANCH  15  18
ENDBRANCH   1  12
BRANCH   2  20
ATOM     20  O   UNL     1     171.409 150.896 147.504  1.00  0.00    -0.502 OA
ATOM     21  H   UNL     1     172.116 150.654 146.820  1.00  0.00     0.293 HD
ENDBRANCH   2  20
BRANCH   6  22
ATOM     22  O   UNL     1     167.290 154.271 147.389  1.00  0.00    -0.507 OA
ATOM     23  H   UNL     1     166.936 154.772 148.190  1.00  0.00     0.293 HD
ENDBRANCH   6  22
BRANCH   8  24
ATOM     24  O   UNL     1     163.759 151.296 146.140  1.00  0.00    -0.508 OA
ATOM     25  H   UNL     1     163.109 150.927 146.824  1.00  0.00     0.293 HD
ENDBRANCH   8  24
TORSDOF 5
ENDMDL
MODEL 5
REMARK VINA RESULT:    -7.366      4.186      6.122
REMARK INTER + INTRA:          -8.839
REMARK INTER:                  -8.575
REMARK INTRA:                  -0.264
REMARK UNBOUND:                -0.181
REMARK SMILES O=c1c(O)c(-c2ccc(O)cc2)oc2cc(O)cc(O)c12
REMARK SMILES IDX 5 1 3 2 2 3 1 4 21 5 19 6 18 7 16 8 15 9 14 10 13 11 6 12
REMARK SMILES IDX 7 13 8 14 9 15 12 16 11 17 10 18 4 20 20 22 17 24
REMARK H PARENT 10 19 4 21 20 23 17 25
REMARK Flexibility Score: inf
ROOT
ATOM      1  C   UNL     1     166.349 153.543 150.096  1.00  0.00     0.180 A 
ATOM      2  C   UNL     1     167.437 153.418 149.217  1.00  0.00     0.208 A 
ATOM      3  C   UNL     1     167.474 152.334 148.325  1.00  0.00     0.238 A 
ATOM      4  O   UNL     1     168.487 152.188 147.593  1.00  0.00    -0.285 OA
ATOM      5  C   UNL     1     166.393 151.420 148.284  1.00  0.00     0.111 A 
ATOM      6  C   UNL     1     166.301 150.310 147.389  1.00  0.00     0.134 A 
ATOM      7  C   UNL     1     165.235 149.411 147.512  1.00  0.00     0.093 A 
ATOM      8  C   UNL     1     164.225 149.613 148.451  1.00  0.00     0.123 A 
ATOM      9  C   UNL     1     164.275 150.725 149.294  1.00  0.00     0.094 A 
ATOM     10  C   UNL     1     165.346 151.620 149.222  1.00  0.00     0.146 A 
ATOM     11  O   UNL     1     165.365 152.651 150.056  1.00  0.00    -0.452 OA
ENDROOT
BRANCH   1  12
ATOM     12  C   UNL     1     166.247 154.650 151.074  1.00  0.00     0.021 A 
ATOM     13  C   UNL     1     165.812 155.931 150.690  1.00  0.00     0.016 A 
ATOM     14  C   UNL     1     165.749 156.967 151.627  1.00  0.00     0.047 A 
ATOM     15  C   UNL     1     166.132 156.739 152.954  1.00  0.00     0.115 A 
ATOM     16  C   UNL     1     166.651 154.437 152.403  1.00  0.00     0.016 A 
ATOM     17  C   UNL     1     166.586 155.475 153.338  1.00  0.00     0.047 A 
BRANCH  15  18
ATOM     18  O   UNL     1     166.072 157.764 153.897  1.00  0.00    -0.508 OA
ATOM     19  H   UNL     1     165.811 158.708 153.637  1.00  0.00     0.293 HD
ENDBRANCH  15  18
ENDBRANCH   1  12
BRANCH   2  20
ATOM     20  O   UNL     1     168.458 154.374 149.221  1.00  0.00    -0.502 OA
ATOM     21  H   UNL     1     168.278 155.361 149.363  1.00  0.00     0.293 HD
ENDBRANCH   2  20
BRANCH   6  22
ATOM     22  O   UNL     1     167.208 150.061 146.355  1.00  0.00    -0.507 OA
ATOM     23  H   UNL     1     168.148 150.425 146.310  1.00  0.00     0.293 HD
ENDBRANCH   6  22
BRANCH   8  24
ATOM     24  O   UNL     1     163.170 148.708 148.532  1.00  0.00    -0.508 OA
ATOM     25  H   UNL     1     162.605 148.626 149.370  1.00  0.00     0.293 HD
ENDBRANCH   8  24
TORSDOF 5
ENDMDL
MODEL 6
REMARK VINA RESULT:    -7.211      8.048     10.185
REMARK INTER + INTRA:          -8.657
REMARK INTER:                  -8.371
REMARK INTRA:                  -0.285
REMARK UNBOUND:                -0.181
REMARK SMILES O=c1c(O)c(-c2ccc(O)cc2)oc2cc(O)cc(O)c12
REMARK SMILES IDX 5 1 3 2 2 3 1 4 21 5 19 6 18 7 16 8 15 9 14 10 13 11 6 12
REMARK SMILES IDX 7 13 8 14 9 15 12 16 11 17 10 18 4 20 20 22 17 24
REMARK H PARENT 10 19 4 21 20 23 17 25
REMARK Flexibility Score: inf
ROOT
ATOM      1  C   UNL     1     168.624 145.053 154.103  1.00  0.00     0.180 A 
ATOM      2  C   UNL     1     168.507 143.693 154.433  1.00  0.00     0.208 A 
ATOM      3  C   UNL     1     168.370 142.749 153.402  1.00  0.00     0.238 A 
ATOM      4  O   UNL     1     168.191 141.542 153.708  1.00  0.00    -0.285 OA
ATOM      5  C   UNL     1     168.409 143.173 152.050  1.00  0.00     0.111 A 
ATOM      6  C   UNL     1     168.325 142.300 150.923  1.00  0.00     0.134 A 
ATOM      7  C   UNL     1     168.266 142.842 149.633  1.00  0.00     0.093 A 
ATOM      8  C   UNL     1     168.353 144.217 149.424  1.00  0.00     0.123 A 
ATOM      9  C   UNL     1     168.491 145.076 150.516  1.00  0.00     0.094 A 
ATOM     10  C   UNL     1     168.514 144.569 151.817  1.00  0.00     0.146 A 
ATOM     11  O   UNL     1     168.625 145.423 152.827  1.00  0.00    -0.452 OA
ENDROOT
BRANCH   1  12
ATOM     12  C   UNL     1     168.757 146.106 155.134  1.00  0.00     0.021 A 
ATOM     13  C   UNL     1     170.010 146.452 155.673  1.00  0.00     0.016 A 
ATOM     14  C   UNL     1     170.107 147.433 156.665  1.00  0.00     0.047 A 
ATOM     15  C   UNL     1     168.954 148.070 157.140  1.00  0.00     0.115 A 
ATOM     16  C   UNL     1     167.604 146.735 155.633  1.00  0.00     0.016 A 
ATOM     17  C   UNL     1     167.705 147.716 156.624  1.00  0.00     0.047 A 
BRANCH  15  18
ATOM     18  O   UNL     1     169.039 149.050 158.127  1.00  0.00    -0.508 OA
ATOM     19  H   UNL     1     168.215 149.531 158.467  1.00  0.00     0.293 HD
ENDBRANCH  15  18
ENDBRANCH   1  12
BRANCH   2  20
ATOM     20  O   UNL     1     168.548 143.287 155.771  1.00  0.00    -0.502 OA
ATOM     21  H   UNL     1     169.331 143.494 156.378  1.00  0.00     0.293 HD
ENDBRANCH   2  20
BRANCH   6  22
ATOM     22  O   UNL     1     168.321 140.905 151.012  1.00  0.00    -0.507 OA
ATOM     23  H   UNL     1     169.054 140.349 151.427  1.00  0.00     0.293 HD
ENDBRANCH   6  22
BRANCH   8  24
ATOM     24  O   UNL     1     168.309 144.719 148.127  1.00  0.00    -0.508 OA
ATOM     25  H   UNL     1     168.022 144.144 147.344  1.00  0.00     0.293 HD
ENDBRANCH   8  24
TORSDOF 5
ENDMDL
MODEL 7
REMARK VINA RESULT:    -7.176      3.320      5.033
REMARK INTER + INTRA:          -8.615
REMARK INTER:                  -8.331
REMARK INTRA:                  -0.285
REMARK UNBOUND:                -0.181
REMARK SMILES O=c1c(O)c(-c2ccc(O)cc2)oc2cc(O)cc(O)c12
REMARK SMILES IDX 5 1 3 2 2 3 1 4 21 5 19 6 18 7 16 8 15 9 14 10 13 11 6 12
REMARK SMILES IDX 7 13 8 14 9 15 12 16 11 17 10 18 4 20 20 22 17 24
REMARK H PARENT 10 19 4 21 20 23 17 25
REMARK Flexibility Score: inf
ROOT
ATOM      1  C   UNL     1     165.837 152.376 149.867  1.00  0.00     0.180 A 
ATOM      2  C   UNL     1     165.395 151.318 149.056  1.00  0.00     0.208 A 
ATOM      3  C   UNL     1     166.209 150.883 147.997  1.00  0.00     0.238 A 
ATOM      4  O   UNL     1     165.774 149.986 147.230  1.00  0.00    -0.285 OA
ATOM      5  C   UNL     1     167.482 151.474 147.799  1.00  0.00     0.111 A 
ATOM      6  C   UNL     1     168.409 151.082 146.786  1.00  0.00     0.134 A 
ATOM      7  C   UNL     1     169.594 151.810 146.617  1.00  0.00     0.093 A 
ATOM      8  C   UNL     1     169.914 152.872 147.460  1.00  0.00     0.123 A 
ATOM      9  C   UNL     1     169.040 153.229 148.489  1.00  0.00     0.094 A 
ATOM     10  C   UNL     1     167.833 152.547 148.659  1.00  0.00     0.146 A 
ATOM     11  O   UNL     1     167.021 152.932 149.636  1.00  0.00    -0.452 OA
ENDROOT
BRANCH   1  12
ATOM     12  C   UNL     1     165.029 152.899 150.991  1.00  0.00     0.021 A 
ATOM     13  C   UNL     1     165.181 152.401 152.298  1.00  0.00     0.016 A 
ATOM     14  C   UNL     1     164.388 152.893 153.339  1.00  0.00     0.047 A 
ATOM     15  C   UNL     1     163.425 153.878 153.085  1.00  0.00     0.115 A 
ATOM     16  C   UNL     1     164.045 153.871 150.742  1.00  0.00     0.016 A 
ATOM     17  C   UNL     1     163.254 154.362 151.786  1.00  0.00     0.047 A 
BRANCH  15  18
ATOM     18  O   UNL     1     162.630 154.377 154.115  1.00  0.00    -0.508 OA
ATOM     19  H   UNL     1     162.835 154.177 155.087  1.00  0.00     0.293 HD
ENDBRANCH  15  18
ENDBRANCH   1  12
BRANCH   2  20
ATOM     20  O   UNL     1     164.169 150.697 149.316  1.00  0.00    -0.502 OA
ATOM     21  H   UNL     1     164.099 149.720 149.571  1.00  0.00     0.293 HD
ENDBRANCH   2  20
BRANCH   6  22
ATOM     22  O   UNL     1     168.231 149.981 145.944  1.00  0.00    -0.507 OA
ATOM     23  H   UNL     1     167.432 149.833 145.346  1.00  0.00     0.293 HD
ENDBRANCH   6  22
BRANCH   8  24
ATOM     24  O   UNL     1     171.110 153.561 147.274  1.00  0.00    -0.508 OA
ATOM     25  H   UNL     1     171.511 153.688 146.352  1.00  0.00     0.293 HD
ENDBRANCH   8  24
TORSDOF 5
ENDMDL
MODEL 8
REMARK VINA RESULT:    -7.151      3.686      4.897
REMARK INTER + INTRA:          -8.586
REMARK INTER:                  -8.293
REMARK INTRA:                  -0.293
REMARK UNBOUND:                -0.181
REMARK SMILES O=c1c(O)c(-c2ccc(O)cc2)oc2cc(O)cc(O)c12
REMARK SMILES IDX 5 1 3 2 2 3 1 4 21 5 19 6 18 7 16 8 15 9 14 10 13 11 6 12
REMARK SMILES IDX 7 13 8 14 9 15 12 16 11 17 10 18 4 20 20 22 17 24
REMARK H PARENT 10 19 4 21 20 23 17 25
REMARK Flexibility Score: inf
ROOT
ATOM      1  C   UNL     1     166.086 152.509 149.977  1.00  0.00     0.180 A 
ATOM      2  C   UNL     1     167.355 152.959 149.575  1.00  0.00     0.208 A 
ATOM      3  C   UNL     1     167.969 152.364 148.461  1.00  0.00     0.238 A 
ATOM      4  O   UNL     1     169.136 152.720 148.153  1.00  0.00    -0.285 OA
ATOM      5  C   UNL     1     167.282 151.364 147.729  1.00  0.00     0.111 A 
ATOM      6  C   UNL     1     167.789 150.723 146.558  1.00  0.00     0.134 A 
ATOM      7  C   UNL     1     167.067 149.672 145.979  1.00  0.00     0.093 A 
ATOM      8  C   UNL     1     165.830 149.281 146.487  1.00  0.00     0.123 A 
ATOM      9  C   UNL     1     165.299 149.938 147.599  1.00  0.00     0.094 A 
ATOM     10  C   UNL     1     166.013 150.964 148.222  1.00  0.00     0.146 A 
ATOM     11  O   UNL     1     165.481 151.547 149.290  1.00  0.00    -0.452 OA
ENDROOT
BRANCH   1  12
ATOM     12  C   UNL     1     165.382 153.077 151.149  1.00  0.00     0.021 A 
ATOM     13  C   UNL     1     165.498 152.500 152.426  1.00  0.00     0.016 A 
ATOM     14  C   UNL     1     164.804 153.040 153.512  1.00  0.00     0.047 A 
ATOM     15  C   UNL     1     163.974 154.155 153.333  1.00  0.00     0.115 A 
ATOM     16  C   UNL     1     164.531 154.182 150.974  1.00  0.00     0.016 A 
ATOM     17  C   UNL     1     163.838 154.720 152.063  1.00  0.00     0.047 A 
BRANCH  15  18
ATOM     18  O   UNL     1     163.278 154.703 154.409  1.00  0.00    -0.508 OA
ATOM     19  H   UNL     1     162.266 154.753 154.414  1.00  0.00     0.293 HD
ENDBRANCH  15  18
ENDBRANCH   1  12
BRANCH   2  20
ATOM     20  O   UNL     1     167.983 154.000 150.265  1.00  0.00    -0.502 OA
ATOM     21  H   UNL     1     168.987 154.040 150.392  1.00  0.00     0.293 HD
ENDBRANCH   2  20
BRANCH   6  22
ATOM     22  O   UNL     1     168.973 151.093 145.913  1.00  0.00    -0.507 OA
ATOM     23  H   UNL     1     169.788 150.506 145.819  1.00  0.00     0.293 HD
ENDBRANCH   6  22
BRANCH   8  24
ATOM     24  O   UNL     1     165.131 148.244 145.875  1.00  0.00    -0.508 OA
ATOM     25  H   UNL     1     164.451 147.690 146.383  1.00  0.00     0.293 HD
ENDBRANCH   8  24
TORSDOF 5
ENDMDL
MODEL 9
REMARK VINA RESULT:    -7.078      3.704      4.864
REMARK INTER + INTRA:          -8.501
REMARK INTER:                  -8.274
REMARK INTRA:                  -0.226
REMARK UNBOUND:                -0.181
REMARK SMILES O=c1c(O)c(-c2ccc(O)cc2)oc2cc(O)cc(O)c12
REMARK SMILES IDX 5 1 3 2 2 3 1 4 21 5 19 6 18 7 16 8 15 9 14 10 13 11 6 12
REMARK SMILES IDX 7 13 8 14 9 15 12 16 11 17 10 18 4 20 20 22 17 24
REMARK H PARENT 10 19 4 21 20 23 17 25
REMARK Flexibility Score: inf
ROOT
ATOM      1  C   UNL     1     167.165 153.194 149.617  1.00  0.00     0.180 A 
ATOM      2  C   UNL     1     166.228 152.438 148.892  1.00  0.00     0.208 A 
ATOM      3  C   UNL     1     166.687 151.511 147.942  1.00  0.00     0.238 A 
ATOM      4  O   UNL     1     165.841 150.892 147.245  1.00  0.00    -0.285 OA
ATOM      5  C   UNL     1     168.079 151.311 147.769  1.00  0.00     0.111 A 
ATOM      6  C   UNL     1     168.656 150.366 146.867  1.00  0.00     0.134 A 
ATOM      7  C   UNL     1     170.047 150.331 146.702  1.00  0.00     0.093 A 
ATOM      8  C   UNL     1     170.883 151.158 147.450  1.00  0.00     0.123 A 
ATOM      9  C   UNL     1     170.332 152.047 148.374  1.00  0.00     0.094 A 
ATOM     10  C   UNL     1     168.946 152.133 148.534  1.00  0.00     0.146 A 
ATOM     11  O   UNL     1     168.464 153.007 149.408  1.00  0.00    -0.452 OA
ENDROOT
BRANCH   1  12
ATOM     12  C   UNL     1     166.758 154.200 150.624  1.00  0.00     0.021 A 
ATOM     13  C   UNL     1     166.839 153.932 152.002  1.00  0.00     0.016 A 
ATOM     14  C   UNL     1     166.425 154.889 152.934  1.00  0.00     0.047 A 
ATOM     15  C   UNL     1     165.912 156.118 152.500  1.00  0.00     0.115 A 
ATOM     16  C   UNL     1     166.222 155.427 150.198  1.00  0.00     0.016 A 
ATOM     17  C   UNL     1     165.810 156.382 151.132  1.00  0.00     0.047 A 
BRANCH  15  18
ATOM     18  O   UNL     1     165.498 157.080 153.419  1.00  0.00    -0.508 OA
ATOM     19  H   UNL     1     166.024 157.266 154.264  1.00  0.00     0.293 HD
ENDBRANCH  15  18
ENDBRANCH   1  12
BRANCH   2  20
ATOM     20  O   UNL     1     164.860 152.596 149.133  1.00  0.00    -0.502 OA
ATOM     21  H   UNL     1     164.488 153.372 149.668  1.00  0.00     0.293 HD
ENDBRANCH   2  20
BRANCH   6  22
ATOM     22  O   UNL     1     167.920 149.431 146.135  1.00  0.00    -0.507 OA
ATOM     23  H   UNL     1     166.913 149.371 146.119  1.00  0.00     0.293 HD
ENDBRANCH   6  22
BRANCH   8  24
ATOM     24  O   UNL     1     172.262 151.083 147.273  1.00  0.00    -0.508 OA
ATOM     25  H   UNL     1     172.892 151.728 147.735  1.00  0.00     0.293 HD
ENDBRANCH   8  24
TORSDOF 5
ENDMDL
