MODEL 1
REMARK VINA RESULT:    -6.832      0.000      0.000
REMARK INTER + INTRA:          -8.598
REMARK INTER:                  -8.230
REMARK INTRA:                  -0.368
REMARK UNBOUND:                -0.368
REMARK SMILES O=c1c(O)c(-c2ccc(O)cc2O)oc2cc(O)cc(O)c12
REMARK SMILES IDX 5 1 3 2 2 3 1 4 22 5 20 6 19 7 17 8 16 9 15 10 14 11 6 12
REMARK SMILES IDX 8 13 7 14 9 15 11 16 12 17 10 18 13 20 4 22 21 24 18 26
REMARK H PARENT 10 19 13 21 4 23 21 25 18 27
REMARK Flexibility Score: inf
ROOT
ATOM      1  C   UNL     1     128.107 133.088 129.721  1.00  0.00     0.184 A 
ATOM      2  C   UNL     1     127.183 133.354 130.742  1.00  0.00     0.208 A 
ATOM      3  C   UNL     1     126.085 134.185 130.467  1.00  0.00     0.238 A 
ATOM      4  O   UNL     1     125.228 134.370 131.370  1.00  0.00    -0.285 OA
ATOM      5  C   UNL     1     125.943 134.761 129.182  1.00  0.00     0.111 A 
ATOM      6  C   UNL     1     124.891 135.649 128.803  1.00  0.00     0.134 A 
ATOM      7  C   UNL     1     124.782 136.060 127.469  1.00  0.00     0.093 A 
ATOM      8  C   UNL     1     125.721 135.670 126.514  1.00  0.00     0.123 A 
ATOM      9  C   UNL     1     126.785 134.848 126.886  1.00  0.00     0.094 A 
ATOM     10  C   UNL     1     126.901 134.391 128.201  1.00  0.00     0.146 A 
ATOM     11  O   UNL     1     127.922 133.600 128.509  1.00  0.00    -0.451 OA
ENDROOT
BRANCH   1  12
ATOM     12  C   UNL     1     129.294 132.239 129.958  1.00  0.00     0.063 A 
ATOM     13  C   UNL     1     130.236 130.019 130.285  1.00  0.00     0.047 A 
ATOM     14  C   UNL     1     129.143 130.843 130.009  1.00  0.00     0.020 A 
ATOM     15  C   UNL     1     131.494 130.578 130.522  1.00  0.00     0.119 A 
ATOM     16  C   UNL     1     131.658 131.967 130.475  1.00  0.00     0.093 A 
ATOM     17  C   UNL     1     130.570 132.803 130.188  1.00  0.00     0.130 A 
BRANCH  15  18
ATOM     18  O   UNL     1     132.575 129.744 130.802  1.00  0.00    -0.508 OA
ATOM     19  H   UNL     1     133.529 130.035 130.622  1.00  0.00     0.293 HD
ENDBRANCH  15  18
BRANCH  17  20
ATOM     20  O   UNL     1     130.798 134.179 130.119  1.00  0.00    -0.507 OA
ATOM     21  H   UNL     1     131.476 134.657 130.699  1.00  0.00     0.293 HD
ENDBRANCH  17  20
ENDBRANCH   1  12
BRANCH   2  22
ATOM     22  O   UNL     1     127.351 132.775 132.003  1.00  0.00    -0.502 OA
ATOM     23  H   UNL     1     128.230 132.816 132.506  1.00  0.00     0.293 HD
ENDBRANCH   2  22
BRANCH   6  24
ATOM     24  O   UNL     1     123.953 136.175 129.696  1.00  0.00    -0.507 OA
ATOM     25  H   UNL     1     124.086 137.008 130.247  1.00  0.00     0.293 HD
ENDBRANCH   6  24
BRANCH   8  26
ATOM     26  O   UNL     1     125.590 136.111 125.200  1.00  0.00    -0.508 OA
ATOM     27  H   UNL     1     125.076 135.575 124.509  1.00  0.00     0.293 HD
ENDBRANCH   8  26
TORSDOF 6
ENDMDL
MODEL 2
REMARK VINA RESULT:    -6.738      3.542      9.028
REMARK INTER + INTRA:          -8.484
REMARK INTER:                  -8.083
REMARK INTRA:                  -0.401
REMARK UNBOUND:                -0.368
REMARK SMILES O=c1c(O)c(-c2ccc(O)cc2O)oc2cc(O)cc(O)c12
REMARK SMILES IDX 5 1 3 2 2 3 1 4 22 5 20 6 19 7 17 8 16 9 15 10 14 11 6 12
REMARK SMILES IDX 8 13 7 14 9 15 11 16 12 17 10 18 13 20 4 22 21 24 18 26
REMARK H PARENT 10 19 13 21 4 23 21 25 18 27
REMARK Flexibility Score: inf
ROOT
ATOM      1  C   UNL     1     130.964 129.011 130.518  1.00  0.00     0.184 A 
ATOM      2  C   UNL     1     131.634 129.304 131.715  1.00  0.00     0.208 A 
ATOM      3  C   UNL     1     132.745 128.527 132.082  1.00  0.00     0.238 A 
ATOM      4  O   UNL     1     133.378 128.834 133.125  1.00  0.00    -0.285 OA
ATOM      5  C   UNL     1     133.152 127.450 131.259  1.00  0.00     0.111 A 
ATOM      6  C   UNL     1     134.240 126.572 131.551  1.00  0.00     0.134 A 
ATOM      7  C   UNL     1     134.629 125.616 130.605  1.00  0.00     0.093 A 
ATOM      8  C   UNL     1     133.933 125.462 129.406  1.00  0.00     0.123 A 
ATOM      9  C   UNL     1     132.833 126.277 129.134  1.00  0.00     0.094 A 
ATOM     10  C   UNL     1     132.443 127.264 130.043  1.00  0.00     0.146 A 
ATOM     11  O   UNL     1     131.398 128.026 129.739  1.00  0.00    -0.451 OA
ENDROOT
BRANCH   1  12
ATOM     12  C   UNL     1     129.775 129.779 130.092  1.00  0.00     0.063 A 
ATOM     13  C   UNL     1     128.846 131.710 128.939  1.00  0.00     0.047 A 
ATOM     14  C   UNL     1     129.946 130.934 129.310  1.00  0.00     0.020 A 
ATOM     15  C   UNL     1     127.561 131.349 129.350  1.00  0.00     0.119 A 
ATOM     16  C   UNL     1     127.378 130.201 130.131  1.00  0.00     0.093 A 
ATOM     17  C   UNL     1     128.472 129.409 130.500  1.00  0.00     0.130 A 
BRANCH  15  18
ATOM     18  O   UNL     1     126.473 132.136 128.977  1.00  0.00    -0.508 OA
ATOM     19  H   UNL     1     126.423 133.120 129.219  1.00  0.00     0.293 HD
ENDBRANCH  15  18
BRANCH  17  20
ATOM     20  O   UNL     1     128.228 128.256 131.249  1.00  0.00    -0.507 OA
ATOM     21  H   UNL     1     127.407 127.678 131.121  1.00  0.00     0.293 HD
ENDBRANCH  17  20
ENDBRANCH   1  12
BRANCH   2  22
ATOM     22  O   UNL     1     131.207 130.371 132.510  1.00  0.00    -0.502 OA
ATOM     23  H   UNL     1     130.730 130.233 133.393  1.00  0.00     0.293 HD
ENDBRANCH   2  22
BRANCH   6  24
ATOM     24  O   UNL     1     134.945 126.578 132.758  1.00  0.00    -0.507 OA
ATOM     25  H   UNL     1     134.843 127.272 133.481  1.00  0.00     0.293 HD
ENDBRANCH   6  24
BRANCH   8  26
ATOM     26  O   UNL     1     134.339 124.491 128.494  1.00  0.00    -0.508 OA
ATOM     27  H   UNL     1     135.215 123.994 128.604  1.00  0.00     0.293 HD
ENDBRANCH   8  26
TORSDOF 6
ENDMDL
MODEL 3
REMARK VINA RESULT:    -6.611      1.729      6.334
REMARK INTER + INTRA:          -8.331
REMARK INTER:                  -7.990
REMARK INTRA:                  -0.342
REMARK UNBOUND:                -0.368
REMARK SMILES O=c1c(O)c(-c2ccc(O)cc2O)oc2cc(O)cc(O)c12
REMARK SMILES IDX 5 1 3 2 2 3 1 4 22 5 20 6 19 7 17 8 16 9 15 10 14 11 6 12
REMARK SMILES IDX 8 13 7 14 9 15 11 16 12 17 10 18 13 20 4 22 21 24 18 26
REMARK H PARENT 10 19 13 21 4 23 21 25 18 27
REMARK Flexibility Score: inf
ROOT
ATOM      1  C   UNL     1     126.372 133.896 128.520  1.00  0.00     0.184 A 
ATOM      2  C   UNL     1     125.569 133.493 129.598  1.00  0.00     0.208 A 
ATOM      3  C   UNL     1     126.185 133.027 130.770  1.00  0.00     0.238 A 
ATOM      4  O   UNL     1     125.461 132.725 131.753  1.00  0.00    -0.285 OA
ATOM      5  C   UNL     1     127.597 132.944 130.837  1.00  0.00     0.111 A 
ATOM      6  C   UNL     1     128.328 132.451 131.960  1.00  0.00     0.134 A 
ATOM      7  C   UNL     1     129.726 132.529 131.962  1.00  0.00     0.093 A 
ATOM      8  C   UNL     1     130.423 133.022 130.859  1.00  0.00     0.123 A 
ATOM      9  C   UNL     1     129.721 133.455 129.733  1.00  0.00     0.094 A 
ATOM     10  C   UNL     1     128.324 133.423 129.715  1.00  0.00     0.146 A 
ATOM     11  O   UNL     1     127.695 133.856 128.629  1.00  0.00    -0.451 OA
ENDROOT
BRANCH   1  12
ATOM     12  C   UNL     1     125.779 134.374 127.253  1.00  0.00     0.063 A 
ATOM     13  C   UNL     1     125.325 133.995 124.893  1.00  0.00     0.047 A 
ATOM     14  C   UNL     1     125.828 133.549 126.116  1.00  0.00     0.020 A 
ATOM     15  C   UNL     1     124.774 135.273 124.784  1.00  0.00     0.119 A 
ATOM     16  C   UNL     1     124.721 136.106 125.908  1.00  0.00     0.093 A 
ATOM     17  C   UNL     1     125.212 135.665 127.144  1.00  0.00     0.130 A 
BRANCH  15  18
ATOM     18  O   UNL     1     124.281 135.708 123.555  1.00  0.00    -0.508 OA
ATOM     19  H   UNL     1     124.364 136.675 123.263  1.00  0.00     0.293 HD
ENDBRANCH  15  18
BRANCH  17  20
ATOM     20  O   UNL     1     125.102 136.523 128.241  1.00  0.00    -0.507 OA
ATOM     21  H   UNL     1     124.672 137.437 128.185  1.00  0.00     0.293 HD
ENDBRANCH  17  20
ENDBRANCH   1  12
BRANCH   2  22
ATOM     22  O   UNL     1     124.177 133.583 129.502  1.00  0.00    -0.502 OA
ATOM     23  H   UNL     1     123.658 134.377 129.857  1.00  0.00     0.293 HD
ENDBRANCH   2  22
BRANCH   6  24
ATOM     24  O   UNL     1     127.735 131.853 133.076  1.00  0.00    -0.507 OA
ATOM     25  H   UNL     1     126.800 132.040 133.400  1.00  0.00     0.293 HD
ENDBRANCH   6  24
BRANCH   8  26
ATOM     26  O   UNL     1     131.815 133.071 130.890  1.00  0.00    -0.508 OA
ATOM     27  H   UNL     1     132.326 133.056 131.765  1.00  0.00     0.293 HD
ENDBRANCH   8  26
TORSDOF 6
ENDMDL
MODEL 4
REMARK VINA RESULT:    -6.606      0.950      1.536
REMARK INTER + INTRA:          -8.325
REMARK INTER:                  -7.908
REMARK INTRA:                  -0.417
REMARK UNBOUND:                -0.368
REMARK SMILES O=c1c(O)c(-c2ccc(O)cc2O)oc2cc(O)cc(O)c12
REMARK SMILES IDX 5 1 3 2 2 3 1 4 22 5 20 6 19 7 17 8 16 9 15 10 14 11 6 12
REMARK SMILES IDX 8 13 7 14 9 15 11 16 12 17 10 18 13 20 4 22 21 24 18 26
REMARK H PARENT 10 19 13 21 4 23 21 25 18 27
REMARK Flexibility Score: inf
ROOT
ATOM      1  C   UNL     1     127.832 133.474 129.621  1.00  0.00     0.184 A 
ATOM      2  C   UNL     1     126.914 133.814 130.626  1.00  0.00     0.208 A 
ATOM      3  C   UNL     1     125.790 134.585 130.289  1.00  0.00     0.238 A 
ATOM      4  O   UNL     1     124.940 134.834 131.183  1.00  0.00    -0.285 OA
ATOM      5  C   UNL     1     125.614 135.029 128.956  1.00  0.00     0.111 A 
ATOM      6  C   UNL     1     124.533 135.847 128.510  1.00  0.00     0.134 A 
ATOM      7  C   UNL     1     124.395 136.124 127.145  1.00  0.00     0.093 A 
ATOM      8  C   UNL     1     125.332 135.668 126.217  1.00  0.00     0.123 A 
ATOM      9  C   UNL     1     126.424 134.914 126.650  1.00  0.00     0.094 A 
ATOM     10  C   UNL     1     126.569 134.591 128.001  1.00  0.00     0.146 A 
ATOM     11  O   UNL     1     127.616 133.861 128.368  1.00  0.00    -0.451 OA
ENDROOT
BRANCH   1  12
ATOM     12  C   UNL     1     129.045 132.684 129.919  1.00  0.00     0.063 A 
ATOM     13  C   UNL     1     131.417 132.635 130.461  1.00  0.00     0.047 A 
ATOM     14  C   UNL     1     130.242 133.353 130.228  1.00  0.00     0.020 A 
ATOM     15  C   UNL     1     131.415 131.241 130.382  1.00  0.00     0.119 A 
ATOM     16  C   UNL     1     130.230 130.563 130.073  1.00  0.00     0.093 A 
ATOM     17  C   UNL     1     129.042 131.272 129.848  1.00  0.00     0.130 A 
BRANCH  15  18
ATOM     18  O   UNL     1     132.597 130.538 130.611  1.00  0.00    -0.508 OA
ATOM     19  H   UNL     1     133.206 130.263 129.849  1.00  0.00     0.293 HD
ENDBRANCH  15  18
BRANCH  17  20
ATOM     20  O   UNL     1     127.881 130.544 129.580  1.00  0.00    -0.507 OA
ATOM     21  H   UNL     1     127.608 129.726 130.109  1.00  0.00     0.293 HD
ENDBRANCH  17  20
ENDBRANCH   1  12
BRANCH   2  22
ATOM     22  O   UNL     1     127.115 133.365 131.934  1.00  0.00    -0.502 OA
ATOM     23  H   UNL     1     126.366 132.978 132.496  1.00  0.00     0.293 HD
ENDBRANCH   2  22
BRANCH   6  24
ATOM     24  O   UNL     1     123.592 136.432 129.363  1.00  0.00    -0.507 OA
ATOM     25  H   UNL     1     123.787 136.760 130.296  1.00  0.00     0.293 HD
ENDBRANCH   6  24
BRANCH   8  26
ATOM     26  O   UNL     1     125.171 135.975 124.868  1.00  0.00    -0.508 OA
ATOM     27  H   UNL     1     125.756 135.556 124.155  1.00  0.00     0.293 HD
ENDBRANCH   8  26
TORSDOF 6
ENDMDL
MODEL 5
REMARK VINA RESULT:    -6.474      4.271      9.148
REMARK INTER + INTRA:          -8.167
REMARK INTER:                  -7.766
REMARK INTRA:                  -0.400
REMARK UNBOUND:                -0.368
REMARK SMILES O=c1c(O)c(-c2ccc(O)cc2O)oc2cc(O)cc(O)c12
REMARK SMILES IDX 5 1 3 2 2 3 1 4 22 5 20 6 19 7 17 8 16 9 15 10 14 11 6 12
REMARK SMILES IDX 8 13 7 14 9 15 11 16 12 17 10 18 13 20 4 22 21 24 18 26
REMARK H PARENT 10 19 13 21 4 23 21 25 18 27
REMARK Flexibility Score: inf
ROOT
ATOM      1  C   UNL     1     131.375 129.431 130.749  1.00  0.00     0.184 A 
ATOM      2  C   UNL     1     131.105 128.822 129.514  1.00  0.00     0.208 A 
ATOM      3  C   UNL     1     131.836 127.683 129.142  1.00  0.00     0.238 A 
ATOM      4  O   UNL     1     131.546 127.107 128.062  1.00  0.00    -0.285 OA
ATOM      5  C   UNL     1     132.847 127.184 129.999  1.00  0.00     0.111 A 
ATOM      6  C   UNL     1     133.676 126.059 129.707  1.00  0.00     0.134 A 
ATOM      7  C   UNL     1     134.560 125.582 130.681  1.00  0.00     0.093 A 
ATOM      8  C   UNL     1     134.693 126.224 131.912  1.00  0.00     0.123 A 
ATOM      9  C   UNL     1     133.928 127.358 132.188  1.00  0.00     0.094 A 
ATOM     10  C   UNL     1     133.011 127.837 131.249  1.00  0.00     0.146 A 
ATOM     11  O   UNL     1     132.294 128.912 131.556  1.00  0.00    -0.451 OA
ENDROOT
BRANCH   1  12
ATOM     12  C   UNL     1     130.655 130.646 131.184  1.00  0.00     0.063 A 
ATOM     13  C   UNL     1     130.328 133.051 131.003  1.00  0.00     0.047 A 
ATOM     14  C   UNL     1     130.953 131.878 130.576  1.00  0.00     0.020 A 
ATOM     15  C   UNL     1     129.403 133.013 132.048  1.00  0.00     0.119 A 
ATOM     16  C   UNL     1     129.098 131.792 132.663  1.00  0.00     0.093 A 
ATOM     17  C   UNL     1     129.711 130.607 132.236  1.00  0.00     0.130 A 
BRANCH  15  18
ATOM     18  O   UNL     1     128.791 134.193 132.468  1.00  0.00    -0.508 OA
ATOM     19  H   UNL     1     128.722 134.433 133.451  1.00  0.00     0.293 HD
ENDBRANCH  15  18
BRANCH  17  20
ATOM     20  O   UNL     1     129.343 129.413 132.861  1.00  0.00    -0.507 OA
ATOM     21  H   UNL     1     128.494 129.312 133.402  1.00  0.00     0.293 HD
ENDBRANCH  17  20
ENDBRANCH   1  12
BRANCH   2  22
ATOM     22  O   UNL     1     130.104 129.338 128.687  1.00  0.00    -0.502 OA
ATOM     23  H   UNL     1     129.118 129.221 128.889  1.00  0.00     0.293 HD
ENDBRANCH   2  22
BRANCH   6  24
ATOM     24  O   UNL     1     133.690 125.399 128.474  1.00  0.00    -0.507 OA
ATOM     25  H   UNL     1     133.744 124.399 128.358  1.00  0.00     0.293 HD
ENDBRANCH   6  24
BRANCH   8  26
ATOM     26  O   UNL     1     135.594 125.729 132.853  1.00  0.00    -0.508 OA
ATOM     27  H   UNL     1     135.707 124.734 133.007  1.00  0.00     0.293 HD
ENDBRANCH   8  26
TORSDOF 6
ENDMDL
MODEL 6
REMARK VINA RESULT:    -6.449     13.852     17.315
REMARK INTER + INTRA:          -8.136
REMARK INTER:                  -7.857
REMARK INTRA:                  -0.279
REMARK UNBOUND:                -0.368
REMARK SMILES O=c1c(O)c(-c2ccc(O)cc2O)oc2cc(O)cc(O)c12
REMARK SMILES IDX 5 1 3 2 2 3 1 4 22 5 20 6 19 7 17 8 16 9 15 10 14 11 6 12
REMARK SMILES IDX 8 13 7 14 9 15 11 16 12 17 10 18 13 20 4 22 21 24 18 26
REMARK H PARENT 10 19 13 21 4 23 21 25 18 27
REMARK Flexibility Score: inf
ROOT
ATOM      1  C   UNL     1     130.756 120.497 121.091  1.00  0.00     0.184 A 
ATOM      2  C   UNL     1     130.923 120.185 119.733  1.00  0.00     0.208 A 
ATOM      3  C   UNL     1     132.163 119.695 119.295  1.00  0.00     0.238 A 
ATOM      4  O   UNL     1     132.287 119.360 118.088  1.00  0.00    -0.285 OA
ATOM      5  C   UNL     1     133.228 119.549 120.216  1.00  0.00     0.111 A 
ATOM      6  C   UNL     1     134.539 119.097 119.876  1.00  0.00     0.134 A 
ATOM      7  C   UNL     1     135.477 118.875 120.891  1.00  0.00     0.093 A 
ATOM      8  C   UNL     1     135.176 119.149 122.225  1.00  0.00     0.123 A 
ATOM      9  C   UNL     1     133.916 119.644 122.563  1.00  0.00     0.094 A 
ATOM     10  C   UNL     1     132.946 119.842 121.577  1.00  0.00     0.146 A 
ATOM     11  O   UNL     1     131.756 120.302 121.943  1.00  0.00    -0.451 OA
ENDROOT
BRANCH   1  12
ATOM     12  C   UNL     1     129.481 121.039 121.606  1.00  0.00     0.063 A 
ATOM     13  C   UNL     1     127.781 122.780 121.546  1.00  0.00     0.047 A 
ATOM     14  C   UNL     1     128.955 122.215 121.043  1.00  0.00     0.020 A 
ATOM     15  C   UNL     1     127.120 122.184 122.622  1.00  0.00     0.119 A 
ATOM     16  C   UNL     1     127.634 121.013 123.192  1.00  0.00     0.093 A 
ATOM     17  C   UNL     1     128.805 120.431 122.689  1.00  0.00     0.130 A 
BRANCH  15  18
ATOM     18  O   UNL     1     125.952 122.762 123.117  1.00  0.00    -0.508 OA
ATOM     19  H   UNL     1     125.359 122.275 123.779  1.00  0.00     0.293 HD
ENDBRANCH  15  18
BRANCH  17  20
ATOM     20  O   UNL     1     129.254 119.244 123.273  1.00  0.00    -0.507 OA
ATOM     21  H   UNL     1     129.884 119.222 124.065  1.00  0.00     0.293 HD
ENDBRANCH  17  20
ENDBRANCH   1  12
BRANCH   2  22
ATOM     22  O   UNL     1     129.855 120.343 118.845  1.00  0.00    -0.502 OA
ATOM     23  H   UNL     1     129.374 121.227 118.727  1.00  0.00     0.293 HD
ENDBRANCH   2  22
BRANCH   6  24
ATOM     24  O   UNL     1     134.975 118.882 118.565  1.00  0.00    -0.507 OA
ATOM     25  H   UNL     1     135.923 119.008 118.246  1.00  0.00     0.293 HD
ENDBRANCH   6  24
BRANCH   8  26
ATOM     26  O   UNL     1     136.140 118.930 123.207  1.00  0.00    -0.508 OA
ATOM     27  H   UNL     1     137.086 119.280 123.108  1.00  0.00     0.293 HD
ENDBRANCH   8  26
TORSDOF 6
ENDMDL
MODEL 7
REMARK VINA RESULT:    -6.405      1.759      3.038
REMARK INTER + INTRA:          -8.084
REMARK INTER:                  -7.691
REMARK INTRA:                  -0.393
REMARK UNBOUND:                -0.368
REMARK SMILES O=c1c(O)c(-c2ccc(O)cc2O)oc2cc(O)cc(O)c12
REMARK SMILES IDX 5 1 3 2 2 3 1 4 22 5 20 6 19 7 17 8 16 9 15 10 14 11 6 12
REMARK SMILES IDX 8 13 7 14 9 15 11 16 12 17 10 18 13 20 4 22 21 24 18 26
REMARK H PARENT 10 19 13 21 4 23 21 25 18 27
REMARK Flexibility Score: inf
ROOT
ATOM      1  C   UNL     1     127.616 132.697 129.312  1.00  0.00     0.184 A 
ATOM      2  C   UNL     1     128.104 132.798 128.000  1.00  0.00     0.208 A 
ATOM      3  C   UNL     1     127.496 133.703 127.116  1.00  0.00     0.238 A 
ATOM      4  O   UNL     1     127.978 133.832 125.960  1.00  0.00    -0.285 OA
ATOM      5  C   UNL     1     126.391 134.475 127.548  1.00  0.00     0.111 A 
ATOM      6  C   UNL     1     125.673 135.396 126.725  1.00  0.00     0.134 A 
ATOM      7  C   UNL     1     124.674 136.195 127.293  1.00  0.00     0.093 A 
ATOM      8  C   UNL     1     124.321 136.063 128.636  1.00  0.00     0.123 A 
ATOM      9  C   UNL     1     124.977 135.126 129.436  1.00  0.00     0.094 A 
ATOM     10  C   UNL     1     126.003 134.340 128.907  1.00  0.00     0.146 A 
ATOM     11  O   UNL     1     126.610 133.470 129.706  1.00  0.00    -0.451 OA
ENDROOT
BRANCH   1  12
ATOM     12  C   UNL     1     128.200 131.745 130.280  1.00  0.00     0.063 A 
ATOM     13  C   UNL     1     128.308 129.483 131.172  1.00  0.00     0.047 A 
ATOM     14  C   UNL     1     127.815 130.394 130.236  1.00  0.00     0.020 A 
ATOM     15  C   UNL     1     129.186 129.909 132.171  1.00  0.00     0.119 A 
ATOM     16  C   UNL     1     129.576 131.252 132.227  1.00  0.00     0.093 A 
ATOM     17  C   UNL     1     129.096 132.173 131.287  1.00  0.00     0.130 A 
BRANCH  15  18
ATOM     18  O   UNL     1     129.665 128.990 133.102  1.00  0.00    -0.508 OA
ATOM     19  H   UNL     1     130.648 128.745 133.147  1.00  0.00     0.293 HD
ENDBRANCH  15  18
BRANCH  17  20
ATOM     20  O   UNL     1     129.546 133.493 131.368  1.00  0.00    -0.507 OA
ATOM     21  H   UNL     1     130.111 133.929 130.650  1.00  0.00     0.293 HD
ENDBRANCH  17  20
ENDBRANCH   1  12
BRANCH   2  22
ATOM     22  O   UNL     1     129.194 132.020 127.600  1.00  0.00    -0.502 OA
ATOM     23  H   UNL     1     130.145 132.238 127.873  1.00  0.00     0.293 HD
ENDBRANCH   2  22
BRANCH   6  24
ATOM     24  O   UNL     1     125.882 135.542 125.351  1.00  0.00    -0.507 OA
ATOM     25  H   UNL     1     126.753 135.823 124.928  1.00  0.00     0.293 HD
ENDBRANCH   6  24
BRANCH   8  26
ATOM     26  O   UNL     1     123.311 136.864 129.164  1.00  0.00    -0.508 OA
ATOM     27  H   UNL     1     123.078 137.762 128.755  1.00  0.00     0.293 HD
ENDBRANCH   8  26
TORSDOF 6
ENDMDL
MODEL 8
REMARK VINA RESULT:    -6.403     11.387     13.013
REMARK INTER + INTRA:          -8.082
REMARK INTER:                  -7.766
REMARK INTRA:                  -0.316
REMARK UNBOUND:                -0.368
REMARK SMILES O=c1c(O)c(-c2ccc(O)cc2O)oc2cc(O)cc(O)c12
REMARK SMILES IDX 5 1 3 2 2 3 1 4 22 5 20 6 19 7 17 8 16 9 15 10 14 11 6 12
REMARK SMILES IDX 8 13 7 14 9 15 11 16 12 17 10 18 13 20 4 22 21 24 18 26
REMARK H PARENT 10 19 13 21 4 23 21 25 18 27
REMARK Flexibility Score: inf
ROOT
ATOM      1  C   UNL     1     130.668 137.014 117.629  1.00  0.00     0.184 A 
ATOM      2  C   UNL     1     130.772 136.741 116.257  1.00  0.00     0.208 A 
ATOM      3  C   UNL     1     129.660 136.969 115.431  1.00  0.00     0.238 A 
ATOM      4  O   UNL     1     129.779 136.780 114.193  1.00  0.00    -0.285 OA
ATOM      5  C   UNL     1     128.450 137.442 115.994  1.00  0.00     0.111 A 
ATOM      6  C   UNL     1     127.248 137.671 115.259  1.00  0.00     0.134 A 
ATOM      7  C   UNL     1     126.149 138.255 115.899  1.00  0.00     0.093 A 
ATOM      8  C   UNL     1     126.183 138.559 117.260  1.00  0.00     0.123 A 
ATOM      9  C   UNL     1     127.332 138.286 118.001  1.00  0.00     0.094 A 
ATOM     10  C   UNL     1     128.459 137.737 117.383  1.00  0.00     0.146 A 
ATOM     11  O   UNL     1     129.537 137.505 118.123  1.00  0.00    -0.451 OA
ENDROOT
BRANCH   1  12
ATOM     12  C   UNL     1     131.798 136.772 118.551  1.00  0.00     0.063 A 
ATOM     13  C   UNL     1     133.353 135.204 119.572  1.00  0.00     0.047 A 
ATOM     14  C   UNL     1     132.323 135.474 118.670  1.00  0.00     0.020 A 
ATOM     15  C   UNL     1     133.869 136.224 120.375  1.00  0.00     0.119 A 
ATOM     16  C   UNL     1     133.354 137.521 120.267  1.00  0.00     0.093 A 
ATOM     17  C   UNL     1     132.328 137.806 119.357  1.00  0.00     0.130 A 
BRANCH  15  18
ATOM     18  O   UNL     1     134.894 135.939 121.275  1.00  0.00    -0.508 OA
ATOM     19  H   UNL     1     134.764 135.279 122.034  1.00  0.00     0.293 HD
ENDBRANCH  15  18
BRANCH  17  20
ATOM     20  O   UNL     1     131.876 139.125 119.265  1.00  0.00    -0.507 OA
ATOM     21  H   UNL     1     131.112 139.406 118.663  1.00  0.00     0.293 HD
ENDBRANCH  17  20
ENDBRANCH   1  12
BRANCH   2  22
ATOM     22  O   UNL     1     131.978 136.272 115.729  1.00  0.00    -0.502 OA
ATOM     23  H   UNL     1     132.114 135.304 115.463  1.00  0.00     0.293 HD
ENDBRANCH   2  22
BRANCH   6  24
ATOM     24  O   UNL     1     127.075 137.320 113.917  1.00  0.00    -0.507 OA
ATOM     25  H   UNL     1     126.253 137.525 113.370  1.00  0.00     0.293 HD
ENDBRANCH   6  24
BRANCH   8  26
ATOM     26  O   UNL     1     125.064 139.125 117.867  1.00  0.00    -0.508 OA
ATOM     27  H   UNL     1     125.144 139.691 118.703  1.00  0.00     0.293 HD
ENDBRANCH   8  26
TORSDOF 6
ENDMDL
