MODEL 1
REMARK VINA RESULT:    -4.821      0.000      0.000
REMARK INTER + INTRA:         -17.085
REMARK INTER:                 -12.149
REMARK INTRA:                  -4.936
REMARK UNBOUND:                -4.936
REMARK SMILES CCCCCCCCCCCCCCCCCCCCCCCCCCCC(=O)[O-]
REMARK SMILES IDX 15 1 16 2 17 3 18 4 19 5 20 6 21 7 22 8 23 9 24 10 25 11
REMARK SMILES IDX 26 12 27 13 28 14 29 15 30 16 14 17 13 18 12 19 11 20 10 21
REMARK SMILES IDX 9 22 8 23 7 24 6 25 5 26 4 27 3 28 2 29 1 30
REMARK H PARENT
REMARK Flexibility Score: inf
ROOT
ATOM      1  C   UNL     1      14.461 -31.599  24.261  1.00  0.00     0.000 C 
ENDROOT
BRANCH   1   2
ATOM      2  C   UNL     1      15.957 -31.600  23.884  1.00  0.00     0.000 C 
BRANCH   2   3
ATOM      3  C   UNL     1      16.560 -30.213  23.575  1.00  0.00     0.000 C 
BRANCH   3   4
ATOM      4  C   UNL     1      16.904 -29.959  22.095  1.00  0.00     0.000 C 
BRANCH   4   5
ATOM      5  C   UNL     1      17.186 -31.252  21.312  1.00  0.00     0.000 C 
BRANCH   5   6
ATOM      6  C   UNL     1      18.689 -31.570  21.215  1.00  0.00     0.000 C 
BRANCH   6   7
ATOM      7  C   UNL     1      19.026 -33.041  20.898  1.00  0.00     0.000 C 
BRANCH   7   8
ATOM      8  C   UNL     1      19.634 -33.834  22.070  1.00  0.00     0.000 C 
BRANCH   8   9
ATOM      9  C   UNL     1      19.075 -33.472  23.462  1.00  0.00     0.000 C 
BRANCH   9  10
ATOM     10  C   UNL     1      18.509 -34.657  24.264  1.00  0.00     0.000 C 
BRANCH  10  11
ATOM     11  C   UNL     1      17.641 -34.217  25.450  1.00  0.00     0.000 C 
BRANCH  11  12
ATOM     12  C   UNL     1      16.853 -35.402  26.024  1.00  0.00     0.006 C 
BRANCH  12  13
ATOM     13  C   UNL     1      17.496 -36.734  25.623  1.00  0.00     0.053 C 
BRANCH  13  14
ATOM     14  C   UNL     1      17.218 -37.790  26.645  1.00  0.00     0.041 C 
ATOM     15  O   UNL     1      18.150 -38.238  27.364  1.00  0.00    -0.550 OA
ATOM     16  O   UNL     1      15.922 -38.268  26.819  1.00  0.00    -0.550 OA
ENDBRANCH  13  14
ENDBRANCH  12  13
ENDBRANCH  11  12
ENDBRANCH  10  11
ENDBRANCH   9  10
ENDBRANCH   8   9
ENDBRANCH   7   8
ENDBRANCH   6   7
ENDBRANCH   5   6
ENDBRANCH   4   5
ENDBRANCH   3   4
ENDBRANCH   2   3
ENDBRANCH   1   2
BRANCH   1  17
ATOM     17  C   UNL     1      13.731 -30.267  24.014  1.00  0.00     0.000 C 
BRANCH  17  18
ATOM     18  C   UNL     1      12.915 -30.272  22.716  1.00  0.00     0.000 C 
BRANCH  18  19
ATOM     19  C   UNL     1      12.839 -31.685  22.116  1.00  0.00     0.000 C 
BRANCH  19  20
ATOM     20  C   UNL     1      13.531 -31.777  20.739  1.00  0.00     0.000 C 
BRANCH  20  21
ATOM     21  C   UNL     1      14.166 -33.150  20.444  1.00  0.00     0.000 C 
BRANCH  21  22
ATOM     22  C   UNL     1      14.749 -33.884  21.665  1.00  0.00    -0.000 C 
BRANCH  22  23
ATOM     23  C   UNL     1      15.746 -34.990  21.280  1.00  0.00    -0.000 C 
BRANCH  23  24
ATOM     24  C   UNL     1      16.191 -34.899  19.809  1.00  0.00    -0.000 C 
BRANCH  24  25
ATOM     25  C   UNL     1      17.305 -35.885  19.400  1.00  0.00    -0.000 C 
BRANCH  25  26
ATOM     26  C   UNL     1      16.921 -37.374  19.467  1.00  0.00    -0.000 C 
BRANCH  26  27
ATOM     27  C   UNL     1      17.835 -38.186  20.403  1.00  0.00    -0.000 C 
BRANCH  27  28
ATOM     28  C   UNL     1      18.787 -37.298  21.219  1.00  0.00    -0.000 C 
BRANCH  28  29
ATOM     29  C   UNL     1      19.189 -37.937  22.557  1.00  0.00    -0.003 C 
ATOM     30  C   UNL     1      20.647 -37.638  22.895  1.00  0.00     0.004 C 
ENDBRANCH  28  29
ENDBRANCH  27  28
ENDBRANCH  26  27
ENDBRANCH  25  26
ENDBRANCH  24  25
ENDBRANCH  23  24
ENDBRANCH  22  23
ENDBRANCH  21  22
ENDBRANCH  20  21
ENDBRANCH  19  20
ENDBRANCH  18  19
ENDBRANCH  17  18
ENDBRANCH   1  17
TORSDOF 26
ENDMDL
MODEL 2
REMARK VINA RESULT:    -4.764      2.929      6.442
REMARK INTER + INTRA:         -16.941
REMARK INTER:                 -12.332
REMARK INTRA:                  -4.608
REMARK UNBOUND:                -4.936
REMARK SMILES CCCCCCCCCCCCCCCCCCCCCCCCCCCC(=O)[O-]
REMARK SMILES IDX 15 1 16 2 17 3 18 4 19 5 20 6 21 7 22 8 23 9 24 10 25 11
REMARK SMILES IDX 26 12 27 13 28 14 29 15 30 16 14 17 13 18 12 19 11 20 10 21
REMARK SMILES IDX 9 22 8 23 7 24 6 25 5 26 4 27 3 28 2 29 1 30
REMARK H PARENT
REMARK Flexibility Score: inf
ROOT
ATOM      1  C   UNL     1      15.491 -33.870  20.518  1.00  0.00     0.000 C 
ENDROOT
BRANCH   1   2
ATOM      2  C   UNL     1      15.341 -34.463  21.934  1.00  0.00     0.000 C 
BRANCH   2   3
ATOM      3  C   UNL     1      16.283 -33.868  23.002  1.00  0.00     0.000 C 
BRANCH   3   4
ATOM      4  C   UNL     1      17.467 -34.765  23.408  1.00  0.00     0.000 C 
BRANCH   4   5
ATOM      5  C   UNL     1      18.834 -34.104  23.168  1.00  0.00     0.000 C 
BRANCH   5   6
ATOM      6  C   UNL     1      19.190 -34.005  21.674  1.00  0.00     0.000 C 
BRANCH   6   7
ATOM      7  C   UNL     1      19.594 -32.598  21.190  1.00  0.00     0.000 C 
BRANCH   7   8
ATOM      8  C   UNL     1      18.416 -31.655  20.881  1.00  0.00     0.000 C 
BRANCH   8   9
ATOM      9  C   UNL     1      18.047 -30.677  22.017  1.00  0.00     0.000 C 
BRANCH   9  10
ATOM     10  C   UNL     1      16.908 -29.698  21.687  1.00  0.00     0.000 C 
BRANCH  10  11
ATOM     11  C   UNL     1      15.516 -30.322  21.849  1.00  0.00     0.000 C 
BRANCH  11  12
ATOM     12  C   UNL     1      15.057 -30.269  23.312  1.00  0.00     0.006 C 
BRANCH  12  13
ATOM     13  C   UNL     1      13.820 -31.146  23.531  1.00  0.00     0.053 C 
BRANCH  13  14
ATOM     14  C   UNL     1      12.571 -30.414  23.150  1.00  0.00     0.041 C 
ATOM     15  O   UNL     1      11.878 -30.808  22.175  1.00  0.00    -0.550 OA
ATOM     16  O   UNL     1      12.163 -29.304  23.884  1.00  0.00    -0.550 OA
ENDBRANCH  13  14
ENDBRANCH  12  13
ENDBRANCH  11  12
ENDBRANCH  10  11
ENDBRANCH   9  10
ENDBRANCH   8   9
ENDBRANCH   7   8
ENDBRANCH   6   7
ENDBRANCH   5   6
ENDBRANCH   4   5
ENDBRANCH   3   4
ENDBRANCH   2   3
ENDBRANCH   1   2
BRANCH   1  17
ATOM     17  C   UNL     1      16.387 -34.681  19.566  1.00  0.00     0.000 C 
BRANCH  17  18
ATOM     18  C   UNL     1      16.535 -36.145  19.999  1.00  0.00     0.000 C 
BRANCH  18  19
ATOM     19  C   UNL     1      17.879 -36.727  19.532  1.00  0.00     0.000 C 
BRANCH  19  20
ATOM     20  C   UNL     1      18.225 -38.052  20.244  1.00  0.00     0.000 C 
BRANCH  20  21
ATOM     21  C   UNL     1      18.303 -37.939  21.780  1.00  0.00     0.000 C 
BRANCH  21  22
ATOM     22  C   UNL     1      19.688 -37.579  22.346  1.00  0.00    -0.000 C 
BRANCH  22  23
ATOM     23  C   UNL     1      20.116 -38.491  23.508  1.00  0.00    -0.000 C 
BRANCH  23  24
ATOM     24  C   UNL     1      19.075 -38.536  24.639  1.00  0.00    -0.000 C 
BRANCH  24  25
ATOM     25  C   UNL     1      19.430 -37.706  25.890  1.00  0.00    -0.000 C 
BRANCH  25  26
ATOM     26  C   UNL     1      18.309 -36.786  26.408  1.00  0.00    -0.000 C 
BRANCH  26  27
ATOM     27  C   UNL     1      16.913 -37.425  26.300  1.00  0.00    -0.000 C 
BRANCH  27  28
ATOM     28  C   UNL     1      16.647 -38.458  27.405  1.00  0.00    -0.000 C 
BRANCH  28  29
ATOM     29  C   UNL     1      16.395 -37.809  28.773  1.00  0.00    -0.003 C 
ATOM     30  C   UNL     1      17.379 -38.327  29.820  1.00  0.00     0.004 C 
ENDBRANCH  28  29
ENDBRANCH  27  28
ENDBRANCH  26  27
ENDBRANCH  25  26
ENDBRANCH  24  25
ENDBRANCH  23  24
ENDBRANCH  22  23
ENDBRANCH  21  22
ENDBRANCH  20  21
ENDBRANCH  19  20
ENDBRANCH  18  19
ENDBRANCH  17  18
ENDBRANCH   1  17
TORSDOF 26
ENDMDL
MODEL 3
REMARK VINA RESULT:    -4.729      2.798      6.211
REMARK INTER + INTRA:         -16.853
REMARK INTER:                 -12.157
REMARK INTRA:                  -4.696
REMARK UNBOUND:                -4.936
REMARK SMILES CCCCCCCCCCCCCCCCCCCCCCCCCCCC(=O)[O-]
REMARK SMILES IDX 15 1 16 2 17 3 18 4 19 5 20 6 21 7 22 8 23 9 24 10 25 11
REMARK SMILES IDX 26 12 27 13 28 14 29 15 30 16 14 17 13 18 12 19 11 20 10 21
REMARK SMILES IDX 9 22 8 23 7 24 6 25 5 26 4 27 3 28 2 29 1 30
REMARK H PARENT
REMARK Flexibility Score: inf
ROOT
ATOM      1  C   UNL     1      18.929 -37.741  22.037  1.00  0.00     0.000 C 
ENDROOT
BRANCH   1   2
ATOM      2  C   UNL     1      20.183 -37.447  22.886  1.00  0.00     0.000 C 
BRANCH   2   3
ATOM      3  C   UNL     1      20.332 -35.984  23.356  1.00  0.00     0.000 C 
BRANCH   3   4
ATOM      4  C   UNL     1      21.721 -35.358  23.127  1.00  0.00     0.000 C 
BRANCH   4   5
ATOM      5  C   UNL     1      21.750 -34.371  21.949  1.00  0.00     0.000 C 
BRANCH   5   6
ATOM      6  C   UNL     1      20.614 -33.335  22.016  1.00  0.00     0.000 C 
BRANCH   6   7
ATOM      7  C   UNL     1      19.838 -33.130  20.700  1.00  0.00     0.000 C 
BRANCH   7   8
ATOM      8  C   UNL     1      18.369 -32.700  20.873  1.00  0.00     0.000 C 
BRANCH   8   9
ATOM      9  C   UNL     1      18.147 -31.181  21.030  1.00  0.00     0.000 C 
BRANCH   9  10
ATOM     10  C   UNL     1      16.733 -30.773  21.477  1.00  0.00     0.000 C 
BRANCH  10  11
ATOM     11  C   UNL     1      16.665 -30.376  22.958  1.00  0.00     0.000 C 
BRANCH  11  12
ATOM     12  C   UNL     1      15.368 -29.617  23.264  1.00  0.00     0.006 C 
BRANCH  12  13
ATOM     13  C   UNL     1      14.283 -30.569  23.779  1.00  0.00     0.053 C 
BRANCH  13  14
ATOM     14  C   UNL     1      13.029 -30.435  22.973  1.00  0.00     0.041 C 
ATOM     15  O   UNL     1      12.105 -29.672  23.359  1.00  0.00    -0.550 OA
ATOM     16  O   UNL     1      12.888 -31.141  21.782  1.00  0.00    -0.550 OA
ENDBRANCH  13  14
ENDBRANCH  12  13
ENDBRANCH  11  12
ENDBRANCH  10  11
ENDBRANCH   9  10
ENDBRANCH   8   9
ENDBRANCH   7   8
ENDBRANCH   6   7
ENDBRANCH   5   6
ENDBRANCH   4   5
ENDBRANCH   3   4
ENDBRANCH   2   3
ENDBRANCH   1   2
BRANCH   1  17
ATOM     17  C   UNL     1      18.206 -36.495  21.494  1.00  0.00     0.000 C 
BRANCH  17  18
ATOM     18  C   UNL     1      18.160 -36.460  19.962  1.00  0.00     0.000 C 
BRANCH  18  19
ATOM     19  C   UNL     1      16.932 -35.681  19.463  1.00  0.00     0.000 C 
BRANCH  19  20
ATOM     20  C   UNL     1      15.789 -35.660  20.500  1.00  0.00     0.000 C 
BRANCH  20  21
ATOM     21  C   UNL     1      15.082 -34.296  20.630  1.00  0.00     0.000 C 
BRANCH  21  22
ATOM     22  C   UNL     1      15.017 -33.719  22.055  1.00  0.00    -0.000 C 
BRANCH  22  23
ATOM     23  C   UNL     1      15.619 -34.662  23.111  1.00  0.00    -0.000 C 
BRANCH  23  24
ATOM     24  C   UNL     1      16.852 -34.059  23.807  1.00  0.00    -0.000 C 
BRANCH  24  25
ATOM     25  C   UNL     1      17.137 -34.604  25.222  1.00  0.00    -0.000 C 
BRANCH  25  26
ATOM     26  C   UNL     1      16.886 -36.112  25.408  1.00  0.00    -0.000 C 
BRANCH  26  27
ATOM     27  C   UNL     1      17.923 -36.783  26.326  1.00  0.00    -0.000 C 
BRANCH  27  28
ATOM     28  C   UNL     1      17.621 -38.269  26.574  1.00  0.00    -0.000 C 
BRANCH  28  29
ATOM     29  C   UNL     1      16.235 -38.495  27.195  1.00  0.00    -0.003 C 
ATOM     30  C   UNL     1      16.205 -38.050  28.655  1.00  0.00     0.004 C 
ENDBRANCH  28  29
ENDBRANCH  27  28
ENDBRANCH  26  27
ENDBRANCH  25  26
ENDBRANCH  24  25
ENDBRANCH  23  24
ENDBRANCH  22  23
ENDBRANCH  21  22
ENDBRANCH  20  21
ENDBRANCH  19  20
ENDBRANCH  18  19
ENDBRANCH  17  18
ENDBRANCH   1  17
TORSDOF 26
ENDMDL
MODEL 4
REMARK VINA RESULT:    -4.729      2.679      6.311
REMARK INTER + INTRA:         -16.852
REMARK INTER:                 -12.340
REMARK INTRA:                  -4.512
REMARK UNBOUND:                -4.936
REMARK SMILES CCCCCCCCCCCCCCCCCCCCCCCCCCCC(=O)[O-]
REMARK SMILES IDX 15 1 16 2 17 3 18 4 19 5 20 6 21 7 22 8 23 9 24 10 25 11
REMARK SMILES IDX 26 12 27 13 28 14 29 15 30 16 14 17 13 18 12 19 11 20 10 21
REMARK SMILES IDX 9 22 8 23 7 24 6 25 5 26 4 27 3 28 2 29 1 30
REMARK H PARENT
REMARK Flexibility Score: inf
ROOT
ATOM      1  C   UNL     1      17.992 -34.227  20.128  1.00  0.00     0.000 C 
ENDROOT
BRANCH   1   2
ATOM      2  C   UNL     1      19.478 -34.148  19.720  1.00  0.00     0.000 C 
BRANCH   2   3
ATOM      3  C   UNL     1      20.487 -34.211  20.887  1.00  0.00     0.000 C 
BRANCH   3   4
ATOM      4  C   UNL     1      19.934 -33.778  22.258  1.00  0.00     0.000 C 
BRANCH   4   5
ATOM      5  C   UNL     1      20.819 -32.737  22.963  1.00  0.00     0.000 C 
BRANCH   5   6
ATOM      6  C   UNL     1      21.043 -31.476  22.111  1.00  0.00     0.000 C 
BRANCH   6   7
ATOM      7  C   UNL     1      19.980 -30.372  22.284  1.00  0.00     0.000 C 
BRANCH   7   8
ATOM      8  C   UNL     1      19.003 -30.221  21.103  1.00  0.00     0.000 C 
BRANCH   8   9
ATOM      9  C   UNL     1      17.679 -31.001  21.247  1.00  0.00     0.000 C 
BRANCH   9  10
ATOM     10  C   UNL     1      16.928 -30.769  22.569  1.00  0.00     0.000 C 
BRANCH  10  11
ATOM     11  C   UNL     1      17.015 -31.965  23.526  1.00  0.00     0.000 C 
BRANCH  11  12
ATOM     12  C   UNL     1      15.633 -32.594  23.745  1.00  0.00     0.006 C 
BRANCH  12  13
ATOM     13  C   UNL     1      15.316 -33.618  22.651  1.00  0.00     0.053 C 
BRANCH  13  14
ATOM     14  C   UNL     1      14.343 -33.058  21.661  1.00  0.00     0.041 C 
ATOM     15  O   UNL     1      13.566 -32.125  21.994  1.00  0.00    -0.550 OA
ATOM     16  O   UNL     1      14.310 -33.553  20.361  1.00  0.00    -0.550 OA
ENDBRANCH  13  14
ENDBRANCH  12  13
ENDBRANCH  11  12
ENDBRANCH  10  11
ENDBRANCH   9  10
ENDBRANCH   8   9
ENDBRANCH   7   8
ENDBRANCH   6   7
ENDBRANCH   5   6
ENDBRANCH   4   5
ENDBRANCH   3   4
ENDBRANCH   2   3
ENDBRANCH   1   2
BRANCH   1  17
ATOM     17  C   UNL     1      17.166 -35.278  19.365  1.00  0.00     0.000 C 
BRANCH  17  18
ATOM     18  C   UNL     1      16.878 -36.527  20.207  1.00  0.00     0.000 C 
BRANCH  18  19
ATOM     19  C   UNL     1      18.051 -37.518  20.144  1.00  0.00     0.000 C 
BRANCH  19  20
ATOM     20  C   UNL     1      18.355 -38.157  21.516  1.00  0.00     0.000 C 
BRANCH  20  21
ATOM     21  C   UNL     1      19.354 -37.356  22.375  1.00  0.00     0.000 C 
BRANCH  21  22
ATOM     22  C   UNL     1      18.920 -37.104  23.829  1.00  0.00    -0.000 C 
BRANCH  22  23
ATOM     23  C   UNL     1      17.715 -36.154  23.938  1.00  0.00    -0.000 C 
BRANCH  23  24
ATOM     24  C   UNL     1      17.065 -36.181  25.333  1.00  0.00    -0.000 C 
BRANCH  24  25
ATOM     25  C   UNL     1      17.816 -37.016  26.390  1.00  0.00    -0.000 C 
BRANCH  25  26
ATOM     26  C   UNL     1      17.234 -38.417  26.655  1.00  0.00    -0.000 C 
BRANCH  26  27
ATOM     27  C   UNL     1      16.141 -38.416  27.739  1.00  0.00    -0.000 C 
BRANCH  27  28
ATOM     28  C   UNL     1      16.606 -37.760  29.049  1.00  0.00    -0.000 C 
BRANCH  28  29
ATOM     29  C   UNL     1      17.236 -38.767  30.022  1.00  0.00    -0.003 C 
ATOM     30  C   UNL     1      18.690 -38.412  30.319  1.00  0.00     0.004 C 
ENDBRANCH  28  29
ENDBRANCH  27  28
ENDBRANCH  26  27
ENDBRANCH  25  26
ENDBRANCH  24  25
ENDBRANCH  23  24
ENDBRANCH  22  23
ENDBRANCH  21  22
ENDBRANCH  20  21
ENDBRANCH  19  20
ENDBRANCH  18  19
ENDBRANCH  17  18
ENDBRANCH   1  17
TORSDOF 26
ENDMDL
MODEL 5
REMARK VINA RESULT:    -4.701      3.181      6.577
REMARK INTER + INTRA:         -16.783
REMARK INTER:                 -12.658
REMARK INTRA:                  -4.125
REMARK UNBOUND:                -4.936
REMARK SMILES CCCCCCCCCCCCCCCCCCCCCCCCCCCC(=O)[O-]
REMARK SMILES IDX 15 1 16 2 17 3 18 4 19 5 20 6 21 7 22 8 23 9 24 10 25 11
REMARK SMILES IDX 26 12 27 13 28 14 29 15 30 16 14 17 13 18 12 19 11 20 10 21
REMARK SMILES IDX 9 22 8 23 7 24 6 25 5 26 4 27 3 28 2 29 1 30
REMARK H PARENT
REMARK Flexibility Score: inf
ROOT
ATOM      1  C   UNL     1      15.106 -34.429  19.783  1.00  0.00     0.000 C 
ENDROOT
BRANCH   1   2
ATOM      2  C   UNL     1      14.597 -33.676  21.031  1.00  0.00     0.000 C 
BRANCH   2   3
ATOM      3  C   UNL     1      13.833 -32.366  20.745  1.00  0.00     0.000 C 
BRANCH   3   4
ATOM      4  C   UNL     1      14.168 -31.190  21.683  1.00  0.00     0.000 C 
BRANCH   4   5
ATOM      5  C   UNL     1      13.251 -31.123  22.915  1.00  0.00     0.000 C 
BRANCH   5   6
ATOM      6  C   UNL     1      13.982 -31.495  24.218  1.00  0.00     0.000 C 
BRANCH   6   7
ATOM      7  C   UNL     1      14.371 -32.981  24.348  1.00  0.00     0.000 C 
BRANCH   7   8
ATOM      8  C   UNL     1      15.847 -33.237  24.704  1.00  0.00     0.000 C 
BRANCH   8   9
ATOM      9  C   UNL     1      16.734 -33.691  23.526  1.00  0.00     0.000 C 
BRANCH   9  10
ATOM     10  C   UNL     1      17.824 -32.690  23.108  1.00  0.00     0.000 C 
BRANCH  10  11
ATOM     11  C   UNL     1      18.280 -32.872  21.654  1.00  0.00     0.000 C 
BRANCH  11  12
ATOM     12  C   UNL     1      17.856 -31.676  20.792  1.00  0.00     0.006 C 
BRANCH  12  13
ATOM     13  C   UNL     1      17.858 -30.381  21.610  1.00  0.00     0.053 C 
BRANCH  13  14
ATOM     14  C   UNL     1      19.049 -29.539  21.275  1.00  0.00     0.041 C 
ATOM     15  O   UNL     1      18.912 -28.490  20.591  1.00  0.00    -0.550 OA
ATOM     16  O   UNL     1      20.311 -29.903  21.734  1.00  0.00    -0.550 OA
ENDBRANCH  13  14
ENDBRANCH  12  13
ENDBRANCH  11  12
ENDBRANCH  10  11
ENDBRANCH   9  10
ENDBRANCH   8   9
ENDBRANCH   7   8
ENDBRANCH   6   7
ENDBRANCH   5   6
ENDBRANCH   4   5
ENDBRANCH   3   4
ENDBRANCH   2   3
ENDBRANCH   1   2
BRANCH   1  17
ATOM     17  C   UNL     1      15.881 -35.725  20.080  1.00  0.00     0.000 C 
BRANCH  17  18
ATOM     18  C   UNL     1      17.364 -35.624  19.704  1.00  0.00     0.000 C 
BRANCH  18  19
ATOM     19  C   UNL     1      17.994 -37.018  19.558  1.00  0.00     0.000 C 
BRANCH  19  20
ATOM     20  C   UNL     1      18.099 -37.760  20.908  1.00  0.00     0.000 C 
BRANCH  20  21
ATOM     21  C   UNL     1      18.215 -36.829  22.131  1.00  0.00     0.000 C 
BRANCH  21  22
ATOM     22  C   UNL     1      19.427 -37.085  23.043  1.00  0.00    -0.000 C 
BRANCH  22  23
ATOM     23  C   UNL     1      19.714 -35.916  24.000  1.00  0.00    -0.000 C 
BRANCH  23  24
ATOM     24  C   UNL     1      19.513 -36.298  25.477  1.00  0.00    -0.000 C 
BRANCH  24  25
ATOM     25  C   UNL     1      18.200 -35.794  26.111  1.00  0.00    -0.000 C 
BRANCH  25  26
ATOM     26  C   UNL     1      16.996 -36.743  25.970  1.00  0.00    -0.000 C 
BRANCH  26  27
ATOM     27  C   UNL     1      17.244 -38.124  26.604  1.00  0.00    -0.000 C 
BRANCH  27  28
ATOM     28  C   UNL     1      15.993 -38.695  27.290  1.00  0.00    -0.000 C 
BRANCH  28  29
ATOM     29  C   UNL     1      15.943 -38.373  28.790  1.00  0.00    -0.003 C 
ATOM     30  C   UNL     1      17.332 -38.048  29.332  1.00  0.00     0.004 C 
ENDBRANCH  28  29
ENDBRANCH  27  28
ENDBRANCH  26  27
ENDBRANCH  25  26
ENDBRANCH  24  25
ENDBRANCH  23  24
ENDBRANCH  22  23
ENDBRANCH  21  22
ENDBRANCH  20  21
ENDBRANCH  19  20
ENDBRANCH  18  19
ENDBRANCH  17  18
ENDBRANCH   1  17
TORSDOF 26
ENDMDL
MODEL 6
REMARK VINA RESULT:    -4.691      1.759      4.161
REMARK INTER + INTRA:         -16.758
REMARK INTER:                 -13.110
REMARK INTRA:                  -3.649
REMARK UNBOUND:                -4.936
REMARK SMILES CCCCCCCCCCCCCCCCCCCCCCCCCCCC(=O)[O-]
REMARK SMILES IDX 15 1 16 2 17 3 18 4 19 5 20 6 21 7 22 8 23 9 24 10 25 11
REMARK SMILES IDX 26 12 27 13 28 14 29 15 30 16 14 17 13 18 12 19 11 20 10 21
REMARK SMILES IDX 9 22 8 23 7 24 6 25 5 26 4 27 3 28 2 29 1 30
REMARK H PARENT
REMARK Flexibility Score: inf
ROOT
ATOM      1  C   UNL     1      13.122 -31.513  22.980  1.00  0.00     0.000 C 
ENDROOT
BRANCH   1   2
ATOM      2  C   UNL     1      13.129 -30.118  23.639  1.00  0.00     0.000 C 
BRANCH   2   3
ATOM      3  C   UNL     1      14.527 -29.505  23.870  1.00  0.00     0.000 C 
BRANCH   3   4
ATOM      4  C   UNL     1      15.612 -29.945  22.868  1.00  0.00     0.000 C 
BRANCH   4   5
ATOM      5  C   UNL     1      16.852 -30.549  23.548  1.00  0.00     0.000 C 
BRANCH   5   6
ATOM      6  C   UNL     1      16.918 -32.080  23.408  1.00  0.00     0.000 C 
BRANCH   6   7
ATOM      7  C   UNL     1      16.187 -32.869  24.512  1.00  0.00     0.000 C 
BRANCH   7   8
ATOM      8  C   UNL     1      16.114 -34.391  24.282  1.00  0.00     0.000 C 
BRANCH   8   9
ATOM      9  C   UNL     1      17.419 -35.159  24.580  1.00  0.00     0.000 C 
BRANCH   9  10
ATOM     10  C   UNL     1      17.241 -36.450  25.397  1.00  0.00     0.000 C 
BRANCH  10  11
ATOM     11  C   UNL     1      18.534 -36.905  26.087  1.00  0.00     0.000 C 
BRANCH  11  12
ATOM     12  C   UNL     1      18.267 -38.089  27.026  1.00  0.00     0.006 C 
BRANCH  12  13
ATOM     13  C   UNL     1      16.776 -38.438  27.061  1.00  0.00     0.053 C 
BRANCH  13  14
ATOM     14  C   UNL     1      16.349 -38.821  28.444  1.00  0.00     0.041 C 
ATOM     15  O   UNL     1      17.190 -38.852  29.380  1.00  0.00    -0.550 OA
ATOM     16  O   UNL     1      15.016 -39.125  28.702  1.00  0.00    -0.550 OA
ENDBRANCH  13  14
ENDBRANCH  12  13
ENDBRANCH  11  12
ENDBRANCH  10  11
ENDBRANCH   9  10
ENDBRANCH   8   9
ENDBRANCH   7   8
ENDBRANCH   6   7
ENDBRANCH   5   6
ENDBRANCH   4   5
ENDBRANCH   3   4
ENDBRANCH   2   3
ENDBRANCH   1   2
BRANCH   1  17
ATOM     17  C   UNL     1      12.541 -31.553  21.555  1.00  0.00     0.000 C 
BRANCH  17  18
ATOM     18  C   UNL     1      13.498 -32.199  20.545  1.00  0.00     0.000 C 
BRANCH  18  19
ATOM     19  C   UNL     1      14.422 -33.217  21.232  1.00  0.00     0.000 C 
BRANCH  19  20
ATOM     20  C   UNL     1      14.916 -34.311  20.261  1.00  0.00     0.000 C 
BRANCH  20  21
ATOM     21  C   UNL     1      16.120 -35.120  20.784  1.00  0.00     0.000 C 
BRANCH  21  22
ATOM     22  C   UNL     1      17.132 -35.563  19.713  1.00  0.00    -0.000 C 
BRANCH  22  23
ATOM     23  C   UNL     1      17.825 -34.380  19.017  1.00  0.00    -0.000 C 
BRANCH  23  24
ATOM     24  C   UNL     1      18.308 -33.309  20.011  1.00  0.00    -0.000 C 
BRANCH  24  25
ATOM     25  C   UNL     1      19.544 -33.700  20.846  1.00  0.00    -0.000 C 
BRANCH  25  26
ATOM     26  C   UNL     1      20.125 -32.577  21.726  1.00  0.00    -0.000 C 
BRANCH  26  27
ATOM     27  C   UNL     1      21.002 -31.591  20.934  1.00  0.00    -0.000 C 
BRANCH  27  28
ATOM     28  C   UNL     1      20.880 -30.147  21.446  1.00  0.00    -0.000 C 
BRANCH  28  29
ATOM     29  C   UNL     1      19.444 -29.611  21.363  1.00  0.00    -0.003 C 
ATOM     30  C   UNL     1      19.385 -28.307  20.571  1.00  0.00     0.004 C 
ENDBRANCH  28  29
ENDBRANCH  27  28
ENDBRANCH  26  27
ENDBRANCH  25  26
ENDBRANCH  24  25
ENDBRANCH  23  24
ENDBRANCH  22  23
ENDBRANCH  21  22
ENDBRANCH  20  21
ENDBRANCH  19  20
ENDBRANCH  18  19
ENDBRANCH  17  18
ENDBRANCH   1  17
TORSDOF 26
ENDMDL
MODEL 7
REMARK VINA RESULT:    -4.662      2.389      3.919
REMARK INTER + INTRA:         -16.685
REMARK INTER:                 -10.504
REMARK INTRA:                  -6.182
REMARK UNBOUND:                -4.936
REMARK SMILES CCCCCCCCCCCCCCCCCCCCCCCCCCCC(=O)[O-]
REMARK SMILES IDX 15 1 16 2 17 3 18 4 19 5 20 6 21 7 22 8 23 9 24 10 25 11
REMARK SMILES IDX 26 12 27 13 28 14 29 15 30 16 14 17 13 18 12 19 11 20 10 21
REMARK SMILES IDX 9 22 8 23 7 24 6 25 5 26 4 27 3 28 2 29 1 30
REMARK H PARENT
REMARK Flexibility Score: inf
ROOT
ATOM      1  C   UNL     1      14.531 -31.443  23.483  1.00  0.00     0.000 C 
ENDROOT
BRANCH   1   2
ATOM      2  C   UNL     1      15.737 -30.498  23.667  1.00  0.00     0.000 C 
BRANCH   2   3
ATOM      3  C   UNL     1      17.088 -31.197  23.925  1.00  0.00     0.000 C 
BRANCH   3   4
ATOM      4  C   UNL     1      18.159 -30.979  22.840  1.00  0.00     0.000 C 
BRANCH   4   5
ATOM      5  C   UNL     1      17.566 -30.832  21.429  1.00  0.00     0.000 C 
BRANCH   5   6
ATOM      6  C   UNL     1      17.942 -32.003  20.503  1.00  0.00     0.000 C 
BRANCH   6   7
ATOM      7  C   UNL     1      18.624 -33.196  21.202  1.00  0.00     0.000 C 
BRANCH   7   8
ATOM      8  C   UNL     1      20.003 -33.578  20.635  1.00  0.00     0.000 C 
BRANCH   8   9
ATOM      9  C   UNL     1      21.015 -34.100  21.676  1.00  0.00     0.000 C 
BRANCH   9  10
ATOM     10  C   UNL     1      21.106 -33.270  22.968  1.00  0.00     0.000 C 
BRANCH  10  11
ATOM     11  C   UNL     1      21.848 -33.998  24.097  1.00  0.00     0.000 C 
BRANCH  11  12
ATOM     12  C   UNL     1      21.587 -33.324  25.450  1.00  0.00     0.006 C 
BRANCH  12  13
ATOM     13  C   UNL     1      20.682 -32.098  25.287  1.00  0.00     0.053 C 
BRANCH  13  14
ATOM     14  C   UNL     1      20.167 -31.634  26.614  1.00  0.00     0.041 C 
ATOM     15  O   UNL     1      20.778 -31.938  27.672  1.00  0.00    -0.550 OA
ATOM     16  O   UNL     1      19.021 -30.847  26.680  1.00  0.00    -0.550 OA
ENDBRANCH  13  14
ENDBRANCH  12  13
ENDBRANCH  11  12
ENDBRANCH  10  11
ENDBRANCH   9  10
ENDBRANCH   8   9
ENDBRANCH   7   8
ENDBRANCH   6   7
ENDBRANCH   5   6
ENDBRANCH   4   5
ENDBRANCH   3   4
ENDBRANCH   2   3
ENDBRANCH   1   2
BRANCH   1  17
ATOM     17  C   UNL     1      14.755 -32.885  23.974  1.00  0.00     0.000 C 
BRANCH  17  18
ATOM     18  C   UNL     1      14.978 -33.872  22.823  1.00  0.00     0.000 C 
BRANCH  18  19
ATOM     19  C   UNL     1      14.529 -33.269  21.482  1.00  0.00     0.000 C 
BRANCH  19  20
ATOM     20  C   UNL     1      14.949 -34.138  20.276  1.00  0.00     0.000 C 
BRANCH  20  21
ATOM     21  C   UNL     1      15.704 -35.425  20.661  1.00  0.00     0.000 C 
BRANCH  21  22
ATOM     22  C   UNL     1      16.650 -35.983  19.583  1.00  0.00    -0.000 C 
BRANCH  22  23
ATOM     23  C   UNL     1      17.379 -37.261  20.028  1.00  0.00    -0.000 C 
BRANCH  23  24
ATOM     24  C   UNL     1      18.707 -36.964  20.747  1.00  0.00    -0.000 C 
BRANCH  24  25
ATOM     25  C   UNL     1      18.916 -37.719  22.076  1.00  0.00    -0.000 C 
BRANCH  25  26
ATOM     26  C   UNL     1      19.090 -36.825  23.318  1.00  0.00    -0.000 C 
BRANCH  26  27
ATOM     27  C   UNL     1      17.838 -35.986  23.632  1.00  0.00    -0.000 C 
BRANCH  27  28
ATOM     28  C   UNL     1      18.155 -34.740  24.472  1.00  0.00    -0.000 C 
BRANCH  28  29
ATOM     29  C   UNL     1      17.385 -34.711  25.800  1.00  0.00    -0.003 C 
ATOM     30  C   UNL     1      17.069 -36.123  26.286  1.00  0.00     0.004 C 
ENDBRANCH  28  29
ENDBRANCH  27  28
ENDBRANCH  26  27
ENDBRANCH  25  26
ENDBRANCH  24  25
ENDBRANCH  23  24
ENDBRANCH  22  23
ENDBRANCH  21  22
ENDBRANCH  20  21
ENDBRANCH  19  20
ENDBRANCH  18  19
ENDBRANCH  17  18
ENDBRANCH   1  17
TORSDOF 26
ENDMDL
MODEL 8
REMARK VINA RESULT:    -4.660      3.066      6.253
REMARK INTER + INTRA:         -16.679
REMARK INTER:                 -11.670
REMARK INTRA:                  -5.009
REMARK UNBOUND:                -4.936
REMARK SMILES CCCCCCCCCCCCCCCCCCCCCCCCCCCC(=O)[O-]
REMARK SMILES IDX 15 1 16 2 17 3 18 4 19 5 20 6 21 7 22 8 23 9 24 10 25 11
REMARK SMILES IDX 26 12 27 13 28 14 29 15 30 16 14 17 13 18 12 19 11 20 10 21
REMARK SMILES IDX 9 22 8 23 7 24 6 25 5 26 4 27 3 28 2 29 1 30
REMARK H PARENT
REMARK Flexibility Score: inf
ROOT
ATOM      1  C   UNL     1      17.027 -34.566  25.667  1.00  0.00     0.000 C 
ENDROOT
BRANCH   1   2
ATOM      2  C   UNL     1      16.013 -33.856  24.745  1.00  0.00     0.000 C 
BRANCH   2   3
ATOM      3  C   UNL     1      16.421 -33.770  23.259  1.00  0.00     0.000 C 
BRANCH   3   4
ATOM      4  C   UNL     1      15.345 -34.223  22.254  1.00  0.00     0.000 C 
BRANCH   4   5
ATOM      5  C   UNL     1      15.203 -33.272  21.054  1.00  0.00     0.000 C 
BRANCH   5   6
ATOM      6  C   UNL     1      13.745 -32.844  20.807  1.00  0.00     0.000 C 
BRANCH   6   7
ATOM      7  C   UNL     1      13.396 -31.415  21.270  1.00  0.00     0.000 C 
BRANCH   7   8
ATOM      8  C   UNL     1      12.817 -31.317  22.694  1.00  0.00     0.000 C 
BRANCH   8   9
ATOM      9  C   UNL     1      13.848 -30.995  23.796  1.00  0.00     0.000 C 
BRANCH   9  10
ATOM     10  C   UNL     1      14.750 -29.783  23.509  1.00  0.00     0.000 C 
BRANCH  10  11
ATOM     11  C   UNL     1      16.214 -30.172  23.258  1.00  0.00     0.000 C 
BRANCH  11  12
ATOM     12  C   UNL     1      16.622 -29.869  21.811  1.00  0.00     0.006 C 
BRANCH  12  13
ATOM     13  C   UNL     1      17.881 -30.651  21.421  1.00  0.00     0.053 C 
BRANCH  13  14
ATOM     14  C   UNL     1      19.073 -29.748  21.360  1.00  0.00     0.041 C 
ATOM     15  O   UNL     1      18.971 -28.596  20.861  1.00  0.00    -0.550 OA
ATOM     16  O   UNL     1      20.295 -30.172  21.872  1.00  0.00    -0.550 OA
ENDBRANCH  13  14
ENDBRANCH  12  13
ENDBRANCH  11  12
ENDBRANCH  10  11
ENDBRANCH   9  10
ENDBRANCH   8   9
ENDBRANCH   7   8
ENDBRANCH   6   7
ENDBRANCH   5   6
ENDBRANCH   4   5
ENDBRANCH   3   4
ENDBRANCH   2   3
ENDBRANCH   1   2
BRANCH   1  17
ATOM     17  C   UNL     1      16.975 -36.103  25.628  1.00  0.00     0.000 C 
BRANCH  17  18
ATOM     18  C   UNL     1      18.215 -36.753  26.252  1.00  0.00     0.000 C 
BRANCH  18  19
ATOM     19  C   UNL     1      19.472 -36.460  25.416  1.00  0.00     0.000 C 
BRANCH  19  20
ATOM     20  C   UNL     1      19.416 -37.116  24.020  1.00  0.00     0.000 C 
BRANCH  20  21
ATOM     21  C   UNL     1      19.190 -36.121  22.865  1.00  0.00     0.000 C 
BRANCH  21  22
ATOM     22  C   UNL     1      20.376 -35.192  22.553  1.00  0.00    -0.000 C 
BRANCH  22  23
ATOM     23  C   UNL     1      19.936 -33.776  22.144  1.00  0.00    -0.000 C 
BRANCH  23  24
ATOM     24  C   UNL     1      20.121 -33.511  20.639  1.00  0.00    -0.000 C 
BRANCH  24  25
ATOM     25  C   UNL     1      19.522 -34.583  19.706  1.00  0.00    -0.000 C 
BRANCH  25  26
ATOM     26  C   UNL     1      18.020 -34.425  19.403  1.00  0.00    -0.000 C 
BRANCH  26  27
ATOM     27  C   UNL     1      17.347 -35.751  19.005  1.00  0.00    -0.000 C 
BRANCH  27  28
ATOM     28  C   UNL     1      17.089 -36.670  20.210  1.00  0.00    -0.000 C 
BRANCH  28  29
ATOM     29  C   UNL     1      17.865 -37.992  20.121  1.00  0.00    -0.003 C 
ATOM     30  C   UNL     1      18.133 -38.379  18.669  1.00  0.00     0.004 C 
ENDBRANCH  28  29
ENDBRANCH  27  28
ENDBRANCH  26  27
ENDBRANCH  25  26
ENDBRANCH  24  25
ENDBRANCH  23  24
ENDBRANCH  22  23
ENDBRANCH  21  22
ENDBRANCH  20  21
ENDBRANCH  19  20
ENDBRANCH  18  19
ENDBRANCH  17  18
ENDBRANCH   1  17
TORSDOF 26
ENDMDL
MODEL 9
REMARK VINA RESULT:    -4.652      1.340      4.287
REMARK INTER + INTRA:         -16.660
REMARK INTER:                 -11.618
REMARK INTRA:                  -5.042
REMARK UNBOUND:                -4.936
REMARK SMILES CCCCCCCCCCCCCCCCCCCCCCCCCCCC(=O)[O-]
REMARK SMILES IDX 15 1 16 2 17 3 18 4 19 5 20 6 21 7 22 8 23 9 24 10 25 11
REMARK SMILES IDX 26 12 27 13 28 14 29 15 30 16 14 17 13 18 12 19 11 20 10 21
REMARK SMILES IDX 9 22 8 23 7 24 6 25 5 26 4 27 3 28 2 29 1 30
REMARK H PARENT
REMARK Flexibility Score: inf
ROOT
ATOM      1  C   UNL     1      19.277 -31.291  21.298  1.00  0.00     0.000 C 
ENDROOT
BRANCH   1   2
ATOM      2  C   UNL     1      19.726 -32.709  20.887  1.00  0.00     0.000 C 
BRANCH   2   3
ATOM      3  C   UNL     1      18.683 -33.528  20.098  1.00  0.00     0.000 C 
BRANCH   3   4
ATOM      4  C   UNL     1      19.062 -34.998  19.835  1.00  0.00     0.000 C 
BRANCH   4   5
ATOM      5  C   UNL     1      17.840 -35.914  19.660  1.00  0.00     0.000 C 
BRANCH   5   6
ATOM      6  C   UNL     1      17.873 -37.132  20.600  1.00  0.00     0.000 C 
BRANCH   6   7
ATOM      7  C   UNL     1      18.493 -36.870  21.987  1.00  0.00     0.000 C 
BRANCH   7   8
ATOM      8  C   UNL     1      19.402 -37.996  22.514  1.00  0.00     0.000 C 
BRANCH   8   9
ATOM      9  C   UNL     1      19.365 -38.203  24.043  1.00  0.00     0.000 C 
BRANCH   9  10
ATOM     10  C   UNL     1      18.800 -37.019  24.846  1.00  0.00     0.000 C 
BRANCH  10  11
ATOM     11  C   UNL     1      17.462 -37.339  25.525  1.00  0.00     0.000 C 
BRANCH  11  12
ATOM     12  C   UNL     1      17.281 -36.508  26.802  1.00  0.00     0.006 C 
BRANCH  12  13
ATOM     13  C   UNL     1      16.680 -37.354  27.928  1.00  0.00     0.053 C 
BRANCH  13  14
ATOM     14  C   UNL     1      17.745 -37.832  28.864  1.00  0.00     0.041 C 
ATOM     15  O   UNL     1      18.918 -38.019  28.446  1.00  0.00    -0.550 OA
ATOM     16  O   UNL     1      17.446 -38.053  30.205  1.00  0.00    -0.550 OA
ENDBRANCH  13  14
ENDBRANCH  12  13
ENDBRANCH  11  12
ENDBRANCH  10  11
ENDBRANCH   9  10
ENDBRANCH   8   9
ENDBRANCH   7   8
ENDBRANCH   6   7
ENDBRANCH   5   6
ENDBRANCH   4   5
ENDBRANCH   3   4
ENDBRANCH   2   3
ENDBRANCH   1   2
BRANCH   1  17
ATOM     17  C   UNL     1      17.761 -31.040  21.209  1.00  0.00     0.000 C 
BRANCH  17  18
ATOM     18  C   UNL     1      17.321 -29.798  21.993  1.00  0.00     0.000 C 
BRANCH  18  19
ATOM     19  C   UNL     1      16.509 -30.189  23.238  1.00  0.00     0.000 C 
BRANCH  19  20
ATOM     20  C   UNL     1      15.029 -29.765  23.131  1.00  0.00     0.000 C 
BRANCH  20  21
ATOM     21  C   UNL     1      14.029 -30.850  23.581  1.00  0.00     0.000 C 
BRANCH  21  22
ATOM     22  C   UNL     1      13.301 -31.588  22.444  1.00  0.00    -0.000 C 
BRANCH  22  23
ATOM     23  C   UNL     1      14.213 -31.885  21.242  1.00  0.00    -0.000 C 
BRANCH  23  24
ATOM     24  C   UNL     1      14.385 -33.394  20.989  1.00  0.00    -0.000 C 
BRANCH  24  25
ATOM     25  C   UNL     1      15.590 -34.045  21.699  1.00  0.00    -0.000 C 
BRANCH  25  26
ATOM     26  C   UNL     1      15.325 -34.521  23.139  1.00  0.00    -0.000 C 
BRANCH  26  27
ATOM     27  C   UNL     1      16.177 -33.775  24.182  1.00  0.00    -0.000 C 
BRANCH  27  28
ATOM     28  C   UNL     1      17.654 -33.666  23.772  1.00  0.00    -0.000 C 
BRANCH  28  29
ATOM     29  C   UNL     1      18.580 -33.401  24.968  1.00  0.00    -0.003 C 
ATOM     30  C   UNL     1      19.189 -32.003  24.895  1.00  0.00     0.004 C 
ENDBRANCH  28  29
ENDBRANCH  27  28
ENDBRANCH  26  27
ENDBRANCH  25  26
ENDBRANCH  24  25
ENDBRANCH  23  24
ENDBRANCH  22  23
ENDBRANCH  21  22
ENDBRANCH  20  21
ENDBRANCH  19  20
ENDBRANCH  18  19
ENDBRANCH  17  18
ENDBRANCH   1  17
TORSDOF 26
ENDMDL
