MODEL 1
REMARK VINA RESULT:    -4.580      0.000      0.000
REMARK INTER + INTRA:         -14.002
REMARK INTER:                 -10.471
REMARK INTRA:                  -3.531
REMARK UNBOUND:                -3.531
REMARK SMILES CCCCCCCCCCCCCCCCCCCCCCCC(=O)[O-]
REMARK SMILES IDX 13 1 14 2 15 3 16 4 17 5 18 6 19 7 20 8 21 9 22 10 23 11
REMARK SMILES IDX 24 12 25 13 26 14 12 15 11 16 10 17 9 18 8 19 7 20 6 21 5 22
REMARK SMILES IDX 4 23 3 24 2 25 1 26
REMARK H PARENT
REMARK Flexibility Score: inf
ROOT
ATOM      1  C   UNL     1      -9.268   2.734  23.441  1.00  0.00     0.000 C 
ENDROOT
BRANCH   1   2
ATOM      2  C   UNL     1     -10.789   2.957  23.479  1.00  0.00     0.000 C 
BRANCH   2   3
ATOM      3  C   UNL     1     -11.262   3.986  22.439  1.00  0.00     0.000 C 
BRANCH   3   4
ATOM      4  C   UNL     1     -12.790   4.141  22.410  1.00  0.00     0.000 C 
BRANCH   4   5
ATOM      5  C   UNL     1     -13.390   3.410  21.199  1.00  0.00     0.000 C 
BRANCH   5   6
ATOM      6  C   UNL     1     -13.624   4.343  19.996  1.00  0.00     0.000 C 
BRANCH   6   7
ATOM      7  C   UNL     1     -13.392   3.696  18.616  1.00  0.00     0.000 C 
BRANCH   7   8
ATOM      8  C   UNL     1     -12.075   4.090  17.920  1.00  0.00     0.000 C 
BRANCH   8   9
ATOM      9  C   UNL     1     -11.964   3.660  16.446  1.00  0.00     0.000 C 
BRANCH   9  10
ATOM     10  C   UNL     1     -11.947   2.132  16.272  1.00  0.00     0.006 C 
BRANCH  10  11
ATOM     11  C   UNL     1     -10.540   1.598  15.975  1.00  0.00     0.053 C 
BRANCH  11  12
ATOM     12  C   UNL     1     -10.508   0.768  14.727  1.00  0.00     0.041 C 
ATOM     13  O   UNL     1      -9.407   0.400  14.239  1.00  0.00    -0.550 OA
ATOM     14  O   UNL     1     -11.693   0.420  14.092  1.00  0.00    -0.550 OA
ENDBRANCH  11  12
ENDBRANCH  10  11
ENDBRANCH   9  10
ENDBRANCH   8   9
ENDBRANCH   7   8
ENDBRANCH   6   7
ENDBRANCH   5   6
ENDBRANCH   4   5
ENDBRANCH   3   4
ENDBRANCH   2   3
ENDBRANCH   1   2
BRANCH   1  15
ATOM     15  C   UNL     1      -8.836   1.465  24.194  1.00  0.00     0.000 C 
BRANCH  15  16
ATOM     16  C   UNL     1      -9.562   0.204  23.692  1.00  0.00     0.000 C 
BRANCH  16  17
ATOM     17  C   UNL     1      -8.723  -0.613  22.692  1.00  0.00     0.000 C 
BRANCH  17  18
ATOM     18  C   UNL     1      -9.265  -0.644  21.251  1.00  0.00    -0.000 C 
BRANCH  18  19
ATOM     19  C   UNL     1     -10.675  -0.043  21.128  1.00  0.00    -0.000 C 
BRANCH  19  20
ATOM     20  C   UNL     1     -10.732   1.167  20.177  1.00  0.00    -0.000 C 
BRANCH  20  21
ATOM     21  C   UNL     1      -9.374   1.613  19.597  1.00  0.00    -0.000 C 
BRANCH  21  22
ATOM     22  C   UNL     1      -9.114   3.132  19.627  1.00  0.00    -0.000 C 
BRANCH  22  23
ATOM     23  C   UNL     1      -8.135   3.642  18.553  1.00  0.00    -0.000 C 
BRANCH  23  24
ATOM     24  C   UNL     1      -6.888   4.310  19.158  1.00  0.00    -0.000 C 
BRANCH  24  25
ATOM     25  C   UNL     1      -5.582   3.768  18.560  1.00  0.00    -0.003 C 
ATOM     26  C   UNL     1      -4.368   4.619  18.927  1.00  0.00     0.004 C 
ENDBRANCH  24  25
ENDBRANCH  23  24
ENDBRANCH  22  23
ENDBRANCH  21  22
ENDBRANCH  20  21
ENDBRANCH  19  20
ENDBRANCH  18  19
ENDBRANCH  17  18
ENDBRANCH  16  17
ENDBRANCH  15  16
ENDBRANCH   1  15
TORSDOF 22
ENDMDL
MODEL 2
REMARK VINA RESULT:    -4.559      1.209      2.594
REMARK INTER + INTRA:         -13.954
REMARK INTER:                  -9.939
REMARK INTRA:                  -4.014
REMARK UNBOUND:                -3.531
REMARK SMILES CCCCCCCCCCCCCCCCCCCCCCCC(=O)[O-]
REMARK SMILES IDX 13 1 14 2 15 3 16 4 17 5 18 6 19 7 20 8 21 9 22 10 23 11
REMARK SMILES IDX 24 12 25 13 26 14 12 15 11 16 10 17 9 18 8 19 7 20 6 21 5 22
REMARK SMILES IDX 4 23 3 24 2 25 1 26
REMARK H PARENT
REMARK Flexibility Score: inf
ROOT
ATOM      1  C   UNL     1      -9.739  -0.418  21.262  1.00  0.00     0.000 C 
ENDROOT
BRANCH   1   2
ATOM      2  C   UNL     1      -9.312   0.363  20.008  1.00  0.00     0.000 C 
BRANCH   2   3
ATOM      3  C   UNL     1     -10.234   1.558  19.714  1.00  0.00     0.000 C 
BRANCH   3   4
ATOM      4  C   UNL     1     -11.640   1.382  20.309  1.00  0.00     0.000 C 
BRANCH   4   5
ATOM      5  C   UNL     1     -12.328   2.743  20.497  1.00  0.00     0.000 C 
BRANCH   5   6
ATOM      6  C   UNL     1     -12.057   3.713  19.333  1.00  0.00     0.000 C 
BRANCH   6   7
ATOM      7  C   UNL     1     -13.178   3.791  18.277  1.00  0.00     0.000 C 
BRANCH   7   8
ATOM      8  C   UNL     1     -12.717   3.621  16.816  1.00  0.00     0.000 C 
BRANCH   8   9
ATOM      9  C   UNL     1     -11.204   3.418  16.631  1.00  0.00     0.000 C 
BRANCH   9  10
ATOM     10  C   UNL     1     -10.855   2.036  16.050  1.00  0.00     0.006 C 
BRANCH  10  11
ATOM     11  C   UNL     1     -12.105   1.255  15.625  1.00  0.00     0.053 C 
BRANCH  11  12
ATOM     12  C   UNL     1     -11.844   0.390  14.430  1.00  0.00     0.041 C 
ATOM     13  O   UNL     1     -10.762   0.497  13.794  1.00  0.00    -0.550 OA
ATOM     14  O   UNL     1     -12.805  -0.519  14.004  1.00  0.00    -0.550 OA
ENDBRANCH  11  12
ENDBRANCH  10  11
ENDBRANCH   9  10
ENDBRANCH   8   9
ENDBRANCH   7   8
ENDBRANCH   6   7
ENDBRANCH   5   6
ENDBRANCH   4   5
ENDBRANCH   3   4
ENDBRANCH   2   3
ENDBRANCH   1   2
BRANCH   1  15
ATOM     15  C   UNL     1      -8.541  -0.975  22.050  1.00  0.00     0.000 C 
BRANCH  15  16
ATOM     16  C   UNL     1      -8.551  -0.540  23.526  1.00  0.00     0.000 C 
BRANCH  16  17
ATOM     17  C   UNL     1      -9.925  -0.018  23.986  1.00  0.00     0.000 C 
BRANCH  17  18
ATOM     18  C   UNL     1      -9.918   1.393  24.604  1.00  0.00    -0.000 C 
BRANCH  18  19
ATOM     19  C   UNL     1     -10.348   2.484  23.608  1.00  0.00    -0.000 C 
BRANCH  19  20
ATOM     20  C   UNL     1      -9.155   3.162  22.909  1.00  0.00    -0.000 C 
BRANCH  20  21
ATOM     21  C   UNL     1      -9.516   4.356  22.001  1.00  0.00    -0.000 C 
BRANCH  21  22
ATOM     22  C   UNL     1      -8.327   5.003  21.263  1.00  0.00    -0.000 C 
BRANCH  22  23
ATOM     23  C   UNL     1      -8.684   5.670  19.921  1.00  0.00    -0.000 C 
BRANCH  23  24
ATOM     24  C   UNL     1      -8.472   4.733  18.719  1.00  0.00    -0.000 C 
BRANCH  24  25
ATOM     25  C   UNL     1      -7.319   3.743  18.943  1.00  0.00    -0.003 C 
ATOM     26  C   UNL     1      -5.946   4.397  18.799  1.00  0.00     0.004 C 
ENDBRANCH  24  25
ENDBRANCH  23  24
ENDBRANCH  22  23
ENDBRANCH  21  22
ENDBRANCH  20  21
ENDBRANCH  19  20
ENDBRANCH  18  19
ENDBRANCH  17  18
ENDBRANCH  16  17
ENDBRANCH  15  16
ENDBRANCH   1  15
TORSDOF 22
ENDMDL
MODEL 3
REMARK VINA RESULT:    -4.405      1.625      4.872
REMARK INTER + INTRA:         -13.601
REMARK INTER:                  -9.718
REMARK INTRA:                  -3.883
REMARK UNBOUND:                -3.531
REMARK SMILES CCCCCCCCCCCCCCCCCCCCCCCC(=O)[O-]
REMARK SMILES IDX 13 1 14 2 15 3 16 4 17 5 18 6 19 7 20 8 21 9 22 10 23 11
REMARK SMILES IDX 24 12 25 13 26 14 12 15 11 16 10 17 9 18 8 19 7 20 6 21 5 22
REMARK SMILES IDX 4 23 3 24 2 25 1 26
REMARK H PARENT
REMARK Flexibility Score: inf
ROOT
ATOM      1  C   UNL     1      -8.761   2.548  18.447  1.00  0.00     0.000 C 
ENDROOT
BRANCH   1   2
ATOM      2  C   UNL     1      -8.667   3.786  19.355  1.00  0.00     0.000 C 
BRANCH   2   3
ATOM      3  C   UNL     1      -9.322   3.561  20.728  1.00  0.00     0.000 C 
BRANCH   3   4
ATOM      4  C   UNL     1     -10.577   4.423  20.935  1.00  0.00     0.000 C 
BRANCH   4   5
ATOM      5  C   UNL     1     -11.784   3.551  21.312  1.00  0.00     0.000 C 
BRANCH   5   6
ATOM      6  C   UNL     1     -12.551   3.032  20.083  1.00  0.00     0.000 C 
BRANCH   6   7
ATOM      7  C   UNL     1     -12.815   4.084  18.987  1.00  0.00     0.000 C 
BRANCH   7   8
ATOM      8  C   UNL     1     -12.778   3.550  17.542  1.00  0.00     0.000 C 
BRANCH   8   9
ATOM      9  C   UNL     1     -11.762   4.243  16.617  1.00  0.00     0.000 C 
BRANCH   9  10
ATOM     10  C   UNL     1     -11.000   3.251  15.721  1.00  0.00     0.006 C 
BRANCH  10  11
ATOM     11  C   UNL     1     -11.500   1.811  15.895  1.00  0.00     0.053 C 
BRANCH  11  12
ATOM     12  C   UNL     1     -10.828   0.868  14.945  1.00  0.00     0.041 C 
ATOM     13  O   UNL     1     -11.442   0.449  13.928  1.00  0.00    -0.550 OA
ATOM     14  O   UNL     1      -9.532   0.433  15.194  1.00  0.00    -0.550 OA
ENDBRANCH  11  12
ENDBRANCH  10  11
ENDBRANCH   9  10
ENDBRANCH   8   9
ENDBRANCH   7   8
ENDBRANCH   6   7
ENDBRANCH   5   6
ENDBRANCH   4   5
ENDBRANCH   3   4
ENDBRANCH   2   3
ENDBRANCH   1   2
BRANCH   1  15
ATOM     15  C   UNL     1      -9.565   1.403  19.087  1.00  0.00     0.000 C 
BRANCH  15  16
ATOM     16  C   UNL     1      -8.748   0.104  19.205  1.00  0.00     0.000 C 
BRANCH  16  17
ATOM     17  C   UNL     1      -9.096  -0.709  20.467  1.00  0.00     0.000 C 
BRANCH  17  18
ATOM     18  C   UNL     1     -10.238  -0.134  21.324  1.00  0.00    -0.000 C 
BRANCH  18  19
ATOM     19  C   UNL     1      -9.736   0.574  22.594  1.00  0.00    -0.000 C 
BRANCH  19  20
ATOM     20  C   UNL     1      -8.778  -0.297  23.428  1.00  0.00    -0.000 C 
BRANCH  20  21
ATOM     21  C   UNL     1      -9.247  -0.602  24.866  1.00  0.00    -0.000 C 
BRANCH  21  22
ATOM     22  C   UNL     1     -10.238   0.416  25.463  1.00  0.00    -0.000 C 
BRANCH  22  23
ATOM     23  C   UNL     1     -11.490  -0.204  26.112  1.00  0.00    -0.000 C 
BRANCH  23  24
ATOM     24  C   UNL     1     -12.680  -0.290  25.139  1.00  0.00    -0.000 C 
BRANCH  24  25
ATOM     25  C   UNL     1     -12.841   0.982  24.294  1.00  0.00    -0.003 C 
ATOM     26  C   UNL     1     -13.679   0.751  23.038  1.00  0.00     0.004 C 
ENDBRANCH  24  25
ENDBRANCH  23  24
ENDBRANCH  22  23
ENDBRANCH  21  22
ENDBRANCH  20  21
ENDBRANCH  19  20
ENDBRANCH  18  19
ENDBRANCH  17  18
ENDBRANCH  16  17
ENDBRANCH  15  16
ENDBRANCH   1  15
TORSDOF 22
ENDMDL
MODEL 4
REMARK VINA RESULT:    -4.385      1.517      4.276
REMARK INTER + INTRA:         -13.555
REMARK INTER:                  -9.441
REMARK INTRA:                  -4.114
REMARK UNBOUND:                -3.531
REMARK SMILES CCCCCCCCCCCCCCCCCCCCCCCC(=O)[O-]
REMARK SMILES IDX 13 1 14 2 15 3 16 4 17 5 18 6 19 7 20 8 21 9 22 10 23 11
REMARK SMILES IDX 24 12 25 13 26 14 12 15 11 16 10 17 9 18 8 19 7 20 6 21 5 22
REMARK SMILES IDX 4 23 3 24 2 25 1 26
REMARK H PARENT
REMARK Flexibility Score: inf
ROOT
ATOM      1  C   UNL     1      -9.968   1.376  19.274  1.00  0.00     0.000 C 
ENDROOT
BRANCH   1   2
ATOM      2  C   UNL     1      -9.366   2.738  19.658  1.00  0.00     0.000 C 
BRANCH   2   3
ATOM      3  C   UNL     1      -8.636   3.411  18.483  1.00  0.00     0.000 C 
BRANCH   3   4
ATOM      4  C   UNL     1      -9.010   4.893  18.324  1.00  0.00     0.000 C 
BRANCH   4   5
ATOM      5  C   UNL     1     -10.199   5.257  19.226  1.00  0.00     0.000 C 
BRANCH   5   6
ATOM      6  C   UNL     1     -11.495   5.505  18.432  1.00  0.00     0.000 C 
BRANCH   6   7
ATOM      7  C   UNL     1     -12.642   4.521  18.734  1.00  0.00     0.000 C 
BRANCH   7   8
ATOM      8  C   UNL     1     -12.799   3.366  17.726  1.00  0.00     0.000 C 
BRANCH   8   9
ATOM      9  C   UNL     1     -11.958   3.501  16.445  1.00  0.00     0.000 C 
BRANCH   9  10
ATOM     10  C   UNL     1     -11.333   2.167  15.999  1.00  0.00     0.006 C 
BRANCH  10  11
ATOM     11  C   UNL     1     -12.393   1.151  15.555  1.00  0.00     0.053 C 
BRANCH  11  12
ATOM     12  C   UNL     1     -11.942   0.356  14.367  1.00  0.00     0.041 C 
ATOM     13  O   UNL     1     -12.730  -0.453  13.811  1.00  0.00    -0.550 OA
ATOM     14  O   UNL     1     -10.645   0.493  13.889  1.00  0.00    -0.550 OA
ENDBRANCH  11  12
ENDBRANCH  10  11
ENDBRANCH   9  10
ENDBRANCH   8   9
ENDBRANCH   7   8
ENDBRANCH   6   7
ENDBRANCH   5   6
ENDBRANCH   4   5
ENDBRANCH   3   4
ENDBRANCH   2   3
ENDBRANCH   1   2
BRANCH   1  15
ATOM     15  C   UNL     1      -9.205   0.194  19.897  1.00  0.00     0.000 C 
BRANCH  15  16
ATOM     16  C   UNL     1      -9.776  -0.222  21.265  1.00  0.00     0.000 C 
BRANCH  16  17
ATOM     17  C   UNL     1      -8.750  -0.964  22.141  1.00  0.00     0.000 C 
BRANCH  17  18
ATOM     18  C   UNL     1      -8.698  -0.517  23.614  1.00  0.00    -0.000 C 
BRANCH  18  19
ATOM     19  C   UNL     1      -9.312   0.874  23.839  1.00  0.00    -0.000 C 
BRANCH  19  20
ATOM     20  C   UNL     1     -10.476   0.861  24.848  1.00  0.00    -0.000 C 
BRANCH  20  21
ATOM     21  C   UNL     1     -11.795   0.257  24.324  1.00  0.00    -0.000 C 
BRANCH  21  22
ATOM     22  C   UNL     1     -12.936   1.268  24.097  1.00  0.00    -0.000 C 
BRANCH  22  23
ATOM     23  C   UNL     1     -13.318   1.492  22.623  1.00  0.00    -0.000 C 
BRANCH  23  24
ATOM     24  C   UNL     1     -12.352   2.445  21.898  1.00  0.00    -0.000 C 
BRANCH  24  25
ATOM     25  C   UNL     1     -12.163   3.772  22.648  1.00  0.00    -0.003 C 
ATOM     26  C   UNL     1     -10.696   4.186  22.751  1.00  0.00     0.004 C 
ENDBRANCH  24  25
ENDBRANCH  23  24
ENDBRANCH  22  23
ENDBRANCH  21  22
ENDBRANCH  20  21
ENDBRANCH  19  20
ENDBRANCH  18  19
ENDBRANCH  17  18
ENDBRANCH  16  17
ENDBRANCH  15  16
ENDBRANCH   1  15
TORSDOF 22
ENDMDL
MODEL 5
REMARK VINA RESULT:    -4.362      1.546      2.850
REMARK INTER + INTRA:         -13.503
REMARK INTER:                 -10.161
REMARK INTRA:                  -3.342
REMARK UNBOUND:                -3.531
REMARK SMILES CCCCCCCCCCCCCCCCCCCCCCCC(=O)[O-]
REMARK SMILES IDX 13 1 14 2 15 3 16 4 17 5 18 6 19 7 20 8 21 9 22 10 23 11
REMARK SMILES IDX 24 12 25 13 26 14 12 15 11 16 10 17 9 18 8 19 7 20 6 21 5 22
REMARK SMILES IDX 4 23 3 24 2 25 1 26
REMARK H PARENT
REMARK Flexibility Score: inf
ROOT
ATOM      1  C   UNL     1     -12.903   1.846  22.178  1.00  0.00     0.000 C 
ENDROOT
BRANCH   1   2
ATOM      2  C   UNL     1     -13.150   3.341  21.912  1.00  0.00     0.000 C 
BRANCH   2   3
ATOM      3  C   UNL     1     -13.562   3.621  20.457  1.00  0.00     0.000 C 
BRANCH   3   4
ATOM      4  C   UNL     1     -14.064   5.058  20.248  1.00  0.00     0.000 C 
BRANCH   4   5
ATOM      5  C   UNL     1     -12.914   5.982  19.816  1.00  0.00     0.000 C 
BRANCH   5   6
ATOM      6  C   UNL     1     -11.791   5.230  19.079  1.00  0.00     0.000 C 
BRANCH   6   7
ATOM      7  C   UNL     1     -11.693   5.523  17.569  1.00  0.00     0.000 C 
BRANCH   7   8
ATOM      8  C   UNL     1     -12.194   4.395  16.647  1.00  0.00     0.000 C 
BRANCH   8   9
ATOM      9  C   UNL     1     -12.048   2.974  17.218  1.00  0.00     0.000 C 
BRANCH   9  10
ATOM     10  C   UNL     1     -11.980   1.896  16.122  1.00  0.00     0.006 C 
BRANCH  10  11
ATOM     11  C   UNL     1     -10.543   1.640  15.649  1.00  0.00     0.053 C 
BRANCH  11  12
ATOM     12  C   UNL     1     -10.499   0.724  14.465  1.00  0.00     0.041 C 
ATOM     13  O   UNL     1      -9.449   0.628  13.777  1.00  0.00    -0.550 OA
ATOM     14  O   UNL     1     -11.625  -0.008  14.107  1.00  0.00    -0.550 OA
ENDBRANCH  11  12
ENDBRANCH  10  11
ENDBRANCH   9  10
ENDBRANCH   8   9
ENDBRANCH   7   8
ENDBRANCH   6   7
ENDBRANCH   5   6
ENDBRANCH   4   5
ENDBRANCH   3   4
ENDBRANCH   2   3
ENDBRANCH   1   2
BRANCH   1  15
ATOM     15  C   UNL     1     -12.701   1.536  23.671  1.00  0.00     0.000 C 
BRANCH  15  16
ATOM     16  C   UNL     1     -12.037   0.168  23.904  1.00  0.00     0.000 C 
BRANCH  16  17
ATOM     17  C   UNL     1     -11.132   0.146  25.151  1.00  0.00     0.000 C 
BRANCH  17  18
ATOM     18  C   UNL     1      -9.655  -0.196  24.885  1.00  0.00    -0.000 C 
BRANCH  18  19
ATOM     19  C   UNL     1      -9.180   0.242  23.489  1.00  0.00    -0.000 C 
BRANCH  19  20
ATOM     20  C   UNL     1      -8.594  -0.918  22.662  1.00  0.00    -0.000 C 
BRANCH  20  21
ATOM     21  C   UNL     1      -9.078  -0.994  21.199  1.00  0.00    -0.000 C 
BRANCH  21  22
ATOM     22  C   UNL     1     -10.150   0.041  20.808  1.00  0.00    -0.000 C 
BRANCH  22  23
ATOM     23  C   UNL     1      -9.656   1.163  19.876  1.00  0.00    -0.000 C 
BRANCH  23  24
ATOM     24  C   UNL     1      -9.660   2.543  20.557  1.00  0.00    -0.000 C 
BRANCH  24  25
ATOM     25  C   UNL     1      -8.925   3.609  19.730  1.00  0.00    -0.003 C 
ATOM     26  C   UNL     1      -8.404   3.066  18.401  1.00  0.00     0.004 C 
ENDBRANCH  24  25
ENDBRANCH  23  24
ENDBRANCH  22  23
ENDBRANCH  21  22
ENDBRANCH  20  21
ENDBRANCH  19  20
ENDBRANCH  18  19
ENDBRANCH  17  18
ENDBRANCH  16  17
ENDBRANCH  15  16
ENDBRANCH   1  15
TORSDOF 22
ENDMDL
MODEL 6
REMARK VINA RESULT:    -4.346      1.844      4.686
REMARK INTER + INTRA:         -13.466
REMARK INTER:                  -9.140
REMARK INTRA:                  -4.326
REMARK UNBOUND:                -3.531
REMARK SMILES CCCCCCCCCCCCCCCCCCCCCCCC(=O)[O-]
REMARK SMILES IDX 13 1 14 2 15 3 16 4 17 5 18 6 19 7 20 8 21 9 22 10 23 11
REMARK SMILES IDX 24 12 25 13 26 14 12 15 11 16 10 17 9 18 8 19 7 20 6 21 5 22
REMARK SMILES IDX 4 23 3 24 2 25 1 26
REMARK H PARENT
REMARK Flexibility Score: inf
ROOT
ATOM      1  C   UNL     1     -10.171   0.628  20.509  1.00  0.00     0.000 C 
ENDROOT
BRANCH   1   2
ATOM      2  C   UNL     1      -9.851   1.736  19.490  1.00  0.00     0.000 C 
BRANCH   2   3
ATOM      3  C   UNL     1      -9.384   3.038  20.162  1.00  0.00     0.000 C 
BRANCH   3   4
ATOM      4  C   UNL     1      -9.852   4.294  19.410  1.00  0.00     0.000 C 
BRANCH   4   5
ATOM      5  C   UNL     1     -11.316   4.618  19.747  1.00  0.00     0.000 C 
BRANCH   5   6
ATOM      6  C   UNL     1     -12.208   4.710  18.496  1.00  0.00     0.000 C 
BRANCH   6   7
ATOM      7  C   UNL     1     -12.848   3.379  18.053  1.00  0.00     0.000 C 
BRANCH   7   8
ATOM      8  C   UNL     1     -12.386   2.853  16.680  1.00  0.00     0.000 C 
BRANCH   8   9
ATOM      9  C   UNL     1     -11.293   3.692  15.996  1.00  0.00     0.000 C 
BRANCH   9  10
ATOM     10  C   UNL     1     -10.017   2.883  15.706  1.00  0.00     0.006 C 
BRANCH  10  11
ATOM     11  C   UNL     1     -10.251   1.371  15.819  1.00  0.00     0.053 C 
BRANCH  11  12
ATOM     12  C   UNL     1     -10.313   0.712  14.475  1.00  0.00     0.041 C 
ATOM     13  O   UNL     1     -11.427   0.408  13.971  1.00  0.00    -0.550 OA
ATOM     14  O   UNL     1      -9.142   0.413  13.790  1.00  0.00    -0.550 OA
ENDBRANCH  11  12
ENDBRANCH  10  11
ENDBRANCH   9  10
ENDBRANCH   8   9
ENDBRANCH   7   8
ENDBRANCH   6   7
ENDBRANCH   5   6
ENDBRANCH   4   5
ENDBRANCH   3   4
ENDBRANCH   2   3
ENDBRANCH   1   2
BRANCH   1  15
ATOM     15  C   UNL     1     -11.682   0.453  20.736  1.00  0.00     0.000 C 
BRANCH  15  16
ATOM     16  C   UNL     1     -12.109   0.812  22.171  1.00  0.00     0.000 C 
BRANCH  16  17
ATOM     17  C   UNL     1     -12.516   2.290  22.322  1.00  0.00     0.000 C 
BRANCH  17  18
ATOM     18  C   UNL     1     -12.835   2.740  23.759  1.00  0.00    -0.000 C 
BRANCH  18  19
ATOM     19  C   UNL     1     -11.617   3.334  24.485  1.00  0.00    -0.000 C 
BRANCH  19  20
ATOM     20  C   UNL     1     -10.460   3.683  23.531  1.00  0.00    -0.000 C 
BRANCH  20  21
ATOM     21  C   UNL     1      -9.044   3.438  24.095  1.00  0.00    -0.000 C 
BRANCH  21  22
ATOM     22  C   UNL     1      -8.842   2.080  24.794  1.00  0.00    -0.000 C 
BRANCH  22  23
ATOM     23  C   UNL     1      -8.858   0.860  23.855  1.00  0.00    -0.000 C 
BRANCH  23  24
ATOM     24  C   UNL     1      -9.195  -0.449  24.590  1.00  0.00    -0.000 C 
BRANCH  24  25
ATOM     25  C   UNL     1     -10.037  -0.214  25.853  1.00  0.00    -0.003 C 
ATOM     26  C   UNL     1     -11.538  -0.309  25.585  1.00  0.00     0.004 C 
ENDBRANCH  24  25
ENDBRANCH  23  24
ENDBRANCH  22  23
ENDBRANCH  21  22
ENDBRANCH  20  21
ENDBRANCH  19  20
ENDBRANCH  18  19
ENDBRANCH  17  18
ENDBRANCH  16  17
ENDBRANCH  15  16
ENDBRANCH   1  15
TORSDOF 22
ENDMDL
MODEL 7
REMARK VINA RESULT:    -4.325      3.097      6.673
REMARK INTER + INTRA:         -13.419
REMARK INTER:                  -9.449
REMARK INTRA:                  -3.970
REMARK UNBOUND:                -3.531
REMARK SMILES CCCCCCCCCCCCCCCCCCCCCCCC(=O)[O-]
REMARK SMILES IDX 13 1 14 2 15 3 16 4 17 5 18 6 19 7 20 8 21 9 22 10 23 11
REMARK SMILES IDX 24 12 25 13 26 14 12 15 11 16 10 17 9 18 8 19 7 20 6 21 5 22
REMARK SMILES IDX 4 23 3 24 2 25 1 26
REMARK H PARENT
REMARK Flexibility Score: inf
ROOT
ATOM      1  C   UNL     1      -9.593   2.848  19.793  1.00  0.00     0.000 C 
ENDROOT
BRANCH   1   2
ATOM      2  C   UNL     1     -10.063   1.392  19.635  1.00  0.00     0.000 C 
BRANCH   2   3
ATOM      3  C   UNL     1      -8.962   0.475  19.076  1.00  0.00     0.000 C 
BRANCH   3   4
ATOM      4  C   UNL     1      -8.698  -0.747  19.970  1.00  0.00     0.000 C 
BRANCH   4   5
ATOM      5  C   UNL     1      -9.654  -0.761  21.173  1.00  0.00     0.000 C 
BRANCH   5   6
ATOM      6  C   UNL     1      -8.945  -0.439  22.501  1.00  0.00     0.000 C 
BRANCH   6   7
ATOM      7  C   UNL     1      -9.877   0.016  23.642  1.00  0.00     0.000 C 
BRANCH   7   8
ATOM      8  C   UNL     1     -10.886   1.119  23.266  1.00  0.00     0.000 C 
BRANCH   8   9
ATOM      9  C   UNL     1     -12.236   0.611  22.731  1.00  0.00     0.000 C 
BRANCH   9  10
ATOM     10  C   UNL     1     -13.306   1.715  22.673  1.00  0.00     0.006 C 
BRANCH  10  11
ATOM     11  C   UNL     1     -12.830   2.943  21.886  1.00  0.00     0.053 C 
BRANCH  11  12
ATOM     12  C   UNL     1     -12.908   4.196  22.703  1.00  0.00     0.041 C 
ATOM     13  O   UNL     1     -12.698   4.157  23.944  1.00  0.00    -0.550 OA
ATOM     14  O   UNL     1     -13.235   5.404  22.098  1.00  0.00    -0.550 OA
ENDBRANCH  11  12
ENDBRANCH  10  11
ENDBRANCH   9  10
ENDBRANCH   8   9
ENDBRANCH   7   8
ENDBRANCH   6   7
ENDBRANCH   5   6
ENDBRANCH   4   5
ENDBRANCH   3   4
ENDBRANCH   2   3
ENDBRANCH   1   2
BRANCH   1  15
ATOM     15  C   UNL     1      -8.386   3.182  18.900  1.00  0.00     0.000 C 
BRANCH  15  16
ATOM     16  C   UNL     1      -8.494   4.577  18.259  1.00  0.00     0.000 C 
BRANCH  16  17
ATOM     17  C   UNL     1      -9.667   5.403  18.819  1.00  0.00     0.000 C 
BRANCH  17  18
ATOM     18  C   UNL     1     -10.377   6.312  17.798  1.00  0.00    -0.000 C 
BRANCH  18  19
ATOM     19  C   UNL     1     -11.872   5.984  17.643  1.00  0.00    -0.000 C 
BRANCH  19  20
ATOM     20  C   UNL     1     -12.397   5.039  18.741  1.00  0.00    -0.000 C 
BRANCH  20  21
ATOM     21  C   UNL     1     -12.851   3.649  18.250  1.00  0.00    -0.000 C 
BRANCH  21  22
ATOM     22  C   UNL     1     -12.853   3.460  16.720  1.00  0.00    -0.000 C 
BRANCH  22  23
ATOM     23  C   UNL     1     -11.978   2.299  16.211  1.00  0.00    -0.000 C 
BRANCH  23  24
ATOM     24  C   UNL     1     -10.571   2.757  15.791  1.00  0.00    -0.000 C 
BRANCH  24  25
ATOM     25  C   UNL     1      -9.627   1.578  15.513  1.00  0.00    -0.003 C 
ATOM     26  C   UNL     1     -10.057   0.754  14.301  1.00  0.00     0.004 C 
ENDBRANCH  24  25
ENDBRANCH  23  24
ENDBRANCH  22  23
ENDBRANCH  21  22
ENDBRANCH  20  21
ENDBRANCH  19  20
ENDBRANCH  18  19
ENDBRANCH  17  18
ENDBRANCH  16  17
ENDBRANCH  15  16
ENDBRANCH   1  15
TORSDOF 22
ENDMDL
MODEL 8
REMARK VINA RESULT:    -4.291      2.911      6.034
REMARK INTER + INTRA:         -13.340
REMARK INTER:                 -10.084
REMARK INTRA:                  -3.256
REMARK UNBOUND:                -3.531
REMARK SMILES CCCCCCCCCCCCCCCCCCCCCCCC(=O)[O-]
REMARK SMILES IDX 13 1 14 2 15 3 16 4 17 5 18 6 19 7 20 8 21 9 22 10 23 11
REMARK SMILES IDX 24 12 25 13 26 14 12 15 11 16 10 17 9 18 8 19 7 20 6 21 5 22
REMARK SMILES IDX 4 23 3 24 2 25 1 26
REMARK H PARENT
REMARK Flexibility Score: inf
ROOT
ATOM      1  C   UNL     1     -12.408   0.815  22.417  1.00  0.00     0.000 C 
ENDROOT
BRANCH   1   2
ATOM      2  C   UNL     1     -11.100   0.613  23.202  1.00  0.00     0.000 C 
BRANCH   2   3
ATOM      3  C   UNL     1      -9.852   0.738  22.313  1.00  0.00     0.000 C 
BRANCH   3   4
ATOM      4  C   UNL     1     -10.148   0.451  20.833  1.00  0.00     0.000 C 
BRANCH   4   5
ATOM      5  C   UNL     1      -9.810   1.669  19.961  1.00  0.00     0.000 C 
BRANCH   5   6
ATOM      6  C   UNL     1      -9.439   2.911  20.791  1.00  0.00     0.000 C 
BRANCH   6   7
ATOM      7  C   UNL     1      -9.246   4.205  19.977  1.00  0.00     0.000 C 
BRANCH   7   8
ATOM      8  C   UNL     1      -7.847   4.845  20.081  1.00  0.00     0.000 C 
BRANCH   8   9
ATOM      9  C   UNL     1      -6.941   4.631  18.856  1.00  0.00     0.000 C 
BRANCH   9  10
ATOM     10  C   UNL     1      -5.480   4.335  19.241  1.00  0.00     0.006 C 
BRANCH  10  11
ATOM     11  C   UNL     1      -4.545   4.354  18.025  1.00  0.00     0.053 C 
BRANCH  11  12
ATOM     12  C   UNL     1      -4.070   5.739  17.707  1.00  0.00     0.041 C 
ATOM     13  O   UNL     1      -4.092   6.635  18.592  1.00  0.00    -0.550 OA
ATOM     14  O   UNL     1      -3.625   6.046  16.427  1.00  0.00    -0.550 OA
ENDBRANCH  11  12
ENDBRANCH  10  11
ENDBRANCH   9  10
ENDBRANCH   8   9
ENDBRANCH   7   8
ENDBRANCH   6   7
ENDBRANCH   5   6
ENDBRANCH   4   5
ENDBRANCH   3   4
ENDBRANCH   2   3
ENDBRANCH   1   2
BRANCH   1  15
ATOM     15  C   UNL     1     -12.958   2.246  22.542  1.00  0.00     0.000 C 
BRANCH  15  16
ATOM     16  C   UNL     1     -13.466   2.802  21.200  1.00  0.00     0.000 C 
BRANCH  16  17
ATOM     17  C   UNL     1     -13.060   4.269  20.967  1.00  0.00     0.000 C 
BRANCH  17  18
ATOM     18  C   UNL     1     -12.909   4.683  19.491  1.00  0.00    -0.000 C 
BRANCH  18  19
ATOM     19  C   UNL     1     -12.671   3.486  18.555  1.00  0.00    -0.000 C 
BRANCH  19  20
ATOM     20  C   UNL     1     -12.824   3.849  17.066  1.00  0.00    -0.000 C 
BRANCH  20  21
ATOM     21  C   UNL     1     -11.501   4.067  16.302  1.00  0.00    -0.000 C 
BRANCH  21  22
ATOM     22  C   UNL     1     -10.320   3.195  16.772  1.00  0.00    -0.000 C 
BRANCH  22  23
ATOM     23  C   UNL     1      -9.572   2.459  15.646  1.00  0.00    -0.000 C 
BRANCH  23  24
ATOM     24  C   UNL     1      -9.985   0.981  15.528  1.00  0.00    -0.000 C 
BRANCH  24  25
ATOM     25  C   UNL     1     -11.085   0.761  14.479  1.00  0.00    -0.003 C 
ATOM     26  C   UNL     1     -12.474   0.631  15.103  1.00  0.00     0.004 C 
ENDBRANCH  24  25
ENDBRANCH  23  24
ENDBRANCH  22  23
ENDBRANCH  21  22
ENDBRANCH  20  21
ENDBRANCH  19  20
ENDBRANCH  18  19
ENDBRANCH  17  18
ENDBRANCH  16  17
ENDBRANCH  15  16
ENDBRANCH   1  15
TORSDOF 22
ENDMDL
MODEL 9
REMARK VINA RESULT:    -4.190      1.831      4.776
REMARK INTER + INTRA:         -13.110
REMARK INTER:                  -9.386
REMARK INTRA:                  -3.724
REMARK UNBOUND:                -3.531
REMARK SMILES CCCCCCCCCCCCCCCCCCCCCCCC(=O)[O-]
REMARK SMILES IDX 13 1 14 2 15 3 16 4 17 5 18 6 19 7 20 8 21 9 22 10 23 11
REMARK SMILES IDX 24 12 25 13 26 14 12 15 11 16 10 17 9 18 8 19 7 20 6 21 5 22
REMARK SMILES IDX 4 23 3 24 2 25 1 26
REMARK H PARENT
REMARK Flexibility Score: inf
ROOT
ATOM      1  C   UNL     1     -10.636  -0.464  21.256  1.00  0.00     0.000 C 
ENDROOT
BRANCH   1   2
ATOM      2  C   UNL     1     -11.027   0.819  20.502  1.00  0.00     0.000 C 
BRANCH   2   3
ATOM      3  C   UNL     1      -9.910   1.319  19.570  1.00  0.00     0.000 C 
BRANCH   3   4
ATOM      4  C   UNL     1      -9.661   2.829  19.701  1.00  0.00     0.000 C 
BRANCH   4   5
ATOM      5  C   UNL     1     -10.909   3.545  20.240  1.00  0.00     0.000 C 
BRANCH   5   6
ATOM      6  C   UNL     1     -11.926   3.882  19.135  1.00  0.00     0.000 C 
BRANCH   6   7
ATOM      7  C   UNL     1     -11.367   4.722  17.970  1.00  0.00     0.000 C 
BRANCH   7   8
ATOM      8  C   UNL     1     -11.364   4.020  16.597  1.00  0.00     0.000 C 
BRANCH   8   9
ATOM      9  C   UNL     1     -12.448   2.944  16.414  1.00  0.00     0.000 C 
BRANCH   9  10
ATOM     10  C   UNL     1     -11.863   1.529  16.265  1.00  0.00     0.006 C 
BRANCH  10  11
ATOM     11  C   UNL     1     -10.489   1.538  15.583  1.00  0.00     0.053 C 
BRANCH  11  12
ATOM     12  C   UNL     1     -10.476   0.703  14.339  1.00  0.00     0.041 C 
ATOM     13  O   UNL     1     -11.559   0.335  13.812  1.00  0.00    -0.550 OA
ATOM     14  O   UNL     1      -9.268   0.311  13.775  1.00  0.00    -0.550 OA
ENDBRANCH  11  12
ENDBRANCH  10  11
ENDBRANCH   9  10
ENDBRANCH   8   9
ENDBRANCH   7   8
ENDBRANCH   6   7
ENDBRANCH   5   6
ENDBRANCH   4   5
ENDBRANCH   3   4
ENDBRANCH   2   3
ENDBRANCH   1   2
BRANCH   1  15
ATOM     15  C   UNL     1      -9.130  -0.763  21.174  1.00  0.00     0.000 C 
BRANCH  15  16
ATOM     16  C   UNL     1      -8.478  -0.896  22.562  1.00  0.00     0.000 C 
BRANCH  16  17
ATOM     17  C   UNL     1      -9.278  -0.185  23.669  1.00  0.00     0.000 C 
BRANCH  17  18
ATOM     18  C   UNL     1      -8.733   1.192  24.093  1.00  0.00    -0.000 C 
BRANCH  18  19
ATOM     19  C   UNL     1      -9.481   2.361  23.431  1.00  0.00    -0.000 C 
BRANCH  19  20
ATOM     20  C   UNL     1     -10.190   3.274  24.449  1.00  0.00    -0.000 C 
BRANCH  20  21
ATOM     21  C   UNL     1     -11.683   2.962  24.685  1.00  0.00    -0.000 C 
BRANCH  21  22
ATOM     22  C   UNL     1     -12.616   3.284  23.501  1.00  0.00    -0.000 C 
BRANCH  22  23
ATOM     23  C   UNL     1     -13.247   2.055  22.822  1.00  0.00    -0.000 C 
BRANCH  23  24
ATOM     24  C   UNL     1     -13.829   1.052  23.834  1.00  0.00    -0.000 C 
BRANCH  24  25
ATOM     25  C   UNL     1     -12.864  -0.103  24.138  1.00  0.00    -0.003 C 
ATOM     26  C   UNL     1     -12.826  -0.464  25.621  1.00  0.00     0.004 C 
ENDBRANCH  24  25
ENDBRANCH  23  24
ENDBRANCH  22  23
ENDBRANCH  21  22
ENDBRANCH  20  21
ENDBRANCH  19  20
ENDBRANCH  18  19
ENDBRANCH  17  18
ENDBRANCH  16  17
ENDBRANCH  15  16
ENDBRANCH   1  15
TORSDOF 22
ENDMDL
