MODEL 1
REMARK VINA RESULT:    -3.025      0.000      0.000
REMARK INTER + INTRA:          -8.429
REMARK INTER:                  -5.855
REMARK INTRA:                  -2.574
REMARK UNBOUND:                -2.574
REMARK SMILES CCCCCCCCCCCCCCCCCC(=O)[O-]
REMARK SMILES IDX 10 1 11 2 12 3 13 4 14 5 15 6 16 7 17 8 18 9 19 10 20 11
REMARK SMILES IDX 9 12 8 13 7 14 6 15 5 16 4 17 3 18 2 19 1 20
REMARK H PARENT
REMARK Flexibility Score: inf
ROOT
ATOM      1  C   UNL     1      21.380   7.613  16.449  1.00  0.00     0.000 C 
ENDROOT
BRANCH   1   2
ATOM      2  C   UNL     1      20.110   7.562  15.575  1.00  0.00     0.000 C 
BRANCH   2   3
ATOM      3  C   UNL     1      18.801   7.290  16.341  1.00  0.00     0.000 C 
BRANCH   3   4
ATOM      4  C   UNL     1      18.195   8.515  17.056  1.00  0.00     0.000 C 
BRANCH   4   5
ATOM      5  C   UNL     1      18.367   9.849  16.308  1.00  0.00     0.000 C 
BRANCH   5   6
ATOM      6  C   UNL     1      18.797  11.000  17.234  1.00  0.00     0.000 C 
BRANCH   6   7
ATOM      7  C   UNL     1      20.146  10.734  17.918  1.00  0.00     0.006 C 
BRANCH   7   8
ATOM      8  C   UNL     1      21.336  11.230  17.085  1.00  0.00     0.053 C 
BRANCH   8   9
ATOM      9  C   UNL     1      21.364  12.726  17.055  1.00  0.00     0.041 C 
ATOM     10  O   UNL     1      21.148  13.384  18.106  1.00  0.00    -0.550 OA
ATOM     11  O   UNL     1      21.578  13.393  15.856  1.00  0.00    -0.550 OA
ENDBRANCH   8   9
ENDBRANCH   7   8
ENDBRANCH   6   7
ENDBRANCH   5   6
ENDBRANCH   4   5
ENDBRANCH   3   4
ENDBRANCH   2   3
ENDBRANCH   1   2
BRANCH   1  12
ATOM     12  C   UNL     1      21.400   6.619  17.624  1.00  0.00     0.000 C 
BRANCH  12  13
ATOM     13  C   UNL     1      22.306   7.076  18.776  1.00  0.00    -0.000 C 
BRANCH  13  14
ATOM     14  C   UNL     1      23.173   8.269  18.353  1.00  0.00    -0.000 C 
BRANCH  14  15
ATOM     15  C   UNL     1      24.660   7.987  18.615  1.00  0.00    -0.000 C 
BRANCH  15  16
ATOM     16  C   UNL     1      25.118   6.631  18.055  1.00  0.00    -0.000 C 
BRANCH  16  17
ATOM     17  C   UNL     1      25.846   6.761  16.706  1.00  0.00    -0.000 C 
BRANCH  17  18
ATOM     18  C   UNL     1      24.885   6.749  15.504  1.00  0.00    -0.000 C 
BRANCH  18  19
ATOM     19  C   UNL     1      24.121   5.429  15.296  1.00  0.00    -0.003 C 
ATOM     20  C   UNL     1      23.444   5.337  13.929  1.00  0.00     0.004 C 
ENDBRANCH  18  19
ENDBRANCH  17  18
ENDBRANCH  16  17
ENDBRANCH  15  16
ENDBRANCH  14  15
ENDBRANCH  13  14
ENDBRANCH  12  13
ENDBRANCH   1  12
TORSDOF 16
ENDMDL
MODEL 2
REMARK VINA RESULT:    -2.865      1.124      4.471
REMARK INTER + INTRA:          -8.119
REMARK INTER:                  -5.503
REMARK INTRA:                  -2.616
REMARK UNBOUND:                -2.574
REMARK SMILES CCCCCCCCCCCCCCCCCC(=O)[O-]
REMARK SMILES IDX 10 1 11 2 12 3 13 4 14 5 15 6 16 7 17 8 18 9 19 10 20 11
REMARK SMILES IDX 9 12 8 13 7 14 6 15 5 16 4 17 3 18 2 19 1 20
REMARK H PARENT
REMARK Flexibility Score: inf
ROOT
ATOM      1  C   UNL     1      25.857   7.908  17.854  1.00  0.00     0.000 C 
ENDROOT
BRANCH   1   2
ATOM      2  C   UNL     1      25.160   8.242  19.189  1.00  0.00     0.000 C 
BRANCH   2   3
ATOM      3  C   UNL     1      24.164   7.177  19.690  1.00  0.00     0.000 C 
BRANCH   3   4
ATOM      4  C   UNL     1      22.677   7.570  19.574  1.00  0.00     0.000 C 
BRANCH   4   5
ATOM      5  C   UNL     1      22.424   9.049  19.231  1.00  0.00     0.000 C 
BRANCH   5   6
ATOM      6  C   UNL     1      21.204   9.248  18.315  1.00  0.00     0.000 C 
BRANCH   6   7
ATOM      7  C   UNL     1      21.504  10.176  17.128  1.00  0.00     0.006 C 
BRANCH   7   8
ATOM      8  C   UNL     1      20.554  11.380  17.066  1.00  0.00     0.053 C 
BRANCH   8   9
ATOM      9  C   UNL     1      21.331  12.658  17.071  1.00  0.00     0.041 C 
ATOM     10  O   UNL     1      21.625  13.224  15.986  1.00  0.00    -0.550 OA
ATOM     11  O   UNL     1      21.774  13.198  18.272  1.00  0.00    -0.550 OA
ENDBRANCH   8   9
ENDBRANCH   7   8
ENDBRANCH   6   7
ENDBRANCH   5   6
ENDBRANCH   4   5
ENDBRANCH   3   4
ENDBRANCH   2   3
ENDBRANCH   1   2
BRANCH   1  12
ATOM     12  C   UNL     1      24.968   8.046  16.606  1.00  0.00     0.000 C 
BRANCH  12  13
ATOM     13  C   UNL     1      24.951   6.776  15.743  1.00  0.00    -0.000 C 
BRANCH  13  14
ATOM     14  C   UNL     1      23.944   5.755  16.289  1.00  0.00    -0.000 C 
BRANCH  14  15
ATOM     15  C   UNL     1      22.671   5.725  15.430  1.00  0.00    -0.000 C 
BRANCH  15  16
ATOM     16  C   UNL     1      21.546   6.604  16.002  1.00  0.00    -0.000 C 
BRANCH  16  17
ATOM     17  C   UNL     1      20.483   5.790  16.759  1.00  0.00    -0.000 C 
BRANCH  17  18
ATOM     18  C   UNL     1      19.126   6.509  16.843  1.00  0.00    -0.000 C 
BRANCH  18  19
ATOM     19  C   UNL     1      18.835   7.487  15.690  1.00  0.00    -0.003 C 
ATOM     20  C   UNL     1      18.108   8.751  16.143  1.00  0.00     0.004 C 
ENDBRANCH  18  19
ENDBRANCH  17  18
ENDBRANCH  16  17
ENDBRANCH  15  16
ENDBRANCH  14  15
ENDBRANCH  13  14
ENDBRANCH  12  13
ENDBRANCH   1  12
TORSDOF 16
ENDMDL
MODEL 3
REMARK VINA RESULT:    -2.864      1.360      2.118
REMARK INTER + INTRA:          -8.117
REMARK INTER:                  -5.530
REMARK INTRA:                  -2.587
REMARK UNBOUND:                -2.574
REMARK SMILES CCCCCCCCCCCCCCCCCC(=O)[O-]
REMARK SMILES IDX 10 1 11 2 12 3 13 4 14 5 15 6 16 7 17 8 18 9 19 10 20 11
REMARK SMILES IDX 9 12 8 13 7 14 6 15 5 16 4 17 3 18 2 19 1 20
REMARK H PARENT
REMARK Flexibility Score: inf
ROOT
ATOM      1  C   UNL     1      22.116   7.402  17.091  1.00  0.00     0.000 C 
ENDROOT
BRANCH   1   2
ATOM      2  C   UNL     1      21.409   6.805  15.858  1.00  0.00     0.000 C 
BRANCH   2   3
ATOM      3  C   UNL     1      20.076   7.480  15.480  1.00  0.00     0.000 C 
BRANCH   3   4
ATOM      4  C   UNL     1      19.249   8.005  16.671  1.00  0.00     0.000 C 
BRANCH   4   5
ATOM      5  C   UNL     1      18.255   9.128  16.324  1.00  0.00     0.000 C 
BRANCH   5   6
ATOM      6  C   UNL     1      18.751  10.518  16.756  1.00  0.00     0.000 C 
BRANCH   6   7
ATOM      7  C   UNL     1      19.986  10.446  17.666  1.00  0.00     0.006 C 
BRANCH   7   8
ATOM      8  C   UNL     1      21.237  11.046  17.011  1.00  0.00     0.053 C 
BRANCH   8   9
ATOM      9  C   UNL     1      21.196  12.541  17.081  1.00  0.00     0.041 C 
ATOM     10  O   UNL     1      21.626  13.231  16.120  1.00  0.00    -0.550 OA
ATOM     11  O   UNL     1      20.729  13.170  18.227  1.00  0.00    -0.550 OA
ENDBRANCH   8   9
ENDBRANCH   7   8
ENDBRANCH   6   7
ENDBRANCH   5   6
ENDBRANCH   4   5
ENDBRANCH   3   4
ENDBRANCH   2   3
ENDBRANCH   1   2
BRANCH   1  12
ATOM     12  C   UNL     1      22.336   6.419  18.255  1.00  0.00     0.000 C 
BRANCH  12  13
ATOM     13  C   UNL     1      22.661   7.125  19.579  1.00  0.00    -0.000 C 
BRANCH  13  14
ATOM     14  C   UNL     1      22.928   8.619  19.354  1.00  0.00    -0.000 C 
BRANCH  14  15
ATOM     15  C   UNL     1      24.076   9.113  20.248  1.00  0.00    -0.000 C 
BRANCH  15  16
ATOM     16  C   UNL     1      25.105   8.014  20.558  1.00  0.00    -0.000 C 
BRANCH  16  17
ATOM     17  C   UNL     1      26.308   8.040  19.598  1.00  0.00    -0.000 C 
BRANCH  17  18
ATOM     18  C   UNL     1      26.487   6.720  18.828  1.00  0.00    -0.000 C 
BRANCH  18  19
ATOM     19  C   UNL     1      25.994   6.746  17.369  1.00  0.00    -0.003 C 
ATOM     20  C   UNL     1      25.659   8.152  16.875  1.00  0.00     0.004 C 
ENDBRANCH  18  19
ENDBRANCH  17  18
ENDBRANCH  16  17
ENDBRANCH  15  16
ENDBRANCH  14  15
ENDBRANCH  13  14
ENDBRANCH  12  13
ENDBRANCH   1  12
TORSDOF 16
ENDMDL
MODEL 4
REMARK VINA RESULT:    -2.810      2.434      6.367
REMARK INTER + INTRA:          -8.012
REMARK INTER:                  -5.397
REMARK INTRA:                  -2.615
REMARK UNBOUND:                -2.574
REMARK SMILES CCCCCCCCCCCCCCCCCC(=O)[O-]
REMARK SMILES IDX 10 1 11 2 12 3 13 4 14 5 15 6 16 7 17 8 18 9 19 10 20 11
REMARK SMILES IDX 9 12 8 13 7 14 6 15 5 16 4 17 3 18 2 19 1 20
REMARK H PARENT
REMARK Flexibility Score: inf
ROOT
ATOM      1  C   UNL     1      21.677   7.935  17.064  1.00  0.00     0.000 C 
ENDROOT
BRANCH   1   2
ATOM      2  C   UNL     1      21.950   6.806  18.079  1.00  0.00     0.000 C 
BRANCH   2   3
ATOM      3  C   UNL     1      22.492   7.273  19.444  1.00  0.00     0.000 C 
BRANCH   3   4
ATOM      4  C   UNL     1      22.923   8.753  19.503  1.00  0.00     0.000 C 
BRANCH   4   5
ATOM      5  C   UNL     1      24.310   8.997  20.125  1.00  0.00     0.000 C 
BRANCH   5   6
ATOM      6  C   UNL     1      25.210   7.751  20.083  1.00  0.00     0.000 C 
BRANCH   6   7
ATOM      7  C   UNL     1      26.304   7.850  19.009  1.00  0.00     0.006 C 
BRANCH   7   8
ATOM      8  C   UNL     1      26.221   6.717  17.977  1.00  0.00     0.053 C 
BRANCH   8   9
ATOM      9  C   UNL     1      25.377   7.133  16.814  1.00  0.00     0.041 C 
ATOM     10  O   UNL     1      25.144   8.352  16.605  1.00  0.00    -0.550 OA
ATOM     11  O   UNL     1      24.806   6.171  15.990  1.00  0.00    -0.550 OA
ENDBRANCH   8   9
ENDBRANCH   7   8
ENDBRANCH   6   7
ENDBRANCH   5   6
ENDBRANCH   4   5
ENDBRANCH   3   4
ENDBRANCH   2   3
ENDBRANCH   1   2
BRANCH   1  12
ATOM     12  C   UNL     1      20.434   7.729  16.181  1.00  0.00     0.000 C 
BRANCH  12  13
ATOM     13  C   UNL     1      19.223   7.208  16.969  1.00  0.00    -0.000 C 
BRANCH  13  14
ATOM     14  C   UNL     1      18.243   8.344  17.286  1.00  0.00    -0.000 C 
BRANCH  14  15
ATOM     15  C   UNL     1      18.261   9.410  16.179  1.00  0.00    -0.000 C 
BRANCH  15  16
ATOM     16  C   UNL     1      18.492  10.830  16.722  1.00  0.00    -0.000 C 
BRANCH  16  17
ATOM     17  C   UNL     1      18.939  10.836  18.194  1.00  0.00    -0.000 C 
BRANCH  17  18
ATOM     18  C   UNL     1      20.425  11.195  18.366  1.00  0.00    -0.000 C 
BRANCH  18  19
ATOM     19  C   UNL     1      21.156  11.579  17.067  1.00  0.00    -0.003 C 
ATOM     20  C   UNL     1      21.484  13.068  16.981  1.00  0.00     0.004 C 
ENDBRANCH  18  19
ENDBRANCH  17  18
ENDBRANCH  16  17
ENDBRANCH  15  16
ENDBRANCH  14  15
ENDBRANCH  13  14
ENDBRANCH  12  13
ENDBRANCH   1  12
TORSDOF 16
ENDMDL
MODEL 5
REMARK VINA RESULT:    -2.807      1.474      3.389
REMARK INTER + INTRA:          -8.007
REMARK INTER:                  -5.470
REMARK INTRA:                  -2.537
REMARK UNBOUND:                -2.574
REMARK SMILES CCCCCCCCCCCCCCCCCC(=O)[O-]
REMARK SMILES IDX 10 1 11 2 12 3 13 4 14 5 15 6 16 7 17 8 18 9 19 10 20 11
REMARK SMILES IDX 9 12 8 13 7 14 6 15 5 16 4 17 3 18 2 19 1 20
REMARK H PARENT
REMARK Flexibility Score: inf
ROOT
ATOM      1  C   UNL     1      23.094   5.760  14.729  1.00  0.00     0.000 C 
ENDROOT
BRANCH   1   2
ATOM      2  C   UNL     1      22.235   5.048  15.793  1.00  0.00     0.000 C 
BRANCH   2   3
ATOM      3  C   UNL     1      20.968   5.811  16.226  1.00  0.00     0.000 C 
BRANCH   3   4
ATOM      4  C   UNL     1      20.866   7.257  15.701  1.00  0.00     0.000 C 
BRANCH   4   5
ATOM      5  C   UNL     1      19.656   8.051  16.226  1.00  0.00     0.000 C 
BRANCH   5   6
ATOM      6  C   UNL     1      19.960   8.807  17.531  1.00  0.00     0.000 C 
BRANCH   6   7
ATOM      7  C   UNL     1      19.890  10.332  17.359  1.00  0.00     0.006 C 
BRANCH   7   8
ATOM      8  C   UNL     1      21.237  10.940  16.945  1.00  0.00     0.053 C 
BRANCH   8   9
ATOM      9  C   UNL     1      21.195  12.431  17.067  1.00  0.00     0.041 C 
ATOM     10  O   UNL     1      21.641  13.155  16.139  1.00  0.00    -0.550 OA
ATOM     11  O   UNL     1      20.708  13.020  18.227  1.00  0.00    -0.550 OA
ENDBRANCH   8   9
ENDBRANCH   7   8
ENDBRANCH   6   7
ENDBRANCH   5   6
ENDBRANCH   4   5
ENDBRANCH   3   4
ENDBRANCH   2   3
ENDBRANCH   1   2
BRANCH   1  12
ATOM     12  C   UNL     1      24.553   6.024  15.141  1.00  0.00     0.000 C 
BRANCH  12  13
ATOM     13  C   UNL     1      24.695   6.408  16.620  1.00  0.00    -0.000 C 
BRANCH  13  14
ATOM     14  C   UNL     1      24.507   7.918  16.816  1.00  0.00    -0.000 C 
BRANCH  14  15
ATOM     15  C   UNL     1      23.599   8.207  18.021  1.00  0.00    -0.000 C 
BRANCH  15  16
ATOM     16  C   UNL     1      23.225   6.937  18.804  1.00  0.00    -0.000 C 
BRANCH  16  17
ATOM     17  C   UNL     1      23.765   6.948  20.244  1.00  0.00    -0.000 C 
BRANCH  17  18
ATOM     18  C   UNL     1      25.231   6.488  20.337  1.00  0.00    -0.000 C 
BRANCH  18  19
ATOM     19  C   UNL     1      26.230   7.580  20.761  1.00  0.00    -0.003 C 
ATOM     20  C   UNL     1      27.014   8.163  19.587  1.00  0.00     0.004 C 
ENDBRANCH  18  19
ENDBRANCH  17  18
ENDBRANCH  16  17
ENDBRANCH  15  16
ENDBRANCH  14  15
ENDBRANCH  13  14
ENDBRANCH  12  13
ENDBRANCH   1  12
TORSDOF 16
ENDMDL
MODEL 6
REMARK VINA RESULT:    -2.790      0.918      2.797
REMARK INTER + INTRA:          -7.973
REMARK INTER:                  -5.498
REMARK INTRA:                  -2.476
REMARK UNBOUND:                -2.574
REMARK SMILES CCCCCCCCCCCCCCCCCC(=O)[O-]
REMARK SMILES IDX 10 1 11 2 12 3 13 4 14 5 15 6 16 7 17 8 18 9 19 10 20 11
REMARK SMILES IDX 9 12 8 13 7 14 6 15 5 16 4 17 3 18 2 19 1 20
REMARK H PARENT
REMARK Flexibility Score: inf
ROOT
ATOM      1  C   UNL     1      21.623   5.397  16.127  1.00  0.00     0.000 C 
ENDROOT
BRANCH   1   2
ATOM      2  C   UNL     1      21.377   6.841  15.644  1.00  0.00     0.000 C 
BRANCH   2   3
ATOM      3  C   UNL     1      19.895   7.233  15.483  1.00  0.00     0.000 C 
BRANCH   3   4
ATOM      4  C   UNL     1      19.024   7.023  16.738  1.00  0.00     0.000 C 
BRANCH   4   5
ATOM      5  C   UNL     1      18.840   8.275  17.613  1.00  0.00     0.000 C 
BRANCH   5   6
ATOM      6  C   UNL     1      19.293   9.566  16.911  1.00  0.00     0.000 C 
BRANCH   6   7
ATOM      7  C   UNL     1      20.106  10.485  17.834  1.00  0.00     0.006 C 
BRANCH   7   8
ATOM      8  C   UNL     1      21.335  11.083  17.137  1.00  0.00     0.053 C 
BRANCH   8   9
ATOM      9  C   UNL     1      21.241  12.577  17.105  1.00  0.00     0.041 C 
ATOM     10  O   UNL     1      20.796  13.204  18.101  1.00  0.00    -0.550 OA
ATOM     11  O   UNL     1      21.599  13.271  15.957  1.00  0.00    -0.550 OA
ENDBRANCH   8   9
ENDBRANCH   7   8
ENDBRANCH   6   7
ENDBRANCH   5   6
ENDBRANCH   4   5
ENDBRANCH   3   4
ENDBRANCH   2   3
ENDBRANCH   1   2
BRANCH   1  12
ATOM     12  C   UNL     1      23.086   4.926  16.048  1.00  0.00     0.000 C 
BRANCH  12  13
ATOM     13  C   UNL     1      23.735   5.219  14.688  1.00  0.00    -0.000 C 
BRANCH  13  14
ATOM     14  C   UNL     1      24.893   6.213  14.835  1.00  0.00    -0.000 C 
BRANCH  14  15
ATOM     15  C   UNL     1      25.237   6.441  16.315  1.00  0.00    -0.000 C 
BRANCH  15  16
ATOM     16  C   UNL     1      25.149   7.920  16.727  1.00  0.00    -0.000 C 
BRANCH  16  17
ATOM     17  C   UNL     1      25.443   8.138  18.221  1.00  0.00    -0.000 C 
BRANCH  17  18
ATOM     18  C   UNL     1      24.316   7.622  19.134  1.00  0.00    -0.000 C 
BRANCH  18  19
ATOM     19  C   UNL     1      22.891   7.974  18.670  1.00  0.00    -0.003 C 
ATOM     20  C   UNL     1      21.805   7.313  19.516  1.00  0.00     0.004 C 
ENDBRANCH  18  19
ENDBRANCH  17  18
ENDBRANCH  16  17
ENDBRANCH  15  16
ENDBRANCH  14  15
ENDBRANCH  13  14
ENDBRANCH  12  13
ENDBRANCH   1  12
TORSDOF 16
ENDMDL
MODEL 7
REMARK VINA RESULT:    -2.730      2.906      6.610
REMARK INTER + INTRA:          -7.858
REMARK INTER:                  -5.085
REMARK INTRA:                  -2.773
REMARK UNBOUND:                -2.574
REMARK SMILES CCCCCCCCCCCCCCCCCC(=O)[O-]
REMARK SMILES IDX 10 1 11 2 12 3 13 4 14 5 15 6 16 7 17 8 18 9 19 10 20 11
REMARK SMILES IDX 9 12 8 13 7 14 6 15 5 16 4 17 3 18 2 19 1 20
REMARK H PARENT
REMARK Flexibility Score: inf
ROOT
ATOM      1  C   UNL     1      21.794   8.165  17.054  1.00  0.00     0.000 C 
ENDROOT
BRANCH   1   2
ATOM      2  C   UNL     1      21.711   7.256  18.297  1.00  0.00     0.000 C 
BRANCH   2   3
ATOM      3  C   UNL     1      22.385   7.819  19.564  1.00  0.00     0.000 C 
BRANCH   3   4
ATOM      4  C   UNL     1      23.606   8.726  19.306  1.00  0.00     0.000 C 
BRANCH   4   5
ATOM      5  C   UNL     1      24.942   7.980  19.145  1.00  0.00     0.000 C 
BRANCH   5   6
ATOM      6  C   UNL     1      25.417   7.915  17.683  1.00  0.00     0.000 C 
BRANCH   6   7
ATOM      7  C   UNL     1      25.203   6.530  17.055  1.00  0.00     0.006 C 
BRANCH   7   8
ATOM      8  C   UNL     1      24.985   6.599  15.537  1.00  0.00     0.053 C 
BRANCH   8   9
ATOM      9  C   UNL     1      24.055   5.513  15.094  1.00  0.00     0.041 C 
ATOM     10  O   UNL     1      23.173   5.076  15.879  1.00  0.00    -0.550 OA
ATOM     11  O   UNL     1      24.195   4.950  13.832  1.00  0.00    -0.550 OA
ENDBRANCH   8   9
ENDBRANCH   7   8
ENDBRANCH   6   7
ENDBRANCH   5   6
ENDBRANCH   4   5
ENDBRANCH   3   4
ENDBRANCH   2   3
ENDBRANCH   1   2
BRANCH   1  12
ATOM     12  C   UNL     1      20.745   7.877  15.966  1.00  0.00     0.000 C 
BRANCH  12  13
ATOM     13  C   UNL     1      19.483   7.199  16.519  1.00  0.00    -0.000 C 
BRANCH  13  14
ATOM     14  C   UNL     1      18.217   7.917  16.034  1.00  0.00    -0.000 C 
BRANCH  14  15
ATOM     15  C   UNL     1      18.322   9.432  16.265  1.00  0.00    -0.000 C 
BRANCH  15  16
ATOM     16  C   UNL     1      18.056   9.831  17.726  1.00  0.00    -0.000 C 
BRANCH  16  17
ATOM     17  C   UNL     1      18.776  11.131  18.126  1.00  0.00    -0.000 C 
BRANCH  17  18
ATOM     18  C   UNL     1      20.061  10.878  18.935  1.00  0.00    -0.000 C 
BRANCH  18  19
ATOM     19  C   UNL     1      21.314  11.600  18.408  1.00  0.00    -0.003 C 
ATOM     20  C   UNL     1      21.232  11.935  16.921  1.00  0.00     0.004 C 
ENDBRANCH  18  19
ENDBRANCH  17  18
ENDBRANCH  16  17
ENDBRANCH  15  16
ENDBRANCH  14  15
ENDBRANCH  13  14
ENDBRANCH  12  13
ENDBRANCH   1  12
TORSDOF 16
ENDMDL
MODEL 8
REMARK VINA RESULT:    -2.623      2.741      6.425
REMARK INTER + INTRA:          -7.651
REMARK INTER:                  -4.773
REMARK INTRA:                  -2.879
REMARK UNBOUND:                -2.574
REMARK SMILES CCCCCCCCCCCCCCCCCC(=O)[O-]
REMARK SMILES IDX 10 1 11 2 12 3 13 4 14 5 15 6 16 7 17 8 18 9 19 10 20 11
REMARK SMILES IDX 9 12 8 13 7 14 6 15 5 16 4 17 3 18 2 19 1 20
REMARK H PARENT
REMARK Flexibility Score: inf
ROOT
ATOM      1  C   UNL     1      21.016   9.645  16.893  1.00  0.00     0.000 C 
ENDROOT
BRANCH   1   2
ATOM      2  C   UNL     1      21.968   9.304  18.058  1.00  0.00     0.000 C 
BRANCH   2   3
ATOM      3  C   UNL     1      21.288   8.695  19.300  1.00  0.00     0.000 C 
BRANCH   3   4
ATOM      4  C   UNL     1      21.731   7.259  19.648  1.00  0.00     0.000 C 
BRANCH   4   5
ATOM      5  C   UNL     1      20.824   6.149  19.088  1.00  0.00     0.000 C 
BRANCH   5   6
ATOM      6  C   UNL     1      21.537   5.260  18.056  1.00  0.00     0.000 C 
BRANCH   6   7
ATOM      7  C   UNL     1      22.931   5.789  17.686  1.00  0.00     0.006 C 
BRANCH   7   8
ATOM      8  C   UNL     1      23.046   6.161  16.202  1.00  0.00     0.053 C 
BRANCH   8   9
ATOM      9  C   UNL     1      24.403   6.719  15.908  1.00  0.00     0.041 C 
ATOM     10  O   UNL     1      24.903   7.597  16.658  1.00  0.00    -0.550 OA
ATOM     11  O   UNL     1      25.095   6.304  14.778  1.00  0.00    -0.550 OA
ENDBRANCH   8   9
ENDBRANCH   7   8
ENDBRANCH   6   7
ENDBRANCH   5   6
ENDBRANCH   4   5
ENDBRANCH   3   4
ENDBRANCH   2   3
ENDBRANCH   1   2
BRANCH   1  12
ATOM     12  C   UNL     1      19.834   8.677  16.714  1.00  0.00     0.000 C 
BRANCH  12  13
ATOM     13  C   UNL     1      18.482   9.316  17.062  1.00  0.00    -0.000 C 
BRANCH  13  14
ATOM     14  C   UNL     1      18.432  10.779  16.602  1.00  0.00    -0.000 C 
BRANCH  14  15
ATOM     15  C   UNL     1      18.017  11.704  17.757  1.00  0.00    -0.000 C 
BRANCH  15  16
ATOM     16  C   UNL     1      18.541  11.225  19.121  1.00  0.00    -0.000 C 
BRANCH  16  17
ATOM     17  C   UNL     1      19.684  12.104  19.658  1.00  0.00    -0.000 C 
BRANCH  17  18
ATOM     18  C   UNL     1      20.085  13.225  18.684  1.00  0.00    -0.000 C 
BRANCH  18  19
ATOM     19  C   UNL     1      21.480  13.070  18.051  1.00  0.00    -0.003 C 
ATOM     20  C   UNL     1      21.452  13.099  16.524  1.00  0.00     0.004 C 
ENDBRANCH  18  19
ENDBRANCH  17  18
ENDBRANCH  16  17
ENDBRANCH  15  16
ENDBRANCH  14  15
ENDBRANCH  13  14
ENDBRANCH  12  13
ENDBRANCH   1  12
TORSDOF 16
ENDMDL
MODEL 9
REMARK VINA RESULT:    -2.595      2.932      6.079
REMARK INTER + INTRA:          -7.597
REMARK INTER:                  -4.771
REMARK INTRA:                  -2.826
REMARK UNBOUND:                -2.574
REMARK SMILES CCCCCCCCCCCCCCCCCC(=O)[O-]
REMARK SMILES IDX 10 1 11 2 12 3 13 4 14 5 15 6 16 7 17 8 18 9 19 10 20 11
REMARK SMILES IDX 9 12 8 13 7 14 6 15 5 16 4 17 3 18 2 19 1 20
REMARK H PARENT
REMARK Flexibility Score: inf
ROOT
ATOM      1  C   UNL     1      21.050  13.400  19.048  1.00  0.00     0.000 C 
ENDROOT
BRANCH   1   2
ATOM      2  C   UNL     1      22.011  13.051  20.202  1.00  0.00     0.000 C 
BRANCH   2   3
ATOM      3  C   UNL     1      22.341  11.552  20.347  1.00  0.00     0.000 C 
BRANCH   3   4
ATOM      4  C   UNL     1      21.116  10.624  20.476  1.00  0.00     0.000 C 
BRANCH   4   5
ATOM      5  C   UNL     1      21.188   9.337  19.636  1.00  0.00     0.000 C 
BRANCH   5   6
ATOM      6  C   UNL     1      22.375   9.330  18.657  1.00  0.00     0.000 C 
BRANCH   6   7
ATOM      7  C   UNL     1      23.347   8.170  18.917  1.00  0.00     0.006 C 
BRANCH   7   8
ATOM      8  C   UNL     1      24.574   8.600  19.731  1.00  0.00     0.053 C 
BRANCH   8   9
ATOM      9  C   UNL     1      25.830   8.319  18.969  1.00  0.00     0.041 C 
ATOM     10  O   UNL     1      25.781   8.077  17.735  1.00  0.00    -0.550 OA
ATOM     11  O   UNL     1      27.050   8.274  19.631  1.00  0.00    -0.550 OA
ENDBRANCH   8   9
ENDBRANCH   7   8
ENDBRANCH   6   7
ENDBRANCH   5   6
ENDBRANCH   4   5
ENDBRANCH   3   4
ENDBRANCH   2   3
ENDBRANCH   1   2
BRANCH   1  12
ATOM     12  C   UNL     1      21.595  13.109  17.638  1.00  0.00     0.000 C 
BRANCH  12  13
ATOM     13  C   UNL     1      20.737  12.098  16.864  1.00  0.00    -0.000 C 
BRANCH  13  14
ATOM     14  C   UNL     1      19.329  11.999  17.465  1.00  0.00    -0.000 C 
BRANCH  14  15
ATOM     15  C   UNL     1      18.453  11.031  16.655  1.00  0.00    -0.000 C 
BRANCH  15  16
ATOM     16  C   UNL     1      18.368   9.632  17.288  1.00  0.00    -0.000 C 
BRANCH  16  17
ATOM     17  C   UNL     1      18.634   8.506  16.274  1.00  0.00    -0.000 C 
BRANCH  17  18
ATOM     18  C   UNL     1      20.123   8.369  15.908  1.00  0.00    -0.000 C 
BRANCH  18  19
ATOM     19  C   UNL     1      20.752   7.004  16.244  1.00  0.00    -0.003 C 
ATOM     20  C   UNL     1      20.126   6.341  17.470  1.00  0.00     0.004 C 
ENDBRANCH  18  19
ENDBRANCH  17  18
ENDBRANCH  16  17
ENDBRANCH  15  16
ENDBRANCH  14  15
ENDBRANCH  13  14
ENDBRANCH  12  13
ENDBRANCH   1  12
TORSDOF 16
ENDMDL
