MODEL 1
REMARK VINA RESULT:    -2.844      0.000      0.000
REMARK INTER + INTRA:          -7.976
REMARK INTER:                  -5.504
REMARK INTRA:                  -2.472
REMARK UNBOUND:                -2.472
REMARK SMILES CCCCCCCCCCCCCCCCCC(=O)[O-]
REMARK SMILES IDX 10 1 11 2 12 3 13 4 14 5 15 6 16 7 17 8 18 9 19 10 20 11
REMARK SMILES IDX 9 12 8 13 7 14 6 15 5 16 4 17 3 18 2 19 1 20
REMARK H PARENT
REMARK Flexibility Score: inf
ROOT
ATOM      1  C   UNL     1      20.452  30.159  46.877  1.00  0.00     0.000 C 
ENDROOT
BRANCH   1   2
ATOM      2  C   UNL     1      21.481  29.288  46.136  1.00  0.00     0.000 C 
BRANCH   2   3
ATOM      3  C   UNL     1      22.486  28.622  47.088  1.00  0.00     0.000 C 
BRANCH   3   4
ATOM      4  C   UNL     1      23.803  29.410  47.202  1.00  0.00     0.000 C 
BRANCH   4   5
ATOM      5  C   UNL     1      24.121  30.221  45.937  1.00  0.00     0.000 C 
BRANCH   5   6
ATOM      6  C   UNL     1      24.757  31.584  46.252  1.00  0.00     0.000 C 
BRANCH   6   7
ATOM      7  C   UNL     1      25.730  32.006  45.143  1.00  0.00     0.006 C 
BRANCH   7   8
ATOM      8  C   UNL     1      25.720  31.000  43.990  1.00  0.00     0.053 C 
BRANCH   8   9
ATOM      9  C   UNL     1      25.231  31.649  42.734  1.00  0.00     0.041 C 
ATOM     10  O   UNL     1      24.040  32.052  42.651  1.00  0.00    -0.550 OA
ATOM     11  O   UNL     1      26.075  31.764  41.637  1.00  0.00    -0.550 OA
ENDBRANCH   8   9
ENDBRANCH   7   8
ENDBRANCH   6   7
ENDBRANCH   5   6
ENDBRANCH   4   5
ENDBRANCH   3   4
ENDBRANCH   2   3
ENDBRANCH   1   2
BRANCH   1  12
ATOM     12  C   UNL     1      20.836  31.647  46.894  1.00  0.00     0.000 C 
BRANCH  12  13
ATOM     13  C   UNL     1      21.338  32.114  48.272  1.00  0.00    -0.000 C 
BRANCH  13  14
ATOM     14  C   UNL     1      20.881  31.182  49.407  1.00  0.00    -0.000 C 
BRANCH  14  15
ATOM     15  C   UNL     1      22.064  30.654  50.240  1.00  0.00    -0.000 C 
BRANCH  15  16
ATOM     16  C   UNL     1      21.692  29.422  51.079  1.00  0.00    -0.000 C 
BRANCH  16  17
ATOM     17  C   UNL     1      20.984  28.331  50.255  1.00  0.00    -0.000 C 
BRANCH  17  18
ATOM     18  C   UNL     1      21.755  26.999  50.239  1.00  0.00    -0.000 C 
BRANCH  18  19
ATOM     19  C   UNL     1      23.278  27.135  50.414  1.00  0.00    -0.003 C 
ATOM     20  C   UNL     1      23.932  25.869  50.967  1.00  0.00     0.004 C 
ENDBRANCH  18  19
ENDBRANCH  17  18
ENDBRANCH  16  17
ENDBRANCH  15  16
ENDBRANCH  14  15
ENDBRANCH  13  14
ENDBRANCH  12  13
ENDBRANCH   1  12
TORSDOF 16
ENDMDL
MODEL 2
REMARK VINA RESULT:    -2.833      1.849      3.773
REMARK INTER + INTRA:          -7.955
REMARK INTER:                  -5.326
REMARK INTRA:                  -2.629
REMARK UNBOUND:                -2.472
REMARK SMILES CCCCCCCCCCCCCCCCCC(=O)[O-]
REMARK SMILES IDX 10 1 11 2 12 3 13 4 14 5 15 6 16 7 17 8 18 9 19 10 20 11
REMARK SMILES IDX 9 12 8 13 7 14 6 15 5 16 4 17 3 18 2 19 1 20
REMARK H PARENT
REMARK Flexibility Score: inf
ROOT
ATOM      1  C   UNL     1      23.752  27.042  47.895  1.00  0.00     0.000 C 
ENDROOT
BRANCH   1   2
ATOM      2  C   UNL     1      23.278  28.262  47.087  1.00  0.00     0.000 C 
BRANCH   2   3
ATOM      3  C   UNL     1      23.777  29.591  47.676  1.00  0.00     0.000 C 
BRANCH   3   4
ATOM      4  C   UNL     1      22.749  30.726  47.532  1.00  0.00     0.000 C 
BRANCH   4   5
ATOM      5  C   UNL     1      23.329  31.971  46.845  1.00  0.00     0.000 C 
BRANCH   5   6
ATOM      6  C   UNL     1      24.724  31.722  46.249  1.00  0.00     0.000 C 
BRANCH   6   7
ATOM      7  C   UNL     1      24.674  31.717  44.716  1.00  0.00     0.006 C 
BRANCH   7   8
ATOM      8  C   UNL     1      24.861  30.300  44.165  1.00  0.00     0.053 C 
BRANCH   8   9
ATOM      9  C   UNL     1      23.603  29.825  43.511  1.00  0.00     0.041 C 
ATOM     10  O   UNL     1      22.481  30.124  44.000  1.00  0.00    -0.550 OA
ATOM     11  O   UNL     1      23.668  29.008  42.389  1.00  0.00    -0.550 OA
ENDBRANCH   8   9
ENDBRANCH   7   8
ENDBRANCH   6   7
ENDBRANCH   5   6
ENDBRANCH   4   5
ENDBRANCH   3   4
ENDBRANCH   2   3
ENDBRANCH   1   2
BRANCH   1  12
ATOM     12  C   UNL     1      22.629  26.411  48.732  1.00  0.00     0.000 C 
BRANCH  12  13
ATOM     13  C   UNL     1      21.244  26.996  48.403  1.00  0.00    -0.000 C 
BRANCH  13  14
ATOM     14  C   UNL     1      20.469  27.408  49.666  1.00  0.00    -0.000 C 
BRANCH  14  15
ATOM     15  C   UNL     1      20.550  28.923  49.933  1.00  0.00    -0.000 C 
BRANCH  15  16
ATOM     16  C   UNL     1      21.625  29.284  50.969  1.00  0.00    -0.000 C 
BRANCH  16  17
ATOM     17  C   UNL     1      21.890  30.798  51.049  1.00  0.00    -0.000 C 
BRANCH  17  18
ATOM     18  C   UNL     1      20.606  31.637  50.920  1.00  0.00    -0.000 C 
BRANCH  18  19
ATOM     19  C   UNL     1      20.653  32.722  49.829  1.00  0.00    -0.003 C 
ATOM     20  C   UNL     1      19.670  32.466  48.688  1.00  0.00     0.004 C 
ENDBRANCH  18  19
ENDBRANCH  17  18
ENDBRANCH  16  17
ENDBRANCH  15  16
ENDBRANCH  14  15
ENDBRANCH  13  14
ENDBRANCH  12  13
ENDBRANCH   1  12
TORSDOF 16
ENDMDL
MODEL 3
REMARK VINA RESULT:    -2.802      3.799      6.248
REMARK INTER + INTRA:          -7.894
REMARK INTER:                  -5.219
REMARK INTRA:                  -2.674
REMARK UNBOUND:                -2.472
REMARK SMILES CCCCCCCCCCCCCCCCCC(=O)[O-]
REMARK SMILES IDX 10 1 11 2 12 3 13 4 14 5 15 6 16 7 17 8 18 9 19 10 20 11
REMARK SMILES IDX 9 12 8 13 7 14 6 15 5 16 4 17 3 18 2 19 1 20
REMARK H PARENT
REMARK Flexibility Score: inf
ROOT
ATOM      1  C   UNL     1      21.749  27.656  47.670  1.00  0.00     0.000 C 
ENDROOT
BRANCH   1   2
ATOM      2  C   UNL     1      23.216  27.261  47.429  1.00  0.00     0.000 C 
BRANCH   2   3
ATOM      3  C   UNL     1      23.387  25.754  47.177  1.00  0.00     0.000 C 
BRANCH   3   4
ATOM      4  C   UNL     1      22.686  24.893  48.242  1.00  0.00     0.000 C 
BRANCH   4   5
ATOM      5  C   UNL     1      23.637  24.440  49.360  1.00  0.00     0.000 C 
BRANCH   5   6
ATOM      6  C   UNL     1      23.524  25.309  50.622  1.00  0.00     0.000 C 
BRANCH   6   7
ATOM      7  C   UNL     1      24.904  25.797  51.080  1.00  0.00     0.006 C 
BRANCH   7   8
ATOM      8  C   UNL     1      25.800  26.117  49.880  1.00  0.00     0.053 C 
BRANCH   8   9
ATOM      9  C   UNL     1      27.234  25.848  50.212  1.00  0.00     0.041 C 
ATOM     10  O   UNL     1      27.806  26.501  51.125  1.00  0.00    -0.550 OA
ATOM     11  O   UNL     1      27.953  24.911  49.481  1.00  0.00    -0.550 OA
ENDBRANCH   8   9
ENDBRANCH   7   8
ENDBRANCH   6   7
ENDBRANCH   5   6
ENDBRANCH   4   5
ENDBRANCH   3   4
ENDBRANCH   2   3
ENDBRANCH   1   2
BRANCH   1  12
ATOM     12  C   UNL     1      21.483  28.096  49.119  1.00  0.00     0.000 C 
BRANCH  12  13
ATOM     13  C   UNL     1      22.700  28.781  49.763  1.00  0.00    -0.000 C 
BRANCH  13  14
ATOM     14  C   UNL     1      22.292  29.844  50.797  1.00  0.00    -0.000 C 
BRANCH  14  15
ATOM     15  C   UNL     1      20.938  30.496  50.461  1.00  0.00    -0.000 C 
BRANCH  15  16
ATOM     16  C   UNL     1      21.093  31.825  49.705  1.00  0.00    -0.000 C 
BRANCH  16  17
ATOM     17  C   UNL     1      20.896  31.672  48.186  1.00  0.00    -0.000 C 
BRANCH  17  18
ATOM     18  C   UNL     1      22.119  32.139  47.375  1.00  0.00    -0.000 C 
BRANCH  18  19
ATOM     19  C   UNL     1      22.701  31.080  46.422  1.00  0.00    -0.003 C 
ATOM     20  C   UNL     1      24.127  30.668  46.786  1.00  0.00     0.004 C 
ENDBRANCH  18  19
ENDBRANCH  17  18
ENDBRANCH  16  17
ENDBRANCH  15  16
ENDBRANCH  14  15
ENDBRANCH  13  14
ENDBRANCH  12  13
ENDBRANCH   1  12
TORSDOF 16
ENDMDL
MODEL 4
REMARK VINA RESULT:    -2.798      3.050      6.537
REMARK INTER + INTRA:          -7.888
REMARK INTER:                  -5.854
REMARK INTRA:                  -2.034
REMARK UNBOUND:                -2.472
REMARK SMILES CCCCCCCCCCCCCCCCCC(=O)[O-]
REMARK SMILES IDX 10 1 11 2 12 3 13 4 14 5 15 6 16 7 17 8 18 9 19 10 20 11
REMARK SMILES IDX 9 12 8 13 7 14 6 15 5 16 4 17 3 18 2 19 1 20
REMARK H PARENT
REMARK Flexibility Score: inf
ROOT
ATOM      1  C   UNL     1      21.700  26.957  49.997  1.00  0.00     0.000 C 
ENDROOT
BRANCH   1   2
ATOM      2  C   UNL     1      20.898  28.238  50.287  1.00  0.00     0.000 C 
BRANCH   2   3
ATOM      3  C   UNL     1      21.712  29.278  51.074  1.00  0.00     0.000 C 
BRANCH   3   4
ATOM      4  C   UNL     1      21.862  30.608  50.315  1.00  0.00     0.000 C 
BRANCH   4   5
ATOM      5  C   UNL     1      20.833  30.767  49.185  1.00  0.00     0.000 C 
BRANCH   5   6
ATOM      6  C   UNL     1      20.875  32.160  48.538  1.00  0.00     0.000 C 
BRANCH   6   7
ATOM      7  C   UNL     1      20.643  33.258  49.583  1.00  0.00     0.006 C 
BRANCH   7   8
ATOM      8  C   UNL     1      19.196  33.757  49.545  1.00  0.00     0.053 C 
BRANCH   8   9
ATOM      9  C   UNL     1      19.123  35.100  48.890  1.00  0.00     0.041 C 
ATOM     10  O   UNL     1      18.860  35.192  47.662  1.00  0.00    -0.550 OA
ATOM     11  O   UNL     1      19.395  36.247  49.624  1.00  0.00    -0.550 OA
ENDBRANCH   8   9
ENDBRANCH   7   8
ENDBRANCH   6   7
ENDBRANCH   5   6
ENDBRANCH   4   5
ENDBRANCH   3   4
ENDBRANCH   2   3
ENDBRANCH   1   2
BRANCH   1  12
ATOM     12  C   UNL     1      23.200  27.117  50.288  1.00  0.00     0.000 C 
BRANCH  12  13
ATOM     13  C   UNL     1      24.032  27.332  49.011  1.00  0.00    -0.000 C 
BRANCH  13  14
ATOM     14  C   UNL     1      23.188  27.188  47.733  1.00  0.00    -0.000 C 
BRANCH  14  15
ATOM     15  C   UNL     1      23.007  28.529  46.998  1.00  0.00    -0.000 C 
BRANCH  15  16
ATOM     16  C   UNL     1      23.973  29.613  47.501  1.00  0.00    -0.000 C 
BRANCH  16  17
ATOM     17  C   UNL     1      23.740  30.977  46.827  1.00  0.00    -0.000 C 
BRANCH  17  18
ATOM     18  C   UNL     1      24.881  31.376  45.873  1.00  0.00    -0.000 C 
BRANCH  18  19
ATOM     19  C   UNL     1      24.883  30.629  44.527  1.00  0.00    -0.003 C 
ATOM     20  C   UNL     1      26.073  30.999  43.641  1.00  0.00     0.004 C 
ENDBRANCH  18  19
ENDBRANCH  17  18
ENDBRANCH  16  17
ENDBRANCH  15  16
ENDBRANCH  14  15
ENDBRANCH  13  14
ENDBRANCH  12  13
ENDBRANCH   1  12
TORSDOF 16
ENDMDL
MODEL 5
REMARK VINA RESULT:    -2.796      3.281      6.636
REMARK INTER + INTRA:          -7.884
REMARK INTER:                  -5.465
REMARK INTRA:                  -2.418
REMARK UNBOUND:                -2.472
REMARK SMILES CCCCCCCCCCCCCCCCCC(=O)[O-]
REMARK SMILES IDX 10 1 11 2 12 3 13 4 14 5 15 6 16 7 17 8 18 9 19 10 20 11
REMARK SMILES IDX 9 12 8 13 7 14 6 15 5 16 4 17 3 18 2 19 1 20
REMARK H PARENT
REMARK Flexibility Score: inf
ROOT
ATOM      1  C   UNL     1      21.614  28.993  46.591  1.00  0.00     0.000 C 
ENDROOT
BRANCH   1   2
ATOM      2  C   UNL     1      22.736  27.964  46.811  1.00  0.00     0.000 C 
BRANCH   2   3
ATOM      3  C   UNL     1      23.350  28.052  48.218  1.00  0.00     0.000 C 
BRANCH   3   4
ATOM      4  C   UNL     1      23.014  29.375  48.927  1.00  0.00     0.000 C 
BRANCH   4   5
ATOM      5  C   UNL     1      22.600  29.174  50.393  1.00  0.00     0.000 C 
BRANCH   5   6
ATOM      6  C   UNL     1      21.435  30.085  50.810  1.00  0.00     0.000 C 
BRANCH   6   7
ATOM      7  C   UNL     1      20.895  30.871  49.609  1.00  0.00     0.006 C 
BRANCH   7   8
ATOM      8  C   UNL     1      20.925  32.378  49.878  1.00  0.00     0.053 C 
BRANCH   8   9
ATOM      9  C   UNL     1      19.581  32.982  49.623  1.00  0.00     0.041 C 
ATOM     10  O   UNL     1      19.488  34.155  49.173  1.00  0.00    -0.550 OA
ATOM     11  O   UNL     1      18.429  32.269  49.928  1.00  0.00    -0.550 OA
ENDBRANCH   8   9
ENDBRANCH   7   8
ENDBRANCH   6   7
ENDBRANCH   5   6
ENDBRANCH   4   5
ENDBRANCH   3   4
ENDBRANCH   2   3
ENDBRANCH   1   2
BRANCH   1  12
ATOM     12  C   UNL     1      21.517  29.463  45.131  1.00  0.00     0.000 C 
BRANCH  12  13
ATOM     13  C   UNL     1      22.219  30.812  44.895  1.00  0.00    -0.000 C 
BRANCH  13  14
ATOM     14  C   UNL     1      22.132  31.737  46.120  1.00  0.00    -0.000 C 
BRANCH  14  15
ATOM     15  C   UNL     1      23.522  32.093  46.683  1.00  0.00    -0.000 C 
BRANCH  15  16
ATOM     16  C   UNL     1      24.632  31.184  46.133  1.00  0.00    -0.000 C 
BRANCH  16  17
ATOM     17  C   UNL     1      25.674  31.953  45.302  1.00  0.00    -0.000 C 
BRANCH  17  18
ATOM     18  C   UNL     1      26.046  31.231  43.994  1.00  0.00    -0.000 C 
BRANCH  18  19
ATOM     19  C   UNL     1      25.739  32.025  42.712  1.00  0.00    -0.003 C 
ATOM     20  C   UNL     1      24.720  33.143  42.930  1.00  0.00     0.004 C 
ENDBRANCH  18  19
ENDBRANCH  17  18
ENDBRANCH  16  17
ENDBRANCH  15  16
ENDBRANCH  14  15
ENDBRANCH  13  14
ENDBRANCH  12  13
ENDBRANCH   1  12
TORSDOF 16
ENDMDL
MODEL 6
REMARK VINA RESULT:    -2.786      3.344      6.544
REMARK INTER + INTRA:          -7.863
REMARK INTER:                  -5.425
REMARK INTRA:                  -2.437
REMARK UNBOUND:                -2.472
REMARK SMILES CCCCCCCCCCCCCCCCCC(=O)[O-]
REMARK SMILES IDX 10 1 11 2 12 3 13 4 14 5 15 6 16 7 17 8 18 9 19 10 20 11
REMARK SMILES IDX 9 12 8 13 7 14 6 15 5 16 4 17 3 18 2 19 1 20
REMARK H PARENT
REMARK Flexibility Score: inf
ROOT
ATOM      1  C   UNL     1      20.570  31.765  48.217  1.00  0.00     0.000 C 
ENDROOT
BRANCH   1   2
ATOM      2  C   UNL     1      20.589  31.642  49.751  1.00  0.00     0.000 C 
BRANCH   2   3
ATOM      3  C   UNL     1      21.880  30.992  50.274  1.00  0.00     0.000 C 
BRANCH   3   4
ATOM      4  C   UNL     1      21.610  29.728  51.108  1.00  0.00     0.000 C 
BRANCH   4   5
ATOM      5  C   UNL     1      22.490  28.540  50.689  1.00  0.00     0.000 C 
BRANCH   5   6
ATOM      6  C   UNL     1      21.692  27.431  49.986  1.00  0.00     0.000 C 
BRANCH   6   7
ATOM      7  C   UNL     1      22.419  26.084  50.083  1.00  0.00     0.006 C 
BRANCH   7   8
ATOM      8  C   UNL     1      23.630  26.044  49.147  1.00  0.00     0.053 C 
BRANCH   8   9
ATOM      9  C   UNL     1      24.846  25.583  49.885  1.00  0.00     0.041 C 
ATOM     10  O   UNL     1      24.758  25.218  51.088  1.00  0.00    -0.550 OA
ATOM     11  O   UNL     1      26.087  25.602  49.261  1.00  0.00    -0.550 OA
ENDBRANCH   8   9
ENDBRANCH   7   8
ENDBRANCH   6   7
ENDBRANCH   5   6
ENDBRANCH   4   5
ENDBRANCH   3   4
ENDBRANCH   2   3
ENDBRANCH   1   2
BRANCH   1  12
ATOM     12  C   UNL     1      19.662  30.721  47.549  1.00  0.00     0.000 C 
BRANCH  12  13
ATOM     13  C   UNL     1      20.421  29.444  47.148  1.00  0.00    -0.000 C 
BRANCH  13  14
ATOM     14  C   UNL     1      21.720  29.752  46.384  1.00  0.00    -0.000 C 
BRANCH  14  15
ATOM     15  C   UNL     1      22.944  29.056  47.008  1.00  0.00    -0.000 C 
BRANCH  15  16
ATOM     16  C   UNL     1      24.062  30.044  47.375  1.00  0.00    -0.000 C 
BRANCH  16  17
ATOM     17  C   UNL     1      23.941  31.385  46.629  1.00  0.00    -0.000 C 
BRANCH  17  18
ATOM     18  C   UNL     1      25.214  31.750  45.845  1.00  0.00    -0.000 C 
BRANCH  18  19
ATOM     19  C   UNL     1      25.262  31.206  44.406  1.00  0.00    -0.003 C 
ATOM     20  C   UNL     1      26.004  32.131  43.441  1.00  0.00     0.004 C 
ENDBRANCH  18  19
ENDBRANCH  17  18
ENDBRANCH  16  17
ENDBRANCH  15  16
ENDBRANCH  14  15
ENDBRANCH  13  14
ENDBRANCH  12  13
ENDBRANCH   1  12
TORSDOF 16
ENDMDL
MODEL 7
REMARK VINA RESULT:    -2.785      1.321      3.550
REMARK INTER + INTRA:          -7.862
REMARK INTER:                  -5.090
REMARK INTRA:                  -2.772
REMARK UNBOUND:                -2.472
REMARK SMILES CCCCCCCCCCCCCCCCCC(=O)[O-]
REMARK SMILES IDX 10 1 11 2 12 3 13 4 14 5 15 6 16 7 17 8 18 9 19 10 20 11
REMARK SMILES IDX 9 12 8 13 7 14 6 15 5 16 4 17 3 18 2 19 1 20
REMARK H PARENT
REMARK Flexibility Score: inf
ROOT
ATOM      1  C   UNL     1      21.352  27.068  48.221  1.00  0.00     0.000 C 
ENDROOT
BRANCH   1   2
ATOM      2  C   UNL     1      22.744  27.303  47.611  1.00  0.00     0.000 C 
BRANCH   2   3
ATOM      3  C   UNL     1      22.679  27.722  46.134  1.00  0.00     0.000 C 
BRANCH   3   4
ATOM      4  C   UNL     1      23.436  29.032  45.857  1.00  0.00     0.000 C 
BRANCH   4   5
ATOM      5  C   UNL     1      23.674  29.861  47.128  1.00  0.00     0.000 C 
BRANCH   5   6
ATOM      6  C   UNL     1      23.877  31.355  46.831  1.00  0.00     0.000 C 
BRANCH   6   7
ATOM      7  C   UNL     1      25.064  31.571  45.884  1.00  0.00     0.006 C 
BRANCH   7   8
ATOM      8  C   UNL     1      24.591  32.059  44.512  1.00  0.00     0.053 C 
BRANCH   8   9
ATOM      9  C   UNL     1      25.712  32.004  43.523  1.00  0.00     0.041 C 
ATOM     10  O   UNL     1      26.444  30.981  43.450  1.00  0.00    -0.550 OA
ATOM     11  O   UNL     1      25.982  33.102  42.717  1.00  0.00    -0.550 OA
ENDBRANCH   8   9
ENDBRANCH   7   8
ENDBRANCH   6   7
ENDBRANCH   5   6
ENDBRANCH   4   5
ENDBRANCH   3   4
ENDBRANCH   2   3
ENDBRANCH   1   2
BRANCH   1  12
ATOM     12  C   UNL     1      21.270  27.493  49.695  1.00  0.00     0.000 C 
BRANCH  12  13
ATOM     13  C   UNL     1      22.614  28.006  50.240  1.00  0.00    -0.000 C 
BRANCH  13  14
ATOM     14  C   UNL     1      22.564  29.499  50.608  1.00  0.00    -0.000 C 
BRANCH  14  15
ATOM     15  C   UNL     1      21.160  30.102  50.411  1.00  0.00    -0.000 C 
BRANCH  15  16
ATOM     16  C   UNL     1      21.206  31.571  49.964  1.00  0.00    -0.000 C 
BRANCH  16  17
ATOM     17  C   UNL     1      20.653  31.779  48.543  1.00  0.00    -0.000 C 
BRANCH  17  18
ATOM     18  C   UNL     1      20.102  30.484  47.921  1.00  0.00    -0.000 C 
BRANCH  18  19
ATOM     19  C   UNL     1      19.699  30.603  46.440  1.00  0.00    -0.003 C 
ATOM     20  C   UNL     1      20.565  31.593  45.662  1.00  0.00     0.004 C 
ENDBRANCH  18  19
ENDBRANCH  17  18
ENDBRANCH  16  17
ENDBRANCH  15  16
ENDBRANCH  14  15
ENDBRANCH  13  14
ENDBRANCH  12  13
ENDBRANCH   1  12
TORSDOF 16
ENDMDL
MODEL 8
REMARK VINA RESULT:    -2.760      2.096      4.065
REMARK INTER + INTRA:          -7.813
REMARK INTER:                  -5.136
REMARK INTRA:                  -2.677
REMARK UNBOUND:                -2.472
REMARK SMILES CCCCCCCCCCCCCCCCCC(=O)[O-]
REMARK SMILES IDX 10 1 11 2 12 3 13 4 14 5 15 6 16 7 17 8 18 9 19 10 20 11
REMARK SMILES IDX 9 12 8 13 7 14 6 15 5 16 4 17 3 18 2 19 1 20
REMARK H PARENT
REMARK Flexibility Score: inf
ROOT
ATOM      1  C   UNL     1      22.560  29.539  46.788  1.00  0.00     0.000 C 
ENDROOT
BRANCH   1   2
ATOM      2  C   UNL     1      23.764  30.333  47.326  1.00  0.00     0.000 C 
BRANCH   2   3
ATOM      3  C   UNL     1      23.936  31.690  46.625  1.00  0.00     0.000 C 
BRANCH   3   4
ATOM      4  C   UNL     1      25.253  31.784  45.835  1.00  0.00     0.000 C 
BRANCH   4   5
ATOM      5  C   UNL     1      25.091  31.386  44.360  1.00  0.00     0.000 C 
BRANCH   5   6
ATOM      6  C   UNL     1      23.724  31.787  43.785  1.00  0.00     0.000 C 
BRANCH   6   7
ATOM      7  C   UNL     1      23.007  30.575  43.176  1.00  0.00     0.006 C 
BRANCH   7   8
ATOM      8  C   UNL     1      23.870  29.315  43.280  1.00  0.00     0.053 C 
BRANCH   8   9
ATOM      9  C   UNL     1      23.010  28.106  43.461  1.00  0.00     0.041 C 
ATOM     10  O   UNL     1      23.535  26.977  43.654  1.00  0.00    -0.550 OA
ATOM     11  O   UNL     1      21.628  28.215  43.366  1.00  0.00    -0.550 OA
ENDBRANCH   8   9
ENDBRANCH   7   8
ENDBRANCH   6   7
ENDBRANCH   5   6
ENDBRANCH   4   5
ENDBRANCH   3   4
ENDBRANCH   2   3
ENDBRANCH   1   2
BRANCH   1  12
ATOM     12  C   UNL     1      22.597  28.057  47.194  1.00  0.00     0.000 C 
BRANCH  12  13
ATOM     13  C   UNL     1      23.701  27.751  48.222  1.00  0.00    -0.000 C 
BRANCH  13  14
ATOM     14  C   UNL     1      23.130  27.431  49.614  1.00  0.00    -0.000 C 
BRANCH  14  15
ATOM     15  C   UNL     1      21.611  27.676  49.693  1.00  0.00    -0.000 C 
BRANCH  15  16
ATOM     16  C   UNL     1      21.238  28.738  50.739  1.00  0.00    -0.000 C 
BRANCH  16  17
ATOM     17  C   UNL     1      22.191  29.946  50.728  1.00  0.00    -0.000 C 
BRANCH  17  18
ATOM     18  C   UNL     1      21.449  31.291  50.627  1.00  0.00    -0.000 C 
BRANCH  18  19
ATOM     19  C   UNL     1      20.766  31.550  49.273  1.00  0.00    -0.003 C 
ATOM     20  C   UNL     1      20.990  32.969  48.751  1.00  0.00     0.004 C 
ENDBRANCH  18  19
ENDBRANCH  17  18
ENDBRANCH  16  17
ENDBRANCH  15  16
ENDBRANCH  14  15
ENDBRANCH  13  14
ENDBRANCH  12  13
ENDBRANCH   1  12
TORSDOF 16
ENDMDL
