MODEL 1
REMARK VINA RESULT:    -7.038      0.000      0.000
REMARK INTER + INTRA:          -7.810
REMARK INTER:                  -7.655
REMARK INTRA:                  -0.155
REMARK UNBOUND:                -0.155
REMARK SMILES C[C@@H]1[C@H](C)CC[C@@]2(C(=O)[O-])CC[C@@]3(C)C(=CC[C@@H]4[C@]5(C)CC[C@@H](O)C(C)(C)[C@@H]5CC[C@@]43C)[C@@H]12
REMARK SMILES IDX 7 1 6 2 11 3 33 4 5 5 12 6 15 7 2 8 3 9 13 10 16 11 1 12
REMARK SMILES IDX 4 13 14 14 31 15 17 16 18 17 30 18 32 19 19 20 29 21 28 22
REMARK SMILES IDX 21 23 20 24 25 25 22 26 23 27 26 28 27 29 8 30 9 31 10 32
REMARK SMILES IDX 24 33
REMARK H PARENT 24 34
REMARK Flexibility Score: inf
ROOT
ATOM      1  C   UNL     1      -1.521 -24.601  -7.825  1.00  0.00     0.017 C 
ATOM      2  C   UNL     1      -2.215 -23.957  -9.059  1.00  0.00     0.014 C 
ATOM      3  C   UNL     1      -0.797 -25.912  -8.285  1.00  0.00     0.014 C 
ATOM      4  C   UNL     1      -0.496 -23.592  -7.148  1.00  0.00     0.030 C 
ATOM      5  C   UNL     1      -2.799 -22.577  -8.737  1.00  0.00     0.004 C 
ATOM      6  C   UNL     1       0.585 -25.667  -8.913  1.00  0.00     0.013 C 
ATOM      7  C   UNL     1       0.832 -24.322  -6.815  1.00  0.00    -0.063 C 
ATOM      8  C   UNL     1      -0.359 -22.234  -7.901  1.00  0.00    -0.003 C 
ATOM      9  C   UNL     1      -1.750 -21.572  -8.181  1.00  0.00    -0.011 C 
ATOM     10  C   UNL     1       1.655 -25.013  -7.936  1.00  0.00    -0.006 C 
ATOM     11  C   UNL     1       0.920 -24.737  -5.536  1.00  0.00    -0.027 C 
ATOM     12  C   UNL     1       0.595 -21.267  -7.172  1.00  0.00     0.008 C 
ATOM     13  C   UNL     1      -2.344 -20.813  -6.976  1.00  0.00     0.008 C 
ATOM     14  C   UNL     1       2.429 -23.918  -8.746  1.00  0.00     0.017 C 
ATOM     15  C   UNL     1       2.766 -26.072  -7.369  1.00  0.00    -0.020 C 
ATOM     16  C   UNL     1       1.725 -25.894  -5.059  1.00  0.00     0.032 C 
ATOM     17  C   UNL     1       2.199 -26.892  -6.156  1.00  0.00     0.006 C 
ATOM     18  C   UNL     1       4.051 -25.341  -6.832  1.00  0.00     0.008 C 
ATOM     19  C   UNL     1       3.199 -27.008  -8.554  1.00  0.00     0.012 C 
ATOM     20  C   UNL     1       3.198 -28.033  -5.569  1.00  0.00    -0.025 C 
ATOM     21  C   UNL     1       4.910 -26.099  -5.778  1.00  0.00     0.005 C 
ATOM     22  C   UNL     1       4.737 -27.643  -5.760  1.00  0.00     0.003 C 
ATOM     23  C   UNL     1       2.884 -28.307  -4.049  1.00  0.00     0.010 C 
ATOM     24  C   UNL     1       2.887 -29.363  -6.333  1.00  0.00     0.012 C 
ATOM     25  C   UNL     1       5.797 -28.415  -4.834  1.00  0.00    -0.006 C 
ATOM     26  C   UNL     1       3.890 -29.192  -3.321  1.00  0.00     0.033 C 
ATOM     27  C   UNL     1       5.279 -28.563  -3.374  1.00  0.00     0.120 C 
ATOM     28  C   UNL     1       7.161 -27.669  -4.777  1.00  0.00     0.014 C 
ATOM     29  C   UNL     1       6.126 -29.814  -5.437  1.00  0.00     0.014 C 
ENDROOT
BRANCH   1  30
ATOM     30  C   UNL     1      -2.624 -25.012  -6.840  1.00  0.00     0.048 C 
ATOM     31  O   UNL     1      -2.394 -25.039  -5.599  1.00  0.00    -0.550 OA
ATOM     32  O   UNL     1      -3.861 -25.461  -7.288  1.00  0.00    -0.550 OA
ENDBRANCH   1  30
BRANCH  27  33
ATOM     33  O   UNL     1       6.153 -29.350  -2.603  1.00  0.00    -0.393 OA
ATOM     34  H   UNL     1       5.601 -29.861  -1.953  1.00  0.00     0.210 HD
ENDBRANCH  27  33
TORSDOF 2
ENDMDL
MODEL 2
REMARK VINA RESULT:    -6.850     13.734     18.195
REMARK INTER + INTRA:          -7.606
REMARK INTER:                  -7.542
REMARK INTRA:                  -0.064
REMARK UNBOUND:                -0.155
REMARK SMILES C[C@@H]1[C@H](C)CC[C@@]2(C(=O)[O-])CC[C@@]3(C)C(=CC[C@@H]4[C@]5(C)CC[C@@H](O)C(C)(C)[C@@H]5CC[C@@]43C)[C@@H]12
REMARK SMILES IDX 7 1 6 2 11 3 33 4 5 5 12 6 15 7 2 8 3 9 13 10 16 11 1 12
REMARK SMILES IDX 4 13 14 14 31 15 17 16 18 17 30 18 32 19 19 20 29 21 28 22
REMARK SMILES IDX 21 23 20 24 25 25 22 26 23 27 26 28 27 29 8 30 9 31 10 32
REMARK SMILES IDX 24 33
REMARK H PARENT 24 34
REMARK Flexibility Score: inf
ROOT
ATOM      1  C   UNL     1      -7.366 -15.610  -1.023  1.00  0.00     0.017 C 
ATOM      2  C   UNL     1      -7.569 -15.252  -2.523  1.00  0.00     0.014 C 
ATOM      3  C   UNL     1      -7.010 -14.301  -0.239  1.00  0.00     0.014 C 
ATOM      4  C   UNL     1      -8.661 -16.303  -0.416  1.00  0.00     0.030 C 
ATOM      5  C   UNL     1      -8.092 -16.442  -3.334  1.00  0.00     0.004 C 
ATOM      6  C   UNL     1      -8.239 -13.458   0.145  1.00  0.00     0.013 C 
ATOM      7  C   UNL     1      -8.990 -15.698   0.974  1.00  0.00    -0.063 C 
ATOM      8  C   UNL     1      -9.852 -16.399  -1.418  1.00  0.00    -0.003 C 
ATOM      9  C   UNL     1      -9.423 -17.032  -2.785  1.00  0.00    -0.011 C 
ATOM     10  C   UNL     1      -9.259 -14.177   1.129  1.00  0.00    -0.006 C 
ATOM     11  C   UNL     1      -8.529 -16.428   2.009  1.00  0.00    -0.027 C 
ATOM     12  C   UNL     1     -11.060 -17.135  -0.805  1.00  0.00     0.008 C 
ATOM     13  C   UNL     1      -9.344 -18.573  -2.772  1.00  0.00     0.008 C 
ATOM     14  C   UNL     1     -10.707 -13.862   0.620  1.00  0.00     0.017 C 
ATOM     15  C   UNL     1      -9.165 -13.653   2.676  1.00  0.00    -0.020 C 
ATOM     16  C   UNL     1      -8.173 -15.892   3.350  1.00  0.00     0.032 C 
ATOM     17  C   UNL     1      -7.982 -14.349   3.439  1.00  0.00     0.006 C 
ATOM     18  C   UNL     1     -10.466 -13.998   3.491  1.00  0.00     0.008 C 
ATOM     19  C   UNL     1      -9.006 -12.091   2.654  1.00  0.00     0.012 C 
ATOM     20  C   UNL     1      -7.749 -13.837   4.964  1.00  0.00    -0.025 C 
ATOM     21  C   UNL     1     -10.327 -14.098   5.038  1.00  0.00     0.005 C 
ATOM     22  C   UNL     1      -9.110 -13.350   5.650  1.00  0.00     0.003 C 
ATOM     23  C   UNL     1      -7.072 -14.969   5.825  1.00  0.00     0.010 C 
ATOM     24  C   UNL     1      -6.729 -12.652   4.908  1.00  0.00     0.012 C 
ATOM     25  C   UNL     1      -9.121 -13.274   7.253  1.00  0.00    -0.006 C 
ATOM     26  C   UNL     1      -7.001 -14.699   7.324  1.00  0.00     0.033 C 
ATOM     27  C   UNL     1      -8.404 -14.501   7.890  1.00  0.00     0.120 C 
ATOM     28  C   UNL     1     -10.570 -13.230   7.817  1.00  0.00     0.014 C 
ATOM     29  C   UNL     1      -8.459 -11.948   7.738  1.00  0.00     0.014 C 
ENDROOT
BRANCH   1  30
ATOM     30  C   UNL     1      -6.148 -16.539  -0.933  1.00  0.00     0.048 C 
ATOM     31  O   UNL     1      -6.260 -17.766  -1.213  1.00  0.00    -0.550 OA
ATOM     32  O   UNL     1      -4.928 -16.086  -0.446  1.00  0.00    -0.550 OA
ENDBRANCH   1  30
BRANCH  27  33
ATOM     33  O   UNL     1      -8.305 -14.363   9.286  1.00  0.00    -0.393 OA
ATOM     34  H   UNL     1      -8.918 -15.028   9.696  1.00  0.00     0.210 HD
ENDBRANCH  27  33
TORSDOF 2
ENDMDL
MODEL 3
REMARK VINA RESULT:    -6.579     15.994     20.119
REMARK INTER + INTRA:          -7.311
REMARK INTER:                  -7.292
REMARK INTRA:                  -0.018
REMARK UNBOUND:                -0.155
REMARK SMILES C[C@@H]1[C@H](C)CC[C@@]2(C(=O)[O-])CC[C@@]3(C)C(=CC[C@@H]4[C@]5(C)CC[C@@H](O)C(C)(C)[C@@H]5CC[C@@]43C)[C@@H]12
REMARK SMILES IDX 7 1 6 2 11 3 33 4 5 5 12 6 15 7 2 8 3 9 13 10 16 11 1 12
REMARK SMILES IDX 4 13 14 14 31 15 17 16 18 17 30 18 32 19 19 20 29 21 28 22
REMARK SMILES IDX 21 23 20 24 25 25 22 26 23 27 26 28 27 29 8 30 9 31 10 32
REMARK SMILES IDX 24 33
REMARK H PARENT 24 34
REMARK Flexibility Score: inf
ROOT
ATOM      1  C   UNL     1      -8.849 -13.716   7.235  1.00  0.00     0.017 C 
ATOM      2  C   UNL     1      -9.149 -12.843   8.488  1.00  0.00     0.014 C 
ATOM      3  C   UNL     1     -10.205 -14.059   6.528  1.00  0.00     0.014 C 
ATOM      4  C   UNL     1      -7.859 -12.972   6.239  1.00  0.00     0.030 C 
ATOM      5  C   UNL     1      -7.868 -12.313   9.141  1.00  0.00     0.004 C 
ATOM      6  C   UNL     1     -10.721 -12.941   5.606  1.00  0.00     0.013 C 
ATOM      7  C   UNL     1      -8.364 -13.114   4.778  1.00  0.00    -0.063 C 
ATOM      8  C   UNL     1      -7.476 -11.530   6.691  1.00  0.00    -0.003 C 
ATOM      9  C   UNL     1      -6.969 -11.492   8.173  1.00  0.00    -0.011 C 
ATOM     10  C   UNL     1      -9.773 -12.600   4.377  1.00  0.00    -0.006 C 
ATOM     11  C   UNL     1      -7.767 -14.108   4.090  1.00  0.00    -0.027 C 
ATOM     12  C   UNL     1      -6.466 -10.876   5.728  1.00  0.00     0.008 C 
ATOM     13  C   UNL     1      -5.495 -11.911   8.348  1.00  0.00     0.008 C 
ATOM     14  C   UNL     1      -9.724 -11.041   4.235  1.00  0.00     0.017 C 
ATOM     15  C   UNL     1     -10.301 -13.199   2.948  1.00  0.00    -0.020 C 
ATOM     16  C   UNL     1      -8.373 -14.852   2.953  1.00  0.00     0.032 C 
ATOM     17  C   UNL     1      -9.915 -14.713   2.792  1.00  0.00     0.006 C 
ATOM     18  C   UNL     1      -9.648 -12.458   1.725  1.00  0.00     0.008 C 
ATOM     19  C   UNL     1     -11.855 -12.983   2.874  1.00  0.00     0.012 C 
ATOM     20  C   UNL     1     -10.467 -15.429   1.440  1.00  0.00    -0.025 C 
ATOM     21  C   UNL     1      -9.582 -13.236   0.378  1.00  0.00     0.005 C 
ATOM     22  C   UNL     1     -10.604 -14.397   0.226  1.00  0.00     0.003 C 
ATOM     23  C   UNL     1      -9.533 -16.632   1.037  1.00  0.00     0.010 C 
ATOM     24  C   UNL     1     -11.865 -16.045   1.775  1.00  0.00     0.012 C 
ATOM     25  C   UNL     1     -10.674 -15.025  -1.250  1.00  0.00    -0.006 C 
ATOM     26  C   UNL     1      -9.811 -17.248  -0.330  1.00  0.00     0.033 C 
ATOM     27  C   UNL     1      -9.659 -16.193  -1.422  1.00  0.00     0.120 C 
ATOM     28  C   UNL     1     -10.360 -13.964  -2.342  1.00  0.00     0.014 C 
ATOM     29  C   UNL     1     -12.121 -15.514  -1.563  1.00  0.00     0.014 C 
ENDROOT
BRANCH   1  30
ATOM     30  C   UNL     1      -8.246 -15.037   7.730  1.00  0.00     0.048 C 
ATOM     31  O   UNL     1      -7.661 -15.813   6.923  1.00  0.00    -0.550 OA
ATOM     32  O   UNL     1      -8.417 -15.462   9.042  1.00  0.00    -0.550 OA
ENDBRANCH   1  30
BRANCH  27  33
ATOM     33  O   UNL     1      -9.815 -16.821  -2.671  1.00  0.00    -0.393 OA
ATOM     34  H   UNL     1     -10.097 -16.125  -3.322  1.00  0.00     0.210 HD
ENDBRANCH  27  33
TORSDOF 2
ENDMDL
MODEL 4
REMARK VINA RESULT:    -6.307     14.411     18.945
REMARK INTER + INTRA:          -7.014
REMARK INTER:                  -6.686
REMARK INTRA:                  -0.328
REMARK UNBOUND:                -0.155
REMARK SMILES C[C@@H]1[C@H](C)CC[C@@]2(C(=O)[O-])CC[C@@]3(C)C(=CC[C@@H]4[C@]5(C)CC[C@@H](O)C(C)(C)[C@@H]5CC[C@@]43C)[C@@H]12
REMARK SMILES IDX 7 1 6 2 11 3 33 4 5 5 12 6 15 7 2 8 3 9 13 10 16 11 1 12
REMARK SMILES IDX 4 13 14 14 31 15 17 16 18 17 30 18 32 19 19 20 29 21 28 22
REMARK SMILES IDX 21 23 20 24 25 25 22 26 23 27 26 28 27 29 8 30 9 31 10 32
REMARK SMILES IDX 24 33
REMARK H PARENT 24 34
REMARK Flexibility Score: inf
ROOT
ATOM      1  C   UNL     1      -8.744 -13.259  -0.652  1.00  0.00     0.017 C 
ATOM      2  C   UNL     1      -9.700 -13.505  -1.855  1.00  0.00     0.014 C 
ATOM      3  C   UNL     1      -9.526 -12.480   0.459  1.00  0.00     0.014 C 
ATOM      4  C   UNL     1      -8.164 -14.628  -0.088  1.00  0.00     0.030 C 
ATOM      5  C   UNL     1      -9.072 -14.415  -2.915  1.00  0.00     0.004 C 
ATOM      6  C   UNL     1     -10.392 -13.383   1.354  1.00  0.00     0.013 C 
ATOM      7  C   UNL     1      -8.226 -14.636   1.463  1.00  0.00    -0.063 C 
ATOM      8  C   UNL     1      -8.732 -15.893  -0.800  1.00  0.00    -0.003 C 
ATOM      9  C   UNL     1      -8.615 -15.794  -2.359  1.00  0.00    -0.011 C 
ATOM     10  C   UNL     1      -9.582 -14.458   2.199  1.00  0.00    -0.006 C 
ATOM     11  C   UNL     1      -7.066 -14.293   2.056  1.00  0.00    -0.027 C 
ATOM     12  C   UNL     1      -8.093 -17.189  -0.263  1.00  0.00     0.008 C 
ATOM     13  C   UNL     1      -7.217 -16.142  -2.912  1.00  0.00     0.008 C 
ATOM     14  C   UNL     1     -10.376 -15.807   2.134  1.00  0.00     0.017 C 
ATOM     15  C   UNL     1      -9.418 -14.069   3.780  1.00  0.00    -0.020 C 
ATOM     16  C   UNL     1      -6.938 -13.669   3.400  1.00  0.00     0.032 C 
ATOM     17  C   UNL     1      -8.240 -13.053   3.993  1.00  0.00     0.006 C 
ATOM     18  C   UNL     1      -9.069 -15.325   4.659  1.00  0.00     0.008 C 
ATOM     19  C   UNL     1     -10.787 -13.487   4.284  1.00  0.00     0.012 C 
ATOM     20  C   UNL     1      -8.043 -12.535   5.522  1.00  0.00    -0.025 C 
ATOM     21  C   UNL     1      -8.338 -15.065   6.009  1.00  0.00     0.005 C 
ATOM     22  C   UNL     1      -8.500 -13.633   6.592  1.00  0.00     0.003 C 
ATOM     23  C   UNL     1      -6.546 -12.114   5.770  1.00  0.00     0.010 C 
ATOM     24  C   UNL     1      -8.903 -11.239   5.690  1.00  0.00     0.012 C 
ATOM     25  C   UNL     1      -7.937 -13.462   8.085  1.00  0.00    -0.006 C 
ATOM     26  C   UNL     1      -6.179 -11.821   7.221  1.00  0.00     0.033 C 
ATOM     27  C   UNL     1      -6.436 -13.051   8.087  1.00  0.00     0.120 C 
ATOM     28  C   UNL     1      -8.066 -14.778   8.903  1.00  0.00     0.014 C 
ATOM     29  C   UNL     1      -8.787 -12.415   8.868  1.00  0.00     0.014 C 
ENDROOT
BRANCH   1  30
ATOM     30  C   UNL     1      -7.616 -12.342  -1.143  1.00  0.00     0.048 C 
ATOM     31  O   UNL     1      -7.873 -11.173  -1.544  1.00  0.00    -0.550 OA
ATOM     32  O   UNL     1      -6.309 -12.803  -1.259  1.00  0.00    -0.550 OA
ENDBRANCH   1  30
BRANCH  27  33
ATOM     33  O   UNL     1      -5.986 -12.778   9.391  1.00  0.00    -0.393 OA
ATOM     34  H   UNL     1      -6.340 -11.887   9.649  1.00  0.00     0.210 HD
ENDBRANCH  27  33
TORSDOF 2
ENDMDL
MODEL 5
REMARK VINA RESULT:    -6.249      8.095     10.610
REMARK INTER + INTRA:          -6.951
REMARK INTER:                  -6.720
REMARK INTRA:                  -0.232
REMARK UNBOUND:                -0.155
REMARK SMILES C[C@@H]1[C@H](C)CC[C@@]2(C(=O)[O-])CC[C@@]3(C)C(=CC[C@@H]4[C@]5(C)CC[C@@H](O)C(C)(C)[C@@H]5CC[C@@]43C)[C@@H]12
REMARK SMILES IDX 7 1 6 2 11 3 33 4 5 5 12 6 15 7 2 8 3 9 13 10 16 11 1 12
REMARK SMILES IDX 4 13 14 14 31 15 17 16 18 17 30 18 32 19 19 20 29 21 28 22
REMARK SMILES IDX 21 23 20 24 25 25 22 26 23 27 26 28 27 29 8 30 9 31 10 32
REMARK SMILES IDX 24 33
REMARK H PARENT 24 34
REMARK Flexibility Score: inf
ROOT
ATOM      1  C   UNL     1      -3.819 -15.906  -2.396  1.00  0.00     0.017 C 
ATOM      2  C   UNL     1      -4.546 -14.851  -3.278  1.00  0.00     0.014 C 
ATOM      3  C   UNL     1      -2.724 -16.615  -3.264  1.00  0.00     0.014 C 
ATOM      4  C   UNL     1      -3.177 -15.234  -1.106  1.00  0.00     0.030 C 
ATOM      5  C   UNL     1      -5.513 -13.986  -2.464  1.00  0.00     0.004 C 
ATOM      6  C   UNL     1      -1.410 -15.822  -3.370  1.00  0.00     0.013 C 
ATOM      7  C   UNL     1      -1.735 -15.766  -0.887  1.00  0.00    -0.063 C 
ATOM      8  C   UNL     1      -3.348 -13.685  -1.052  1.00  0.00    -0.003 C 
ATOM      9  C   UNL     1      -4.837 -13.249  -1.273  1.00  0.00    -0.011 C 
ATOM     10  C   UNL     1      -0.656 -15.595  -1.990  1.00  0.00    -0.006 C 
ATOM     11  C   UNL     1      -1.655 -16.767   0.011  1.00  0.00    -0.027 C 
ATOM     12  C   UNL     1      -2.768 -13.089   0.245  1.00  0.00     0.008 C 
ATOM     13  C   UNL     1      -5.723 -13.365  -0.015  1.00  0.00     0.008 C 
ATOM     14  C   UNL     1      -0.140 -14.115  -1.971  1.00  0.00     0.017 C 
ATOM     15  C   UNL     1       0.647 -16.563  -1.781  1.00  0.00    -0.020 C 
ATOM     16  C   UNL     1      -0.611 -17.826   0.028  1.00  0.00     0.032 C 
ATOM     17  C   UNL     1       0.218 -17.988  -1.280  1.00  0.00     0.006 C 
ATOM     18  C   UNL     1       1.627 -15.999  -0.688  1.00  0.00     0.008 C 
ATOM     19  C   UNL     1       1.426 -16.634  -3.143  1.00  0.00     0.012 C 
ATOM     20  C   UNL     1       1.433 -19.057  -1.120  1.00  0.00    -0.025 C 
ATOM     21  C   UNL     1       2.561 -17.021   0.023  1.00  0.00     0.005 C 
ATOM     22  C   UNL     1       2.817 -18.344  -0.752  1.00  0.00     0.003 C 
ATOM     23  C   UNL     1       1.068 -20.143  -0.038  1.00  0.00     0.010 C 
ATOM     24  C   UNL     1       1.570 -19.815  -2.481  1.00  0.00     0.012 C 
ATOM     25  C   UNL     1       3.958 -19.273  -0.111  1.00  0.00    -0.006 C 
ATOM     26  C   UNL     1       2.207 -21.072   0.368  1.00  0.00     0.033 C 
ATOM     27  C   UNL     1       3.369 -20.262   0.937  1.00  0.00     0.120 C 
ATOM     28  C   UNL     1       5.054 -18.430   0.601  1.00  0.00     0.014 C 
ATOM     29  C   UNL     1       4.712 -20.055  -1.230  1.00  0.00     0.014 C 
ENDROOT
BRANCH   1  30
ATOM     30  C   UNL     1      -4.853 -16.971  -2.007  1.00  0.00     0.048 C 
ATOM     31  O   UNL     1      -5.458 -16.899  -0.901  1.00  0.00    -0.550 OA
ATOM     32  O   UNL     1      -5.073 -18.089  -2.803  1.00  0.00    -0.550 OA
ENDBRANCH   1  30
BRANCH  27  33
ATOM     33  O   UNL     1       4.350 -21.158   1.398  1.00  0.00    -0.393 OA
ATOM     34  H   UNL     1       4.665 -20.828   2.280  1.00  0.00     0.210 HD
ENDBRANCH  27  33
TORSDOF 2
ENDMDL
MODEL 6
REMARK VINA RESULT:    -6.110      8.624     12.987
REMARK INTER + INTRA:          -6.801
REMARK INTER:                  -6.526
REMARK INTRA:                  -0.275
REMARK UNBOUND:                -0.155
REMARK SMILES C[C@@H]1[C@H](C)CC[C@@]2(C(=O)[O-])CC[C@@]3(C)C(=CC[C@@H]4[C@]5(C)CC[C@@H](O)C(C)(C)[C@@H]5CC[C@@]43C)[C@@H]12
REMARK SMILES IDX 7 1 6 2 11 3 33 4 5 5 12 6 15 7 2 8 3 9 13 10 16 11 1 12
REMARK SMILES IDX 4 13 14 14 31 15 17 16 18 17 30 18 32 19 19 20 29 21 28 22
REMARK SMILES IDX 21 23 20 24 25 25 22 26 23 27 26 28 27 29 8 30 9 31 10 32
REMARK SMILES IDX 24 33
REMARK H PARENT 24 34
REMARK Flexibility Score: inf
ROOT
ATOM      1  C   UNL     1       3.788 -17.510  -1.119  1.00  0.00     0.017 C 
ATOM      2  C   UNL     1       4.993 -18.245  -1.772  1.00  0.00     0.014 C 
ATOM      3  C   UNL     1       3.036 -16.698  -2.228  1.00  0.00     0.014 C 
ATOM      4  C   UNL     1       2.808 -18.534  -0.399  1.00  0.00     0.030 C 
ATOM      5  C   UNL     1       5.681 -19.204  -0.795  1.00  0.00     0.004 C 
ATOM      6  C   UNL     1       2.051 -17.545  -3.052  1.00  0.00     0.013 C 
ATOM      7  C   UNL     1       1.334 -18.195  -0.743  1.00  0.00    -0.063 C 
ATOM      8  C   UNL     1       3.223 -20.028  -0.571  1.00  0.00    -0.003 C 
ATOM      9  C   UNL     1       4.723 -20.270  -0.190  1.00  0.00    -0.011 C 
ATOM     10  C   UNL     1       0.852 -18.173  -2.219  1.00  0.00    -0.006 C 
ATOM     11  C   UNL     1       0.710 -17.462   0.200  1.00  0.00    -0.027 C 
ATOM     12  C   UNL     1       2.282 -20.976   0.197  1.00  0.00     0.008 C 
ATOM     13  C   UNL     1       4.978 -20.400   1.326  1.00  0.00     0.008 C 
ATOM     14  C   UNL     1       0.656 -19.647  -2.712  1.00  0.00     0.017 C 
ATOM     15  C   UNL     1      -0.574 -17.399  -2.426  1.00  0.00    -0.020 C 
ATOM     16  C   UNL     1      -0.424 -16.530  -0.044  1.00  0.00     0.032 C 
ATOM     17  C   UNL     1      -0.657 -16.115  -1.527  1.00  0.00     0.006 C 
ATOM     18  C   UNL     1      -1.795 -18.298  -2.009  1.00  0.00     0.008 C 
ATOM     19  C   UNL     1      -0.725 -17.052  -3.951  1.00  0.00     0.012 C 
ATOM     20  C   UNL     1      -2.004 -15.224  -1.719  1.00  0.00    -0.025 C 
ATOM     21  C   UNL     1      -3.108 -17.567  -1.603  1.00  0.00     0.005 C 
ATOM     22  C   UNL     1      -3.261 -16.118  -2.144  1.00  0.00     0.003 C 
ATOM     23  C   UNL     1      -2.322 -14.419  -0.403  1.00  0.00     0.010 C 
ATOM     24  C   UNL     1      -1.708 -14.163  -2.829  1.00  0.00     0.012 C 
ATOM     25  C   UNL     1      -4.714 -15.477  -1.909  1.00  0.00    -0.006 C 
ATOM     26  C   UNL     1      -3.676 -13.718  -0.373  1.00  0.00     0.033 C 
ATOM     27  C   UNL     1      -4.799 -14.738  -0.542  1.00  0.00     0.120 C 
ATOM     28  C   UNL     1      -5.830 -16.559  -1.929  1.00  0.00     0.014 C 
ATOM     29  C   UNL     1      -5.072 -14.505  -3.074  1.00  0.00     0.014 C 
ENDROOT
BRANCH   1  30
ATOM     30  C   UNL     1       4.357 -16.495  -0.118  1.00  0.00     0.048 C 
ATOM     31  O   UNL     1       4.366 -16.753   1.118  1.00  0.00    -0.550 OA
ATOM     32  O   UNL     1       4.776 -15.234  -0.528  1.00  0.00    -0.550 OA
ENDBRANCH   1  30
BRANCH  27  33
ATOM     33  O   UNL     1      -6.029 -14.071  -0.401  1.00  0.00    -0.393 OA
ATOM     34  H   UNL     1      -6.427 -14.358   0.463  1.00  0.00     0.210 HD
ENDBRANCH  27  33
TORSDOF 2
ENDMDL
MODEL 7
REMARK VINA RESULT:    -5.845     10.218     14.989
REMARK INTER + INTRA:          -6.512
REMARK INTER:                  -6.205
REMARK INTRA:                  -0.307
REMARK UNBOUND:                -0.155
REMARK SMILES C[C@@H]1[C@H](C)CC[C@@]2(C(=O)[O-])CC[C@@]3(C)C(=CC[C@@H]4[C@]5(C)CC[C@@H](O)C(C)(C)[C@@H]5CC[C@@]43C)[C@@H]12
REMARK SMILES IDX 7 1 6 2 11 3 33 4 5 5 12 6 15 7 2 8 3 9 13 10 16 11 1 12
REMARK SMILES IDX 4 13 14 14 31 15 17 16 18 17 30 18 32 19 19 20 29 21 28 22
REMARK SMILES IDX 21 23 20 24 25 25 22 26 23 27 26 28 27 29 8 30 9 31 10 32
REMARK SMILES IDX 24 33
REMARK H PARENT 24 34
REMARK Flexibility Score: inf
ROOT
ATOM      1  C   UNL     1      -9.224 -15.612   1.981  1.00  0.00     0.017 C 
ATOM      2  C   UNL     1     -10.685 -15.429   2.483  1.00  0.00     0.014 C 
ATOM      3  C   UNL     1      -9.155 -16.908   1.104  1.00  0.00     0.014 C 
ATOM      4  C   UNL     1      -8.733 -14.342   1.162  1.00  0.00     0.030 C 
ATOM      5  C   UNL     1     -10.884 -14.092   3.203  1.00  0.00     0.004 C 
ATOM      6  C   UNL     1      -9.610 -16.695  -0.350  1.00  0.00     0.013 C 
ATOM      7  C   UNL     1      -7.999 -14.790  -0.130  1.00  0.00    -0.063 C 
ATOM      8  C   UNL     1      -9.829 -13.248   0.980  1.00  0.00    -0.003 C 
ATOM      9  C   UNL     1     -10.502 -12.857   2.339  1.00  0.00    -0.011 C 
ATOM     10  C   UNL     1      -8.723 -15.672  -1.183  1.00  0.00    -0.006 C 
ATOM     11  C   UNL     1      -6.657 -14.811  -0.014  1.00  0.00    -0.027 C 
ATOM     12  C   UNL     1      -9.287 -12.011   0.237  1.00  0.00     0.008 C 
ATOM     13  C   UNL     1      -9.685 -11.859   3.186  1.00  0.00     0.008 C 
ATOM     14  C   UNL     1      -9.697 -14.772  -2.017  1.00  0.00     0.017 C 
ATOM     15  C   UNL     1      -7.703 -16.391  -2.241  1.00  0.00    -0.020 C 
ATOM     16  C   UNL     1      -5.739 -15.685  -0.794  1.00  0.00     0.032 C 
ATOM     17  C   UNL     1      -6.401 -16.892  -1.521  1.00  0.00     0.006 C 
ATOM     18  C   UNL     1      -7.221 -15.396  -3.359  1.00  0.00     0.008 C 
ATOM     19  C   UNL     1      -8.473 -17.570  -2.938  1.00  0.00     0.012 C 
ATOM     20  C   UNL     1      -5.354 -17.697  -2.469  1.00  0.00    -0.025 C 
ATOM     21  C   UNL     1      -5.871 -15.719  -4.063  1.00  0.00     0.005 C 
ATOM     22  C   UNL     1      -5.418 -17.204  -3.990  1.00  0.00     0.003 C 
ATOM     23  C   UNL     1      -3.888 -17.562  -1.907  1.00  0.00     0.010 C 
ATOM     24  C   UNL     1      -5.722 -19.216  -2.387  1.00  0.00     0.012 C 
ATOM     25  C   UNL     1      -4.153 -17.554  -4.914  1.00  0.00    -0.006 C 
ATOM     26  C   UNL     1      -2.785 -18.082  -2.822  1.00  0.00     0.033 C 
ATOM     27  C   UNL     1      -2.812 -17.339  -4.154  1.00  0.00     0.120 C 
ATOM     28  C   UNL     1      -4.115 -16.672  -6.195  1.00  0.00     0.014 C 
ATOM     29  C   UNL     1      -4.252 -19.020  -5.436  1.00  0.00     0.014 C 
ENDROOT
BRANCH   1  30
ATOM     30  C   UNL     1      -8.342 -15.850   3.214  1.00  0.00     0.048 C 
ATOM     31  O   UNL     1      -8.647 -16.741   4.055  1.00  0.00    -0.550 OA
ATOM     32  O   UNL     1      -7.254 -15.030   3.492  1.00  0.00    -0.550 OA
ENDBRANCH   1  30
BRANCH  27  33
ATOM     33  O   UNL     1      -1.717 -17.769  -4.925  1.00  0.00    -0.393 OA
ATOM     34  H   UNL     1      -1.917 -18.689  -5.241  1.00  0.00     0.210 HD
ENDBRANCH  27  33
TORSDOF 2
ENDMDL
MODEL 8
REMARK VINA RESULT:    -5.826      8.159     12.356
REMARK INTER + INTRA:          -6.492
REMARK INTER:                  -6.539
REMARK INTRA:                   0.047
REMARK UNBOUND:                -0.155
REMARK SMILES C[C@@H]1[C@H](C)CC[C@@]2(C(=O)[O-])CC[C@@]3(C)C(=CC[C@@H]4[C@]5(C)CC[C@@H](O)C(C)(C)[C@@H]5CC[C@@]43C)[C@@H]12
REMARK SMILES IDX 7 1 6 2 11 3 33 4 5 5 12 6 15 7 2 8 3 9 13 10 16 11 1 12
REMARK SMILES IDX 4 13 14 14 31 15 17 16 18 17 30 18 32 19 19 20 29 21 28 22
REMARK SMILES IDX 21 23 20 24 25 25 22 26 23 27 26 28 27 29 8 30 9 31 10 32
REMARK SMILES IDX 24 33
REMARK H PARENT 24 34
REMARK Flexibility Score: inf
ROOT
ATOM      1  C   UNL     1       3.355 -18.777  -0.218  1.00  0.00     0.017 C 
ATOM      2  C   UNL     1       4.770 -18.407   0.313  1.00  0.00     0.014 C 
ATOM      3  C   UNL     1       2.301 -17.851   0.477  1.00  0.00     0.014 C 
ATOM      4  C   UNL     1       3.279 -18.640  -1.800  1.00  0.00     0.030 C 
ATOM      5  C   UNL     1       5.881 -19.143  -0.444  1.00  0.00     0.004 C 
ATOM      6  C   UNL     1       2.167 -16.466  -0.179  1.00  0.00     0.013 C 
ATOM      7  C   UNL     1       1.970 -17.916  -2.212  1.00  0.00    -0.063 C 
ATOM      8  C   UNL     1       4.591 -18.100  -2.449  1.00  0.00    -0.003 C 
ATOM      9  C   UNL     1       5.853 -18.901  -1.980  1.00  0.00    -0.011 C 
ATOM     10  C   UNL     1       1.659 -16.489  -1.685  1.00  0.00    -0.006 C 
ATOM     11  C   UNL     1       0.978 -18.751  -2.577  1.00  0.00    -0.027 C 
ATOM     12  C   UNL     1       4.490 -18.046  -3.986  1.00  0.00     0.008 C 
ATOM     13  C   UNL     1       6.066 -20.237  -2.722  1.00  0.00     0.008 C 
ATOM     14  C   UNL     1       2.515 -15.452  -2.489  1.00  0.00     0.017 C 
ATOM     15  C   UNL     1       0.089 -16.059  -1.860  1.00  0.00    -0.020 C 
ATOM     16  C   UNL     1      -0.477 -18.458  -2.469  1.00  0.00     0.032 C 
ATOM     17  C   UNL     1      -0.866 -17.265  -1.548  1.00  0.00     0.006 C 
ATOM     18  C   UNL     1      -0.237 -15.620  -3.334  1.00  0.00     0.008 C 
ATOM     19  C   UNL     1      -0.190 -14.835  -0.916  1.00  0.00     0.012 C 
ATOM     20  C   UNL     1      -2.454 -16.921  -1.612  1.00  0.00    -0.025 C 
ATOM     21  C   UNL     1      -1.718 -15.738  -3.798  1.00  0.00     0.005 C 
ATOM     22  C   UNL     1      -2.776 -15.755  -2.659  1.00  0.00     0.003 C 
ATOM     23  C   UNL     1      -3.282 -18.216  -1.957  1.00  0.00     0.010 C 
ATOM     24  C   UNL     1      -2.895 -16.482  -0.176  1.00  0.00     0.012 C 
ATOM     25  C   UNL     1      -4.294 -15.642  -3.167  1.00  0.00    -0.006 C 
ATOM     26  C   UNL     1      -4.758 -17.987  -2.265  1.00  0.00     0.033 C 
ATOM     27  C   UNL     1      -4.907 -17.044  -3.455  1.00  0.00     0.120 C 
ATOM     28  C   UNL     1      -4.402 -14.804  -4.472  1.00  0.00     0.014 C 
ATOM     29  C   UNL     1      -5.160 -14.876  -2.121  1.00  0.00     0.014 C 
ENDROOT
BRANCH   1  30
ATOM     30  C   UNL     1       3.060 -20.216   0.226  1.00  0.00     0.048 C 
ATOM     31  O   UNL     1       2.028 -20.813  -0.189  1.00  0.00    -0.550 OA
ATOM     32  O   UNL     1       3.855 -20.858   1.169  1.00  0.00    -0.550 OA
ENDBRANCH   1  30
BRANCH  27  33
ATOM     33  O   UNL     1      -6.273 -16.944  -3.775  1.00  0.00    -0.393 OA
ATOM     34  H   UNL     1      -6.345 -16.423  -4.617  1.00  0.00     0.210 HD
ENDBRANCH  27  33
TORSDOF 2
ENDMDL
MODEL 9
REMARK VINA RESULT:    -5.798     13.683     18.446
REMARK INTER + INTRA:          -6.462
REMARK INTER:                  -6.140
REMARK INTRA:                  -0.322
REMARK UNBOUND:                -0.155
REMARK SMILES C[C@@H]1[C@H](C)CC[C@@]2(C(=O)[O-])CC[C@@]3(C)C(=CC[C@@H]4[C@]5(C)CC[C@@H](O)C(C)(C)[C@@H]5CC[C@@]43C)[C@@H]12
REMARK SMILES IDX 7 1 6 2 11 3 33 4 5 5 12 6 15 7 2 8 3 9 13 10 16 11 1 12
REMARK SMILES IDX 4 13 14 14 31 15 17 16 18 17 30 18 32 19 19 20 29 21 28 22
REMARK SMILES IDX 21 23 20 24 25 25 22 26 23 27 26 28 27 29 8 30 9 31 10 32
REMARK SMILES IDX 24 33
REMARK H PARENT 24 34
REMARK Flexibility Score: inf
ROOT
ATOM      1  C   UNL     1      -8.476 -14.263   5.606  1.00  0.00     0.017 C 
ATOM      2  C   UNL     1      -9.212 -14.935   6.800  1.00  0.00     0.014 C 
ATOM      3  C   UNL     1      -7.785 -15.379   4.751  1.00  0.00     0.014 C 
ATOM      4  C   UNL     1      -9.479 -13.406   4.720  1.00  0.00     0.030 C 
ATOM      5  C   UNL     1     -10.063 -13.936   7.590  1.00  0.00     0.004 C 
ATOM      6  C   UNL     1      -8.733 -16.071   3.756  1.00  0.00     0.013 C 
ATOM      7  C   UNL     1      -9.227 -13.677   3.213  1.00  0.00    -0.063 C 
ATOM      8  C   UNL     1     -10.963 -13.489   5.190  1.00  0.00    -0.003 C 
ATOM      9  C   UNL     1     -11.115 -13.190   6.720  1.00  0.00    -0.011 C 
ATOM     10  C   UNL     1      -9.340 -15.116   2.641  1.00  0.00    -0.006 C 
ATOM     11  C   UNL     1      -8.447 -12.754   2.617  1.00  0.00    -0.027 C 
ATOM     12  C   UNL     1     -11.886 -12.592   4.341  1.00  0.00     0.008 C 
ATOM     13  C   UNL     1     -11.115 -11.688   7.074  1.00  0.00     0.008 C 
ATOM     14  C   UNL     1     -10.856 -15.481   2.480  1.00  0.00     0.017 C 
ATOM     15  C   UNL     1      -8.643 -15.288   1.171  1.00  0.00    -0.020 C 
ATOM     16  C   UNL     1      -7.584 -12.994   1.429  1.00  0.00     0.032 C 
ATOM     17  C   UNL     1      -7.296 -14.485   1.086  1.00  0.00     0.006 C 
ATOM     18  C   UNL     1      -9.554 -14.724   0.020  1.00  0.00     0.008 C 
ATOM     19  C   UNL     1      -8.424 -16.821   0.911  1.00  0.00     0.012 C 
ATOM     20  C   UNL     1      -6.478 -14.656  -0.309  1.00  0.00    -0.025 C 
ATOM     21  C   UNL     1      -8.847 -14.290  -1.297  1.00  0.00     0.005 C 
ATOM     22  C   UNL     1      -7.452 -14.929  -1.548  1.00  0.00     0.003 C 
ATOM     23  C   UNL     1      -5.584 -13.387  -0.580  1.00  0.00     0.010 C 
ATOM     24  C   UNL     1      -5.496 -15.861  -0.130  1.00  0.00     0.012 C 
ATOM     25  C   UNL     1      -6.853 -14.649  -3.011  1.00  0.00    -0.006 C 
ATOM     26  C   UNL     1      -4.939 -13.323  -1.960  1.00  0.00     0.033 C 
ATOM     27  C   UNL     1      -6.012 -13.339  -3.044  1.00  0.00     0.120 C 
ATOM     28  C   UNL     1      -7.977 -14.514  -4.077  1.00  0.00     0.014 C 
ATOM     29  C   UNL     1      -5.990 -15.859  -3.484  1.00  0.00     0.014 C 
ENDROOT
BRANCH   1  30
ATOM     30  C   UNL     1      -7.363 -13.382   6.190  1.00  0.00     0.048 C 
ATOM     31  O   UNL     1      -6.479 -13.884   6.938  1.00  0.00    -0.550 OA
ATOM     32  O   UNL     1      -7.358 -12.005   6.001  1.00  0.00    -0.550 OA
ENDBRANCH   1  30
BRANCH  27  33
ATOM     33  O   UNL     1      -5.386 -13.170  -4.291  1.00  0.00    -0.393 OA
ATOM     34  H   UNL     1      -6.088 -12.913  -4.946  1.00  0.00     0.210 HD
ENDBRANCH  27  33
TORSDOF 2
ENDMDL
