MODEL 1
REMARK VINA RESULT:    -5.284      0.000      0.000
REMARK INTER + INTRA:         -14.229
REMARK INTER:                 -11.461
REMARK INTRA:                  -2.768
REMARK UNBOUND:                -2.768
REMARK SMILES CCCCCCCCCCCCCCCCCCCCCC(=O)[O-]
REMARK SMILES IDX 12 1 11 2 10 3 9 4 8 5 7 6 6 7 5 8 4 9 3 10 2 11 1 12 13 13
REMARK SMILES IDX 14 14 15 15 16 16 17 17 18 18 19 19 20 20 21 21 22 22 23 23
REMARK SMILES IDX 24 24
REMARK H PARENT
REMARK Flexibility Score: inf
ROOT
ATOM      1  C   UNL     1      61.288  28.676  13.374  1.00  0.00     0.000 C 
ENDROOT
BRANCH   1   2
ATOM      2  C   UNL     1      60.097  28.932  12.433  1.00  0.00     0.000 C 
BRANCH   2   3
ATOM      3  C   UNL     1      60.464  29.849  11.254  1.00  0.00     0.000 C 
BRANCH   3   4
ATOM      4  C   UNL     1      60.188  29.189   9.891  1.00  0.00    -0.000 C 
BRANCH   4   5
ATOM      5  C   UNL     1      61.457  28.602   9.251  1.00  0.00    -0.000 C 
BRANCH   5   6
ATOM      6  C   UNL     1      62.514  29.672   8.939  1.00  0.00    -0.000 C 
BRANCH   6   7
ATOM      7  C   UNL     1      63.895  29.249   9.456  1.00  0.00    -0.000 C 
BRANCH   7   8
ATOM      8  C   UNL     1      64.932  30.361   9.230  1.00  0.00    -0.000 C 
BRANCH   8   9
ATOM      9  C   UNL     1      65.310  31.092  10.528  1.00  0.00    -0.000 C 
BRANCH   9  10
ATOM     10  C   UNL     1      65.321  32.621  10.362  1.00  0.00    -0.000 C 
BRANCH  10  11
ATOM     11  C   UNL     1      65.729  33.350  11.651  1.00  0.00    -0.003 C 
ATOM     12  C   UNL     1      66.718  34.485  11.399  1.00  0.00     0.004 C 
ENDBRANCH  10  11
ENDBRANCH   9  10
ENDBRANCH   8   9
ENDBRANCH   7   8
ENDBRANCH   6   7
ENDBRANCH   5   6
ENDBRANCH   4   5
ENDBRANCH   3   4
ENDBRANCH   2   3
ENDBRANCH   1   2
BRANCH   1  13
ATOM     13  C   UNL     1      62.648  28.969  12.714  1.00  0.00     0.000 C 
BRANCH  13  14
ATOM     14  C   UNL     1      63.562  29.936  13.493  1.00  0.00     0.000 C 
BRANCH  14  15
ATOM     15  C   UNL     1      62.805  31.145  14.065  1.00  0.00     0.000 C 
BRANCH  15  16
ATOM     16  C   UNL     1      62.566  32.248  13.020  1.00  0.00     0.000 C 
BRANCH  16  17
ATOM     17  C   UNL     1      61.206  32.961  13.176  1.00  0.00     0.000 C 
BRANCH  17  18
ATOM     18  C   UNL     1      60.612  32.774  14.581  1.00  0.00     0.000 C 
BRANCH  18  19
ATOM     19  C   UNL     1      60.978  33.951  15.497  1.00  0.00     0.000 C 
BRANCH  19  20
ATOM     20  C   UNL     1      61.857  33.525  16.684  1.00  0.00     0.006 C 
BRANCH  20  21
ATOM     21  C   UNL     1      62.084  34.664  17.691  1.00  0.00     0.053 C 
BRANCH  21  22
ATOM     22  C   UNL     1      62.087  34.152  19.100  1.00  0.00     0.041 C 
ATOM     23  O   UNL     1      61.000  33.868  19.669  1.00  0.00    -0.550 OA
ATOM     24  O   UNL     1      63.282  34.052  19.809  1.00  0.00    -0.550 OA
ENDBRANCH  21  22
ENDBRANCH  20  21
ENDBRANCH  19  20
ENDBRANCH  18  19
ENDBRANCH  17  18
ENDBRANCH  16  17
ENDBRANCH  15  16
ENDBRANCH  14  15
ENDBRANCH  13  14
ENDBRANCH   1  13
TORSDOF 20
ENDMDL
MODEL 2
REMARK VINA RESULT:    -5.176      1.318      3.965
REMARK INTER + INTRA:         -13.996
REMARK INTER:                 -10.520
REMARK INTRA:                  -3.477
REMARK UNBOUND:                -2.768
REMARK SMILES CCCCCCCCCCCCCCCCCCCCCC(=O)[O-]
REMARK SMILES IDX 12 1 11 2 10 3 9 4 8 5 7 6 6 7 5 8 4 9 3 10 2 11 1 12 13 13
REMARK SMILES IDX 14 14 15 15 16 16 17 17 18 18 19 19 20 20 21 21 22 22 23 23
REMARK SMILES IDX 24 24
REMARK H PARENT
REMARK Flexibility Score: inf
ROOT
ATOM      1  C   UNL     1      64.008  29.380   9.222  1.00  0.00     0.000 C 
ENDROOT
BRANCH   1   2
ATOM      2  C   UNL     1      62.561  28.930   8.950  1.00  0.00     0.000 C 
BRANCH   2   3
ATOM      3  C   UNL     1      61.564  30.100   8.987  1.00  0.00     0.000 C 
BRANCH   3   4
ATOM      4  C   UNL     1      60.424  29.866   9.995  1.00  0.00    -0.000 C 
BRANCH   4   5
ATOM      5  C   UNL     1      60.688  28.665  10.918  1.00  0.00    -0.000 C 
BRANCH   5   6
ATOM      6  C   UNL     1      60.244  28.921  12.366  1.00  0.00    -0.000 C 
BRANCH   6   7
ATOM      7  C   UNL     1      61.400  28.688  13.346  1.00  0.00    -0.000 C 
BRANCH   7   8
ATOM      8  C   UNL     1      62.610  29.568  12.990  1.00  0.00    -0.000 C 
BRANCH   8   9
ATOM      9  C   UNL     1      62.565  30.943  13.674  1.00  0.00    -0.000 C 
BRANCH   9  10
ATOM     10  C   UNL     1      62.168  32.071  12.707  1.00  0.00    -0.000 C 
BRANCH  10  11
ATOM     11  C   UNL     1      60.730  32.560  12.931  1.00  0.00    -0.003 C 
ATOM     12  C   UNL     1      60.199  32.217  14.321  1.00  0.00     0.004 C 
ENDBRANCH  10  11
ENDBRANCH   9  10
ENDBRANCH   8   9
ENDBRANCH   7   8
ENDBRANCH   6   7
ENDBRANCH   5   6
ENDBRANCH   4   5
ENDBRANCH   3   4
ENDBRANCH   2   3
ENDBRANCH   1   2
BRANCH   1  13
ATOM     13  C   UNL     1      64.131  30.897   9.458  1.00  0.00     0.000 C 
BRANCH  13  14
ATOM     14  C   UNL     1      65.450  31.358  10.108  1.00  0.00     0.000 C 
BRANCH  14  15
ATOM     15  C   UNL     1      65.231  32.211  11.367  1.00  0.00     0.000 C 
BRANCH  15  16
ATOM     16  C   UNL     1      66.049  33.514  11.353  1.00  0.00     0.000 C 
BRANCH  16  17
ATOM     17  C   UNL     1      66.141  34.200  12.733  1.00  0.00     0.000 C 
BRANCH  17  18
ATOM     18  C   UNL     1      65.508  33.349  13.846  1.00  0.00     0.000 C 
BRANCH  18  19
ATOM     19  C   UNL     1      64.678  34.219  14.801  1.00  0.00     0.000 C 
BRANCH  19  20
ATOM     20  C   UNL     1      64.055  33.407  15.948  1.00  0.00     0.006 C 
BRANCH  20  21
ATOM     21  C   UNL     1      62.716  33.990  16.427  1.00  0.00     0.053 C 
BRANCH  21  22
ATOM     22  C   UNL     1      62.856  34.646  17.767  1.00  0.00     0.041 C 
ATOM     23  O   UNL     1      61.907  34.599  18.594  1.00  0.00    -0.550 OA
ATOM     24  O   UNL     1      64.006  35.369  18.079  1.00  0.00    -0.550 OA
ENDBRANCH  21  22
ENDBRANCH  20  21
ENDBRANCH  19  20
ENDBRANCH  18  19
ENDBRANCH  17  18
ENDBRANCH  16  17
ENDBRANCH  15  16
ENDBRANCH  14  15
ENDBRANCH  13  14
ENDBRANCH   1  13
TORSDOF 20
ENDMDL
MODEL 3
REMARK VINA RESULT:    -5.106      1.200      3.872
REMARK INTER + INTRA:         -13.844
REMARK INTER:                 -10.356
REMARK INTRA:                  -3.489
REMARK UNBOUND:                -2.768
REMARK SMILES CCCCCCCCCCCCCCCCCCCCCC(=O)[O-]
REMARK SMILES IDX 12 1 11 2 10 3 9 4 8 5 7 6 6 7 5 8 4 9 3 10 2 11 1 12 13 13
REMARK SMILES IDX 14 14 15 15 16 16 17 17 18 18 19 19 20 20 21 21 22 22 23 23
REMARK SMILES IDX 24 24
REMARK H PARENT
REMARK Flexibility Score: inf
ROOT
ATOM      1  C   UNL     1      63.389  30.123  14.084  1.00  0.00     0.000 C 
ENDROOT
BRANCH   1   2
ATOM      2  C   UNL     1      64.297  30.898  13.113  1.00  0.00     0.000 C 
BRANCH   2   3
ATOM      3  C   UNL     1      64.639  32.308  13.623  1.00  0.00     0.000 C 
BRANCH   3   4
ATOM      4  C   UNL     1      65.211  33.210  12.515  1.00  0.00    -0.000 C 
BRANCH   4   5
ATOM      5  C   UNL     1      64.914  32.674  11.104  1.00  0.00    -0.000 C 
BRANCH   5   6
ATOM      6  C   UNL     1      66.186  32.464  10.269  1.00  0.00    -0.000 C 
BRANCH   6   7
ATOM      7  C   UNL     1      66.070  31.210   9.394  1.00  0.00    -0.000 C 
BRANCH   7   8
ATOM      8  C   UNL     1      64.634  31.031   8.876  1.00  0.00    -0.000 C 
BRANCH   8   9
ATOM      9  C   UNL     1      64.147  29.576   8.966  1.00  0.00    -0.000 C 
BRANCH   9  10
ATOM     10  C   UNL     1      62.897  29.426   9.849  1.00  0.00    -0.000 C 
BRANCH  10  11
ATOM     11  C   UNL     1      61.809  28.566   9.189  1.00  0.00    -0.003 C 
ATOM     12  C   UNL     1      60.536  29.354   8.889  1.00  0.00     0.004 C 
ENDBRANCH  10  11
ENDBRANCH   9  10
ENDBRANCH   8   9
ENDBRANCH   7   8
ENDBRANCH   6   7
ENDBRANCH   5   6
ENDBRANCH   4   5
ENDBRANCH   3   4
ENDBRANCH   2   3
ENDBRANCH   1   2
BRANCH   1  13
ATOM     13  C   UNL     1      62.604  28.990  13.397  1.00  0.00     0.000 C 
BRANCH  13  14
ATOM     14  C   UNL     1      61.071  29.079  13.525  1.00  0.00     0.000 C 
BRANCH  14  15
ATOM     15  C   UNL     1      60.437  30.014  12.483  1.00  0.00     0.000 C 
BRANCH  15  16
ATOM     16  C   UNL     1      59.975  31.352  13.085  1.00  0.00     0.000 C 
BRANCH  16  17
ATOM     17  C   UNL     1      60.958  32.515  12.832  1.00  0.00     0.000 C 
BRANCH  17  18
ATOM     18  C   UNL     1      61.132  33.406  14.073  1.00  0.00     0.000 C 
BRANCH  18  19
ATOM     19  C   UNL     1      60.792  32.636  15.357  1.00  0.00     0.000 C 
BRANCH  19  20
ATOM     20  C   UNL     1      61.937  32.664  16.383  1.00  0.00     0.006 C 
BRANCH  20  21
ATOM     21  C   UNL     1      62.769  33.954  16.305  1.00  0.00     0.053 C 
BRANCH  21  22
ATOM     22  C   UNL     1      62.855  34.626  17.642  1.00  0.00     0.041 C 
ATOM     23  O   UNL     1      63.974  34.986  18.096  1.00  0.00    -0.550 OA
ATOM     24  O   UNL     1      61.712  34.794  18.420  1.00  0.00    -0.550 OA
ENDBRANCH  21  22
ENDBRANCH  20  21
ENDBRANCH  19  20
ENDBRANCH  18  19
ENDBRANCH  17  18
ENDBRANCH  16  17
ENDBRANCH  15  16
ENDBRANCH  14  15
ENDBRANCH  13  14
ENDBRANCH   1  13
TORSDOF 20
ENDMDL
MODEL 4
REMARK VINA RESULT:    -4.876      2.082      5.692
REMARK INTER + INTRA:         -13.344
REMARK INTER:                 -10.785
REMARK INTRA:                  -2.559
REMARK UNBOUND:                -2.768
REMARK SMILES CCCCCCCCCCCCCCCCCCCCCC(=O)[O-]
REMARK SMILES IDX 12 1 11 2 10 3 9 4 8 5 7 6 6 7 5 8 4 9 3 10 2 11 1 12 13 13
REMARK SMILES IDX 14 14 15 15 16 16 17 17 18 18 19 19 20 20 21 21 22 22 23 23
REMARK SMILES IDX 24 24
REMARK H PARENT
REMARK Flexibility Score: inf
ROOT
ATOM      1  C   UNL     1      63.576  29.285   9.595  1.00  0.00     0.000 C 
ENDROOT
BRANCH   1   2
ATOM      2  C   UNL     1      64.048  30.721   9.301  1.00  0.00     0.000 C 
BRANCH   2   3
ATOM      3  C   UNL     1      64.271  31.542  10.582  1.00  0.00     0.000 C 
BRANCH   3   4
ATOM      4  C   UNL     1      65.609  32.303  10.564  1.00  0.00    -0.000 C 
BRANCH   4   5
ATOM      5  C   UNL     1      65.689  33.385  11.654  1.00  0.00    -0.000 C 
BRANCH   5   6
ATOM      6  C   UNL     1      64.722  33.128  12.819  1.00  0.00    -0.000 C 
BRANCH   6   7
ATOM      7  C   UNL     1      65.260  33.726  14.124  1.00  0.00    -0.000 C 
BRANCH   7   8
ATOM      8  C   UNL     1      64.432  33.252  15.329  1.00  0.00    -0.000 C 
BRANCH   8   9
ATOM      9  C   UNL     1      63.799  34.414  16.109  1.00  0.00    -0.000 C 
BRANCH   9  10
ATOM     10  C   UNL     1      63.402  34.018  17.541  1.00  0.00    -0.000 C 
BRANCH  10  11
ATOM     11  C   UNL     1      61.954  34.403  17.878  1.00  0.00    -0.003 C 
ATOM     12  C   UNL     1      61.558  34.020  19.303  1.00  0.00     0.004 C 
ENDBRANCH  10  11
ENDBRANCH   9  10
ENDBRANCH   8   9
ENDBRANCH   7   8
ENDBRANCH   6   7
ENDBRANCH   5   6
ENDBRANCH   4   5
ENDBRANCH   3   4
ENDBRANCH   2   3
ENDBRANCH   1   2
BRANCH   1  13
ATOM     13  C   UNL     1      62.153  29.004   9.077  1.00  0.00     0.000 C 
BRANCH  13  14
ATOM     14  C   UNL     1      61.032  29.807   9.765  1.00  0.00     0.000 C 
BRANCH  14  15
ATOM     15  C   UNL     1      60.121  28.934  10.641  1.00  0.00     0.000 C 
BRANCH  15  16
ATOM     16  C   UNL     1      60.121  29.367  12.117  1.00  0.00     0.000 C 
BRANCH  16  17
ATOM     17  C   UNL     1      61.027  28.498  13.015  1.00  0.00     0.000 C 
BRANCH  17  18
ATOM     18  C   UNL     1      62.411  29.133  13.227  1.00  0.00     0.000 C 
BRANCH  18  19
ATOM     19  C   UNL     1      62.288  30.537  13.837  1.00  0.00     0.000 C 
BRANCH  19  20
ATOM     20  C   UNL     1      62.073  30.502  15.359  1.00  0.00     0.006 C 
BRANCH  20  21
ATOM     21  C   UNL     1      61.119  31.605  15.847  1.00  0.00     0.053 C 
BRANCH  21  22
ATOM     22  C   UNL     1      60.519  32.353  14.695  1.00  0.00     0.041 C 
ATOM     23  O   UNL     1      61.101  33.370  14.233  1.00  0.00    -0.550 OA
ATOM     24  O   UNL     1      59.284  31.971  14.175  1.00  0.00    -0.550 OA
ENDBRANCH  21  22
ENDBRANCH  20  21
ENDBRANCH  19  20
ENDBRANCH  18  19
ENDBRANCH  17  18
ENDBRANCH  16  17
ENDBRANCH  15  16
ENDBRANCH  14  15
ENDBRANCH  13  14
ENDBRANCH   1  13
TORSDOF 20
ENDMDL
MODEL 5
REMARK VINA RESULT:    -4.752      2.364      4.873
REMARK INTER + INTRA:         -13.077
REMARK INTER:                 -10.421
REMARK INTRA:                  -2.655
REMARK UNBOUND:                -2.768
REMARK SMILES CCCCCCCCCCCCCCCCCCCCCC(=O)[O-]
REMARK SMILES IDX 12 1 11 2 10 3 9 4 8 5 7 6 6 7 5 8 4 9 3 10 2 11 1 12 13 13
REMARK SMILES IDX 14 14 15 15 16 16 17 17 18 18 19 19 20 20 21 21 22 22 23 23
REMARK SMILES IDX 24 24
REMARK H PARENT
REMARK Flexibility Score: inf
ROOT
ATOM      1  C   UNL     1      64.294  32.723  12.240  1.00  0.00     0.000 C 
ENDROOT
BRANCH   1   2
ATOM      2  C   UNL     1      64.930  32.429  10.869  1.00  0.00     0.000 C 
BRANCH   2   3
ATOM      3  C   UNL     1      65.268  30.941  10.682  1.00  0.00     0.000 C 
BRANCH   3   4
ATOM      4  C   UNL     1      64.998  30.455   9.247  1.00  0.00    -0.000 C 
BRANCH   4   5
ATOM      5  C   UNL     1      63.973  29.310   9.193  1.00  0.00    -0.000 C 
BRANCH   5   6
ATOM      6  C   UNL     1      62.528  29.796   9.380  1.00  0.00    -0.000 C 
BRANCH   6   7
ATOM      7  C   UNL     1      61.567  28.614   9.559  1.00  0.00    -0.000 C 
BRANCH   7   8
ATOM      8  C   UNL     1      60.226  29.080  10.148  1.00  0.00    -0.000 C 
BRANCH   8   9
ATOM      9  C   UNL     1      60.385  29.783  11.505  1.00  0.00    -0.000 C 
BRANCH   9  10
ATOM     10  C   UNL     1      60.283  28.808  12.690  1.00  0.00    -0.000 C 
BRANCH  10  11
ATOM     11  C   UNL     1      61.435  28.975  13.691  1.00  0.00    -0.003 C 
ATOM     12  C   UNL     1      62.698  29.545  13.049  1.00  0.00     0.004 C 
ENDBRANCH  10  11
ENDBRANCH   9  10
ENDBRANCH   8   9
ENDBRANCH   7   8
ENDBRANCH   6   7
ENDBRANCH   5   6
ENDBRANCH   4   5
ENDBRANCH   3   4
ENDBRANCH   2   3
ENDBRANCH   1   2
BRANCH   1  13
ATOM     13  C   UNL     1      65.280  33.365  13.234  1.00  0.00     0.000 C 
BRANCH  13  14
ATOM     14  C   UNL     1      65.182  32.849  14.683  1.00  0.00     0.000 C 
BRANCH  14  15
ATOM     15  C   UNL     1      65.857  33.785  15.698  1.00  0.00     0.000 C 
BRANCH  15  16
ATOM     16  C   UNL     1      64.991  35.007  16.050  1.00  0.00     0.000 C 
BRANCH  16  17
ATOM     17  C   UNL     1      64.306  34.901  17.429  1.00  0.00     0.000 C 
BRANCH  17  18
ATOM     18  C   UNL     1      63.201  33.833  17.447  1.00  0.00     0.000 C 
BRANCH  18  19
ATOM     19  C   UNL     1      61.810  34.474  17.333  1.00  0.00     0.000 C 
BRANCH  19  20
ATOM     20  C   UNL     1      61.201  34.318  15.930  1.00  0.00     0.006 C 
BRANCH  20  21
ATOM     21  C   UNL     1      61.542  32.964  15.286  1.00  0.00     0.053 C 
BRANCH  21  22
ATOM     22  C   UNL     1      60.605  32.648  14.159  1.00  0.00     0.041 C 
ATOM     23  O   UNL     1      59.539  32.016  14.384  1.00  0.00    -0.550 OA
ATOM     24  O   UNL     1      60.940  32.989  12.850  1.00  0.00    -0.550 OA
ENDBRANCH  21  22
ENDBRANCH  20  21
ENDBRANCH  19  20
ENDBRANCH  18  19
ENDBRANCH  17  18
ENDBRANCH  16  17
ENDBRANCH  15  16
ENDBRANCH  14  15
ENDBRANCH  13  14
ENDBRANCH   1  13
TORSDOF 20
ENDMDL
MODEL 6
REMARK VINA RESULT:    -4.749      2.968      6.566
REMARK INTER + INTRA:         -13.070
REMARK INTER:                  -9.986
REMARK INTRA:                  -3.085
REMARK UNBOUND:                -2.768
REMARK SMILES CCCCCCCCCCCCCCCCCCCCCC(=O)[O-]
REMARK SMILES IDX 12 1 11 2 10 3 9 4 8 5 7 6 6 7 5 8 4 9 3 10 2 11 1 12 13 13
REMARK SMILES IDX 14 14 15 15 16 16 17 17 18 18 19 19 20 20 21 21 22 22 23 23
REMARK SMILES IDX 24 24
REMARK H PARENT
REMARK Flexibility Score: inf
ROOT
ATOM      1  C   UNL     1      60.717  31.790  13.718  1.00  0.00     0.000 C 
ENDROOT
BRANCH   1   2
ATOM      2  C   UNL     1      60.323  32.431  15.061  1.00  0.00     0.000 C 
BRANCH   2   3
ATOM      3  C   UNL     1      61.196  33.648  15.412  1.00  0.00     0.000 C 
BRANCH   3   4
ATOM      4  C   UNL     1      62.322  33.295  16.400  1.00  0.00    -0.000 C 
BRANCH   4   5
ATOM      5  C   UNL     1      62.564  34.401  17.441  1.00  0.00    -0.000 C 
BRANCH   5   6
ATOM      6  C   UNL     1      64.056  34.664  17.693  1.00  0.00    -0.000 C 
BRANCH   6   7
ATOM      7  C   UNL     1      64.928  33.877  16.706  1.00  0.00    -0.000 C 
BRANCH   7   8
ATOM      8  C   UNL     1      65.641  34.824  15.727  1.00  0.00    -0.000 C 
BRANCH   8   9
ATOM      9  C   UNL     1      65.228  34.587  14.266  1.00  0.00    -0.000 C 
BRANCH   9  10
ATOM     10  C   UNL     1      66.259  33.751  13.489  1.00  0.00    -0.000 C 
BRANCH  10  11
ATOM     11  C   UNL     1      66.176  33.975  11.972  1.00  0.00    -0.003 C 
ATOM     12  C   UNL     1      66.693  35.348  11.548  1.00  0.00     0.004 C 
ENDBRANCH  10  11
ENDBRANCH   9  10
ENDBRANCH   8   9
ENDBRANCH   7   8
ENDBRANCH   6   7
ENDBRANCH   5   6
ENDBRANCH   4   5
ENDBRANCH   3   4
ENDBRANCH   2   3
ENDBRANCH   1   2
BRANCH   1  13
ATOM     13  C   UNL     1      61.507  32.747  12.806  1.00  0.00     0.000 C 
BRANCH  13  14
ATOM     14  C   UNL     1      62.962  32.330  12.518  1.00  0.00     0.000 C 
BRANCH  14  15
ATOM     15  C   UNL     1      63.435  31.160  13.395  1.00  0.00     0.000 C 
BRANCH  15  16
ATOM     16  C   UNL     1      63.975  29.978  12.571  1.00  0.00     0.000 C 
BRANCH  16  17
ATOM     17  C   UNL     1      64.280  30.338  11.102  1.00  0.00     0.000 C 
BRANCH  17  18
ATOM     18  C   UNL     1      63.579  29.389  10.116  1.00  0.00     0.000 C 
BRANCH  18  19
ATOM     19  C   UNL     1      62.098  29.759   9.951  1.00  0.00     0.000 C 
BRANCH  19  20
ATOM     20  C   UNL     1      61.154  28.633  10.401  1.00  0.00     0.006 C 
BRANCH  20  21
ATOM     21  C   UNL     1      59.999  29.144  11.277  1.00  0.00     0.053 C 
BRANCH  21  22
ATOM     22  C   UNL     1      59.928  28.395  12.574  1.00  0.00     0.041 C 
ATOM     23  O   UNL     1      58.832  27.911  12.962  1.00  0.00    -0.550 OA
ATOM     24  O   UNL     1      61.053  28.291  13.388  1.00  0.00    -0.550 OA
ENDBRANCH  21  22
ENDBRANCH  20  21
ENDBRANCH  19  20
ENDBRANCH  18  19
ENDBRANCH  17  18
ENDBRANCH  16  17
ENDBRANCH  15  16
ENDBRANCH  14  15
ENDBRANCH  13  14
ENDBRANCH   1  13
TORSDOF 20
ENDMDL
MODEL 7
REMARK VINA RESULT:    -4.721      3.144      6.742
REMARK INTER + INTRA:         -13.009
REMARK INTER:                 -10.319
REMARK INTRA:                  -2.690
REMARK UNBOUND:                -2.768
REMARK SMILES CCCCCCCCCCCCCCCCCCCCCC(=O)[O-]
REMARK SMILES IDX 12 1 11 2 10 3 9 4 8 5 7 6 6 7 5 8 4 9 3 10 2 11 1 12 13 13
REMARK SMILES IDX 14 14 15 15 16 16 17 17 18 18 19 19 20 20 21 21 22 22 23 23
REMARK SMILES IDX 24 24
REMARK H PARENT
REMARK Flexibility Score: inf
ROOT
ATOM      1  C   UNL     1      61.615  29.779  13.983  1.00  0.00     0.000 C 
ENDROOT
BRANCH   1   2
ATOM      2  C   UNL     1      62.773  30.578  13.358  1.00  0.00     0.000 C 
BRANCH   2   3
ATOM      3  C   UNL     1      62.323  31.951  12.829  1.00  0.00     0.000 C 
BRANCH   3   4
ATOM      4  C   UNL     1      60.885  32.299  13.252  1.00  0.00    -0.000 C 
BRANCH   4   5
ATOM      5  C   UNL     1      60.826  33.483  14.231  1.00  0.00    -0.000 C 
BRANCH   5   6
ATOM      6  C   UNL     1      61.403  33.141  15.613  1.00  0.00    -0.000 C 
BRANCH   6   7
ATOM      7  C   UNL     1      61.455  34.383  16.511  1.00  0.00    -0.000 C 
BRANCH   7   8
ATOM      8  C   UNL     1      62.552  34.245  17.579  1.00  0.00    -0.000 C 
BRANCH   8   9
ATOM      9  C   UNL     1      63.932  34.692  17.072  1.00  0.00    -0.000 C 
BRANCH   9  10
ATOM     10  C   UNL     1      64.601  33.638  16.175  1.00  0.00    -0.000 C 
BRANCH  10  11
ATOM     11  C   UNL     1      64.863  34.155  14.752  1.00  0.00    -0.003 C 
ATOM     12  C   UNL     1      66.033  35.134  14.686  1.00  0.00     0.004 C 
ENDBRANCH  10  11
ENDBRANCH   9  10
ENDBRANCH   8   9
ENDBRANCH   7   8
ENDBRANCH   6   7
ENDBRANCH   5   6
ENDBRANCH   4   5
ENDBRANCH   3   4
ENDBRANCH   2   3
ENDBRANCH   1   2
BRANCH   1  13
ATOM     13  C   UNL     1      61.130  28.624  13.087  1.00  0.00     0.000 C 
BRANCH  13  14
ATOM     14  C   UNL     1      59.838  28.903  12.295  1.00  0.00     0.000 C 
BRANCH  14  15
ATOM     15  C   UNL     1      60.026  28.771  10.776  1.00  0.00     0.000 C 
BRANCH  15  16
ATOM     16  C   UNL     1      60.834  29.933  10.172  1.00  0.00     0.000 C 
BRANCH  16  17
ATOM     17  C   UNL     1      61.942  29.474   9.200  1.00  0.00     0.000 C 
BRANCH  17  18
ATOM     18  C   UNL     1      63.286  29.256   9.915  1.00  0.00     0.000 C 
BRANCH  18  19
ATOM     19  C   UNL     1      64.455  29.304   8.920  1.00  0.00     0.000 C 
BRANCH  19  20
ATOM     20  C   UNL     1      65.366  30.523   9.137  1.00  0.00     0.006 C 
BRANCH  20  21
ATOM     21  C   UNL     1      65.150  31.186  10.507  1.00  0.00     0.053 C 
BRANCH  21  22
ATOM     22  C   UNL     1      65.785  32.542  10.561  1.00  0.00     0.041 C 
ATOM     23  O   UNL     1      65.360  33.405  11.374  1.00  0.00    -0.550 OA
ATOM     24  O   UNL     1      66.799  32.879   9.667  1.00  0.00    -0.550 OA
ENDBRANCH  21  22
ENDBRANCH  20  21
ENDBRANCH  19  20
ENDBRANCH  18  19
ENDBRANCH  17  18
ENDBRANCH  16  17
ENDBRANCH  15  16
ENDBRANCH  14  15
ENDBRANCH  13  14
ENDBRANCH   1  13
TORSDOF 20
ENDMDL
MODEL 8
REMARK VINA RESULT:    -4.691      2.892      7.206
REMARK INTER + INTRA:         -12.943
REMARK INTER:                  -9.656
REMARK INTRA:                  -3.288
REMARK UNBOUND:                -2.768
REMARK SMILES CCCCCCCCCCCCCCCCCCCCCC(=O)[O-]
REMARK SMILES IDX 12 1 11 2 10 3 9 4 8 5 7 6 6 7 5 8 4 9 3 10 2 11 1 12 13 13
REMARK SMILES IDX 14 14 15 15 16 16 17 17 18 18 19 19 20 20 21 21 22 22 23 23
REMARK SMILES IDX 24 24
REMARK H PARENT
REMARK Flexibility Score: inf
ROOT
ATOM      1  C   UNL     1      65.506  34.242  13.376  1.00  0.00     0.000 C 
ENDROOT
BRANCH   1   2
ATOM      2  C   UNL     1      66.399  33.758  14.532  1.00  0.00     0.000 C 
BRANCH   2   3
ATOM      3  C   UNL     1      65.615  33.564  15.841  1.00  0.00     0.000 C 
BRANCH   3   4
ATOM      4  C   UNL     1      64.170  34.084  15.741  1.00  0.00    -0.000 C 
BRANCH   4   5
ATOM      5  C   UNL     1      63.349  33.799  17.010  1.00  0.00    -0.000 C 
BRANCH   5   6
ATOM      6  C   UNL     1      61.864  33.547  16.711  1.00  0.00    -0.000 C 
BRANCH   6   7
ATOM      7  C   UNL     1      61.543  33.823  15.237  1.00  0.00    -0.000 C 
BRANCH   7   8
ATOM      8  C   UNL     1      60.439  32.882  14.728  1.00  0.00    -0.000 C 
BRANCH   8   9
ATOM      9  C   UNL     1      60.860  32.096  13.477  1.00  0.00    -0.000 C 
BRANCH   9  10
ATOM     10  C   UNL     1      62.315  32.378  13.064  1.00  0.00    -0.000 C 
BRANCH  10  11
ATOM     11  C   UNL     1      63.119  31.092  12.822  1.00  0.00    -0.003 C 
ATOM     12  C   UNL     1      64.104  30.791  13.949  1.00  0.00     0.004 C 
ENDBRANCH  10  11
ENDBRANCH   9  10
ENDBRANCH   8   9
ENDBRANCH   7   8
ENDBRANCH   6   7
ENDBRANCH   5   6
ENDBRANCH   4   5
ENDBRANCH   3   4
ENDBRANCH   2   3
ENDBRANCH   1   2
BRANCH   1  13
ATOM     13  C   UNL     1      66.309  34.638  12.123  1.00  0.00     0.000 C 
BRANCH  13  14
ATOM     14  C   UNL     1      66.594  33.492  11.134  1.00  0.00     0.000 C 
BRANCH  14  15
ATOM     15  C   UNL     1      65.320  32.759  10.683  1.00  0.00     0.000 C 
BRANCH  15  16
ATOM     16  C   UNL     1      65.619  31.458   9.918  1.00  0.00     0.000 C 
BRANCH  16  17
ATOM     17  C   UNL     1      64.426  30.943   9.086  1.00  0.00     0.000 C 
BRANCH  17  18
ATOM     18  C   UNL     1      63.827  29.653   9.669  1.00  0.00     0.000 C 
BRANCH  18  19
ATOM     19  C   UNL     1      62.299  29.633   9.514  1.00  0.00     0.000 C 
BRANCH  19  20
ATOM     20  C   UNL     1      61.622  28.638  10.469  1.00  0.00     0.006 C 
BRANCH  20  21
ATOM     21  C   UNL     1      60.361  29.218  11.131  1.00  0.00     0.053 C 
BRANCH  21  22
ATOM     22  C   UNL     1      60.084  28.555  12.447  1.00  0.00     0.041 C 
ATOM     23  O   UNL     1      58.917  28.171  12.725  1.00  0.00    -0.550 OA
ATOM     24  O   UNL     1      61.096  28.423  13.394  1.00  0.00    -0.550 OA
ENDBRANCH  21  22
ENDBRANCH  20  21
ENDBRANCH  19  20
ENDBRANCH  18  19
ENDBRANCH  17  18
ENDBRANCH  16  17
ENDBRANCH  15  16
ENDBRANCH  14  15
ENDBRANCH  13  14
ENDBRANCH   1  13
TORSDOF 20
ENDMDL
MODEL 9
REMARK VINA RESULT:    -4.634      3.533      7.007
REMARK INTER + INTRA:         -12.819
REMARK INTER:                  -9.764
REMARK INTRA:                  -3.055
REMARK UNBOUND:                -2.768
REMARK SMILES CCCCCCCCCCCCCCCCCCCCCC(=O)[O-]
REMARK SMILES IDX 12 1 11 2 10 3 9 4 8 5 7 6 6 7 5 8 4 9 3 10 2 11 1 12 13 13
REMARK SMILES IDX 14 14 15 15 16 16 17 17 18 18 19 19 20 20 21 21 22 22 23 23
REMARK SMILES IDX 24 24
REMARK H PARENT
REMARK Flexibility Score: inf
ROOT
ATOM      1  C   UNL     1      61.510  30.761  14.733  1.00  0.00     0.000 C 
ENDROOT
BRANCH   1   2
ATOM      2  C   UNL     1      60.387  31.504  13.987  1.00  0.00     0.000 C 
BRANCH   2   3
ATOM      3  C   UNL     1      60.764  32.957  13.652  1.00  0.00     0.000 C 
BRANCH   3   4
ATOM      4  C   UNL     1      61.802  33.534  14.632  1.00  0.00    -0.000 C 
BRANCH   4   5
ATOM      5  C   UNL     1      61.156  34.324  15.781  1.00  0.00    -0.000 C 
BRANCH   5   6
ATOM      6  C   UNL     1      61.912  34.167  17.109  1.00  0.00    -0.000 C 
BRANCH   6   7
ATOM      7  C   UNL     1      63.277  33.503  16.890  1.00  0.00    -0.000 C 
BRANCH   7   8
ATOM      8  C   UNL     1      64.383  34.259  17.644  1.00  0.00    -0.000 C 
BRANCH   8   9
ATOM      9  C   UNL     1      65.599  34.571  16.758  1.00  0.00    -0.000 C 
BRANCH   9  10
ATOM     10  C   UNL     1      65.246  34.599  15.261  1.00  0.00    -0.000 C 
BRANCH  10  11
ATOM     11  C   UNL     1      66.084  33.608  14.440  1.00  0.00    -0.003 C 
ATOM     12  C   UNL     1      66.540  34.187  13.102  1.00  0.00     0.004 C 
ENDBRANCH  10  11
ENDBRANCH   9  10
ENDBRANCH   8   9
ENDBRANCH   7   8
ENDBRANCH   6   7
ENDBRANCH   5   6
ENDBRANCH   4   5
ENDBRANCH   3   4
ENDBRANCH   2   3
ENDBRANCH   1   2
BRANCH   1  13
ATOM     13  C   UNL     1      61.959  29.475  14.015  1.00  0.00     0.000 C 
BRANCH  13  14
ATOM     14  C   UNL     1      62.968  29.680  12.868  1.00  0.00     0.000 C 
BRANCH  14  15
ATOM     15  C   UNL     1      63.869  30.907  13.076  1.00  0.00     0.000 C 
BRANCH  15  16
ATOM     16  C   UNL     1      64.047  31.739  11.794  1.00  0.00     0.000 C 
BRANCH  16  17
ATOM     17  C   UNL     1      65.189  31.237  10.885  1.00  0.00     0.000 C 
BRANCH  17  18
ATOM     18  C   UNL     1      64.714  30.982   9.446  1.00  0.00     0.000 C 
BRANCH  18  19
ATOM     19  C   UNL     1      64.089  29.585   9.310  1.00  0.00     0.000 C 
BRANCH  19  20
ATOM     20  C   UNL     1      62.589  29.640   8.979  1.00  0.00     0.006 C 
BRANCH  20  21
ATOM     21  C   UNL     1      61.789  28.528   9.677  1.00  0.00     0.053 C 
BRANCH  21  22
ATOM     22  C   UNL     1      60.358  28.928   9.872  1.00  0.00     0.041 C 
ATOM     23  O   UNL     1      59.469  28.488   9.095  1.00  0.00    -0.550 OA
ATOM     24  O   UNL     1      60.013  29.841  10.866  1.00  0.00    -0.550 OA
ENDBRANCH  21  22
ENDBRANCH  20  21
ENDBRANCH  19  20
ENDBRANCH  18  19
ENDBRANCH  17  18
ENDBRANCH  16  17
ENDBRANCH  15  16
ENDBRANCH  14  15
ENDBRANCH  13  14
ENDBRANCH   1  13
TORSDOF 20
ENDMDL
