MODEL 1
REMARK VINA RESULT:    -3.034      0.000      0.000
REMARK INTER + INTRA:         -10.147
REMARK INTER:                  -6.580
REMARK INTRA:                  -3.567
REMARK UNBOUND:                -3.567
REMARK SMILES CCCCCCCCCCCCCCCCCCCCCC(=O)[O-]
REMARK SMILES IDX 12 1 11 2 10 3 9 4 8 5 7 6 6 7 5 8 4 9 3 10 2 11 1 12 13 13
REMARK SMILES IDX 14 14 15 15 16 16 17 17 18 18 19 19 20 20 21 21 22 22 23 23
REMARK SMILES IDX 24 24
REMARK H PARENT
REMARK Flexibility Score: inf
ROOT
ATOM      1  C   UNL     1       1.164   8.694  27.818  1.00  0.00     0.000 C 
ENDROOT
BRANCH   1   2
ATOM      2  C   UNL     1       2.104   9.121  26.681  1.00  0.00     0.000 C 
BRANCH   2   3
ATOM      3  C   UNL     1       1.560   8.768  25.283  1.00  0.00     0.000 C 
BRANCH   3   4
ATOM      4  C   UNL     1       0.275   7.910  25.279  1.00  0.00    -0.000 C 
BRANCH   4   5
ATOM      5  C   UNL     1       0.381   6.606  24.467  1.00  0.00    -0.000 C 
BRANCH   5   6
ATOM      6  C   UNL     1       1.838   6.221  24.149  1.00  0.00    -0.000 C 
BRANCH   6   7
ATOM      7  C   UNL     1       2.232   4.860  24.752  1.00  0.00    -0.000 C 
BRANCH   7   8
ATOM      8  C   UNL     1       3.324   4.941  25.844  1.00  0.00    -0.000 C 
BRANCH   8   9
ATOM      9  C   UNL     1       2.849   5.479  27.209  1.00  0.00    -0.000 C 
BRANCH   9  10
ATOM     10  C   UNL     1       1.550   4.814  27.697  1.00  0.00    -0.000 C 
BRANCH  10  11
ATOM     11  C   UNL     1       1.754   3.339  28.082  1.00  0.00    -0.003 C 
ATOM     12  C   UNL     1       0.888   2.391  27.252  1.00  0.00     0.004 C 
ENDBRANCH  10  11
ENDBRANCH   9  10
ENDBRANCH   8   9
ENDBRANCH   7   8
ENDBRANCH   6   7
ENDBRANCH   5   6
ENDBRANCH   4   5
ENDBRANCH   3   4
ENDBRANCH   2   3
ENDBRANCH   1   2
BRANCH   1  13
ATOM     13  C   UNL     1       1.935   8.516  29.132  1.00  0.00     0.000 C 
BRANCH  13  14
ATOM     14  C   UNL     1       1.241   7.500  30.046  1.00  0.00     0.000 C 
BRANCH  14  15
ATOM     15  C   UNL     1       0.687   8.177  31.305  1.00  0.00     0.000 C 
BRANCH  15  16
ATOM     16  C   UNL     1       0.930   7.304  32.547  1.00  0.00     0.000 C 
BRANCH  16  17
ATOM     17  C   UNL     1       1.916   6.154  32.283  1.00  0.00     0.000 C 
BRANCH  17  18
ATOM     18  C   UNL     1       1.507   4.795  32.887  1.00  0.00     0.000 C 
BRANCH  18  19
ATOM     19  C   UNL     1       0.872   3.823  31.870  1.00  0.00     0.000 C 
BRANCH  19  20
ATOM     20  C   UNL     1      -0.648   4.023  31.748  1.00  0.00     0.006 C 
BRANCH  20  21
ATOM     21  C   UNL     1      -1.028   4.533  30.354  1.00  0.00     0.053 C 
BRANCH  21  22
ATOM     22  C   UNL     1      -1.969   3.580  29.689  1.00  0.00     0.041 C 
ATOM     23  O   UNL     1      -1.690   2.353  29.625  1.00  0.00    -0.550 OA
ATOM     24  O   UNL     1      -3.179   4.037  29.183  1.00  0.00    -0.550 OA
ENDBRANCH  21  22
ENDBRANCH  20  21
ENDBRANCH  19  20
ENDBRANCH  18  19
ENDBRANCH  17  18
ENDBRANCH  16  17
ENDBRANCH  15  16
ENDBRANCH  14  15
ENDBRANCH  13  14
ENDBRANCH   1  13
TORSDOF 20
ENDMDL
MODEL 2
REMARK VINA RESULT:    -3.023      2.051      3.993
REMARK INTER + INTRA:         -10.123
REMARK INTER:                  -6.609
REMARK INTRA:                  -3.514
REMARK UNBOUND:                -3.567
REMARK SMILES CCCCCCCCCCCCCCCCCCCCCC(=O)[O-]
REMARK SMILES IDX 12 1 11 2 10 3 9 4 8 5 7 6 6 7 5 8 4 9 3 10 2 11 1 12 13 13
REMARK SMILES IDX 14 14 15 15 16 16 17 17 18 18 19 19 20 20 21 21 22 22 23 23
REMARK SMILES IDX 24 24
REMARK H PARENT
REMARK Flexibility Score: inf
ROOT
ATOM      1  C   UNL     1       3.401   7.702  26.997  1.00  0.00     0.000 C 
ENDROOT
BRANCH   1   2
ATOM      2  C   UNL     1       3.285   8.989  26.167  1.00  0.00     0.000 C 
BRANCH   2   3
ATOM      3  C   UNL     1       1.964   9.083  25.380  1.00  0.00     0.000 C 
BRANCH   3   4
ATOM      4  C   UNL     1       0.801   8.241  25.951  1.00  0.00    -0.000 C 
BRANCH   4   5
ATOM      5  C   UNL     1      -0.167   7.686  24.890  1.00  0.00    -0.000 C 
BRANCH   5   6
ATOM      6  C   UNL     1       0.565   7.018  23.709  1.00  0.00    -0.000 C 
BRANCH   6   7
ATOM      7  C   UNL     1      -0.025   5.641  23.354  1.00  0.00    -0.000 C 
BRANCH   7   8
ATOM      8  C   UNL     1      -1.450   5.399  23.903  1.00  0.00    -0.000 C 
BRANCH   8   9
ATOM      9  C   UNL     1      -1.586   4.215  24.882  1.00  0.00    -0.000 C 
BRANCH   9  10
ATOM     10  C   UNL     1      -1.900   4.660  26.321  1.00  0.00    -0.000 C 
BRANCH  10  11
ATOM     11  C   UNL     1      -2.080   3.469  27.277  1.00  0.00    -0.003 C 
ATOM     12  C   UNL     1      -2.678   3.882  28.623  1.00  0.00     0.004 C 
ENDBRANCH  10  11
ENDBRANCH   9  10
ENDBRANCH   8   9
ENDBRANCH   7   8
ENDBRANCH   6   7
ENDBRANCH   5   6
ENDBRANCH   4   5
ENDBRANCH   3   4
ENDBRANCH   2   3
ENDBRANCH   1   2
BRANCH   1  13
ATOM     13  C   UNL     1       4.495   6.783  26.437  1.00  0.00     0.000 C 
BRANCH  13  14
ATOM     14  C   UNL     1       4.059   5.315  26.481  1.00  0.00     0.000 C 
BRANCH  14  15
ATOM     15  C   UNL     1       2.714   5.116  25.773  1.00  0.00     0.000 C 
BRANCH  15  16
ATOM     16  C   UNL     1       1.823   4.139  26.558  1.00  0.00     0.000 C 
BRANCH  16  17
ATOM     17  C   UNL     1       1.833   4.409  28.072  1.00  0.00     0.000 C 
BRANCH  17  18
ATOM     18  C   UNL     1       0.779   5.425  28.558  1.00  0.00     0.000 C 
BRANCH  18  19
ATOM     19  C   UNL     1       1.367   6.596  29.374  1.00  0.00     0.000 C 
BRANCH  19  20
ATOM     20  C   UNL     1       1.110   6.438  30.881  1.00  0.00     0.006 C 
BRANCH  20  21
ATOM     21  C   UNL     1      -0.099   5.534  31.144  1.00  0.00     0.053 C 
BRANCH  21  22
ATOM     22  C   UNL     1       0.149   4.665  32.335  1.00  0.00     0.041 C 
ATOM     23  O   UNL     1      -0.811   4.295  33.062  1.00  0.00    -0.550 OA
ATOM     24  O   UNL     1       1.436   4.222  32.617  1.00  0.00    -0.550 OA
ENDBRANCH  21  22
ENDBRANCH  20  21
ENDBRANCH  19  20
ENDBRANCH  18  19
ENDBRANCH  17  18
ENDBRANCH  16  17
ENDBRANCH  15  16
ENDBRANCH  14  15
ENDBRANCH  13  14
ENDBRANCH   1  13
TORSDOF 20
ENDMDL
MODEL 3
REMARK VINA RESULT:    -2.961      7.590     11.349
REMARK INTER + INTRA:          -9.990
REMARK INTER:                  -6.110
REMARK INTRA:                  -3.880
REMARK UNBOUND:                -3.567
REMARK SMILES CCCCCCCCCCCCCCCCCCCCCC(=O)[O-]
REMARK SMILES IDX 12 1 11 2 10 3 9 4 8 5 7 6 6 7 5 8 4 9 3 10 2 11 1 12 13 13
REMARK SMILES IDX 14 14 15 15 16 16 17 17 18 18 19 19 20 20 21 21 22 22 23 23
REMARK SMILES IDX 24 24
REMARK H PARENT
REMARK Flexibility Score: inf
ROOT
ATOM      1  C   UNL     1      -0.024   7.169  36.302  1.00  0.00     0.000 C 
ENDROOT
BRANCH   1   2
ATOM      2  C   UNL     1      -1.407   7.055  36.961  1.00  0.00     0.000 C 
BRANCH   2   3
ATOM      3  C   UNL     1      -2.208   5.832  36.474  1.00  0.00     0.000 C 
BRANCH   3   4
ATOM      4  C   UNL     1      -2.723   4.900  37.593  1.00  0.00    -0.000 C 
BRANCH   4   5
ATOM      5  C   UNL     1      -2.472   5.417  39.021  1.00  0.00    -0.000 C 
BRANCH   5   6
ATOM      6  C   UNL     1      -3.743   5.398  39.892  1.00  0.00    -0.000 C 
BRANCH   6   7
ATOM      7  C   UNL     1      -3.917   6.692  40.708  1.00  0.00    -0.000 C 
BRANCH   7   8
ATOM      8  C   UNL     1      -3.132   7.903  40.152  1.00  0.00    -0.000 C 
BRANCH   8   9
ATOM      9  C   UNL     1      -1.859   8.278  40.937  1.00  0.00    -0.000 C 
BRANCH   9  10
ATOM     10  C   UNL     1      -1.836   7.689  42.359  1.00  0.00    -0.000 C 
BRANCH  10  11
ATOM     11  C   UNL     1      -0.530   6.934  42.660  1.00  0.00    -0.003 C 
ATOM     12  C   UNL     1      -0.583   5.471  42.215  1.00  0.00     0.004 C 
ENDBRANCH  10  11
ENDBRANCH   9  10
ENDBRANCH   8   9
ENDBRANCH   7   8
ENDBRANCH   6   7
ENDBRANCH   5   6
ENDBRANCH   4   5
ENDBRANCH   3   4
ENDBRANCH   2   3
ENDBRANCH   1   2
BRANCH   1  13
ATOM     13  C   UNL     1       1.002   7.762  37.276  1.00  0.00     0.000 C 
BRANCH  13  14
ATOM     14  C   UNL     1       0.546   7.593  38.729  1.00  0.00     0.000 C 
BRANCH  14  15
ATOM     15  C   UNL     1       1.607   6.863  39.561  1.00  0.00     0.000 C 
BRANCH  15  16
ATOM     16  C   UNL     1       2.374   5.847  38.698  1.00  0.00     0.000 C 
BRANCH  16  17
ATOM     17  C   UNL     1       2.015   4.390  39.033  1.00  0.00     0.000 C 
BRANCH  17  18
ATOM     18  C   UNL     1       0.777   3.840  38.297  1.00  0.00     0.000 C 
BRANCH  18  19
ATOM     19  C   UNL     1       1.114   2.982  37.059  1.00  0.00     0.000 C 
BRANCH  19  20
ATOM     20  C   UNL     1       0.483   3.544  35.775  1.00  0.00     0.006 C 
BRANCH  20  21
ATOM     21  C   UNL     1       1.545   4.177  34.869  1.00  0.00     0.053 C 
BRANCH  21  22
ATOM     22  C   UNL     1       2.882   3.558  35.123  1.00  0.00     0.041 C 
ATOM     23  O   UNL     1       3.172   2.442  34.615  1.00  0.00    -0.550 OA
ATOM     24  O   UNL     1       3.829   4.234  35.882  1.00  0.00    -0.550 OA
ENDBRANCH  21  22
ENDBRANCH  20  21
ENDBRANCH  19  20
ENDBRANCH  18  19
ENDBRANCH  17  18
ENDBRANCH  16  17
ENDBRANCH  15  16
ENDBRANCH  14  15
ENDBRANCH  13  14
ENDBRANCH   1  13
TORSDOF 20
ENDMDL
MODEL 4
REMARK VINA RESULT:    -2.956      5.842      9.173
REMARK INTER + INTRA:          -9.980
REMARK INTER:                  -6.444
REMARK INTRA:                  -3.536
REMARK UNBOUND:                -3.567
REMARK SMILES CCCCCCCCCCCCCCCCCCCCCC(=O)[O-]
REMARK SMILES IDX 12 1 11 2 10 3 9 4 8 5 7 6 6 7 5 8 4 9 3 10 2 11 1 12 13 13
REMARK SMILES IDX 14 14 15 15 16 16 17 17 18 18 19 19 20 20 21 21 22 22 23 23
REMARK SMILES IDX 24 24
REMARK H PARENT
REMARK Flexibility Score: inf
ROOT
ATOM      1  C   UNL     1      -1.405   8.875  38.594  1.00  0.00     0.000 C 
ENDROOT
BRANCH   1   2
ATOM      2  C   UNL     1      -1.469   8.336  37.157  1.00  0.00     0.000 C 
BRANCH   2   3
ATOM      3  C   UNL     1      -0.077   8.084  36.545  1.00  0.00     0.000 C 
BRANCH   3   4
ATOM      4  C   UNL     1       0.045   6.791  35.708  1.00  0.00    -0.000 C 
BRANCH   4   5
ATOM      5  C   UNL     1      -1.290   6.068  35.453  1.00  0.00    -0.000 C 
BRANCH   5   6
ATOM      6  C   UNL     1      -1.148   4.533  35.476  1.00  0.00    -0.000 C 
BRANCH   6   7
ATOM      7  C   UNL     1      -0.874   3.946  34.079  1.00  0.00    -0.000 C 
BRANCH   7   8
ATOM      8  C   UNL     1       0.622   3.691  33.780  1.00  0.00    -0.000 C 
BRANCH   8   9
ATOM      9  C   UNL     1       1.163   4.371  32.506  1.00  0.00    -0.000 C 
BRANCH   9  10
ATOM     10  C   UNL     1       1.947   5.662  32.802  1.00  0.00    -0.000 C 
BRANCH  10  11
ATOM     11  C   UNL     1       1.300   6.901  32.161  1.00  0.00    -0.003 C 
ATOM     12  C   UNL     1       1.049   6.723  30.662  1.00  0.00     0.004 C 
ENDBRANCH  10  11
ENDBRANCH   9  10
ENDBRANCH   8   9
ENDBRANCH   7   8
ENDBRANCH   6   7
ENDBRANCH   5   6
ENDBRANCH   4   5
ENDBRANCH   3   4
ENDBRANCH   2   3
ENDBRANCH   1   2
BRANCH   1  13
ATOM     13  C   UNL     1      -2.774   8.779  39.279  1.00  0.00     0.000 C 
BRANCH  13  14
ATOM     14  C   UNL     1      -2.683   7.991  40.590  1.00  0.00     0.000 C 
BRANCH  14  15
ATOM     15  C   UNL     1      -3.754   6.895  40.652  1.00  0.00     0.000 C 
BRANCH  15  16
ATOM     16  C   UNL     1      -3.348   5.685  39.795  1.00  0.00     0.000 C 
BRANCH  16  17
ATOM     17  C   UNL     1      -1.981   5.104  40.193  1.00  0.00     0.000 C 
BRANCH  17  18
ATOM     18  C   UNL     1      -0.898   5.181  39.097  1.00  0.00     0.000 C 
BRANCH  18  19
ATOM     19  C   UNL     1       0.432   5.802  39.572  1.00  0.00     0.000 C 
BRANCH  19  20
ATOM     20  C   UNL     1       1.606   5.434  38.651  1.00  0.00     0.006 C 
BRANCH  20  21
ATOM     21  C   UNL     1       1.466   4.003  38.122  1.00  0.00     0.053 C 
BRANCH  21  22
ATOM     22  C   UNL     1       2.414   3.770  36.990  1.00  0.00     0.041 C 
ATOM     23  O   UNL     1       2.908   4.746  36.365  1.00  0.00    -0.550 OA
ATOM     24  O   UNL     1       2.792   2.476  36.654  1.00  0.00    -0.550 OA
ENDBRANCH  21  22
ENDBRANCH  20  21
ENDBRANCH  19  20
ENDBRANCH  18  19
ENDBRANCH  17  18
ENDBRANCH  16  17
ENDBRANCH  15  16
ENDBRANCH  14  15
ENDBRANCH  13  14
ENDBRANCH   1  13
TORSDOF 20
ENDMDL
MODEL 5
REMARK VINA RESULT:    -2.932      2.653      4.814
REMARK INTER + INTRA:          -9.926
REMARK INTER:                  -7.008
REMARK INTRA:                  -2.918
REMARK UNBOUND:                -3.567
REMARK SMILES CCCCCCCCCCCCCCCCCCCCCC(=O)[O-]
REMARK SMILES IDX 12 1 11 2 10 3 9 4 8 5 7 6 6 7 5 8 4 9 3 10 2 11 1 12 13 13
REMARK SMILES IDX 14 14 15 15 16 16 17 17 18 18 19 19 20 20 21 21 22 22 23 23
REMARK SMILES IDX 24 24
REMARK H PARENT
REMARK Flexibility Score: inf
ROOT
ATOM      1  C   UNL     1       2.117   8.659  25.132  1.00  0.00     0.000 C 
ENDROOT
BRANCH   1   2
ATOM      2  C   UNL     1       0.622   8.380  24.918  1.00  0.00     0.000 C 
BRANCH   2   3
ATOM      3  C   UNL     1       0.330   6.914  24.543  1.00  0.00     0.000 C 
BRANCH   3   4
ATOM      4  C   UNL     1      -1.149   6.487  24.680  1.00  0.00    -0.000 C 
BRANCH   4   5
ATOM      5  C   UNL     1      -1.427   5.518  25.844  1.00  0.00    -0.000 C 
BRANCH   5   6
ATOM      6  C   UNL     1      -0.979   4.076  25.538  1.00  0.00    -0.000 C 
BRANCH   6   7
ATOM      7  C   UNL     1      -1.616   3.047  26.490  1.00  0.00    -0.000 C 
BRANCH   7   8
ATOM      8  C   UNL     1      -2.874   3.559  27.229  1.00  0.00    -0.000 C 
BRANCH   8   9
ATOM      9  C   UNL     1      -2.774   3.568  28.768  1.00  0.00    -0.000 C 
BRANCH   9  10
ATOM     10  C   UNL     1      -4.084   3.146  29.456  1.00  0.00    -0.000 C 
BRANCH  10  11
ATOM     11  C   UNL     1      -5.274   3.116  28.484  1.00  0.00    -0.003 C 
ATOM     12  C   UNL     1      -5.962   1.749  28.442  1.00  0.00     0.004 C 
ENDBRANCH  10  11
ENDBRANCH   9  10
ENDBRANCH   8   9
ENDBRANCH   7   8
ENDBRANCH   6   7
ENDBRANCH   5   6
ENDBRANCH   4   5
ENDBRANCH   3   4
ENDBRANCH   2   3
ENDBRANCH   1   2
BRANCH   1  13
ATOM     13  C   UNL     1       2.400   9.059  26.586  1.00  0.00     0.000 C 
BRANCH  13  14
ATOM     14  C   UNL     1       3.579   8.264  27.158  1.00  0.00     0.000 C 
BRANCH  14  15
ATOM     15  C   UNL     1       3.939   7.080  26.253  1.00  0.00     0.000 C 
BRANCH  15  16
ATOM     16  C   UNL     1       3.683   5.745  26.972  1.00  0.00     0.000 C 
BRANCH  16  17
ATOM     17  C   UNL     1       2.196   5.518  27.294  1.00  0.00     0.000 C 
BRANCH  17  18
ATOM     18  C   UNL     1       1.838   4.082  27.727  1.00  0.00     0.000 C 
BRANCH  18  19
ATOM     19  C   UNL     1       1.030   4.006  29.040  1.00  0.00     0.000 C 
BRANCH  19  20
ATOM     20  C   UNL     1       0.383   5.353  29.401  1.00  0.00     0.006 C 
BRANCH  20  21
ATOM     21  C   UNL     1       0.561   5.670  30.889  1.00  0.00     0.053 C 
BRANCH  21  22
ATOM     22  C   UNL     1       1.004   7.087  31.071  1.00  0.00     0.041 C 
ATOM     23  O   UNL     1       1.517   7.719  30.110  1.00  0.00    -0.550 OA
ATOM     24  O   UNL     1       0.806   7.726  32.288  1.00  0.00    -0.550 OA
ENDBRANCH  21  22
ENDBRANCH  20  21
ENDBRANCH  19  20
ENDBRANCH  18  19
ENDBRANCH  17  18
ENDBRANCH  16  17
ENDBRANCH  15  16
ENDBRANCH  14  15
ENDBRANCH  13  14
ENDBRANCH   1  13
TORSDOF 20
ENDMDL
MODEL 6
REMARK VINA RESULT:    -2.908      7.754     12.623
REMARK INTER + INTRA:          -9.875
REMARK INTER:                  -6.225
REMARK INTRA:                  -3.650
REMARK UNBOUND:                -3.567
REMARK SMILES CCCCCCCCCCCCCCCCCCCCCC(=O)[O-]
REMARK SMILES IDX 12 1 11 2 10 3 9 4 8 5 7 6 6 7 5 8 4 9 3 10 2 11 1 12 13 13
REMARK SMILES IDX 14 14 15 15 16 16 17 17 18 18 19 19 20 20 21 21 22 22 23 23
REMARK SMILES IDX 24 24
REMARK H PARENT
REMARK Flexibility Score: inf
ROOT
ATOM      1  C   UNL     1       0.577   2.872  40.302  1.00  0.00     0.000 C 
ENDROOT
BRANCH   1   2
ATOM      2  C   UNL     1       1.245   3.071  41.671  1.00  0.00     0.000 C 
BRANCH   2   3
ATOM      3  C   UNL     1       0.261   3.539  42.761  1.00  0.00     0.000 C 
BRANCH   3   4
ATOM      4  C   UNL     1      -0.678   4.693  42.342  1.00  0.00    -0.000 C 
BRANCH   4   5
ATOM      5  C   UNL     1      -0.211   6.090  42.789  1.00  0.00    -0.000 C 
BRANCH   5   6
ATOM      6  C   UNL     1      -0.069   7.074  41.611  1.00  0.00    -0.000 C 
BRANCH   6   7
ATOM      7  C   UNL     1      -1.245   8.065  41.527  1.00  0.00    -0.000 C 
BRANCH   7   8
ATOM      8  C   UNL     1      -2.218   7.998  42.727  1.00  0.00    -0.000 C 
BRANCH   8   9
ATOM      9  C   UNL     1      -3.650   7.537  42.386  1.00  0.00    -0.000 C 
BRANCH   9  10
ATOM     10  C   UNL     1      -3.878   7.353  40.876  1.00  0.00    -0.000 C 
BRANCH  10  11
ATOM     11  C   UNL     1      -4.119   5.883  40.494  1.00  0.00    -0.003 C 
ATOM     12  C   UNL     1      -3.116   5.374  39.457  1.00  0.00     0.004 C 
ENDBRANCH  10  11
ENDBRANCH   9  10
ENDBRANCH   8   9
ENDBRANCH   7   8
ENDBRANCH   6   7
ENDBRANCH   5   6
ENDBRANCH   4   5
ENDBRANCH   3   4
ENDBRANCH   2   3
ENDBRANCH   1   2
BRANCH   1  13
ATOM     13  C   UNL     1       1.152   3.843  39.263  1.00  0.00     0.000 C 
BRANCH  13  14
ATOM     14  C   UNL     1       2.423   4.520  39.784  1.00  0.00     0.000 C 
BRANCH  14  15
ATOM     15  C   UNL     1       2.510   5.975  39.306  1.00  0.00     0.000 C 
BRANCH  15  16
ATOM     16  C   UNL     1       1.749   6.162  37.983  1.00  0.00     0.000 C 
BRANCH  16  17
ATOM     17  C   UNL     1       0.971   7.487  37.926  1.00  0.00     0.000 C 
BRANCH  17  18
ATOM     18  C   UNL     1      -0.564   7.339  37.903  1.00  0.00     0.000 C 
BRANCH  18  19
ATOM     19  C   UNL     1      -1.203   7.658  36.535  1.00  0.00     0.000 C 
BRANCH  19  20
ATOM     20  C   UNL     1      -2.059   6.494  36.009  1.00  0.00     0.006 C 
BRANCH  20  21
ATOM     21  C   UNL     1      -1.337   5.154  36.184  1.00  0.00     0.053 C 
BRANCH  21  22
ATOM     22  C   UNL     1      -0.464   4.875  35.003  1.00  0.00     0.041 C 
ATOM     23  O   UNL     1       0.626   4.262  35.151  1.00  0.00    -0.550 OA
ATOM     24  O   UNL     1      -0.876   5.248  33.730  1.00  0.00    -0.550 OA
ENDBRANCH  21  22
ENDBRANCH  20  21
ENDBRANCH  19  20
ENDBRANCH  18  19
ENDBRANCH  17  18
ENDBRANCH  16  17
ENDBRANCH  15  16
ENDBRANCH  14  15
ENDBRANCH  13  14
ENDBRANCH   1  13
TORSDOF 20
ENDMDL
MODEL 7
REMARK VINA RESULT:    -2.887      2.232      3.159
REMARK INTER + INTRA:          -9.830
REMARK INTER:                  -7.080
REMARK INTRA:                  -2.750
REMARK UNBOUND:                -3.567
REMARK SMILES CCCCCCCCCCCCCCCCCCCCCC(=O)[O-]
REMARK SMILES IDX 12 1 11 2 10 3 9 4 8 5 7 6 6 7 5 8 4 9 3 10 2 11 1 12 13 13
REMARK SMILES IDX 14 14 15 15 16 16 17 17 18 18 19 19 20 20 21 21 22 22 23 23
REMARK SMILES IDX 24 24
REMARK H PARENT
REMARK Flexibility Score: inf
ROOT
ATOM      1  C   UNL     1       2.653   8.966  25.838  1.00  0.00     0.000 C 
ENDROOT
BRANCH   1   2
ATOM      2  C   UNL     1       1.803   8.812  24.569  1.00  0.00     0.000 C 
BRANCH   2   3
ATOM      3  C   UNL     1       0.354   8.373  24.862  1.00  0.00     0.000 C 
BRANCH   3   4
ATOM      4  C   UNL     1      -0.290   7.478  23.780  1.00  0.00    -0.000 C 
BRANCH   4   5
ATOM      5  C   UNL     1      -0.910   6.175  24.315  1.00  0.00    -0.000 C 
BRANCH   5   6
ATOM      6  C   UNL     1      -0.875   6.089  25.854  1.00  0.00    -0.000 C 
BRANCH   6   7
ATOM      7  C   UNL     1      -0.193   4.803  26.357  1.00  0.00    -0.000 C 
BRANCH   7   8
ATOM      8  C   UNL     1       0.705   5.006  27.600  1.00  0.00    -0.000 C 
BRANCH   8   9
ATOM      9  C   UNL     1       2.212   4.775  27.367  1.00  0.00    -0.000 C 
BRANCH   9  10
ATOM     10  C   UNL     1       2.711   5.365  26.036  1.00  0.00    -0.000 C 
BRANCH  10  11
ATOM     11  C   UNL     1       4.228   5.197  25.853  1.00  0.00    -0.003 C 
ATOM     12  C   UNL     1       5.031   6.245  26.626  1.00  0.00     0.004 C 
ENDBRANCH  10  11
ENDBRANCH   9  10
ENDBRANCH   8   9
ENDBRANCH   7   8
ENDBRANCH   6   7
ENDBRANCH   5   6
ENDBRANCH   4   5
ENDBRANCH   3   4
ENDBRANCH   2   3
ENDBRANCH   1   2
BRANCH   1  13
ATOM     13  C   UNL     1       1.766   9.125  27.079  1.00  0.00     0.000 C 
BRANCH  13  14
ATOM     14  C   UNL     1       2.330   8.339  28.267  1.00  0.00     0.000 C 
BRANCH  14  15
ATOM     15  C   UNL     1       1.443   8.497  29.507  1.00  0.00     0.000 C 
BRANCH  15  16
ATOM     16  C   UNL     1       1.225   7.142  30.200  1.00  0.00     0.000 C 
BRANCH  16  17
ATOM     17  C   UNL     1       0.984   7.278  31.713  1.00  0.00     0.000 C 
BRANCH  17  18
ATOM     18  C   UNL     1       1.731   6.250  32.586  1.00  0.00     0.000 C 
BRANCH  18  19
ATOM     19  C   UNL     1       1.262   4.794  32.379  1.00  0.00     0.000 C 
BRANCH  19  20
ATOM     20  C   UNL     1      -0.265   4.693  32.230  1.00  0.00     0.006 C 
BRANCH  20  21
ATOM     21  C   UNL     1      -0.869   3.812  33.328  1.00  0.00     0.053 C 
BRANCH  21  22
ATOM     22  C   UNL     1      -0.784   4.499  34.654  1.00  0.00     0.041 C 
ATOM     23  O   UNL     1      -0.151   3.967  35.604  1.00  0.00    -0.550 OA
ATOM     24  O   UNL     1      -1.362   5.750  34.828  1.00  0.00    -0.550 OA
ENDBRANCH  21  22
ENDBRANCH  20  21
ENDBRANCH  19  20
ENDBRANCH  18  19
ENDBRANCH  17  18
ENDBRANCH  16  17
ENDBRANCH  15  16
ENDBRANCH  14  15
ENDBRANCH  13  14
ENDBRANCH   1  13
TORSDOF 20
ENDMDL
MODEL 8
REMARK VINA RESULT:    -2.870      1.942      4.067
REMARK INTER + INTRA:          -9.792
REMARK INTER:                  -6.622
REMARK INTRA:                  -3.170
REMARK UNBOUND:                -3.567
REMARK SMILES CCCCCCCCCCCCCCCCCCCCCC(=O)[O-]
REMARK SMILES IDX 12 1 11 2 10 3 9 4 8 5 7 6 6 7 5 8 4 9 3 10 2 11 1 12 13 13
REMARK SMILES IDX 14 14 15 15 16 16 17 17 18 18 19 19 20 20 21 21 22 22 23 23
REMARK SMILES IDX 24 24
REMARK H PARENT
REMARK Flexibility Score: inf
ROOT
ATOM      1  C   UNL     1       3.249   6.701  26.970  1.00  0.00     0.000 C 
ENDROOT
BRANCH   1   2
ATOM      2  C   UNL     1       4.267   5.664  26.472  1.00  0.00     0.000 C 
BRANCH   2   3
ATOM      3  C   UNL     1       3.604   4.404  25.880  1.00  0.00     0.000 C 
BRANCH   3   4
ATOM      4  C   UNL     1       2.396   4.673  24.955  1.00  0.00    -0.000 C 
BRANCH   4   5
ATOM      5  C   UNL     1       1.117   3.906  25.336  1.00  0.00    -0.000 C 
BRANCH   5   6
ATOM      6  C   UNL     1       0.621   4.245  26.755  1.00  0.00    -0.000 C 
BRANCH   6   7
ATOM      7  C   UNL     1      -0.624   5.150  26.743  1.00  0.00    -0.000 C 
BRANCH   7   8
ATOM      8  C   UNL     1      -1.290   5.295  25.354  1.00  0.00    -0.000 C 
BRANCH   8   9
ATOM      9  C   UNL     1      -1.111   6.669  24.679  1.00  0.00    -0.000 C 
BRANCH   9  10
ATOM     10  C   UNL     1      -0.153   7.595  25.448  1.00  0.00    -0.000 C 
BRANCH  10  11
ATOM     11  C   UNL     1       0.810   8.349  24.516  1.00  0.00    -0.003 C 
ATOM     12  C   UNL     1       0.557   8.040  23.039  1.00  0.00     0.004 C 
ENDBRANCH  10  11
ENDBRANCH   9  10
ENDBRANCH   8   9
ENDBRANCH   7   8
ENDBRANCH   6   7
ENDBRANCH   5   6
ENDBRANCH   4   5
ENDBRANCH   3   4
ENDBRANCH   2   3
ENDBRANCH   1   2
BRANCH   1  13
ATOM     13  C   UNL     1       3.769   8.128  26.759  1.00  0.00     0.000 C 
BRANCH  13  14
ATOM     14  C   UNL     1       3.041   9.122  27.670  1.00  0.00     0.000 C 
BRANCH  14  15
ATOM     15  C   UNL     1       1.744   8.520  28.221  1.00  0.00     0.000 C 
BRANCH  15  16
ATOM     16  C   UNL     1       1.510   8.962  29.675  1.00  0.00     0.000 C 
BRANCH  16  17
ATOM     17  C   UNL     1       1.146   7.790  30.603  1.00  0.00     0.000 C 
BRANCH  17  18
ATOM     18  C   UNL     1       1.030   6.420  29.904  1.00  0.00     0.000 C 
BRANCH  18  19
ATOM     19  C   UNL     1       0.213   5.379  30.698  1.00  0.00     0.000 C 
BRANCH  19  20
ATOM     20  C   UNL     1       0.165   5.703  32.200  1.00  0.00     0.006 C 
BRANCH  20  21
ATOM     21  C   UNL     1       1.276   4.972  32.959  1.00  0.00     0.053 C 
BRANCH  21  22
ATOM     22  C   UNL     1       1.040   3.495  32.935  1.00  0.00     0.041 C 
ATOM     23  O   UNL     1       1.941   2.715  32.528  1.00  0.00    -0.550 OA
ATOM     24  O   UNL     1      -0.158   2.975  33.408  1.00  0.00    -0.550 OA
ENDBRANCH  21  22
ENDBRANCH  20  21
ENDBRANCH  19  20
ENDBRANCH  18  19
ENDBRANCH  17  18
ENDBRANCH  16  17
ENDBRANCH  15  16
ENDBRANCH  14  15
ENDBRANCH  13  14
ENDBRANCH   1  13
TORSDOF 20
ENDMDL
MODEL 9
REMARK VINA RESULT:    -2.851      2.631      4.665
REMARK INTER + INTRA:          -9.750
REMARK INTER:                  -6.444
REMARK INTRA:                  -3.307
REMARK UNBOUND:                -3.567
REMARK SMILES CCCCCCCCCCCCCCCCCCCCCC(=O)[O-]
REMARK SMILES IDX 12 1 11 2 10 3 9 4 8 5 7 6 6 7 5 8 4 9 3 10 2 11 1 12 13 13
REMARK SMILES IDX 14 14 15 15 16 16 17 17 18 18 19 19 20 20 21 21 22 22 23 23
REMARK SMILES IDX 24 24
REMARK H PARENT
REMARK Flexibility Score: inf
ROOT
ATOM      1  C   UNL     1      -1.761   3.294  27.035  1.00  0.00     0.000 C 
ENDROOT
BRANCH   1   2
ATOM      2  C   UNL     1      -0.820   3.490  25.837  1.00  0.00     0.000 C 
BRANCH   2   3
ATOM      3  C   UNL     1      -0.917   4.898  25.218  1.00  0.00     0.000 C 
BRANCH   3   4
ATOM      4  C   UNL     1      -0.434   6.048  26.130  1.00  0.00    -0.000 C 
BRANCH   4   5
ATOM      5  C   UNL     1      -0.373   7.425  25.444  1.00  0.00    -0.000 C 
BRANCH   5   6
ATOM      6  C   UNL     1       0.929   7.632  24.644  1.00  0.00    -0.000 C 
BRANCH   6   7
ATOM      7  C   UNL     1       1.790   8.778  25.209  1.00  0.00    -0.000 C 
BRANCH   7   8
ATOM      8  C   UNL     1       2.028   8.700  26.735  1.00  0.00    -0.000 C 
BRANCH   8   9
ATOM      9  C   UNL     1       3.471   8.358  27.159  1.00  0.00    -0.000 C 
BRANCH   9  10
ATOM     10  C   UNL     1       4.045   7.143  26.409  1.00  0.00    -0.000 C 
BRANCH  10  11
ATOM     11  C   UNL     1       3.549   5.808  26.989  1.00  0.00    -0.003 C 
ATOM     12  C   UNL     1       3.052   4.848  25.906  1.00  0.00     0.004 C 
ENDBRANCH  10  11
ENDBRANCH   9  10
ENDBRANCH   8   9
ENDBRANCH   7   8
ENDBRANCH   6   7
ENDBRANCH   5   6
ENDBRANCH   4   5
ENDBRANCH   3   4
ENDBRANCH   2   3
ENDBRANCH   1   2
BRANCH   1  13
ATOM     13  C   UNL     1      -1.007   2.715  28.238  1.00  0.00     0.000 C 
BRANCH  13  14
ATOM     14  C   UNL     1       0.489   3.037  28.159  1.00  0.00     0.000 C 
BRANCH  14  15
ATOM     15  C   UNL     1       0.977   3.718  29.443  1.00  0.00     0.000 C 
BRANCH  15  16
ATOM     16  C   UNL     1       0.226   5.038  29.682  1.00  0.00     0.000 C 
BRANCH  16  17
ATOM     17  C   UNL     1       1.085   6.276  29.376  1.00  0.00     0.000 C 
BRANCH  17  18
ATOM     18  C   UNL     1       1.148   7.320  30.509  1.00  0.00     0.000 C 
BRANCH  18  19
ATOM     19  C   UNL     1       0.852   6.742  31.909  1.00  0.00     0.000 C 
BRANCH  19  20
ATOM     20  C   UNL     1       2.120   6.211  32.597  1.00  0.00     0.006 C 
BRANCH  20  21
ATOM     21  C   UNL     1       1.889   4.812  33.179  1.00  0.00     0.053 C 
BRANCH  21  22
ATOM     22  C   UNL     1       2.511   4.702  34.534  1.00  0.00     0.041 C 
ATOM     23  O   UNL     1       3.635   4.152  34.673  1.00  0.00    -0.550 OA
ATOM     24  O   UNL     1       1.872   5.249  35.639  1.00  0.00    -0.550 OA
ENDBRANCH  21  22
ENDBRANCH  20  21
ENDBRANCH  19  20
ENDBRANCH  18  19
ENDBRANCH  17  18
ENDBRANCH  16  17
ENDBRANCH  15  16
ENDBRANCH  14  15
ENDBRANCH  13  14
ENDBRANCH   1  13
TORSDOF 20
ENDMDL
