MODEL 1
REMARK VINA RESULT:    -4.423      0.000      0.000
REMARK INTER + INTRA:          -4.810
REMARK INTER:                  -4.811
REMARK INTRA:                   0.000
REMARK UNBOUND:                 0.000
REMARK SMILES C[C@H]1[C@@H](C)CC[C@@]2(C(=O)[O-])CC[C@@]3(C)C(=CC[C@H]4[C@]5(C)CC[C@H](O)C(C)(C)[C@@H]5CC[C@]43C)[C@@H]12
REMARK SMILES IDX 7 1 6 2 11 3 33 4 5 5 12 6 15 7 2 8 3 9 13 10 16 11 1 12
REMARK SMILES IDX 4 13 14 14 31 15 17 16 18 17 30 18 32 19 19 20 29 21 28 22
REMARK SMILES IDX 21 23 20 24 25 25 22 26 23 27 26 28 27 29 8 30 9 31 10 32
REMARK SMILES IDX 24 33
REMARK H PARENT 24 34
REMARK Flexibility Score: inf
ROOT
ATOM      1  C   UNL     1      21.564 -32.111  23.057  1.00  0.00     0.017 C 
ATOM      2  C   UNL     1      22.795 -32.544  22.208  1.00  0.00     0.014 C 
ATOM      3  C   UNL     1      21.385 -33.122  24.217  1.00  0.00     0.014 C 
ATOM      4  C   UNL     1      21.652 -30.640  23.649  1.00  0.00     0.030 C 
ATOM      5  C   UNL     1      23.264 -31.470  21.231  1.00  0.00     0.004 C 
ATOM      6  C   UNL     1      22.429 -32.958  25.335  1.00  0.00     0.013 C 
ATOM      7  C   UNL     1      21.707 -30.532  25.202  1.00  0.00    -0.063 C 
ATOM      8  C   UNL     1      22.555 -29.620  22.832  1.00  0.00    -0.003 C 
ATOM      9  C   UNL     1      23.713 -30.211  21.971  1.00  0.00    -0.011 C 
ATOM     10  C   UNL     1      22.363 -31.584  26.103  1.00  0.00    -0.006 C 
ATOM     11  C   UNL     1      21.082 -29.487  25.769  1.00  0.00    -0.027 C 
ATOM     12  C   UNL     1      23.016 -28.374  23.616  1.00  0.00     0.008 C 
ATOM     13  C   UNL     1      25.062 -30.423  22.689  1.00  0.00     0.008 C 
ATOM     14  C   UNL     1      23.815 -31.072  26.336  1.00  0.00     0.017 C 
ATOM     15  C   UNL     1      21.606 -31.738  27.524  1.00  0.00    -0.020 C 
ATOM     16  C   UNL     1      20.947 -29.237  27.235  1.00  0.00     0.032 C 
ATOM     17  C   UNL     1      21.434 -30.336  28.243  1.00  0.00     0.006 C 
ATOM     18  C   UNL     1      20.175 -32.308  27.318  1.00  0.00     0.008 C 
ATOM     19  C   UNL     1      22.457 -32.712  28.420  1.00  0.00     0.012 C 
ATOM     20  C   UNL     1      20.532 -30.298  29.580  1.00  0.00    -0.025 C 
ATOM     21  C   UNL     1      19.312 -32.353  28.587  1.00  0.00     0.005 C 
ATOM     22  C   UNL     1      19.130 -30.988  29.320  1.00  0.00     0.003 C 
ATOM     23  C   UNL     1      21.221 -30.999  30.796  1.00  0.00     0.010 C 
ATOM     24  C   UNL     1      20.386 -28.782  29.973  1.00  0.00     0.012 C 
ATOM     25  C   UNL     1      18.211 -31.138  30.620  1.00  0.00    -0.006 C 
ATOM     26  C   UNL     1      20.357 -31.059  32.072  1.00  0.00     0.033 C 
ATOM     27  C   UNL     1      19.001 -31.746  31.829  1.00  0.00     0.120 C 
ATOM     28  C   UNL     1      17.602 -29.767  31.036  1.00  0.00     0.014 C 
ATOM     29  C   UNL     1      16.974 -32.041  30.332  1.00  0.00     0.014 C 
ENDROOT
BRANCH   1  30
ATOM     30  C   UNL     1      20.347 -32.233  22.130  1.00  0.00     0.048 C 
ATOM     31  O   UNL     1      19.199 -31.888  22.523  1.00  0.00    -0.550 OA
ATOM     32  O   UNL     1      20.468 -32.821  20.875  1.00  0.00    -0.550 OA
ENDBRANCH   1  30
BRANCH  27  33
ATOM     33  O   UNL     1      19.209 -33.125  31.651  1.00  0.00    -0.393 OA
ATOM     34  H   UNL     1      19.422 -33.270  30.692  1.00  0.00     0.210 HD
ENDBRANCH  27  33
TORSDOF 2
ENDMDL
MODEL 2
REMARK VINA RESULT:    -4.144      3.473      6.534
REMARK INTER + INTRA:          -4.507
REMARK INTER:                  -4.265
REMARK INTRA:                  -0.241
REMARK UNBOUND:                 0.000
REMARK SMILES C[C@H]1[C@@H](C)CC[C@@]2(C(=O)[O-])CC[C@@]3(C)C(=CC[C@H]4[C@]5(C)CC[C@H](O)C(C)(C)[C@@H]5CC[C@]43C)[C@@H]12
REMARK SMILES IDX 7 1 6 2 11 3 33 4 5 5 12 6 15 7 2 8 3 9 13 10 16 11 1 12
REMARK SMILES IDX 4 13 14 14 31 15 17 16 18 17 30 18 32 19 19 20 29 21 28 22
REMARK SMILES IDX 21 23 20 24 25 25 22 26 23 27 26 28 27 29 8 30 9 31 10 32
REMARK SMILES IDX 24 33
REMARK H PARENT 24 34
REMARK Flexibility Score: inf
ROOT
ATOM      1  C   UNL     1      23.413 -29.139  27.863  1.00  0.00     0.017 C 
ATOM      2  C   UNL     1      24.846 -29.657  28.180  1.00  0.00     0.014 C 
ATOM      3  C   UNL     1      23.134 -29.353  26.354  1.00  0.00     0.014 C 
ATOM      4  C   UNL     1      22.259 -29.823  28.714  1.00  0.00     0.030 C 
ATOM      5  C   UNL     1      25.125 -29.792  29.674  1.00  0.00     0.004 C 
ATOM      6  C   UNL     1      22.870 -30.823  25.985  1.00  0.00     0.013 C 
ATOM      7  C   UNL     1      21.228 -30.668  27.909  1.00  0.00    -0.063 C 
ATOM      8  C   UNL     1      22.692 -30.391  30.133  1.00  0.00    -0.003 C 
ATOM      9  C   UNL     1      24.183 -30.808  30.320  1.00  0.00    -0.011 C 
ATOM     10  C   UNL     1      21.576 -31.444  26.635  1.00  0.00    -0.006 C 
ATOM     11  C   UNL     1      19.952 -30.650  28.332  1.00  0.00    -0.027 C 
ATOM     12  C   UNL     1      21.735 -31.436  30.743  1.00  0.00     0.008 C 
ATOM     13  C   UNL     1      24.546 -32.254  29.923  1.00  0.00     0.008 C 
ATOM     14  C   UNL     1      21.903 -32.889  27.114  1.00  0.00     0.017 C 
ATOM     15  C   UNL     1      20.349 -31.485  25.581  1.00  0.00    -0.020 C 
ATOM     16  C   UNL     1      18.798 -31.322  27.665  1.00  0.00     0.032 C 
ATOM     17  C   UNL     1      19.016 -31.999  26.267  1.00  0.00     0.006 C 
ATOM     18  C   UNL     1      20.048 -30.059  25.042  1.00  0.00     0.008 C 
ATOM     19  C   UNL     1      20.760 -32.439  24.399  1.00  0.00     0.012 C 
ATOM     20  C   UNL     1      17.659 -31.918  25.396  1.00  0.00    -0.025 C 
ATOM     21  C   UNL     1      18.803 -29.958  24.151  1.00  0.00     0.005 C 
ATOM     22  C   UNL     1      17.475 -30.464  24.796  1.00  0.00     0.003 C 
ATOM     23  C   UNL     1      17.627 -32.954  24.225  1.00  0.00     0.010 C 
ATOM     24  C   UNL     1      16.486 -32.316  26.365  1.00  0.00     0.012 C 
ATOM     25  C   UNL     1      16.239 -30.309  23.794  1.00  0.00    -0.006 C 
ATOM     26  C   UNL     1      16.386 -32.852  23.317  1.00  0.00     0.033 C 
ATOM     27  C   UNL     1      16.212 -31.447  22.716  1.00  0.00     0.120 C 
ATOM     28  C   UNL     1      14.889 -30.298  24.569  1.00  0.00     0.014 C 
ATOM     29  C   UNL     1      16.277 -28.934  23.062  1.00  0.00     0.014 C 
ENDROOT
BRANCH   1  30
ATOM     30  C   UNL     1      23.439 -27.629  28.131  1.00  0.00     0.048 C 
ATOM     31  O   UNL     1      22.578 -27.091  28.880  1.00  0.00    -0.550 OA
ATOM     32  O   UNL     1      24.350 -26.808  27.474  1.00  0.00    -0.550 OA
ENDBRANCH   1  30
BRANCH  27  33
ATOM     33  O   UNL     1      17.204 -31.237  21.741  1.00  0.00    -0.393 OA
ATOM     34  H   UNL     1      17.504 -30.294  21.823  1.00  0.00     0.210 HD
ENDBRANCH  27  33
TORSDOF 2
ENDMDL
MODEL 3
REMARK VINA RESULT:    -3.516      3.549      5.677
REMARK INTER + INTRA:          -3.824
REMARK INTER:                  -3.824
REMARK INTRA:                   0.000
REMARK UNBOUND:                 0.000
REMARK SMILES C[C@H]1[C@@H](C)CC[C@@]2(C(=O)[O-])CC[C@@]3(C)C(=CC[C@H]4[C@]5(C)CC[C@H](O)C(C)(C)[C@@H]5CC[C@]43C)[C@@H]12
REMARK SMILES IDX 7 1 6 2 11 3 33 4 5 5 12 6 15 7 2 8 3 9 13 10 16 11 1 12
REMARK SMILES IDX 4 13 14 14 31 15 17 16 18 17 30 18 32 19 19 20 29 21 28 22
REMARK SMILES IDX 21 23 20 24 25 25 22 26 23 27 26 28 27 29 8 30 9 31 10 32
REMARK SMILES IDX 24 33
REMARK H PARENT 24 34
REMARK Flexibility Score: inf
ROOT
ATOM      1  C   UNL     1      17.391 -32.149  25.249  1.00  0.00     0.017 C 
ATOM      2  C   UNL     1      17.015 -33.125  24.096  1.00  0.00     0.014 C 
ATOM      3  C   UNL     1      18.828 -32.478  25.725  1.00  0.00     0.014 C 
ATOM      4  C   UNL     1      17.302 -30.610  24.869  1.00  0.00     0.030 C 
ATOM      5  C   UNL     1      15.760 -32.709  23.336  1.00  0.00     0.004 C 
ATOM      6  C   UNL     1      19.917 -32.010  24.745  1.00  0.00     0.013 C 
ATOM      7  C   UNL     1      18.646 -29.823  24.889  1.00  0.00    -0.063 C 
ATOM      8  C   UNL     1      16.280 -30.243  23.708  1.00  0.00    -0.003 C 
ATOM      9  C   UNL     1      15.950 -31.351  22.661  1.00  0.00    -0.011 C 
ATOM     10  C   UNL     1      20.001 -30.449  24.547  1.00  0.00    -0.006 C 
ATOM     11  C   UNL     1      18.604 -28.543  25.297  1.00  0.00    -0.027 C 
ATOM     12  C   UNL     1      16.517 -28.879  23.029  1.00  0.00     0.008 C 
ATOM     13  C   UNL     1      16.892 -31.446  21.444  1.00  0.00     0.008 C 
ATOM     14  C   UNL     1      20.219 -30.148  23.035  1.00  0.00     0.017 C 
ATOM     15  C   UNL     1      21.212 -29.810  25.408  1.00  0.00    -0.020 C 
ATOM     16  C   UNL     1      19.780 -27.639  25.465  1.00  0.00     0.032 C 
ATOM     17  C   UNL     1      21.224 -28.229  25.304  1.00  0.00     0.006 C 
ATOM     18  C   UNL     1      21.047 -30.153  26.915  1.00  0.00     0.008 C 
ATOM     19  C   UNL     1      22.561 -30.406  24.858  1.00  0.00     0.012 C 
ATOM     20  C   UNL     1      22.255 -27.434  26.258  1.00  0.00    -0.025 C 
ATOM     21  C   UNL     1      22.059 -29.469  27.845  1.00  0.00     0.005 C 
ATOM     22  C   UNL     1      22.098 -27.911  27.759  1.00  0.00     0.003 C 
ATOM     23  C   UNL     1      23.746 -27.618  25.824  1.00  0.00     0.010 C 
ATOM     24  C   UNL     1      21.933 -25.905  26.082  1.00  0.00     0.012 C 
ATOM     25  C   UNL     1      23.174 -27.296  28.770  1.00  0.00    -0.006 C 
ATOM     26  C   UNL     1      24.770 -26.944  26.759  1.00  0.00     0.033 C 
ATOM     27  C   UNL     1      24.635 -27.418  28.216  1.00  0.00     0.120 C 
ATOM     28  C   UNL     1      22.860 -25.802  29.078  1.00  0.00     0.014 C 
ATOM     29  C   UNL     1      23.109 -28.001  30.158  1.00  0.00     0.014 C 
ENDROOT
BRANCH   1  30
ATOM     30  C   UNL     1      16.427 -32.463  26.401  1.00  0.00     0.048 C 
ATOM     31  O   UNL     1      15.236 -32.048  26.377  1.00  0.00    -0.550 OA
ATOM     32  O   UNL     1      16.875 -33.125  27.539  1.00  0.00    -0.550 OA
ENDBRANCH   1  30
BRANCH  27  33
ATOM     33  O   UNL     1      25.100 -28.742  28.314  1.00  0.00    -0.393 OA
ATOM     34  H   UNL     1      25.013 -29.015  29.265  1.00  0.00     0.210 HD
ENDBRANCH  27  33
TORSDOF 2
ENDMDL
MODEL 4
REMARK VINA RESULT:    -2.608      1.762      7.724
REMARK INTER + INTRA:          -2.836
REMARK INTER:                  -2.807
REMARK INTRA:                  -0.030
REMARK UNBOUND:                 0.000
REMARK SMILES C[C@H]1[C@@H](C)CC[C@@]2(C(=O)[O-])CC[C@@]3(C)C(=CC[C@H]4[C@]5(C)CC[C@H](O)C(C)(C)[C@@H]5CC[C@]43C)[C@@H]12
REMARK SMILES IDX 7 1 6 2 11 3 33 4 5 5 12 6 15 7 2 8 3 9 13 10 16 11 1 12
REMARK SMILES IDX 4 13 14 14 31 15 17 16 18 17 30 18 32 19 19 20 29 21 28 22
REMARK SMILES IDX 21 23 20 24 25 25 22 26 23 27 26 28 27 29 8 30 9 31 10 32
REMARK SMILES IDX 24 33
REMARK H PARENT 24 34
REMARK Flexibility Score: inf
ROOT
ATOM      1  C   UNL     1      19.112 -31.307  29.046  1.00  0.00     0.017 C 
ATOM      2  C   UNL     1      18.832 -30.501  30.348  1.00  0.00     0.014 C 
ATOM      3  C   UNL     1      19.130 -30.322  27.850  1.00  0.00     0.014 C 
ATOM      4  C   UNL     1      20.464 -32.140  29.062  1.00  0.00     0.030 C 
ATOM      5  C   UNL     1      19.096 -31.297  31.622  1.00  0.00     0.004 C 
ATOM      6  C   UNL     1      20.400 -29.457  27.792  1.00  0.00     0.013 C 
ATOM      7  C   UNL     1      21.546 -31.704  28.029  1.00  0.00    -0.063 C 
ATOM      8  C   UNL     1      20.986 -32.582  30.496  1.00  0.00    -0.003 C 
ATOM      9  C   UNL     1      20.565 -31.709  31.718  1.00  0.00    -0.011 C 
ATOM     10  C   UNL     1      21.735 -30.259  27.558  1.00  0.00    -0.006 C 
ATOM     11  C   UNL     1      22.301 -32.673  27.483  1.00  0.00    -0.027 C 
ATOM     12  C   UNL     1      22.479 -32.963  30.564  1.00  0.00     0.008 C 
ATOM     13  C   UNL     1      21.474 -30.507  32.047  1.00  0.00     0.008 C 
ATOM     14  C   UNL     1      22.841 -29.670  28.482  1.00  0.00     0.017 C 
ATOM     15  C   UNL     1      22.213 -30.171  26.014  1.00  0.00    -0.020 C 
ATOM     16  C   UNL     1      23.335 -32.483  26.423  1.00  0.00     0.032 C 
ATOM     17  C   UNL     1      23.489 -31.074  25.751  1.00  0.00     0.006 C 
ATOM     18  C   UNL     1      21.097 -30.696  25.069  1.00  0.00     0.008 C 
ATOM     19  C   UNL     1      22.533 -28.664  25.694  1.00  0.00     0.012 C 
ATOM     20  C   UNL     1      23.973 -31.240  24.221  1.00  0.00    -0.025 C 
ATOM     21  C   UNL     1      21.501 -30.800  23.592  1.00  0.00     0.005 C 
ATOM     22  C   UNL     1      22.759 -31.677  23.303  1.00  0.00     0.003 C 
ATOM     23  C   UNL     1      24.600 -29.932  23.638  1.00  0.00     0.010 C 
ATOM     24  C   UNL     1      25.125 -32.311  24.234  1.00  0.00     0.012 C 
ATOM     25  C   UNL     1      23.091 -31.729  21.740  1.00  0.00    -0.006 C 
ATOM     26  C   UNL     1      24.998 -30.023  22.151  1.00  0.00     0.033 C 
ATOM     27  C   UNL     1      23.818 -30.429  21.252  1.00  0.00     0.120 C 
ATOM     28  C   UNL     1      23.964 -32.971  21.394  1.00  0.00     0.014 C 
ATOM     29  C   UNL     1      21.795 -31.919  20.896  1.00  0.00     0.014 C 
ENDROOT
BRANCH   1  30
ATOM     30  C   UNL     1      17.916 -32.250  28.866  1.00  0.00     0.048 C 
ATOM     31  O   UNL     1      17.911 -33.121  27.953  1.00  0.00    -0.550 OA
ATOM     32  O   UNL     1      16.770 -32.098  29.640  1.00  0.00    -0.550 OA
ENDBRANCH   1  30
BRANCH  27  33
ATOM     33  O   UNL     1      22.916 -29.353  21.163  1.00  0.00    -0.393 OA
ATOM     34  H   UNL     1      22.002 -29.738  21.106  1.00  0.00     0.210 HD
ENDBRANCH  27  33
TORSDOF 2
ENDMDL
MODEL 5
REMARK VINA RESULT:    -2.582      2.033      2.847
REMARK INTER + INTRA:          -2.808
REMARK INTER:                  -2.734
REMARK INTRA:                  -0.074
REMARK UNBOUND:                 0.000
REMARK SMILES C[C@H]1[C@@H](C)CC[C@@]2(C(=O)[O-])CC[C@@]3(C)C(=CC[C@H]4[C@]5(C)CC[C@H](O)C(C)(C)[C@@H]5CC[C@]43C)[C@@H]12
REMARK SMILES IDX 7 1 6 2 11 3 33 4 5 5 12 6 15 7 2 8 3 9 13 10 16 11 1 12
REMARK SMILES IDX 4 13 14 14 31 15 17 16 18 17 30 18 32 19 19 20 29 21 28 22
REMARK SMILES IDX 21 23 20 24 25 25 22 26 23 27 26 28 27 29 8 30 9 31 10 32
REMARK SMILES IDX 24 33
REMARK H PARENT 24 34
REMARK Flexibility Score: inf
ROOT
ATOM      1  C   UNL     1      20.799 -32.136  23.156  1.00  0.00     0.017 C 
ATOM      2  C   UNL     1      21.198 -33.080  21.984  1.00  0.00     0.014 C 
ATOM      3  C   UNL     1      20.935 -32.917  24.488  1.00  0.00     0.014 C 
ATOM      4  C   UNL     1      21.646 -30.795  23.244  1.00  0.00     0.030 C 
ATOM      5  C   UNL     1      21.407 -32.349  20.662  1.00  0.00     0.004 C 
ATOM      6  C   UNL     1      22.395 -33.125  24.926  1.00  0.00     0.013 C 
ATOM      7  C   UNL     1      22.529 -30.628  24.516  1.00  0.00    -0.063 C 
ATOM      8  C   UNL     1      22.265 -30.279  21.875  1.00  0.00    -0.003 C 
ATOM      9  C   UNL     1      22.550 -31.339  20.766  1.00  0.00    -0.011 C 
ATOM     10  C   UNL     1      23.180 -31.800  25.257  1.00  0.00    -0.006 C 
ATOM     11  C   UNL     1      22.661 -29.387  25.015  1.00  0.00    -0.027 C 
ATOM     12  C   UNL     1      23.436 -29.284  22.015  1.00  0.00     0.008 C 
ATOM     13  C   UNL     1      23.924 -32.038  20.821  1.00  0.00     0.008 C 
ATOM     14  C   UNL     1      24.616 -31.909  24.667  1.00  0.00     0.017 C 
ATOM     15  C   UNL     1      23.266 -31.550  26.853  1.00  0.00    -0.020 C 
ATOM     16  C   UNL     1      23.393 -29.019  26.263  1.00  0.00     0.032 C 
ATOM     17  C   UNL     1      23.950 -30.159  27.184  1.00  0.00     0.006 C 
ATOM     18  C   UNL     1      21.842 -31.501  27.473  1.00  0.00     0.008 C 
ATOM     19  C   UNL     1      24.094 -32.732  27.483  1.00  0.00     0.012 C 
ATOM     20  C   UNL     1      23.940 -29.680  28.725  1.00  0.00    -0.025 C 
ATOM     21  C   UNL     1      21.800 -31.117  28.959  1.00  0.00     0.005 C 
ATOM     22  C   UNL     1      22.473 -29.755  29.317  1.00  0.00     0.003 C 
ATOM     23  C   UNL     1      24.892 -30.528  29.631  1.00  0.00     0.010 C 
ATOM     24  C   UNL     1      24.513 -28.215  28.738  1.00  0.00     0.012 C 
ATOM     25  C   UNL     1      22.369 -29.443  30.881  1.00  0.00    -0.006 C 
ATOM     26  C   UNL     1      24.848 -30.157  31.126  1.00  0.00     0.033 C 
ATOM     27  C   UNL     1      23.427 -30.247  31.711  1.00  0.00     0.120 C 
ATOM     28  C   UNL     1      22.539 -27.921  31.160  1.00  0.00     0.014 C 
ATOM     29  C   UNL     1      20.950 -29.781  31.429  1.00  0.00     0.014 C 
ENDROOT
BRANCH   1  30
ATOM     30  C   UNL     1      19.315 -31.807  22.949  1.00  0.00     0.048 C 
ATOM     31  O   UNL     1      18.754 -30.901  23.624  1.00  0.00    -0.550 OA
ATOM     32  O   UNL     1      18.534 -32.570  22.086  1.00  0.00    -0.550 OA
ENDBRANCH   1  30
BRANCH  27  33
ATOM     33  O   UNL     1      23.059 -31.600  31.819  1.00  0.00    -0.393 OA
ATOM     34  H   UNL     1      22.961 -31.803  32.786  1.00  0.00     0.210 HD
ENDBRANCH  27  33
TORSDOF 2
ENDMDL
MODEL 6
REMARK VINA RESULT:    -2.337      3.126      4.866
REMARK INTER + INTRA:          -2.542
REMARK INTER:                  -2.770
REMARK INTRA:                   0.229
REMARK UNBOUND:                 0.000
REMARK SMILES C[C@H]1[C@@H](C)CC[C@@]2(C(=O)[O-])CC[C@@]3(C)C(=CC[C@H]4[C@]5(C)CC[C@H](O)C(C)(C)[C@@H]5CC[C@]43C)[C@@H]12
REMARK SMILES IDX 7 1 6 2 11 3 33 4 5 5 12 6 15 7 2 8 3 9 13 10 16 11 1 12
REMARK SMILES IDX 4 13 14 14 31 15 17 16 18 17 30 18 32 19 19 20 29 21 28 22
REMARK SMILES IDX 21 23 20 24 25 25 22 26 23 27 26 28 27 29 8 30 9 31 10 32
REMARK SMILES IDX 24 33
REMARK H PARENT 24 34
REMARK Flexibility Score: inf
ROOT
ATOM      1  C   UNL     1      17.322 -32.453  25.644  1.00  0.00     0.017 C 
ATOM      2  C   UNL     1      16.999 -33.125  24.277  1.00  0.00     0.014 C 
ATOM      3  C   UNL     1      18.587 -33.124  26.237  1.00  0.00     0.014 C 
ATOM      4  C   UNL     1      17.544 -30.883  25.574  1.00  0.00     0.030 C 
ATOM      5  C   UNL     1      15.974 -32.354  23.451  1.00  0.00     0.004 C 
ATOM      6  C   UNL     1      19.887 -32.705  25.530  1.00  0.00     0.013 C 
ATOM      7  C   UNL     1      18.972 -30.378  25.937  1.00  0.00    -0.063 C 
ATOM      8  C   UNL     1      16.806 -30.134  24.383  1.00  0.00    -0.003 C 
ATOM      9  C   UNL     1      16.488 -30.959  23.098  1.00  0.00    -0.011 C 
ATOM     10  C   UNL     1      20.249 -31.178  25.664  1.00  0.00    -0.006 C 
ATOM     11  C   UNL     1      19.064 -29.204  26.586  1.00  0.00    -0.027 C 
ATOM     12  C   UNL     1      17.368 -28.741  24.032  1.00  0.00     0.008 C 
ATOM     13  C   UNL     1      17.598 -31.015  22.027  1.00  0.00     0.008 C 
ATOM     14  C   UNL     1      20.767 -30.664  24.289  1.00  0.00     0.017 C 
ATOM     15  C   UNL     1      21.381 -30.939  26.795  1.00  0.00    -0.020 C 
ATOM     16  C   UNL     1      20.322 -28.581  27.092  1.00  0.00     0.032 C 
ATOM     17  C   UNL     1      21.661 -29.394  27.016  1.00  0.00     0.006 C 
ATOM     18  C   UNL     1      20.910 -31.502  28.164  1.00  0.00     0.008 C 
ATOM     19  C   UNL     1      22.693 -31.671  26.327  1.00  0.00     0.012 C 
ATOM     20  C   UNL     1      22.627 -28.986  28.242  1.00  0.00    -0.025 C 
ATOM     21  C   UNL     1      21.843 -31.194  29.343  1.00  0.00     0.005 C 
ATOM     22  C   UNL     1      22.142 -29.681  29.580  1.00  0.00     0.003 C 
ATOM     23  C   UNL     1      24.122 -29.368  27.989  1.00  0.00     0.010 C 
ATOM     24  C   UNL     1      22.585 -27.417  28.337  1.00  0.00     0.012 C 
ATOM     25  C   UNL     1      23.113 -29.464  30.832  1.00  0.00    -0.006 C 
ATOM     26  C   UNL     1      25.065 -29.072  29.172  1.00  0.00     0.033 C 
ATOM     27  C   UNL     1      24.610 -29.760  30.471  1.00  0.00     0.120 C 
ATOM     28  C   UNL     1      22.992 -28.016  31.390  1.00  0.00     0.014 C 
ATOM     29  C   UNL     1      22.702 -30.376  32.027  1.00  0.00     0.014 C 
ENDROOT
BRANCH   1  30
ATOM     30  C   UNL     1      16.139 -32.777  26.565  1.00  0.00     0.048 C 
ATOM     31  O   UNL     1      14.979 -32.936  26.094  1.00  0.00    -0.550 OA
ATOM     32  O   UNL     1      16.302 -32.803  27.946  1.00  0.00    -0.550 OA
ENDBRANCH   1  30
BRANCH  27  33
ATOM     33  O   UNL     1      24.836 -31.144  30.363  1.00  0.00    -0.393 OA
ATOM     34  H   UNL     1      25.817 -31.277  30.285  1.00  0.00     0.210 HD
ENDBRANCH  27  33
TORSDOF 2
ENDMDL
MODEL 7
REMARK VINA RESULT:    -1.932      3.688      6.030
REMARK INTER + INTRA:          -2.102
REMARK INTER:                  -2.321
REMARK INTRA:                   0.220
REMARK UNBOUND:                 0.000
REMARK SMILES C[C@H]1[C@@H](C)CC[C@@]2(C(=O)[O-])CC[C@@]3(C)C(=CC[C@H]4[C@]5(C)CC[C@H](O)C(C)(C)[C@@H]5CC[C@]43C)[C@@H]12
REMARK SMILES IDX 7 1 6 2 11 3 33 4 5 5 12 6 15 7 2 8 3 9 13 10 16 11 1 12
REMARK SMILES IDX 4 13 14 14 31 15 17 16 18 17 30 18 32 19 19 20 29 21 28 22
REMARK SMILES IDX 21 23 20 24 25 25 22 26 23 27 26 28 27 29 8 30 9 31 10 32
REMARK SMILES IDX 24 33
REMARK H PARENT 24 34
REMARK Flexibility Score: inf
ROOT
ATOM      1  C   UNL     1      16.586 -29.253  23.699  1.00  0.00     0.017 C 
ATOM      2  C   UNL     1      15.283 -30.098  23.811  1.00  0.00     0.014 C 
ATOM      3  C   UNL     1      16.879 -28.613  25.079  1.00  0.00     0.014 C 
ATOM      4  C   UNL     1      17.861 -30.065  23.215  1.00  0.00     0.030 C 
ATOM      5  C   UNL     1      15.057 -31.023  22.619  1.00  0.00     0.004 C 
ATOM      6  C   UNL     1      17.414 -29.616  26.115  1.00  0.00     0.013 C 
ATOM      7  C   UNL     1      19.024 -30.188  24.244  1.00  0.00    -0.063 C 
ATOM      8  C   UNL     1      17.566 -31.344  22.319  1.00  0.00    -0.003 C 
ATOM      9  C   UNL     1      16.185 -32.047  22.496  1.00  0.00    -0.011 C 
ATOM     10  C   UNL     1      18.812 -30.249  25.760  1.00  0.00    -0.006 C 
ATOM     11  C   UNL     1      20.278 -30.169  23.761  1.00  0.00    -0.027 C 
ATOM     12  C   UNL     1      18.714 -32.371  22.239  1.00  0.00     0.008 C 
ATOM     13  C   UNL     1      16.100 -33.123  23.598  1.00  0.00     0.008 C 
ATOM     14  C   UNL     1      18.775 -31.767  26.105  1.00  0.00     0.017 C 
ATOM     15  C   UNL     1      20.009 -29.534  26.580  1.00  0.00    -0.020 C 
ATOM     16  C   UNL     1      21.529 -30.195  24.575  1.00  0.00     0.032 C 
ATOM     17  C   UNL     1      21.426 -30.088  26.136  1.00  0.00     0.006 C 
ATOM     18  C   UNL     1      20.023 -28.006  26.299  1.00  0.00     0.008 C 
ATOM     19  C   UNL     1      19.771 -29.803  28.113  1.00  0.00     0.012 C 
ATOM     20  C   UNL     1      22.729 -29.341  26.727  1.00  0.00    -0.025 C 
ATOM     21  C   UNL     1      21.213 -27.251  26.907  1.00  0.00     0.005 C 
ATOM     22  C   UNL     1      22.622 -27.779  26.493  1.00  0.00     0.003 C 
ATOM     23  C   UNL     1      22.941 -29.609  28.253  1.00  0.00     0.010 C 
ATOM     24  C   UNL     1      23.970 -29.970  25.994  1.00  0.00     0.012 C 
ATOM     25  C   UNL     1      23.791 -26.923  27.170  1.00  0.00    -0.006 C 
ATOM     26  C   UNL     1      24.127 -28.845  28.875  1.00  0.00     0.033 C 
ATOM     27  C   UNL     1      24.019 -27.325  28.668  1.00  0.00     0.120 C 
ATOM     28  C   UNL     1      25.125 -27.078  26.384  1.00  0.00     0.014 C 
ATOM     29  C   UNL     1      23.479 -25.398  27.109  1.00  0.00     0.014 C 
ENDROOT
BRANCH   1  30
ATOM     30  C   UNL     1      16.275 -28.123  22.709  1.00  0.00     0.048 C 
ATOM     31  O   UNL     1      15.332 -28.234  21.879  1.00  0.00    -0.550 OA
ATOM     32  O   UNL     1      17.089 -26.997  22.640  1.00  0.00    -0.550 OA
ENDBRANCH   1  30
BRANCH  27  33
ATOM     33  O   UNL     1      22.992 -26.820  29.485  1.00  0.00    -0.393 OA
ATOM     34  H   UNL     1      22.646 -25.997  29.050  1.00  0.00     0.210 HD
ENDBRANCH  27  33
TORSDOF 2
ENDMDL
MODEL 8
REMARK VINA RESULT:    -1.898      2.638      4.548
REMARK INTER + INTRA:          -2.064
REMARK INTER:                  -1.881
REMARK INTRA:                  -0.184
REMARK UNBOUND:                 0.000
REMARK SMILES C[C@H]1[C@@H](C)CC[C@@]2(C(=O)[O-])CC[C@@]3(C)C(=CC[C@H]4[C@]5(C)CC[C@H](O)C(C)(C)[C@@H]5CC[C@]43C)[C@@H]12
REMARK SMILES IDX 7 1 6 2 11 3 33 4 5 5 12 6 15 7 2 8 3 9 13 10 16 11 1 12
REMARK SMILES IDX 4 13 14 14 31 15 17 16 18 17 30 18 32 19 19 20 29 21 28 22
REMARK SMILES IDX 21 23 20 24 25 25 22 26 23 27 26 28 27 29 8 30 9 31 10 32
REMARK SMILES IDX 24 33
REMARK H PARENT 24 34
REMARK Flexibility Score: inf
ROOT
ATOM      1  C   UNL     1      18.307 -29.589  24.591  1.00  0.00     0.017 C 
ATOM      2  C   UNL     1      17.044 -30.097  23.834  1.00  0.00     0.014 C 
ATOM      3  C   UNL     1      17.924 -29.328  26.069  1.00  0.00     0.014 C 
ATOM      4  C   UNL     1      19.551 -30.573  24.535  1.00  0.00     0.030 C 
ATOM      5  C   UNL     1      17.356 -30.682  22.461  1.00  0.00     0.004 C 
ATOM      6  C   UNL     1      17.741 -30.618  26.888  1.00  0.00     0.013 C 
ATOM      7  C   UNL     1      20.005 -31.178  25.897  1.00  0.00    -0.063 C 
ATOM      8  C   UNL     1      19.614 -31.536  23.273  1.00  0.00    -0.003 C 
ATOM      9  C   UNL     1      18.267 -31.904  22.577  1.00  0.00    -0.011 C 
ATOM     10  C   UNL     1      19.045 -31.487  27.050  1.00  0.00    -0.006 C 
ATOM     11  C   UNL     1      21.323 -31.369  26.078  1.00  0.00    -0.027 C 
ATOM     12  C   UNL     1      20.520 -32.775  23.434  1.00  0.00     0.008 C 
ATOM     13  C   UNL     1      17.514 -33.125  23.143  1.00  0.00     0.008 C 
ATOM     14  C   UNL     1      18.669 -32.988  26.875  1.00  0.00     0.017 C 
ATOM     15  C   UNL     1      19.727 -31.263  28.499  1.00  0.00    -0.020 C 
ATOM     16  C   UNL     1      21.973 -31.860  27.328  1.00  0.00     0.032 C 
ATOM     17  C   UNL     1      21.101 -32.045  28.619  1.00  0.00     0.006 C 
ATOM     18  C   UNL     1      20.053 -29.760  28.720  1.00  0.00     0.008 C 
ATOM     19  C   UNL     1      18.713 -31.767  29.593  1.00  0.00     0.012 C 
ATOM     20  C   UNL     1      21.995 -31.770  29.934  1.00  0.00    -0.025 C 
ATOM     21  C   UNL     1      20.842 -29.453  30.000  1.00  0.00     0.005 C 
ATOM     22  C   UNL     1      22.196 -30.214  30.149  1.00  0.00     0.003 C 
ATOM     23  C   UNL     1      21.368 -32.380  31.231  1.00  0.00     0.010 C 
ATOM     24  C   UNL     1      23.357 -32.522  29.709  1.00  0.00     0.012 C 
ATOM     25  C   UNL     1      22.943 -29.821  31.507  1.00  0.00    -0.006 C 
ATOM     26  C   UNL     1      22.148 -32.068  32.524  1.00  0.00     0.033 C 
ATOM     27  C   UNL     1      22.330 -30.557  32.747  1.00  0.00     0.120 C 
ATOM     28  C   UNL     1      24.466 -30.135  31.419  1.00  0.00     0.014 C 
ATOM     29  C   UNL     1      22.878 -28.285  31.760  1.00  0.00     0.014 C 
ENDROOT
BRANCH   1  30
ATOM     30  C   UNL     1      18.671 -28.243  23.951  1.00  0.00     0.048 C 
ATOM     31  O   UNL     1      19.850 -27.799  24.009  1.00  0.00    -0.550 OA
ATOM     32  O   UNL     1      17.688 -27.439  23.383  1.00  0.00    -0.550 OA
ENDBRANCH   1  30
BRANCH  27  33
ATOM     33  O   UNL     1      21.093 -29.992  33.105  1.00  0.00    -0.393 OA
ATOM     34  H   UNL     1      21.058 -29.083  32.706  1.00  0.00     0.210 HD
ENDBRANCH  27  33
TORSDOF 2
ENDMDL
MODEL 9
REMARK VINA RESULT:    -1.633      2.304      3.366
REMARK INTER + INTRA:          -1.776
REMARK INTER:                  -1.578
REMARK INTRA:                  -0.198
REMARK UNBOUND:                 0.000
REMARK SMILES C[C@H]1[C@@H](C)CC[C@@]2(C(=O)[O-])CC[C@@]3(C)C(=CC[C@H]4[C@]5(C)CC[C@H](O)C(C)(C)[C@@H]5CC[C@]43C)[C@@H]12
REMARK SMILES IDX 7 1 6 2 11 3 33 4 5 5 12 6 15 7 2 8 3 9 13 10 16 11 1 12
REMARK SMILES IDX 4 13 14 14 31 15 17 16 18 17 30 18 32 19 19 20 29 21 28 22
REMARK SMILES IDX 21 23 20 24 25 25 22 26 23 27 26 28 27 29 8 30 9 31 10 32
REMARK SMILES IDX 24 33
REMARK H PARENT 24 34
REMARK Flexibility Score: inf
ROOT
ATOM      1  C   UNL     1      19.326 -31.893  24.976  1.00  0.00     0.017 C 
ATOM      2  C   UNL     1      19.378 -32.873  23.768  1.00  0.00     0.014 C 
ATOM      3  C   UNL     1      19.569 -32.699  26.277  1.00  0.00     0.014 C 
ATOM      4  C   UNL     1      20.363 -30.693  24.900  1.00  0.00     0.030 C 
ATOM      5  C   UNL     1      19.466 -32.167  22.419  1.00  0.00     0.004 C 
ATOM      6  C   UNL     1      21.035 -33.124  26.466  1.00  0.00     0.013 C 
ATOM      7  C   UNL     1      21.463 -30.670  26.002  1.00  0.00    -0.063 C 
ATOM      8  C   UNL     1      20.811 -30.260  23.438  1.00  0.00    -0.003 C 
ATOM      9  C   UNL     1      20.745 -31.338  22.313  1.00  0.00    -0.011 C 
ATOM     10  C   UNL     1      22.051 -31.933  26.640  1.00  0.00    -0.006 C 
ATOM     11  C   UNL     1      21.858 -29.467  26.453  1.00  0.00    -0.027 C 
ATOM     12  C   UNL     1      22.122 -29.449  23.364  1.00  0.00     0.008 C 
ATOM     13  C   UNL     1      21.992 -32.232  22.147  1.00  0.00     0.008 C 
ATOM     14  C   UNL     1      23.335 -32.246  25.818  1.00  0.00     0.017 C 
ATOM     15  C   UNL     1      22.441 -31.714  28.195  1.00  0.00    -0.020 C 
ATOM     16  C   UNL     1      22.837 -29.224  27.554  1.00  0.00     0.032 C 
ATOM     17  C   UNL     1      23.368 -30.443  28.385  1.00  0.00     0.006 C 
ATOM     18  C   UNL     1      21.165 -31.462  29.046  1.00  0.00     0.008 C 
ATOM     19  C   UNL     1      23.181 -33.011  28.694  1.00  0.00     0.012 C 
ATOM     20  C   UNL     1      23.689 -29.982  29.899  1.00  0.00    -0.025 C 
ATOM     21  C   UNL     1      21.431 -31.091  30.511  1.00  0.00     0.005 C 
ATOM     22  C   UNL     1      22.347 -29.847  30.730  1.00  0.00     0.003 C 
ATOM     23  C   UNL     1      24.645 -30.971  30.643  1.00  0.00     0.010 C 
ATOM     24  C   UNL     1      24.464 -28.618  29.792  1.00  0.00     0.012 C 
ATOM     25  C   UNL     1      22.556 -29.539  32.285  1.00  0.00    -0.006 C 
ATOM     26  C   UNL     1      24.909 -30.612  32.119  1.00  0.00     0.033 C 
ATOM     27  C   UNL     1      23.610 -30.498  32.936  1.00  0.00     0.120 C 
ATOM     28  C   UNL     1      22.993 -28.061  32.508  1.00  0.00     0.014 C 
ATOM     29  C   UNL     1      21.216 -29.670  33.069  1.00  0.00     0.014 C 
ENDROOT
BRANCH   1  30
ATOM     30  C   UNL     1      17.893 -31.347  25.018  1.00  0.00     0.048 C 
ATOM     31  O   UNL     1      16.933 -32.081  25.379  1.00  0.00    -0.550 OA
ATOM     32  O   UNL     1      17.610 -30.064  24.560  1.00  0.00    -0.550 OA
ENDBRANCH   1  30
BRANCH  27  33
ATOM     33  O   UNL     1      23.071 -31.783  33.125  1.00  0.00    -0.393 OA
ATOM     34  H   UNL     1      22.190 -31.671  33.570  1.00  0.00     0.210 HD
ENDBRANCH  27  33
TORSDOF 2
ENDMDL
