MODEL 1
REMARK VINA RESULT:    -5.880      0.000      0.000
REMARK INTER + INTRA:          -6.052
REMARK INTER:                  -6.052
REMARK INTRA:                   0.000
REMARK UNBOUND:                 0.000
REMARK SMILES O=c1ccc2ccc(O)cc2o1
REMARK SMILES IDX 6 1 7 2 8 3 10 4 11 5 5 6 4 7 3 8 2 9 1 10 12 11 9 12
REMARK H PARENT 9 13
REMARK Flexibility Score: inf
ROOT
ATOM      1  C   UNL     1     -11.154  -8.314  39.730  1.00  0.00     0.016 A 
ATOM      2  C   UNL     1     -10.296  -9.213  39.091  1.00  0.00     0.047 A 
ATOM      3  C   UNL     1     -10.413  -9.447  37.713  1.00  0.00     0.119 A 
ATOM      4  C   UNL     1     -11.395  -8.778  36.972  1.00  0.00     0.094 A 
ATOM      5  C   UNL     1     -12.260  -7.876  37.602  1.00  0.00     0.142 A 
ATOM      6  C   UNL     1     -12.139  -7.643  38.990  1.00  0.00     0.018 A 
ATOM      7  C   UNL     1     -13.017  -6.736  39.592  1.00  0.00     0.019 A 
ATOM      8  C   UNL     1     -13.979  -6.094  38.813  1.00  0.00     0.094 A 
ATOM      9  C   UNL     1     -14.040  -6.376  37.443  1.00  0.00     0.336 A 
ATOM     10  O   UNL     1     -14.901  -5.806  36.723  1.00  0.00    -0.246 OA
ATOM     11  O   UNL     1     -13.191  -7.242  36.895  1.00  0.00    -0.423 OA
ENDROOT
BRANCH   3  12
ATOM     12  O   UNL     1      -9.560 -10.342  37.069  1.00  0.00    -0.508 OA
ATOM     13  H   UNL     1      -8.684 -10.632  37.488  1.00  0.00     0.293 HD
ENDBRANCH   3  12
TORSDOF 1
ENDMDL
MODEL 2
REMARK VINA RESULT:    -5.863      1.632      2.386
REMARK INTER + INTRA:          -6.035
REMARK INTER:                  -6.035
REMARK INTRA:                   0.000
REMARK UNBOUND:                 0.000
REMARK SMILES O=c1ccc2ccc(O)cc2o1
REMARK SMILES IDX 6 1 7 2 8 3 10 4 11 5 5 6 4 7 3 8 2 9 1 10 12 11 9 12
REMARK H PARENT 9 13
REMARK Flexibility Score: inf
ROOT
ATOM      1  C   UNL     1     -12.105  -8.394  37.025  1.00  0.00     0.016 A 
ATOM      2  C   UNL     1     -11.168  -9.044  37.834  1.00  0.00     0.047 A 
ATOM      3  C   UNL     1     -11.062  -8.721  39.195  1.00  0.00     0.119 A 
ATOM      4  C   UNL     1     -11.897  -7.741  39.747  1.00  0.00     0.094 A 
ATOM      5  C   UNL     1     -12.836  -7.084  38.945  1.00  0.00     0.142 A 
ATOM      6  C   UNL     1     -12.941  -7.412  37.575  1.00  0.00     0.018 A 
ATOM      7  C   UNL     1     -13.889  -6.739  36.800  1.00  0.00     0.019 A 
ATOM      8  C   UNL     1     -14.698  -5.770  37.394  1.00  0.00     0.094 A 
ATOM      9  C   UNL     1     -14.537  -5.497  38.758  1.00  0.00     0.336 A 
ATOM     10  O   UNL     1     -15.258  -4.627  39.313  1.00  0.00    -0.246 OA
ATOM     11  O   UNL     1     -13.627  -6.154  39.474  1.00  0.00    -0.423 OA
ENDROOT
BRANCH   3  12
ATOM     12  O   UNL     1     -10.131  -9.366  40.007  1.00  0.00    -0.508 OA
ATOM     13  H   UNL     1      -9.135  -9.237  39.876  1.00  0.00     0.293 HD
ENDBRANCH   3  12
TORSDOF 1
ENDMDL
MODEL 3
REMARK VINA RESULT:    -5.796      1.691      4.839
REMARK INTER + INTRA:          -5.966
REMARK INTER:                  -5.966
REMARK INTRA:                   0.000
REMARK UNBOUND:                 0.000
REMARK SMILES O=c1ccc2ccc(O)cc2o1
REMARK SMILES IDX 6 1 7 2 8 3 10 4 11 5 5 6 4 7 3 8 2 9 1 10 12 11 9 12
REMARK H PARENT 9 13
REMARK Flexibility Score: inf
ROOT
ATOM      1  C   UNL     1     -13.795  -6.798  36.790  1.00  0.00     0.016 A 
ATOM      2  C   UNL     1     -14.630  -5.828  37.353  1.00  0.00     0.047 A 
ATOM      3  C   UNL     1     -14.538  -5.521  38.718  1.00  0.00     0.119 A 
ATOM      4  C   UNL     1     -13.607  -6.188  39.523  1.00  0.00     0.094 A 
ATOM      5  C   UNL     1     -12.767  -7.161  38.970  1.00  0.00     0.142 A 
ATOM      6  C   UNL     1     -12.861  -7.468  37.594  1.00  0.00     0.018 A 
ATOM      7  C   UNL     1     -12.009  -8.444  37.069  1.00  0.00     0.019 A 
ATOM      8  C   UNL     1     -11.098  -9.082  37.911  1.00  0.00     0.094 A 
ATOM      9  C   UNL     1     -11.061  -8.726  39.264  1.00  0.00     0.336 A 
ATOM     10  O   UNL     1     -10.245  -9.290  40.040  1.00  0.00    -0.246 OA
ATOM     11  O   UNL     1     -11.883  -7.792  39.738  1.00  0.00    -0.423 OA
ENDROOT
BRANCH   3  12
ATOM     12  O   UNL     1     -15.367  -4.555  39.285  1.00  0.00    -0.508 OA
ATOM     13  H   UNL     1     -16.356  -4.723  39.427  1.00  0.00     0.293 HD
ENDBRANCH   3  12
TORSDOF 1
ENDMDL
MODEL 4
REMARK VINA RESULT:    -5.564      0.811      4.222
REMARK INTER + INTRA:          -5.727
REMARK INTER:                  -5.727
REMARK INTRA:                   0.000
REMARK UNBOUND:                 0.000
REMARK SMILES O=c1ccc2ccc(O)cc2o1
REMARK SMILES IDX 6 1 7 2 8 3 10 4 11 5 5 6 4 7 3 8 2 9 1 10 12 11 9 12
REMARK H PARENT 9 13
REMARK Flexibility Score: inf
ROOT
ATOM      1  C   UNL     1     -13.027  -6.701  39.716  1.00  0.00     0.016 A 
ATOM      2  C   UNL     1     -13.994  -6.061  38.935  1.00  0.00     0.047 A 
ATOM      3  C   UNL     1     -14.091  -6.333  37.563  1.00  0.00     0.119 A 
ATOM      4  C   UNL     1     -13.214  -7.250  36.969  1.00  0.00     0.094 A 
ATOM      5  C   UNL     1     -12.242  -7.895  37.742  1.00  0.00     0.142 A 
ATOM      6  C   UNL     1     -12.148  -7.619  39.124  1.00  0.00     0.018 A 
ATOM      7  C   UNL     1     -11.167  -8.280  39.870  1.00  0.00     0.019 A 
ATOM      8  C   UNL     1     -10.316  -9.184  39.234  1.00  0.00     0.094 A 
ATOM      9  C   UNL     1     -10.469  -9.407  37.860  1.00  0.00     0.336 A 
ATOM     10  O   UNL     1      -9.711 -10.220  37.268  1.00  0.00    -0.246 OA
ATOM     11  O   UNL     1     -11.411  -8.766  37.174  1.00  0.00    -0.423 OA
ENDROOT
BRANCH   3  12
ATOM     12  O   UNL     1     -15.053  -5.699  36.779  1.00  0.00    -0.508 OA
ATOM     13  H   UNL     1     -15.758  -6.225  36.277  1.00  0.00     0.293 HD
ENDBRANCH   3  12
TORSDOF 1
ENDMDL
MODEL 5
REMARK VINA RESULT:    -5.466      9.313     10.717
REMARK INTER + INTRA:          -5.626
REMARK INTER:                  -5.626
REMARK INTRA:                   0.000
REMARK UNBOUND:                 0.000
REMARK SMILES O=c1ccc2ccc(O)cc2o1
REMARK SMILES IDX 6 1 7 2 8 3 10 4 11 5 5 6 4 7 3 8 2 9 1 10 12 11 9 12
REMARK H PARENT 9 13
REMARK Flexibility Score: inf
ROOT
ATOM      1  C   UNL     1     -16.171 -10.180  44.823  1.00  0.00     0.016 A 
ATOM      2  C   UNL     1     -16.922  -9.083  44.391  1.00  0.00     0.047 A 
ATOM      3  C   UNL     1     -17.376  -8.129  45.313  1.00  0.00     0.119 A 
ATOM      4  C   UNL     1     -17.077  -8.274  46.674  1.00  0.00     0.094 A 
ATOM      5  C   UNL     1     -16.327  -9.369  47.116  1.00  0.00     0.142 A 
ATOM      6  C   UNL     1     -15.870 -10.329  46.185  1.00  0.00     0.018 A 
ATOM      7  C   UNL     1     -15.122 -11.412  46.656  1.00  0.00     0.019 A 
ATOM      8  C   UNL     1     -14.850 -11.514  48.020  1.00  0.00     0.094 A 
ATOM      9  C   UNL     1     -15.335 -10.525  48.884  1.00  0.00     0.336 A 
ATOM     10  O   UNL     1     -15.100 -10.599  50.119  1.00  0.00    -0.246 OA
ATOM     11  O   UNL     1     -16.045  -9.504  48.409  1.00  0.00    -0.423 OA
ENDROOT
BRANCH   3  12
ATOM     12  O   UNL     1     -18.125  -7.033  44.890  1.00  0.00    -0.508 OA
ATOM     13  H   UNL     1     -18.696  -7.073  44.054  1.00  0.00     0.293 HD
ENDBRANCH   3  12
TORSDOF 1
ENDMDL
MODEL 6
REMARK VINA RESULT:    -5.315      7.972      9.369
REMARK INTER + INTRA:          -5.470
REMARK INTER:                  -5.470
REMARK INTRA:                   0.000
REMARK UNBOUND:                 0.000
REMARK SMILES O=c1ccc2ccc(O)cc2o1
REMARK SMILES IDX 6 1 7 2 8 3 10 4 11 5 5 6 4 7 3 8 2 9 1 10 12 11 9 12
REMARK H PARENT 9 13
REMARK Flexibility Score: inf
ROOT
ATOM      1  C   UNL     1     -17.395  -9.572  43.350  1.00  0.00     0.016 A 
ATOM      2  C   UNL     1     -17.893  -8.328  42.953  1.00  0.00     0.047 A 
ATOM      3  C   UNL     1     -17.631  -7.182  43.718  1.00  0.00     0.119 A 
ATOM      4  C   UNL     1     -16.867  -7.283  44.887  1.00  0.00     0.094 A 
ATOM      5  C   UNL     1     -16.364  -8.524  45.294  1.00  0.00     0.142 A 
ATOM      6  C   UNL     1     -16.629  -9.676  44.521  1.00  0.00     0.018 A 
ATOM      7  C   UNL     1     -16.113 -10.902  44.952  1.00  0.00     0.019 A 
ATOM      8  C   UNL     1     -15.357 -10.952  46.123  1.00  0.00     0.094 A 
ATOM      9  C   UNL     1     -15.135  -9.769  46.839  1.00  0.00     0.336 A 
ATOM     10  O   UNL     1     -14.455  -9.794  47.898  1.00  0.00    -0.246 OA
ATOM     11  O   UNL     1     -15.638  -8.616  46.405  1.00  0.00    -0.423 OA
ENDROOT
BRANCH   3  12
ATOM     12  O   UNL     1     -18.125  -5.939  43.327  1.00  0.00    -0.508 OA
ATOM     13  H   UNL     1     -17.816  -5.083  43.773  1.00  0.00     0.293 HD
ENDBRANCH   3  12
TORSDOF 1
ENDMDL
MODEL 7
REMARK VINA RESULT:    -5.265      2.539      4.483
REMARK INTER + INTRA:          -5.419
REMARK INTER:                  -5.419
REMARK INTRA:                   0.000
REMARK UNBOUND:                 0.000
REMARK SMILES O=c1ccc2ccc(O)cc2o1
REMARK SMILES IDX 6 1 7 2 8 3 10 4 11 5 5 6 4 7 3 8 2 9 1 10 12 11 9 12
REMARK H PARENT 9 13
REMARK Flexibility Score: inf
ROOT
ATOM      1  C   UNL     1     -10.654  -9.849  37.893  1.00  0.00     0.016 A 
ATOM      2  C   UNL     1     -11.435  -9.095  37.011  1.00  0.00     0.047 A 
ATOM      3  C   UNL     1     -12.161  -7.988  37.477  1.00  0.00     0.119 A 
ATOM      4  C   UNL     1     -12.105  -7.636  38.831  1.00  0.00     0.094 A 
ATOM      5  C   UNL     1     -11.327  -8.385  39.721  1.00  0.00     0.142 A 
ATOM      6  C   UNL     1     -10.597  -9.499  39.249  1.00  0.00     0.018 A 
ATOM      7  C   UNL     1      -9.828 -10.227  40.162  1.00  0.00     0.019 A 
ATOM      8  C   UNL     1      -9.804  -9.838  41.501  1.00  0.00     0.094 A 
ATOM      9  C   UNL     1     -10.554  -8.724  41.897  1.00  0.00     0.336 A 
ATOM     10  O   UNL     1     -10.545  -8.357  43.101  1.00  0.00    -0.246 OA
ATOM     11  O   UNL     1     -11.276  -8.047  41.007  1.00  0.00    -0.423 OA
ENDROOT
BRANCH   3  12
ATOM     12  O   UNL     1     -12.940  -7.233  36.604  1.00  0.00    -0.508 OA
ATOM     13  H   UNL     1     -13.010  -6.226  36.693  1.00  0.00     0.293 HD
ENDBRANCH   3  12
TORSDOF 1
ENDMDL
MODEL 8
REMARK VINA RESULT:    -5.231      9.066     10.329
REMARK INTER + INTRA:          -5.383
REMARK INTER:                  -5.383
REMARK INTRA:                   0.000
REMARK UNBOUND:                 0.000
REMARK SMILES O=c1ccc2ccc(O)cc2o1
REMARK SMILES IDX 6 1 7 2 8 3 10 4 11 5 5 6 4 7 3 8 2 9 1 10 12 11 9 12
REMARK H PARENT 9 13
REMARK Flexibility Score: inf
ROOT
ATOM      1  C   UNL     1     -17.314  -7.589  45.840  1.00  0.00     0.016 A 
ATOM      2  C   UNL     1     -17.705  -8.077  44.590  1.00  0.00     0.047 A 
ATOM      3  C   UNL     1     -17.463  -9.415  44.244  1.00  0.00     0.119 A 
ATOM      4  C   UNL     1     -16.825 -10.267  45.154  1.00  0.00     0.094 A 
ATOM      5  C   UNL     1     -16.429  -9.788  46.407  1.00  0.00     0.142 A 
ATOM      6  C   UNL     1     -16.675  -8.440  46.753  1.00  0.00     0.018 A 
ATOM      7  C   UNL     1     -16.268  -7.990  48.013  1.00  0.00     0.019 A 
ATOM      8  C   UNL     1     -15.636  -8.876  48.885  1.00  0.00     0.094 A 
ATOM      9  C   UNL     1     -15.425 -10.198  48.474  1.00  0.00     0.336 A 
ATOM     10  O   UNL     1     -14.857 -11.013  49.247  1.00  0.00    -0.246 OA
ATOM     11  O   UNL     1     -15.823 -10.600  47.269  1.00  0.00    -0.423 OA
ENDROOT
BRANCH   3  12
ATOM     12  O   UNL     1     -17.850  -9.908  42.999  1.00  0.00    -0.508 OA
ATOM     13  H   UNL     1     -17.180 -10.319  42.361  1.00  0.00     0.293 HD
ENDBRANCH   3  12
TORSDOF 1
ENDMDL
MODEL 9
REMARK VINA RESULT:    -5.113      4.917      6.770
REMARK INTER + INTRA:          -5.263
REMARK INTER:                  -5.263
REMARK INTRA:                   0.000
REMARK UNBOUND:                 0.000
REMARK SMILES O=c1ccc2ccc(O)cc2o1
REMARK SMILES IDX 6 1 7 2 8 3 10 4 11 5 5 6 4 7 3 8 2 9 1 10 12 11 9 12
REMARK H PARENT 9 13
REMARK Flexibility Score: inf
ROOT
ATOM      1  C   UNL     1     -14.881  -5.751  40.682  1.00  0.00     0.016 A 
ATOM      2  C   UNL     1     -15.524  -5.781  39.441  1.00  0.00     0.047 A 
ATOM      3  C   UNL     1     -16.860  -6.199  39.345  1.00  0.00     0.119 A 
ATOM      4  C   UNL     1     -17.554  -6.589  40.497  1.00  0.00     0.094 A 
ATOM      5  C   UNL     1     -16.919  -6.563  41.744  1.00  0.00     0.142 A 
ATOM      6  C   UNL     1     -15.574  -6.141  41.837  1.00  0.00     0.018 A 
ATOM      7  C   UNL     1     -14.967  -6.125  43.096  1.00  0.00     0.019 A 
ATOM      8  C   UNL     1     -15.699  -6.523  44.215  1.00  0.00     0.094 A 
ATOM      9  C   UNL     1     -17.028  -6.929  44.046  1.00  0.00     0.336 A 
ATOM     10  O   UNL     1     -17.705  -7.291  45.044  1.00  0.00    -0.246 OA
ATOM     11  O   UNL     1     -17.582  -6.934  42.836  1.00  0.00    -0.423 OA
ENDROOT
BRANCH   3  12
ATOM     12  O   UNL     1     -17.506  -6.232  38.111  1.00  0.00    -0.508 OA
ATOM     13  H   UNL     1     -17.962  -5.411  37.731  1.00  0.00     0.293 HD
ENDBRANCH   3  12
TORSDOF 1
ENDMDL
