MODEL 1
REMARK VINA RESULT:    -3.816      0.000      0.000
REMARK INTER + INTRA:          -8.718
REMARK INTER:                  -7.162
REMARK INTRA:                  -1.556
REMARK UNBOUND:                -1.556
REMARK SMILES CCCCCCCCC=CCCCCCCCC(=O)[O-]
REMARK SMILES IDX 10 1 9 2 11 3 12 4 13 5 14 6 15 7 16 8 17 9 18 10 19 11
REMARK SMILES IDX 20 12 8 13 7 14 6 15 5 16 4 17 3 18 2 19 1 20
REMARK H PARENT
REMARK Flexibility Score: inf
ROOT
ATOM      1  C   UNL     1       2.232  14.498  17.684  1.00  0.00    -0.031 C 
ATOM      2  C   UNL     1       1.290  15.446  17.521  1.00  0.00    -0.031 C 
ENDROOT
BRANCH   1   3
ATOM      3  C   UNL     1       2.608  13.875  19.006  1.00  0.00     0.027 C 
BRANCH   3   4
ATOM      4  C   UNL     1       2.740  12.348  18.897  1.00  0.00     0.004 C 
BRANCH   4   5
ATOM      5  C   UNL     1       3.759  11.923  17.823  1.00  0.00     0.000 C 
BRANCH   5   6
ATOM      6  C   UNL     1       5.208  12.286  18.212  1.00  0.00     0.000 C 
BRANCH   6   7
ATOM      7  C   UNL     1       6.081  12.710  17.016  1.00  0.00     0.000 C 
BRANCH   7   8
ATOM      8  C   UNL     1       5.311  13.351  15.849  1.00  0.00     0.006 C 
BRANCH   8   9
ATOM      9  C   UNL     1       5.151  12.400  14.655  1.00  0.00     0.053 C 
BRANCH   9  10
ATOM     10  C   UNL     1       3.783  12.530  14.062  1.00  0.00     0.041 C 
ATOM     11  O   UNL     1       3.456  11.835  13.062  1.00  0.00    -0.550 OA
ATOM     12  O   UNL     1       2.886  13.453  14.583  1.00  0.00    -0.550 OA
ENDBRANCH   9  10
ENDBRANCH   8   9
ENDBRANCH   7   8
ENDBRANCH   6   7
ENDBRANCH   5   6
ENDBRANCH   4   5
ENDBRANCH   3   4
ENDBRANCH   1   3
BRANCH   2  13
ATOM     13  C   UNL     1       0.558  16.131  18.646  1.00  0.00     0.027 C 
BRANCH  13  14
ATOM     14  C   UNL     1      -0.930  16.264  18.305  1.00  0.00     0.004 C 
BRANCH  14  15
ATOM     15  C   UNL     1      -1.806  16.131  19.559  1.00  0.00     0.000 C 
BRANCH  15  16
ATOM     16  C   UNL     1      -1.725  17.362  20.484  1.00  0.00     0.000 C 
BRANCH  16  17
ATOM     17  C   UNL     1      -2.041  18.712  19.811  1.00  0.00    -0.000 C 
BRANCH  17  18
ATOM     18  C   UNL     1      -0.841  19.673  19.799  1.00  0.00    -0.000 C 
BRANCH  18  19
ATOM     19  C   UNL     1      -0.351  19.991  18.374  1.00  0.00    -0.003 C 
ATOM     20  C   UNL     1       1.140  19.715  18.177  1.00  0.00     0.004 C 
ENDBRANCH  18  19
ENDBRANCH  17  18
ENDBRANCH  16  17
ENDBRANCH  15  16
ENDBRANCH  14  15
ENDBRANCH  13  14
ENDBRANCH   2  13
TORSDOF 15
ENDMDL
MODEL 2
REMARK VINA RESULT:    -3.720      2.989      8.048
REMARK INTER + INTRA:          -8.538
REMARK INTER:                  -7.586
REMARK INTRA:                  -0.952
REMARK UNBOUND:                -1.556
REMARK SMILES CCCCCCCCC=CCCCCCCCC(=O)[O-]
REMARK SMILES IDX 10 1 9 2 11 3 12 4 13 5 14 6 15 7 16 8 17 9 18 10 19 11
REMARK SMILES IDX 20 12 8 13 7 14 6 15 5 16 4 17 3 18 2 19 1 20
REMARK H PARENT
REMARK Flexibility Score: inf
ROOT
ATOM      1  C   UNL     1       2.697  12.550  18.806  1.00  0.00    -0.031 C 
ATOM      2  C   UNL     1       3.794  11.773  18.879  1.00  0.00    -0.031 C 
ENDROOT
BRANCH   1   3
ATOM      3  C   UNL     1       2.679  14.040  19.045  1.00  0.00     0.027 C 
BRANCH   3   4
ATOM      4  C   UNL     1       1.863  14.778  17.973  1.00  0.00     0.004 C 
BRANCH   4   5
ATOM      5  C   UNL     1       1.250  16.089  18.501  1.00  0.00     0.000 C 
BRANCH   5   6
ATOM      6  C   UNL     1      -0.219  16.269  18.059  1.00  0.00     0.000 C 
BRANCH   6   7
ATOM      7  C   UNL     1      -1.234  16.097  19.205  1.00  0.00     0.000 C 
BRANCH   7   8
ATOM      8  C   UNL     1      -1.660  17.404  19.894  1.00  0.00     0.006 C 
BRANCH   8   9
ATOM      9  C   UNL     1      -1.767  18.580  18.914  1.00  0.00     0.053 C 
BRANCH   9  10
ATOM     10  C   UNL     1      -0.648  19.549  19.132  1.00  0.00     0.041 C 
ATOM     11  O   UNL     1       0.096  19.887  18.173  1.00  0.00    -0.550 OA
ATOM     12  O   UNL     1      -0.396  20.041  20.406  1.00  0.00    -0.550 OA
ENDBRANCH   9  10
ENDBRANCH   8   9
ENDBRANCH   7   8
ENDBRANCH   6   7
ENDBRANCH   5   6
ENDBRANCH   4   5
ENDBRANCH   3   4
ENDBRANCH   1   3
BRANCH   2  13
ATOM     13  C   UNL     1       5.149  12.242  19.343  1.00  0.00     0.027 C 
BRANCH  13  14
ATOM     14  C   UNL     1       6.053  12.520  18.137  1.00  0.00     0.004 C 
BRANCH  14  15
ATOM     15  C   UNL     1       5.240  12.620  16.838  1.00  0.00     0.000 C 
BRANCH  15  16
ATOM     16  C   UNL     1       6.114  12.903  15.600  1.00  0.00     0.000 C 
BRANCH  16  17
ATOM     17  C   UNL     1       5.368  12.889  14.252  1.00  0.00    -0.000 C 
BRANCH  17  18
ATOM     18  C   UNL     1       4.269  11.815  14.184  1.00  0.00    -0.000 C 
BRANCH  18  19
ATOM     19  C   UNL     1       2.873  12.411  13.925  1.00  0.00    -0.003 C 
ATOM     20  C   UNL     1       2.590  13.659  14.761  1.00  0.00     0.004 C 
ENDBRANCH  18  19
ENDBRANCH  17  18
ENDBRANCH  16  17
ENDBRANCH  15  16
ENDBRANCH  14  15
ENDBRANCH  13  14
ENDBRANCH   2  13
TORSDOF 15
ENDMDL
MODEL 3
REMARK VINA RESULT:    -3.556      2.989      7.863
REMARK INTER + INTRA:          -8.230
REMARK INTER:                  -7.086
REMARK INTRA:                  -1.145
REMARK UNBOUND:                -1.556
REMARK SMILES CCCCCCCCC=CCCCCCCCC(=O)[O-]
REMARK SMILES IDX 10 1 9 2 11 3 12 4 13 5 14 6 15 7 16 8 17 9 18 10 19 11
REMARK SMILES IDX 20 12 8 13 7 14 6 15 5 16 4 17 3 18 2 19 1 20
REMARK H PARENT
REMARK Flexibility Score: inf
ROOT
ATOM      1  C   UNL     1       2.481  13.584  14.709  1.00  0.00    -0.031 C 
ATOM      2  C   UNL     1       3.225  12.708  14.008  1.00  0.00    -0.031 C 
ENDROOT
BRANCH   1   3
ATOM      3  C   UNL     1       2.799  14.061  16.105  1.00  0.00     0.027 C 
BRANCH   3   4
ATOM      4  C   UNL     1       1.683  14.955  16.668  1.00  0.00     0.004 C 
BRANCH   4   5
ATOM      5  C   UNL     1       1.828  15.189  18.184  1.00  0.00     0.000 C 
BRANCH   5   6
ATOM      6  C   UNL     1       1.086  16.458  18.655  1.00  0.00     0.000 C 
BRANCH   6   7
ATOM      7  C   UNL     1      -0.426  16.434  18.362  1.00  0.00     0.000 C 
BRANCH   7   8
ATOM      8  C   UNL     1      -1.261  17.428  19.186  1.00  0.00     0.006 C 
BRANCH   8   9
ATOM      9  C   UNL     1      -0.507  18.732  19.478  1.00  0.00     0.053 C 
BRANCH   9  10
ATOM     10  C   UNL     1      -0.452  19.592  18.254  1.00  0.00     0.041 C 
ATOM     11  O   UNL     1       0.653  20.029  17.835  1.00  0.00    -0.550 OA
ATOM     12  O   UNL     1      -1.627  19.950  17.606  1.00  0.00    -0.550 OA
ENDBRANCH   9  10
ENDBRANCH   8   9
ENDBRANCH   7   8
ENDBRANCH   6   7
ENDBRANCH   5   6
ENDBRANCH   4   5
ENDBRANCH   3   4
ENDBRANCH   1   3
BRANCH   2  13
ATOM     13  C   UNL     1       4.416  11.963  14.553  1.00  0.00     0.027 C 
BRANCH  13  14
ATOM     14  C   UNL     1       5.680  12.820  14.423  1.00  0.00     0.004 C 
BRANCH  14  15
ATOM     15  C   UNL     1       6.308  13.103  15.795  1.00  0.00     0.000 C 
BRANCH  15  16
ATOM     16  C   UNL     1       5.600  12.363  16.947  1.00  0.00     0.000 C 
BRANCH  16  17
ATOM     17  C   UNL     1       6.205  12.593  18.346  1.00  0.00    -0.000 C 
BRANCH  17  18
ATOM     18  C   UNL     1       5.266  12.161  19.485  1.00  0.00    -0.000 C 
BRANCH  18  19
ATOM     19  C   UNL     1       3.783  12.415  19.157  1.00  0.00    -0.003 C 
ATOM     20  C   UNL     1       3.053  11.161  18.673  1.00  0.00     0.004 C 
ENDBRANCH  18  19
ENDBRANCH  17  18
ENDBRANCH  16  17
ENDBRANCH  15  16
ENDBRANCH  14  15
ENDBRANCH  13  14
ENDBRANCH   2  13
TORSDOF 15
ENDMDL
MODEL 4
REMARK VINA RESULT:    -3.513      2.750      7.958
REMARK INTER + INTRA:          -8.150
REMARK INTER:                  -6.935
REMARK INTRA:                  -1.215
REMARK UNBOUND:                -1.556
REMARK SMILES CCCCCCCCC=CCCCCCCCC(=O)[O-]
REMARK SMILES IDX 10 1 9 2 11 3 12 4 13 5 14 6 15 7 16 8 17 9 18 10 19 11
REMARK SMILES IDX 20 12 8 13 7 14 6 15 5 16 4 17 3 18 2 19 1 20
REMARK H PARENT
REMARK Flexibility Score: inf
ROOT
ATOM      1  C   UNL     1       1.252  15.556  17.582  1.00  0.00    -0.031 C 
ATOM      2  C   UNL     1       2.180  14.602  17.791  1.00  0.00    -0.031 C 
ENDROOT
BRANCH   1   3
ATOM      3  C   UNL     1       0.425  16.204  18.665  1.00  0.00     0.027 C 
BRANCH   3   4
ATOM      4  C   UNL     1      -1.078  16.125  18.355  1.00  0.00     0.004 C 
BRANCH   4   5
ATOM      5  C   UNL     1      -1.948  16.462  19.581  1.00  0.00     0.000 C 
BRANCH   5   6
ATOM      6  C   UNL     1      -1.349  17.605  20.429  1.00  0.00     0.000 C 
BRANCH   6   7
ATOM      7  C   UNL     1      -1.966  18.985  20.129  1.00  0.00     0.000 C 
BRANCH   7   8
ATOM      8  C   UNL     1      -0.948  20.121  19.936  1.00  0.00     0.006 C 
BRANCH   8   9
ATOM      9  C   UNL     1       0.281  19.682  19.129  1.00  0.00     0.053 C 
BRANCH   9  10
ATOM     10  C   UNL     1       0.085  19.975  17.674  1.00  0.00     0.041 C 
ATOM     11  O   UNL     1      -1.076  20.043  17.191  1.00  0.00    -0.550 OA
ATOM     12  O   UNL     1       1.188  20.123  16.843  1.00  0.00    -0.550 OA
ENDBRANCH   9  10
ENDBRANCH   8   9
ENDBRANCH   7   8
ENDBRANCH   6   7
ENDBRANCH   5   6
ENDBRANCH   4   5
ENDBRANCH   3   4
ENDBRANCH   1   3
BRANCH   2  13
ATOM     13  C   UNL     1       2.442  13.935  19.117  1.00  0.00     0.027 C 
BRANCH  13  14
ATOM     14  C   UNL     1       3.124  12.579  18.902  1.00  0.00     0.004 C 
BRANCH  14  15
ATOM     15  C   UNL     1       3.204  12.223  17.410  1.00  0.00     0.000 C 
BRANCH  15  16
ATOM     16  C   UNL     1       4.641  12.270  16.855  1.00  0.00     0.000 C 
BRANCH  16  17
ATOM     17  C   UNL     1       4.804  13.018  15.517  1.00  0.00    -0.000 C 
BRANCH  17  18
ATOM     18  C   UNL     1       3.461  13.333  14.837  1.00  0.00    -0.000 C 
BRANCH  18  19
ATOM     19  C   UNL     1       3.021  12.231  13.857  1.00  0.00    -0.003 C 
ATOM     20  C   UNL     1       4.160  11.290  13.461  1.00  0.00     0.004 C 
ENDBRANCH  18  19
ENDBRANCH  17  18
ENDBRANCH  16  17
ENDBRANCH  15  16
ENDBRANCH  14  15
ENDBRANCH  13  14
ENDBRANCH   2  13
TORSDOF 15
ENDMDL
MODEL 5
REMARK VINA RESULT:    -3.226      2.136      2.976
REMARK INTER + INTRA:          -7.611
REMARK INTER:                  -6.312
REMARK INTRA:                  -1.299
REMARK UNBOUND:                -1.556
REMARK SMILES CCCCCCCCC=CCCCCCCCC(=O)[O-]
REMARK SMILES IDX 10 1 9 2 11 3 12 4 13 5 14 6 15 7 16 8 17 9 18 10 19 11
REMARK SMILES IDX 20 12 8 13 7 14 6 15 5 16 4 17 3 18 2 19 1 20
REMARK H PARENT
REMARK Flexibility Score: inf
ROOT
ATOM      1  C   UNL     1       2.370  14.491  17.493  1.00  0.00    -0.031 C 
ATOM      2  C   UNL     1       1.663  15.225  18.373  1.00  0.00    -0.031 C 
ENDROOT
BRANCH   1   3
ATOM      3  C   UNL     1       2.282  14.627  15.992  1.00  0.00     0.027 C 
BRANCH   3   4
ATOM      4  C   UNL     1       2.374  13.262  15.292  1.00  0.00     0.004 C 
BRANCH   4   5
ATOM      5  C   UNL     1       3.538  13.196  14.285  1.00  0.00     0.000 C 
BRANCH   5   6
ATOM      6  C   UNL     1       4.679  12.274  14.767  1.00  0.00     0.000 C 
BRANCH   6   7
ATOM      7  C   UNL     1       5.851  13.031  15.419  1.00  0.00     0.000 C 
BRANCH   7   8
ATOM      8  C   UNL     1       5.947  12.884  16.947  1.00  0.00     0.006 C 
BRANCH   8   9
ATOM      9  C   UNL     1       4.721  12.185  17.550  1.00  0.00     0.053 C 
BRANCH   9  10
ATOM     10  C   UNL     1       4.873  12.048  19.033  1.00  0.00     0.041 C 
ATOM     11  O   UNL     1       3.862  11.845  19.758  1.00  0.00    -0.550 OA
ATOM     12  O   UNL     1       6.124  12.194  19.618  1.00  0.00    -0.550 OA
ENDBRANCH   9  10
ENDBRANCH   8   9
ENDBRANCH   7   8
ENDBRANCH   6   7
ENDBRANCH   5   6
ENDBRANCH   4   5
ENDBRANCH   3   4
ENDBRANCH   1   3
BRANCH   2  13
ATOM     13  C   UNL     1       0.576  16.200  18.001  1.00  0.00     0.027 C 
BRANCH  13  14
ATOM     14  C   UNL     1      -0.719  15.860  18.747  1.00  0.00     0.004 C 
BRANCH  14  15
ATOM     15  C   UNL     1      -1.678  17.057  18.779  1.00  0.00     0.000 C 
BRANCH  15  16
ATOM     16  C   UNL     1      -1.656  17.812  20.123  1.00  0.00     0.000 C 
BRANCH  16  17
ATOM     17  C   UNL     1      -1.563  19.346  20.013  1.00  0.00    -0.000 C 
BRANCH  17  18
ATOM     18  C   UNL     1      -0.135  19.843  19.727  1.00  0.00    -0.000 C 
BRANCH  18  19
ATOM     19  C   UNL     1       0.105  20.125  18.232  1.00  0.00    -0.003 C 
ATOM     20  C   UNL     1       1.512  19.746  17.769  1.00  0.00     0.004 C 
ENDBRANCH  18  19
ENDBRANCH  17  18
ENDBRANCH  16  17
ENDBRANCH  15  16
ENDBRANCH  14  15
ENDBRANCH  13  14
ENDBRANCH   2  13
TORSDOF 15
ENDMDL
MODEL 6
REMARK VINA RESULT:    -3.219      1.072      2.273
REMARK INTER + INTRA:          -7.598
REMARK INTER:                  -6.036
REMARK INTRA:                  -1.562
REMARK UNBOUND:                -1.556
REMARK SMILES CCCCCCCCC=CCCCCCCCC(=O)[O-]
REMARK SMILES IDX 10 1 9 2 11 3 12 4 13 5 14 6 15 7 16 8 17 9 18 10 19 11
REMARK SMILES IDX 20 12 8 13 7 14 6 15 5 16 4 17 3 18 2 19 1 20
REMARK H PARENT
REMARK Flexibility Score: inf
ROOT
ATOM      1  C   UNL     1       3.172  12.627  19.202  1.00  0.00    -0.031 C 
ATOM      2  C   UNL     1       2.490  13.682  18.717  1.00  0.00    -0.031 C 
ENDROOT
BRANCH   1   3
ATOM      3  C   UNL     1       4.249  11.880  18.454  1.00  0.00     0.027 C 
BRANCH   3   4
ATOM      4  C   UNL     1       5.643  12.158  19.038  1.00  0.00     0.004 C 
BRANCH   4   5
ATOM      5  C   UNL     1       6.665  12.548  17.954  1.00  0.00     0.000 C 
BRANCH   5   6
ATOM      6  C   UNL     1       6.016  13.324  16.788  1.00  0.00     0.000 C 
BRANCH   6   7
ATOM      7  C   UNL     1       6.501  12.869  15.398  1.00  0.00     0.000 C 
BRANCH   7   8
ATOM      8  C   UNL     1       5.408  12.818  14.316  1.00  0.00     0.006 C 
BRANCH   8   9
ATOM      9  C   UNL     1       4.222  11.930  14.717  1.00  0.00     0.053 C 
BRANCH   9  10
ATOM     10  C   UNL     1       3.082  12.118  13.765  1.00  0.00     0.041 C 
ATOM     11  O   UNL     1       2.064  12.772  14.116  1.00  0.00    -0.550 OA
ATOM     12  O   UNL     1       3.124  11.528  12.509  1.00  0.00    -0.550 OA
ENDBRANCH   9  10
ENDBRANCH   8   9
ENDBRANCH   7   8
ENDBRANCH   6   7
ENDBRANCH   5   6
ENDBRANCH   4   5
ENDBRANCH   3   4
ENDBRANCH   1   3
BRANCH   2  13
ATOM     13  C   UNL     1       2.597  14.197  17.305  1.00  0.00     0.027 C 
BRANCH  13  14
ATOM     14  C   UNL     1       1.508  15.243  17.039  1.00  0.00     0.004 C 
BRANCH  14  15
ATOM     15  C   UNL     1       1.090  15.957  18.332  1.00  0.00     0.000 C 
BRANCH  15  16
ATOM     16  C   UNL     1      -0.350  16.505  18.280  1.00  0.00     0.000 C 
BRANCH  16  17
ATOM     17  C   UNL     1      -0.579  17.825  19.042  1.00  0.00    -0.000 C 
BRANCH  17  18
ATOM     18  C   UNL     1      -1.343  18.872  18.214  1.00  0.00    -0.000 C 
BRANCH  18  19
ATOM     19  C   UNL     1      -0.423  19.974  17.658  1.00  0.00    -0.003 C 
ATOM     20  C   UNL     1       0.937  20.028  18.357  1.00  0.00     0.004 C 
ENDBRANCH  18  19
ENDBRANCH  17  18
ENDBRANCH  16  17
ENDBRANCH  15  16
ENDBRANCH  14  15
ENDBRANCH  13  14
ENDBRANCH   2  13
TORSDOF 15
ENDMDL
MODEL 7
REMARK VINA RESULT:    -2.993      4.014      9.730
REMARK INTER + INTRA:          -7.173
REMARK INTER:                  -6.320
REMARK INTRA:                  -0.853
REMARK UNBOUND:                -1.556
REMARK SMILES CCCCCCCCC=CCCCCCCCC(=O)[O-]
REMARK SMILES IDX 10 1 9 2 11 3 12 4 13 5 14 6 15 7 16 8 17 9 18 10 19 11
REMARK SMILES IDX 20 12 8 13 7 14 6 15 5 16 4 17 3 18 2 19 1 20
REMARK H PARENT
REMARK Flexibility Score: inf
ROOT
ATOM      1  C   UNL     1       4.970  12.548  16.060  1.00  0.00    -0.031 C 
ATOM      2  C   UNL     1       4.800  12.687  14.731  1.00  0.00    -0.031 C 
ENDROOT
BRANCH   1   3
ATOM      3  C   UNL     1       3.984  11.885  16.990  1.00  0.00     0.027 C 
BRANCH   3   4
ATOM      4  C   UNL     1       4.154  12.371  18.438  1.00  0.00     0.004 C 
BRANCH   4   5
ATOM      5  C   UNL     1       2.898  13.089  18.967  1.00  0.00     0.000 C 
BRANCH   5   6
ATOM      6  C   UNL     1       2.422  14.213  18.020  1.00  0.00     0.000 C 
BRANCH   6   7
ATOM      7  C   UNL     1       1.639  15.331  18.734  1.00  0.00     0.000 C 
BRANCH   7   8
ATOM      8  C   UNL     1       0.630  16.081  17.847  1.00  0.00     0.006 C 
BRANCH   8   9
ATOM      9  C   UNL     1      -0.644  16.475  18.606  1.00  0.00     0.053 C 
BRANCH   9  10
ATOM     10  C   UNL     1      -0.592  17.916  19.007  1.00  0.00     0.041 C 
ATOM     11  O   UNL     1      -0.908  18.261  20.177  1.00  0.00    -0.550 OA
ATOM     12  O   UNL     1      -0.243  18.883  18.073  1.00  0.00    -0.550 OA
ENDBRANCH   9  10
ENDBRANCH   8   9
ENDBRANCH   7   8
ENDBRANCH   6   7
ENDBRANCH   5   6
ENDBRANCH   4   5
ENDBRANCH   3   4
ENDBRANCH   1   3
BRANCH   2  13
ATOM     13  C   UNL     1       3.541  12.326  13.985  1.00  0.00     0.027 C 
BRANCH  13  14
ATOM     14  C   UNL     1       3.869  11.387  12.819  1.00  0.00     0.004 C 
BRANCH  14  15
ATOM     15  C   UNL     1       4.550  10.102  13.309  1.00  0.00     0.000 C 
BRANCH  15  16
ATOM     16  C   UNL     1       5.321   9.366  12.195  1.00  0.00     0.000 C 
BRANCH  16  17
ATOM     17  C   UNL     1       5.731   7.918  12.526  1.00  0.00    -0.000 C 
BRANCH  17  18
ATOM     18  C   UNL     1       6.694   7.314  11.489  1.00  0.00    -0.000 C 
BRANCH  18  19
ATOM     19  C   UNL     1       6.494   7.904  10.081  1.00  0.00    -0.003 C 
ATOM     20  C   UNL     1       5.945   6.888   9.078  1.00  0.00     0.004 C 
ENDBRANCH  18  19
ENDBRANCH  17  18
ENDBRANCH  16  17
ENDBRANCH  15  16
ENDBRANCH  14  15
ENDBRANCH  13  14
ENDBRANCH   2  13
TORSDOF 15
ENDMDL
