MODEL 1
REMARK VINA RESULT:    -6.493      0.000      0.000
REMARK INTER + INTRA:          -7.811
REMARK INTER:                  -7.821
REMARK INTRA:                   0.010
REMARK UNBOUND:                 0.010
REMARK SMILES O=c1c(O)c(-c2ccc(O)c(O)c2)oc2cc(O)cc(O)c12
REMARK SMILES IDX 5 1 3 2 2 3 1 4 22 5 20 6 19 7 17 8 16 9 15 10 14 11 6 12
REMARK SMILES IDX 7 13 8 14 9 15 13 16 11 17 10 18 12 20 4 22 21 24 18 26
REMARK H PARENT 10 19 12 21 4 23 21 25 18 27
REMARK Flexibility Score: inf
ROOT
ATOM      1  C   UNL     1      27.437  -2.177  35.500  1.00  0.00     0.180 A 
ATOM      2  C   UNL     1      27.313  -1.795  36.850  1.00  0.00     0.208 A 
ATOM      3  C   UNL     1      26.373  -0.811  37.193  1.00  0.00     0.238 A 
ATOM      4  O   UNL     1      26.260  -0.453  38.398  1.00  0.00    -0.285 OA
ATOM      5  C   UNL     1      25.560  -0.244  36.190  1.00  0.00     0.111 A 
ATOM      6  C   UNL     1      24.585   0.749  36.453  1.00  0.00     0.134 A 
ATOM      7  C   UNL     1      23.811   1.258  35.401  1.00  0.00     0.093 A 
ATOM      8  C   UNL     1      23.989   0.795  34.095  1.00  0.00     0.123 A 
ATOM      9  C   UNL     1      24.950  -0.185  33.829  1.00  0.00     0.094 A 
ATOM     10  C   UNL     1      25.734  -0.704  34.864  1.00  0.00     0.146 A 
ATOM     11  O   UNL     1      26.643  -1.630  34.583  1.00  0.00    -0.452 OA
ENDROOT
BRANCH   1  12
ATOM     12  C   UNL     1      28.419  -3.192  35.057  1.00  0.00     0.025 A 
ATOM     13  C   UNL     1      28.026  -4.310  34.300  1.00  0.00     0.016 A 
ATOM     14  C   UNL     1      28.967  -5.267  33.915  1.00  0.00     0.051 A 
ATOM     15  C   UNL     1      30.310  -5.133  34.291  1.00  0.00     0.157 A 
ATOM     16  C   UNL     1      29.762  -3.072  35.450  1.00  0.00     0.062 A 
ATOM     17  C   UNL     1      30.708  -4.030  35.065  1.00  0.00     0.158 A 
BRANCH  15  18
ATOM     18  O   UNL     1      31.246  -6.089  33.902  1.00  0.00    -0.504 OA
ATOM     19  H   UNL     1      31.038  -6.776  33.187  1.00  0.00     0.293 HD
ENDBRANCH  15  18
BRANCH  17  20
ATOM     20  O   UNL     1      32.035  -3.869  35.461  1.00  0.00    -0.504 OA
ATOM     21  H   UNL     1      32.497  -2.968  35.442  1.00  0.00     0.293 HD
ENDBRANCH  17  20
ENDBRANCH   1  12
BRANCH   2  22
ATOM     22  O   UNL     1      28.096  -2.408  37.832  1.00  0.00    -0.502 OA
ATOM     23  H   UNL     1      29.014  -2.065  38.087  1.00  0.00     0.293 HD
ENDBRANCH   2  22
BRANCH   6  24
ATOM     24  O   UNL     1      24.382   1.232  37.746  1.00  0.00    -0.507 OA
ATOM     25  H   UNL     1      23.565   1.780  37.988  1.00  0.00     0.293 HD
ENDBRANCH   6  24
BRANCH   8  26
ATOM     26  O   UNL     1      23.205   1.317  33.068  1.00  0.00    -0.508 OA
ATOM     27  H   UNL     1      22.713   2.198  33.172  1.00  0.00     0.293 HD
ENDBRANCH   8  26
TORSDOF 6
ENDMDL
MODEL 2
REMARK VINA RESULT:    -6.209      2.214      3.468
REMARK INTER + INTRA:          -7.469
REMARK INTER:                  -7.173
REMARK INTRA:                  -0.296
REMARK UNBOUND:                 0.010
REMARK SMILES O=c1c(O)c(-c2ccc(O)c(O)c2)oc2cc(O)cc(O)c12
REMARK SMILES IDX 5 1 3 2 2 3 1 4 22 5 20 6 19 7 17 8 16 9 15 10 14 11 6 12
REMARK SMILES IDX 7 13 8 14 9 15 13 16 11 17 10 18 12 20 4 22 21 24 18 26
REMARK H PARENT 10 19 12 21 4 23 21 25 18 27
REMARK Flexibility Score: inf
ROOT
ATOM      1  C   UNL     1      25.527  -1.215  34.480  1.00  0.00     0.180 A 
ATOM      2  C   UNL     1      24.203  -1.601  34.768  1.00  0.00     0.208 A 
ATOM      3  C   UNL     1      23.153  -0.743  34.408  1.00  0.00     0.238 A 
ATOM      4  O   UNL     1      21.964  -1.074  34.670  1.00  0.00    -0.285 OA
ATOM      5  C   UNL     1      23.438   0.470  33.749  1.00  0.00     0.111 A 
ATOM      6  C   UNL     1      22.437   1.388  33.348  1.00  0.00     0.134 A 
ATOM      7  C   UNL     1      22.802   2.571  32.689  1.00  0.00     0.093 A 
ATOM      8  C   UNL     1      24.144   2.854  32.423  1.00  0.00     0.123 A 
ATOM      9  C   UNL     1      25.137   1.952  32.817  1.00  0.00     0.094 A 
ATOM     10  C   UNL     1      24.794   0.768  33.476  1.00  0.00     0.146 A 
ATOM     11  O   UNL     1      25.757  -0.069  33.844  1.00  0.00    -0.452 OA
ENDROOT
BRANCH   1  12
ATOM     12  C   UNL     1      26.689  -2.055  34.846  1.00  0.00     0.025 A 
ATOM     13  C   UNL     1      27.481  -1.762  35.970  1.00  0.00     0.016 A 
ATOM     14  C   UNL     1      28.587  -2.556  36.281  1.00  0.00     0.051 A 
ATOM     15  C   UNL     1      28.928  -3.645  35.469  1.00  0.00     0.157 A 
ATOM     16  C   UNL     1      27.046  -3.136  34.023  1.00  0.00     0.062 A 
ATOM     17  C   UNL     1      28.154  -3.934  34.332  1.00  0.00     0.158 A 
BRANCH  15  18
ATOM     18  O   UNL     1      30.031  -4.436  35.783  1.00  0.00    -0.504 OA
ATOM     19  H   UNL     1      30.425  -5.088  35.114  1.00  0.00     0.293 HD
ENDBRANCH  15  18
BRANCH  17  20
ATOM     20  O   UNL     1      28.470  -5.007  33.499  1.00  0.00    -0.504 OA
ATOM     21  H   UNL     1      27.966  -5.187  32.640  1.00  0.00     0.293 HD
ENDBRANCH  17  20
ENDBRANCH   1  12
BRANCH   2  22
ATOM     22  O   UNL     1      23.943  -2.831  35.377  1.00  0.00    -0.502 OA
ATOM     23  H   UNL     1      24.680  -3.421  35.745  1.00  0.00     0.293 HD
ENDBRANCH   2  22
BRANCH   6  24
ATOM     24  O   UNL     1      21.088   1.134  33.598  1.00  0.00    -0.507 OA
ATOM     25  H   UNL     1      20.682   0.217  33.451  1.00  0.00     0.293 HD
ENDBRANCH   6  24
BRANCH   8  26
ATOM     26  O   UNL     1      24.479   4.037  31.766  1.00  0.00    -0.508 OA
ATOM     27  H   UNL     1      23.825   4.502  31.146  1.00  0.00     0.293 HD
ENDBRANCH   8  26
TORSDOF 6
ENDMDL
MODEL 3
REMARK VINA RESULT:    -5.915      3.659      7.712
REMARK INTER + INTRA:          -7.114
REMARK INTER:                  -6.822
REMARK INTRA:                  -0.292
REMARK UNBOUND:                 0.010
REMARK SMILES O=c1c(O)c(-c2ccc(O)c(O)c2)oc2cc(O)cc(O)c12
REMARK SMILES IDX 5 1 3 2 2 3 1 4 22 5 20 6 19 7 17 8 16 9 15 10 14 11 6 12
REMARK SMILES IDX 7 13 8 14 9 15 13 16 11 17 10 18 12 20 4 22 21 24 18 26
REMARK H PARENT 10 19 12 21 4 23 21 25 18 27
REMARK Flexibility Score: inf
ROOT
ATOM      1  C   UNL     1      25.332   1.947  38.240  1.00  0.00     0.180 A 
ATOM      2  C   UNL     1      26.605   1.547  37.787  1.00  0.00     0.208 A 
ATOM      3  C   UNL     1      26.694   0.524  36.832  1.00  0.00     0.238 A 
ATOM      4  O   UNL     1      27.829   0.151  36.427  1.00  0.00    -0.285 OA
ATOM      5  C   UNL     1      25.517  -0.066  36.329  1.00  0.00     0.111 A 
ATOM      6  C   UNL     1      25.519  -1.099  35.361  1.00  0.00     0.134 A 
ATOM      7  C   UNL     1      24.304  -1.628  34.905  1.00  0.00     0.093 A 
ATOM      8  C   UNL     1      23.088  -1.146  35.395  1.00  0.00     0.123 A 
ATOM      9  C   UNL     1      23.078  -0.127  36.352  1.00  0.00     0.094 A 
ATOM     10  C   UNL     1      24.279   0.414  36.821  1.00  0.00     0.146 A 
ATOM     11  O   UNL     1      24.242   1.378  37.733  1.00  0.00    -0.452 OA
ENDROOT
BRANCH   1  12
ATOM     12  C   UNL     1      25.157   3.004  39.261  1.00  0.00     0.025 A 
ATOM     13  C   UNL     1      24.843   4.327  38.900  1.00  0.00     0.016 A 
ATOM     14  C   UNL     1      24.707   5.312  39.879  1.00  0.00     0.051 A 
ATOM     15  C   UNL     1      24.895   4.998  41.231  1.00  0.00     0.157 A 
ATOM     16  C   UNL     1      25.364   2.698  40.616  1.00  0.00     0.062 A 
ATOM     17  C   UNL     1      25.228   3.684  41.600  1.00  0.00     0.158 A 
BRANCH  15  18
ATOM     18  O   UNL     1      24.755   5.984  42.206  1.00  0.00    -0.504 OA
ATOM     19  H   UNL     1      24.070   6.726  42.117  1.00  0.00     0.293 HD
ENDBRANCH  15  18
BRANCH  17  20
ATOM     20  O   UNL     1      25.427   3.340  42.936  1.00  0.00    -0.504 OA
ATOM     21  H   UNL     1      24.732   2.834  43.471  1.00  0.00     0.293 HD
ENDBRANCH  17  20
ENDBRANCH   1  12
BRANCH   2  22
ATOM     22  O   UNL     1      27.755   2.182  38.265  1.00  0.00    -0.502 OA
ATOM     23  H   UNL     1      28.022   3.113  37.972  1.00  0.00     0.293 HD
ENDBRANCH   2  22
BRANCH   6  24
ATOM     24  O   UNL     1      26.717  -1.601  34.850  1.00  0.00    -0.507 OA
ATOM     25  H   UNL     1      26.930  -1.569  33.860  1.00  0.00     0.293 HD
ENDBRANCH   6  24
BRANCH   8  26
ATOM     26  O   UNL     1      21.894  -1.689  34.925  1.00  0.00    -0.508 OA
ATOM     27  H   UNL     1      21.055  -1.699  35.495  1.00  0.00     0.293 HD
ENDBRANCH   8  26
TORSDOF 6
ENDMDL
MODEL 4
REMARK VINA RESULT:    -5.819      3.949      6.651
REMARK INTER + INTRA:          -6.999
REMARK INTER:                  -6.688
REMARK INTRA:                  -0.311
REMARK UNBOUND:                 0.010
REMARK SMILES O=c1c(O)c(-c2ccc(O)c(O)c2)oc2cc(O)cc(O)c12
REMARK SMILES IDX 5 1 3 2 2 3 1 4 22 5 20 6 19 7 17 8 16 9 15 10 14 11 6 12
REMARK SMILES IDX 7 13 8 14 9 15 13 16 11 17 10 18 12 20 4 22 21 24 18 26
REMARK H PARENT 10 19 12 21 4 23 21 25 18 27
REMARK Flexibility Score: inf
ROOT
ATOM      1  C   UNL     1      22.527   1.173  34.934  1.00  0.00     0.180 A 
ATOM      2  C   UNL     1      21.496   1.636  34.094  1.00  0.00     0.208 A 
ATOM      3  C   UNL     1      20.584   2.576  34.596  1.00  0.00     0.238 A 
ATOM      4  O   UNL     1      19.650   2.991  33.856  1.00  0.00    -0.285 OA
ATOM      5  C   UNL     1      20.728   3.053  35.915  1.00  0.00     0.111 A 
ATOM      6  C   UNL     1      19.854   4.004  36.495  1.00  0.00     0.134 A 
ATOM      7  C   UNL     1      20.070   4.434  37.812  1.00  0.00     0.093 A 
ATOM      8  C   UNL     1      21.140   3.935  38.559  1.00  0.00     0.123 A 
ATOM      9  C   UNL     1      22.006   2.995  37.992  1.00  0.00     0.094 A 
ATOM     10  C   UNL     1      21.807   2.552  36.681  1.00  0.00     0.146 A 
ATOM     11  O   UNL     1      22.642   1.656  36.168  1.00  0.00    -0.452 OA
ENDROOT
BRANCH   1  12
ATOM     12  C   UNL     1      23.517   0.167  34.484  1.00  0.00     0.025 A 
ATOM     13  C   UNL     1      24.652   0.537  33.742  1.00  0.00     0.016 A 
ATOM     14  C   UNL     1      25.558  -0.433  33.307  1.00  0.00     0.051 A 
ATOM     15  C   UNL     1      25.338  -1.786  33.593  1.00  0.00     0.157 A 
ATOM     16  C   UNL     1      23.289  -1.193  34.750  1.00  0.00     0.062 A 
ATOM     17  C   UNL     1      24.196  -2.167  34.317  1.00  0.00     0.158 A 
BRANCH  15  18
ATOM     18  O   UNL     1      26.246  -2.751  33.160  1.00  0.00    -0.504 OA
ATOM     19  H   UNL     1      25.978  -3.475  32.504  1.00  0.00     0.293 HD
ENDBRANCH  15  18
BRANCH  17  20
ATOM     20  O   UNL     1      23.944  -3.506  34.613  1.00  0.00    -0.504 OA
ATOM     21  H   UNL     1      23.380  -3.785  35.406  1.00  0.00     0.293 HD
ENDBRANCH  17  20
ENDBRANCH   1  12
BRANCH   2  22
ATOM     22  O   UNL     1      21.404   1.186  32.774  1.00  0.00    -0.502 OA
ATOM     23  H   UNL     1      20.612   0.653  32.436  1.00  0.00     0.293 HD
ENDBRANCH   2  22
BRANCH   6  24
ATOM     24  O   UNL     1      18.777   4.523  35.775  1.00  0.00    -0.507 OA
ATOM     25  H   UNL     1      18.236   3.949  35.139  1.00  0.00     0.293 HD
ENDBRANCH   6  24
BRANCH   8  26
ATOM     26  O   UNL     1      21.333   4.380  39.865  1.00  0.00    -0.508 OA
ATOM     27  H   UNL     1      22.204   4.810  40.155  1.00  0.00     0.293 HD
ENDBRANCH   8  26
TORSDOF 6
ENDMDL
MODEL 5
REMARK VINA RESULT:    -5.719      4.694      8.769
REMARK INTER + INTRA:          -6.878
REMARK INTER:                  -6.590
REMARK INTRA:                  -0.288
REMARK UNBOUND:                 0.010
REMARK SMILES O=c1c(O)c(-c2ccc(O)c(O)c2)oc2cc(O)cc(O)c12
REMARK SMILES IDX 5 1 3 2 2 3 1 4 22 5 20 6 19 7 17 8 16 9 15 10 14 11 6 12
REMARK SMILES IDX 7 13 8 14 9 15 13 16 11 17 10 18 12 20 4 22 21 24 18 26
REMARK H PARENT 10 19 12 21 4 23 21 25 18 27
REMARK Flexibility Score: inf
ROOT
ATOM      1  C   UNL     1      25.100   2.741  39.813  1.00  0.00     0.180 A 
ATOM      2  C   UNL     1      26.499   2.899  39.762  1.00  0.00     0.208 A 
ATOM      3  C   UNL     1      27.200   2.382  38.662  1.00  0.00     0.238 A 
ATOM      4  O   UNL     1      28.455   2.509  38.611  1.00  0.00    -0.285 OA
ATOM      5  C   UNL     1      26.495   1.737  37.626  1.00  0.00     0.111 A 
ATOM      6  C   UNL     1      27.126   1.192  36.481  1.00  0.00     0.134 A 
ATOM      7  C   UNL     1      26.352   0.573  35.489  1.00  0.00     0.093 A 
ATOM      8  C   UNL     1      24.964   0.488  35.617  1.00  0.00     0.123 A 
ATOM      9  C   UNL     1      24.335   1.024  36.745  1.00  0.00     0.094 A 
ATOM     10  C   UNL     1      25.088   1.644  37.746  1.00  0.00     0.146 A 
ATOM     11  O   UNL     1      24.466   2.140  38.810  1.00  0.00    -0.452 OA
ENDROOT
BRANCH   1  12
ATOM     12  C   UNL     1      24.293   3.241  40.948  1.00  0.00     0.025 A 
ATOM     13  C   UNL     1      23.599   4.462  40.872  1.00  0.00     0.016 A 
ATOM     14  C   UNL     1      22.864   4.925  41.966  1.00  0.00     0.051 A 
ATOM     15  C   UNL     1      22.821   4.186  43.155  1.00  0.00     0.157 A 
ATOM     16  C   UNL     1      24.265   2.514  42.150  1.00  0.00     0.062 A 
ATOM     17  C   UNL     1      23.528   2.975  43.247  1.00  0.00     0.158 A 
BRANCH  15  18
ATOM     18  O   UNL     1      22.085   4.650  44.243  1.00  0.00    -0.504 OA
ATOM     19  H   UNL     1      21.752   5.607  44.289  1.00  0.00     0.293 HD
ENDBRANCH  15  18
BRANCH  17  20
ATOM     20  O   UNL     1      23.512   2.219  44.418  1.00  0.00    -0.504 OA
ATOM     21  H   UNL     1      24.360   1.854  44.835  1.00  0.00     0.293 HD
ENDBRANCH  17  20
ENDBRANCH   1  12
BRANCH   2  22
ATOM     22  O   UNL     1      27.169   3.586  40.778  1.00  0.00    -0.502 OA
ATOM     23  H   UNL     1      26.687   3.982  41.575  1.00  0.00     0.293 HD
ENDBRANCH   2  22
BRANCH   6  24
ATOM     24  O   UNL     1      28.511   1.262  36.323  1.00  0.00    -0.507 OA
ATOM     25  H   UNL     1      29.044   0.487  35.946  1.00  0.00     0.293 HD
ENDBRANCH   6  24
BRANCH   8  26
ATOM     26  O   UNL     1      24.219  -0.132  34.616  1.00  0.00    -0.508 OA
ATOM     27  H   UNL     1      24.665  -0.576  33.821  1.00  0.00     0.293 HD
ENDBRANCH   8  26
TORSDOF 6
ENDMDL
MODEL 6
REMARK VINA RESULT:    -5.684      2.109      7.440
REMARK INTER + INTRA:          -6.836
REMARK INTER:                  -6.758
REMARK INTRA:                  -0.079
REMARK UNBOUND:                 0.010
REMARK SMILES O=c1c(O)c(-c2ccc(O)c(O)c2)oc2cc(O)cc(O)c12
REMARK SMILES IDX 5 1 3 2 2 3 1 4 22 5 20 6 19 7 17 8 16 9 15 10 14 11 6 12
REMARK SMILES IDX 7 13 8 14 9 15 13 16 11 17 10 18 12 20 4 22 21 24 18 26
REMARK H PARENT 10 19 12 21 4 23 21 25 18 27
REMARK Flexibility Score: inf
ROOT
ATOM      1  C   UNL     1      29.078  -3.106  34.986  1.00  0.00     0.180 A 
ATOM      2  C   UNL     1      29.200  -4.462  34.622  1.00  0.00     0.208 A 
ATOM      3  C   UNL     1      30.465  -4.958  34.273  1.00  0.00     0.238 A 
ATOM      4  O   UNL     1      30.585  -6.168  33.935  1.00  0.00    -0.285 OA
ATOM      5  C   UNL     1      31.586  -4.104  34.315  1.00  0.00     0.111 A 
ATOM      6  C   UNL     1      32.896  -4.527  33.984  1.00  0.00     0.134 A 
ATOM      7  C   UNL     1      33.960  -3.617  34.058  1.00  0.00     0.093 A 
ATOM      8  C   UNL     1      33.743  -2.297  34.457  1.00  0.00     0.123 A 
ATOM      9  C   UNL     1      32.451  -1.872  34.785  1.00  0.00     0.094 A 
ATOM     10  C   UNL     1      31.376  -2.763  34.716  1.00  0.00     0.146 A 
ATOM     11  O   UNL     1      30.159  -2.333  35.028  1.00  0.00    -0.452 OA
ENDROOT
BRANCH   1  12
ATOM     12  C   UNL     1      27.775  -2.504  35.347  1.00  0.00     0.025 A 
ATOM     13  C   UNL     1      27.559  -1.928  36.612  1.00  0.00     0.016 A 
ATOM     14  C   UNL     1      26.313  -1.388  36.938  1.00  0.00     0.051 A 
ATOM     15  C   UNL     1      25.261  -1.426  36.015  1.00  0.00     0.157 A 
ATOM     16  C   UNL     1      26.710  -2.558  34.432  1.00  0.00     0.062 A 
ATOM     17  C   UNL     1      25.461  -2.017  34.756  1.00  0.00     0.158 A 
BRANCH  15  18
ATOM     18  O   UNL     1      24.019  -0.883  36.343  1.00  0.00    -0.504 OA
ATOM     19  H   UNL     1      23.281  -0.793  35.655  1.00  0.00     0.293 HD
ENDBRANCH  15  18
BRANCH  17  20
ATOM     20  O   UNL     1      24.433  -2.076  33.816  1.00  0.00    -0.504 OA
ATOM     21  H   UNL     1      23.958  -1.245  33.485  1.00  0.00     0.293 HD
ENDBRANCH  17  20
ENDBRANCH   1  12
BRANCH   2  22
ATOM     22  O   UNL     1      28.082  -5.300  34.636  1.00  0.00    -0.502 OA
ATOM     23  H   UNL     1      27.878  -5.946  33.883  1.00  0.00     0.293 HD
ENDBRANCH   2  22
BRANCH   6  24
ATOM     24  O   UNL     1      33.146  -5.840  33.582  1.00  0.00    -0.507 OA
ATOM     25  H   UNL     1      32.715  -6.631  34.047  1.00  0.00     0.293 HD
ENDBRANCH   6  24
BRANCH   8  26
ATOM     26  O   UNL     1      34.818  -1.413  34.524  1.00  0.00    -0.508 OA
ATOM     27  H   UNL     1      35.774  -1.746  34.590  1.00  0.00     0.293 HD
ENDBRANCH   8  26
TORSDOF 6
ENDMDL
MODEL 7
REMARK VINA RESULT:    -5.654      4.588      8.189
REMARK INTER + INTRA:          -6.800
REMARK INTER:                  -6.498
REMARK INTRA:                  -0.302
REMARK UNBOUND:                 0.010
REMARK SMILES O=c1c(O)c(-c2ccc(O)c(O)c2)oc2cc(O)cc(O)c12
REMARK SMILES IDX 5 1 3 2 2 3 1 4 22 5 20 6 19 7 17 8 16 9 15 10 14 11 6 12
REMARK SMILES IDX 7 13 8 14 9 15 13 16 11 17 10 18 12 20 4 22 21 24 18 26
REMARK H PARENT 10 19 12 21 4 23 21 25 18 27
REMARK Flexibility Score: inf
ROOT
ATOM      1  C   UNL     1      23.826   2.472  38.277  1.00  0.00     0.180 A 
ATOM      2  C   UNL     1      22.787   3.106  37.567  1.00  0.00     0.208 A 
ATOM      3  C   UNL     1      22.240   2.462  36.447  1.00  0.00     0.238 A 
ATOM      4  O   UNL     1      21.316   3.024  35.797  1.00  0.00    -0.285 OA
ATOM      5  C   UNL     1      22.721   1.192  36.069  1.00  0.00     0.111 A 
ATOM      6  C   UNL     1      22.220   0.473  34.956  1.00  0.00     0.134 A 
ATOM      7  C   UNL     1      22.746  -0.790  34.650  1.00  0.00     0.093 A 
ATOM      8  C   UNL     1      23.760  -1.349  35.432  1.00  0.00     0.123 A 
ATOM      9  C   UNL     1      24.259  -0.644  36.532  1.00  0.00     0.094 A 
ATOM     10  C   UNL     1      23.749   0.617  36.853  1.00  0.00     0.146 A 
ATOM     11  O   UNL     1      24.244   1.267  37.900  1.00  0.00    -0.452 OA
ENDROOT
BRANCH   1  12
ATOM     12  C   UNL     1      24.467   3.096  39.456  1.00  0.00     0.025 A 
ATOM     13  C   UNL     1      25.705   3.756  39.354  1.00  0.00     0.016 A 
ATOM     14  C   UNL     1      26.302   4.316  40.486  1.00  0.00     0.051 A 
ATOM     15  C   UNL     1      25.682   4.213  41.737  1.00  0.00     0.157 A 
ATOM     16  C   UNL     1      23.859   2.978  40.717  1.00  0.00     0.062 A 
ATOM     17  C   UNL     1      24.455   3.538  41.853  1.00  0.00     0.158 A 
BRANCH  15  18
ATOM     18  O   UNL     1      26.279   4.775  42.864  1.00  0.00    -0.504 OA
ATOM     19  H   UNL     1      26.023   5.698  43.197  1.00  0.00     0.293 HD
ENDBRANCH  15  18
BRANCH  17  20
ATOM     20  O   UNL     1      23.815   3.413  43.085  1.00  0.00    -0.504 OA
ATOM     21  H   UNL     1      24.324   3.430  43.960  1.00  0.00     0.293 HD
ENDBRANCH  17  20
ENDBRANCH   1  12
BRANCH   2  22
ATOM     22  O   UNL     1      22.294   4.343  37.992  1.00  0.00    -0.502 OA
ATOM     23  H   UNL     1      22.221   4.591  38.971  1.00  0.00     0.293 HD
ENDBRANCH   2  22
BRANCH   6  24
ATOM     24  O   UNL     1      21.207   1.003  34.156  1.00  0.00    -0.507 OA
ATOM     25  H   UNL     1      21.340   1.164  33.164  1.00  0.00     0.293 HD
ENDBRANCH   6  24
BRANCH   8  26
ATOM     26  O   UNL     1      24.264  -2.606  35.106  1.00  0.00    -0.508 OA
ATOM     27  H   UNL     1      23.724  -3.450  35.260  1.00  0.00     0.293 HD
ENDBRANCH   8  26
TORSDOF 6
ENDMDL
MODEL 8
REMARK VINA RESULT:    -5.554      3.520      8.284
REMARK INTER + INTRA:          -6.679
REMARK INTER:                  -6.355
REMARK INTRA:                  -0.325
REMARK UNBOUND:                 0.010
REMARK SMILES O=c1c(O)c(-c2ccc(O)c(O)c2)oc2cc(O)cc(O)c12
REMARK SMILES IDX 5 1 3 2 2 3 1 4 22 5 20 6 19 7 17 8 16 9 15 10 14 11 6 12
REMARK SMILES IDX 7 13 8 14 9 15 13 16 11 17 10 18 12 20 4 22 21 24 18 26
REMARK H PARENT 10 19 12 21 4 23 21 25 18 27
REMARK Flexibility Score: inf
ROOT
ATOM      1  C   UNL     1      23.358   1.780  33.224  1.00  0.00     0.180 A 
ATOM      2  C   UNL     1      22.436   0.901  33.826  1.00  0.00     0.208 A 
ATOM      3  C   UNL     1      22.910  -0.068  34.723  1.00  0.00     0.238 A 
ATOM      4  O   UNL     1      22.095  -0.867  35.260  1.00  0.00    -0.285 OA
ATOM      5  C   UNL     1      24.287  -0.129  35.020  1.00  0.00     0.111 A 
ATOM      6  C   UNL     1      24.845  -1.072  35.917  1.00  0.00     0.134 A 
ATOM      7  C   UNL     1      26.224  -1.063  36.167  1.00  0.00     0.093 A 
ATOM      8  C   UNL     1      27.056  -0.133  35.540  1.00  0.00     0.123 A 
ATOM      9  C   UNL     1      26.512   0.801  34.653  1.00  0.00     0.094 A 
ATOM     10  C   UNL     1      25.138   0.808  34.390  1.00  0.00     0.146 A 
ATOM     11  O   UNL     1      24.648   1.702  33.540  1.00  0.00    -0.452 OA
ENDROOT
BRANCH   1  12
ATOM     12  C   UNL     1      22.939   2.815  32.252  1.00  0.00     0.025 A 
ATOM     13  C   UNL     1      22.563   4.104  32.671  1.00  0.00     0.016 A 
ATOM     14  C   UNL     1      22.148   5.056  31.738  1.00  0.00     0.051 A 
ATOM     15  C   UNL     1      22.087   4.734  30.376  1.00  0.00     0.157 A 
ATOM     16  C   UNL     1      22.856   2.490  30.888  1.00  0.00     0.062 A 
ATOM     17  C   UNL     1      22.441   3.443  29.951  1.00  0.00     0.158 A 
BRANCH  15  18
ATOM     18  O   UNL     1      21.674   5.688  29.448  1.00  0.00    -0.504 OA
ATOM     19  H   UNL     1      21.907   6.669  29.555  1.00  0.00     0.293 HD
ENDBRANCH  15  18
BRANCH  17  20
ATOM     20  O   UNL     1      22.385   3.088  28.604  1.00  0.00    -0.504 OA
ATOM     21  H   UNL     1      23.181   2.693  28.118  1.00  0.00     0.293 HD
ENDBRANCH  17  20
ENDBRANCH   1  12
BRANCH   2  22
ATOM     22  O   UNL     1      21.071   1.015  33.552  1.00  0.00    -0.502 OA
ATOM     23  H   UNL     1      20.490   0.212  33.343  1.00  0.00     0.293 HD
ENDBRANCH   2  22
BRANCH   6  24
ATOM     24  O   UNL     1      24.040  -2.015  36.560  1.00  0.00    -0.507 OA
ATOM     25  H   UNL     1      23.765  -1.908  37.529  1.00  0.00     0.293 HD
ENDBRANCH   6  24
BRANCH   8  26
ATOM     26  O   UNL     1      28.424  -0.145  35.807  1.00  0.00    -0.508 OA
ATOM     27  H   UNL     1      29.075  -0.647  35.213  1.00  0.00     0.293 HD
ENDBRANCH   8  26
TORSDOF 6
ENDMDL
MODEL 9
REMARK VINA RESULT:    -5.406      4.068      6.897
REMARK INTER + INTRA:          -6.501
REMARK INTER:                  -6.181
REMARK INTRA:                  -0.321
REMARK UNBOUND:                 0.010
REMARK SMILES O=c1c(O)c(-c2ccc(O)c(O)c2)oc2cc(O)cc(O)c12
REMARK SMILES IDX 5 1 3 2 2 3 1 4 22 5 20 6 19 7 17 8 16 9 15 10 14 11 6 12
REMARK SMILES IDX 7 13 8 14 9 15 13 16 11 17 10 18 12 20 4 22 21 24 18 26
REMARK H PARENT 10 19 12 21 4 23 21 25 18 27
REMARK Flexibility Score: inf
ROOT
ATOM      1  C   UNL     1      23.981   1.926  37.560  1.00  0.00     0.180 A 
ATOM      2  C   UNL     1      22.690   2.488  37.534  1.00  0.00     0.208 A 
ATOM      3  C   UNL     1      22.267   3.265  38.623  1.00  0.00     0.238 A 
ATOM      4  O   UNL     1      21.108   3.765  38.616  1.00  0.00    -0.285 OA
ATOM      5  C   UNL     1      23.143   3.486  39.705  1.00  0.00     0.111 A 
ATOM      6  C   UNL     1      22.796   4.261  40.838  1.00  0.00     0.134 A 
ATOM      7  C   UNL     1      23.728   4.441  41.870  1.00  0.00     0.093 A 
ATOM      8  C   UNL     1      24.998   3.864  41.792  1.00  0.00     0.123 A 
ATOM      9  C   UNL     1      25.347   3.097  40.676  1.00  0.00     0.094 A 
ATOM     10  C   UNL     1      24.431   2.905  39.637  1.00  0.00     0.146 A 
ATOM     11  O   UNL     1      24.786   2.168  38.591  1.00  0.00    -0.452 OA
ENDROOT
BRANCH   1  12
ATOM     12  C   UNL     1      24.492   1.079  36.459  1.00  0.00     0.025 A 
ATOM     13  C   UNL     1      25.221   1.628  35.390  1.00  0.00     0.016 A 
ATOM     14  C   UNL     1      25.672   0.812  34.350  1.00  0.00     0.051 A 
ATOM     15  C   UNL     1      25.391  -0.560  34.354  1.00  0.00     0.157 A 
ATOM     16  C   UNL     1      24.195  -0.294  36.448  1.00  0.00     0.062 A 
ATOM     17  C   UNL     1      24.646  -1.114  35.408  1.00  0.00     0.158 A 
BRANCH  15  18
ATOM     18  O   UNL     1      25.845  -1.372  33.315  1.00  0.00    -0.504 OA
ATOM     19  H   UNL     1      26.735  -1.204  32.862  1.00  0.00     0.293 HD
ENDBRANCH  15  18
BRANCH  17  20
ATOM     20  O   UNL     1      24.344  -2.475  35.439  1.00  0.00    -0.504 OA
ATOM     21  H   UNL     1      23.895  -2.944  34.662  1.00  0.00     0.293 HD
ENDBRANCH  17  20
ENDBRANCH   1  12
BRANCH   2  22
ATOM     22  O   UNL     1      21.858   2.295  36.428  1.00  0.00    -0.502 OA
ATOM     23  H   UNL     1      22.146   2.527  35.485  1.00  0.00     0.293 HD
ENDBRANCH   2  22
BRANCH   6  24
ATOM     24  O   UNL     1      21.536   4.852  40.946  1.00  0.00    -0.507 OA
ATOM     25  H   UNL     1      21.354   5.604  41.600  1.00  0.00     0.293 HD
ENDBRANCH   6  24
BRANCH   8  26
ATOM     26  O   UNL     1      25.906   4.060  42.831  1.00  0.00    -0.508 OA
ATOM     27  H   UNL     1      25.758   4.772  43.537  1.00  0.00     0.293 HD
ENDBRANCH   8  26
TORSDOF 6
ENDMDL
