MODEL 1
REMARK VINA RESULT:    -4.565      0.000      0.000
REMARK INTER + INTRA:          -4.832
REMARK INTER:                  -4.832
REMARK INTRA:                   0.000
REMARK UNBOUND:                 0.000
REMARK SMILES O=c1ccc2cc(O)c(O)cc2o1
REMARK SMILES IDX 4 1 3 2 2 3 1 4 13 5 12 6 11 7 9 8 7 9 6 10 5 11 8 12 10 14
REMARK H PARENT 8 13 10 15
REMARK Flexibility Score: inf
ROOT
ATOM      1  C   UNL     1      22.738  43.927  26.470  1.00  0.00     0.019 A 
ATOM      2  C   UNL     1      23.063  45.202  26.933  1.00  0.00     0.094 A 
ATOM      3  C   UNL     1      22.831  45.515  28.276  1.00  0.00     0.336 A 
ATOM      4  O   UNL     1      23.118  46.661  28.713  1.00  0.00    -0.246 OA
ATOM      5  O   UNL     1      22.309  44.610  29.099  1.00  0.00    -0.423 OA
ATOM      6  C   UNL     1      21.984  43.382  28.699  1.00  0.00     0.142 A 
ATOM      7  C   UNL     1      21.438  42.472  29.608  1.00  0.00     0.098 A 
ATOM      8  C   UNL     1      21.094  41.177  29.191  1.00  0.00     0.161 A 
ATOM      9  C   UNL     1      21.298  40.792  27.858  1.00  0.00     0.158 A 
ATOM     10  C   UNL     1      21.847  41.701  26.941  1.00  0.00     0.062 A 
ATOM     11  C   UNL     1      22.190  42.994  27.356  1.00  0.00     0.022 A 
ENDROOT
BRANCH   9  12
ATOM     12  O   UNL     1      20.955  39.503  27.453  1.00  0.00    -0.504 OA
ATOM     13  H   UNL     1      20.882  39.258  26.473  1.00  0.00     0.293 HD
ENDBRANCH   9  12
BRANCH   8  14
ATOM     14  O   UNL     1      20.550  40.267  30.096  1.00  0.00    -0.504 OA
ATOM     15  H   UNL     1      19.678  40.454  30.576  1.00  0.00     0.293 HD
ENDBRANCH   8  14
TORSDOF 2
ENDMDL
MODEL 2
REMARK VINA RESULT:    -4.412      1.316      4.483
REMARK INTER + INTRA:          -4.669
REMARK INTER:                  -4.669
REMARK INTRA:                   0.000
REMARK UNBOUND:                 0.000
REMARK SMILES O=c1ccc2cc(O)c(O)cc2o1
REMARK SMILES IDX 4 1 3 2 2 3 1 4 13 5 12 6 11 7 9 8 7 9 6 10 5 11 8 12 10 14
REMARK H PARENT 8 13 10 15
REMARK Flexibility Score: inf
ROOT
ATOM      1  C   UNL     1      22.360  43.157  25.982  1.00  0.00     0.019 A 
ATOM      2  C   UNL     1      21.975  41.817  26.018  1.00  0.00     0.094 A 
ATOM      3  C   UNL     1      21.610  41.249  27.243  1.00  0.00     0.336 A 
ATOM      4  O   UNL     1      21.259  40.041  27.297  1.00  0.00    -0.246 OA
ATOM      5  O   UNL     1      21.630  41.978  28.356  1.00  0.00    -0.423 OA
ATOM      6  C   UNL     1      21.990  43.260  28.366  1.00  0.00     0.142 A 
ATOM      7  C   UNL     1      21.992  43.976  29.567  1.00  0.00     0.098 A 
ATOM      8  C   UNL     1      22.372  45.327  29.582  1.00  0.00     0.161 A 
ATOM      9  C   UNL     1      22.750  45.963  28.391  1.00  0.00     0.158 A 
ATOM     10  C   UNL     1      22.750  45.249  27.183  1.00  0.00     0.062 A 
ATOM     11  C   UNL     1      22.371  43.900  27.167  1.00  0.00     0.022 A 
ENDROOT
BRANCH   9  12
ATOM     12  O   UNL     1      23.125  47.305  28.416  1.00  0.00    -0.504 OA
ATOM     13  H   UNL     1      23.746  47.669  29.130  1.00  0.00     0.293 HD
ENDBRANCH   9  12
BRANCH   8  14
ATOM     14  O   UNL     1      22.374  46.043  30.778  1.00  0.00    -0.504 OA
ATOM     15  H   UNL     1      22.308  45.578  31.675  1.00  0.00     0.293 HD
ENDBRANCH   8  14
TORSDOF 2
ENDMDL
MODEL 3
REMARK VINA RESULT:    -4.407      2.068      3.172
REMARK INTER + INTRA:          -4.665
REMARK INTER:                  -4.665
REMARK INTRA:                   0.000
REMARK UNBOUND:                 0.000
REMARK SMILES O=c1ccc2cc(O)c(O)cc2o1
REMARK SMILES IDX 4 1 3 2 2 3 1 4 13 5 12 6 11 7 9 8 7 9 6 10 5 11 8 12 10 14
REMARK H PARENT 8 13 10 15
REMARK Flexibility Score: inf
ROOT
ATOM      1  C   UNL     1      22.589  44.057  27.005  1.00  0.00     0.019 A 
ATOM      2  C   UNL     1      22.696  43.877  25.627  1.00  0.00     0.094 A 
ATOM      3  C   UNL     1      22.247  42.678  25.062  1.00  0.00     0.336 A 
ATOM      4  O   UNL     1      22.335  42.496  23.820  1.00  0.00    -0.246 OA
ATOM      5  O   UNL     1      21.726  41.725  25.831  1.00  0.00    -0.423 OA
ATOM      6  C   UNL     1      21.606  41.856  27.151  1.00  0.00     0.142 A 
ATOM      7  C   UNL     1      21.050  40.821  27.908  1.00  0.00     0.098 A 
ATOM      8  C   UNL     1      20.922  40.953  29.299  1.00  0.00     0.161 A 
ATOM      9  C   UNL     1      21.351  42.128  29.934  1.00  0.00     0.158 A 
ATOM     10  C   UNL     1      21.908  43.171  29.179  1.00  0.00     0.062 A 
ATOM     11  C   UNL     1      22.037  43.039  27.790  1.00  0.00     0.022 A 
ENDROOT
BRANCH   9  12
ATOM     12  O   UNL     1      21.218  42.252  31.316  1.00  0.00    -0.504 OA
ATOM     13  H   UNL     1      20.736  41.551  31.867  1.00  0.00     0.293 HD
ENDBRANCH   9  12
BRANCH   8  14
ATOM     14  O   UNL     1      20.367  39.923  30.056  1.00  0.00    -0.504 OA
ATOM     15  H   UNL     1      20.689  39.723  30.996  1.00  0.00     0.293 HD
ENDBRANCH   8  14
TORSDOF 2
ENDMDL
MODEL 4
REMARK VINA RESULT:    -4.363      1.863      4.338
REMARK INTER + INTRA:          -4.618
REMARK INTER:                  -4.618
REMARK INTRA:                   0.000
REMARK UNBOUND:                 0.000
REMARK SMILES O=c1ccc2cc(O)c(O)cc2o1
REMARK SMILES IDX 4 1 3 2 2 3 1 4 13 5 12 6 11 7 9 8 7 9 6 10 5 11 8 12 10 14
REMARK H PARENT 8 13 10 15
REMARK Flexibility Score: inf
ROOT
ATOM      1  C   UNL     1      20.862  40.252  27.794  1.00  0.00     0.019 A 
ATOM      2  C   UNL     1      20.587  40.011  29.139  1.00  0.00     0.094 A 
ATOM      3  C   UNL     1      20.869  41.008  30.079  1.00  0.00     0.336 A 
ATOM      4  O   UNL     1      20.628  40.810  31.298  1.00  0.00    -0.246 OA
ATOM      5  O   UNL     1      21.393  42.168  29.692  1.00  0.00    -0.423 OA
ATOM      6  C   UNL     1      21.672  42.439  28.419  1.00  0.00     0.142 A 
ATOM      7  C   UNL     1      22.222  43.677  28.072  1.00  0.00     0.098 A 
ATOM      8  C   UNL     1      22.518  43.967  26.731  1.00  0.00     0.161 A 
ATOM      9  C   UNL     1      22.261  43.014  25.734  1.00  0.00     0.158 A 
ATOM     10  C   UNL     1      21.708  41.771  26.077  1.00  0.00     0.062 A 
ATOM     11  C   UNL     1      21.413  41.480  27.415  1.00  0.00     0.022 A 
ENDROOT
BRANCH   9  12
ATOM     12  O   UNL     1      22.557  43.312  24.405  1.00  0.00    -0.504 OA
ATOM     13  H   UNL     1      21.850  43.261  23.681  1.00  0.00     0.293 HD
ENDBRANCH   9  12
BRANCH   8  14
ATOM     14  O   UNL     1      23.065  45.200  26.382  1.00  0.00    -0.504 OA
ATOM     15  H   UNL     1      23.613  45.317  25.538  1.00  0.00     0.293 HD
ENDBRANCH   8  14
TORSDOF 2
ENDMDL
MODEL 5
REMARK VINA RESULT:    -4.269      1.588      5.052
REMARK INTER + INTRA:          -4.519
REMARK INTER:                  -4.519
REMARK INTRA:                   0.000
REMARK UNBOUND:                 0.000
REMARK SMILES O=c1ccc2cc(O)c(O)cc2o1
REMARK SMILES IDX 4 1 3 2 2 3 1 4 13 5 12 6 11 7 9 8 7 9 6 10 5 11 8 12 10 14
REMARK H PARENT 8 13 10 15
REMARK Flexibility Score: inf
ROOT
ATOM      1  C   UNL     1      20.954  41.663  30.440  1.00  0.00     0.019 A 
ATOM      2  C   UNL     1      20.830  40.682  29.458  1.00  0.00     0.094 A 
ATOM      3  C   UNL     1      21.229  40.977  28.150  1.00  0.00     0.336 A 
ATOM      4  O   UNL     1      21.125  40.104  27.249  1.00  0.00    -0.246 OA
ATOM      5  O   UNL     1      21.718  42.177  27.850  1.00  0.00    -0.423 OA
ATOM      6  C   UNL     1      21.854  43.143  28.757  1.00  0.00     0.142 A 
ATOM      7  C   UNL     1      22.375  44.385  28.383  1.00  0.00     0.098 A 
ATOM      8  C   UNL     1      22.519  45.406  29.335  1.00  0.00     0.161 A 
ATOM      9  C   UNL     1      22.140  45.181  30.666  1.00  0.00     0.158 A 
ATOM     10  C   UNL     1      21.618  43.936  31.048  1.00  0.00     0.062 A 
ATOM     11  C   UNL     1      21.473  42.917  30.098  1.00  0.00     0.022 A 
ENDROOT
BRANCH   9  12
ATOM     12  O   UNL     1      22.288  46.200  31.606  1.00  0.00    -0.504 OA
ATOM     13  H   UNL     1      21.564  46.404  32.285  1.00  0.00     0.293 HD
ENDBRANCH   9  12
BRANCH   8  14
ATOM     14  O   UNL     1      23.039  46.645  28.965  1.00  0.00    -0.504 OA
ATOM     15  H   UNL     1      22.869  47.477  29.516  1.00  0.00     0.293 HD
ENDBRANCH   8  14
TORSDOF 2
ENDMDL
MODEL 6
REMARK VINA RESULT:    -4.237      2.089      4.148
REMARK INTER + INTRA:          -4.485
REMARK INTER:                  -4.485
REMARK INTRA:                   0.000
REMARK UNBOUND:                 0.000
REMARK SMILES O=c1ccc2cc(O)c(O)cc2o1
REMARK SMILES IDX 4 1 3 2 2 3 1 4 13 5 12 6 11 7 9 8 7 9 6 10 5 11 8 12 10 14
REMARK H PARENT 8 13 10 15
REMARK Flexibility Score: inf
ROOT
ATOM      1  C   UNL     1      21.364  41.436  27.974  1.00  0.00     0.019 A 
ATOM      2  C   UNL     1      21.602  41.358  26.603  1.00  0.00     0.094 A 
ATOM      3  C   UNL     1      22.142  42.467  25.944  1.00  0.00     0.336 A 
ATOM      4  O   UNL     1      22.365  42.417  24.706  1.00  0.00    -0.246 OA
ATOM      5  O   UNL     1      22.424  43.580  26.618  1.00  0.00    -0.423 OA
ATOM      6  C   UNL     1      22.212  43.697  27.927  1.00  0.00     0.142 A 
ATOM      7  C   UNL     1      22.528  44.891  28.582  1.00  0.00     0.098 A 
ATOM      8  C   UNL     1      22.306  45.019  29.962  1.00  0.00     0.161 A 
ATOM      9  C   UNL     1      21.767  43.948  30.688  1.00  0.00     0.158 A 
ATOM     10  C   UNL     1      21.449  42.747  30.036  1.00  0.00     0.062 A 
ATOM     11  C   UNL     1      21.670  42.618  28.658  1.00  0.00     0.022 A 
ENDROOT
BRANCH   9  12
ATOM     12  O   UNL     1      21.551  44.083  32.058  1.00  0.00    -0.504 OA
ATOM     13  H   UNL     1      21.697  43.310  32.697  1.00  0.00     0.293 HD
ENDBRANCH   9  12
BRANCH   8  14
ATOM     14  O   UNL     1      22.620  46.208  30.618  1.00  0.00    -0.504 OA
ATOM     15  H   UNL     1      22.624  46.271  31.629  1.00  0.00     0.293 HD
ENDBRANCH   8  14
TORSDOF 2
ENDMDL
MODEL 7
REMARK VINA RESULT:    -4.218      1.233      1.558
REMARK INTER + INTRA:          -4.464
REMARK INTER:                  -4.464
REMARK INTRA:                   0.000
REMARK UNBOUND:                 0.000
REMARK SMILES O=c1ccc2cc(O)c(O)cc2o1
REMARK SMILES IDX 4 1 3 2 2 3 1 4 13 5 12 6 11 7 9 8 7 9 6 10 5 11 8 12 10 14
REMARK H PARENT 8 13 10 15
REMARK Flexibility Score: inf
ROOT
ATOM      1  C   UNL     1      21.994  42.369  26.050  1.00  0.00     0.019 A 
ATOM      2  C   UNL     1      22.499  43.626  25.721  1.00  0.00     0.094 A 
ATOM      3  C   UNL     1      22.670  44.575  26.735  1.00  0.00     0.336 A 
ATOM      4  O   UNL     1      23.125  45.716  26.459  1.00  0.00    -0.246 OA
ATOM      5  O   UNL     1      22.354  44.280  27.993  1.00  0.00    -0.423 OA
ATOM      6  C   UNL     1      21.869  43.092  28.350  1.00  0.00     0.142 A 
ATOM      7  C   UNL     1      21.555  42.839  29.689  1.00  0.00     0.098 A 
ATOM      8  C   UNL     1      21.043  41.589  30.069  1.00  0.00     0.161 A 
ATOM      9  C   UNL     1      20.846  40.589  29.106  1.00  0.00     0.158 A 
ATOM     10  C   UNL     1      21.160  40.837  27.762  1.00  0.00     0.062 A 
ATOM     11  C   UNL     1      21.671  42.085  27.380  1.00  0.00     0.022 A 
ENDROOT
BRANCH   9  12
ATOM     12  O   UNL     1      20.338  39.350  29.494  1.00  0.00    -0.504 OA
ATOM     13  H   UNL     1      19.368  39.236  29.763  1.00  0.00     0.293 HD
ENDBRANCH   9  12
BRANCH   8  14
ATOM     14  O   UNL     1      20.730  41.333  31.403  1.00  0.00    -0.504 OA
ATOM     15  H   UNL     1      19.868  40.870  31.666  1.00  0.00     0.293 HD
ENDBRANCH   8  14
TORSDOF 2
ENDMDL
MODEL 8
REMARK VINA RESULT:    -3.841      1.255      2.329
REMARK INTER + INTRA:          -4.066
REMARK INTER:                  -4.066
REMARK INTRA:                   0.000
REMARK UNBOUND:                 0.000
REMARK SMILES O=c1ccc2cc(O)c(O)cc2o1
REMARK SMILES IDX 4 1 3 2 2 3 1 4 13 5 12 6 11 7 9 8 7 9 6 10 5 11 8 12 10 14
REMARK H PARENT 8 13 10 15
REMARK Flexibility Score: inf
ROOT
ATOM      1  C   UNL     1      22.321  45.219  29.189  1.00  0.00     0.019 A 
ATOM      2  C   UNL     1      22.709  46.043  28.134  1.00  0.00     0.094 A 
ATOM      3  C   UNL     1      22.776  45.508  26.844  1.00  0.00     0.336 A 
ATOM      4  O   UNL     1      23.124  46.236  25.878  1.00  0.00    -0.246 OA
ATOM      5  O   UNL     1      22.472  44.231  26.628  1.00  0.00    -0.423 OA
ATOM      6  C   UNL     1      22.096  43.409  27.606  1.00  0.00     0.142 A 
ATOM      7  C   UNL     1      21.789  42.076  27.319  1.00  0.00     0.098 A 
ATOM      8  C   UNL     1      21.393  41.206  28.347  1.00  0.00     0.161 A 
ATOM      9  C   UNL     1      21.304  41.673  29.666  1.00  0.00     0.158 A 
ATOM     10  C   UNL     1      21.610  43.010  29.959  1.00  0.00     0.062 A 
ATOM     11  C   UNL     1      22.006  43.880  28.934  1.00  0.00     0.022 A 
ENDROOT
BRANCH   9  12
ATOM     12  O   UNL     1      20.909  40.803  30.680  1.00  0.00    -0.504 OA
ATOM     13  H   UNL     1      21.587  40.287  31.230  1.00  0.00     0.293 HD
ENDBRANCH   9  12
BRANCH   8  14
ATOM     14  O   UNL     1      21.085  39.876  28.064  1.00  0.00    -0.504 OA
ATOM     15  H   UNL     1      20.209  39.461  28.356  1.00  0.00     0.293 HD
ENDBRANCH   8  14
TORSDOF 2
ENDMDL
MODEL 9
REMARK VINA RESULT:    -3.697      2.105      3.860
REMARK INTER + INTRA:          -3.913
REMARK INTER:                  -3.913
REMARK INTRA:                   0.000
REMARK UNBOUND:                 0.000
REMARK SMILES O=c1ccc2cc(O)c(O)cc2o1
REMARK SMILES IDX 4 1 3 2 2 3 1 4 13 5 12 6 11 7 9 8 7 9 6 10 5 11 8 12 10 14
REMARK H PARENT 8 13 10 15
REMARK Flexibility Score: inf
ROOT
ATOM      1  C   UNL     1      22.858  45.116  26.792  1.00  0.00     0.019 A 
ATOM      2  C   UNL     1      22.778  44.210  25.736  1.00  0.00     0.094 A 
ATOM      3  C   UNL     1      22.327  42.911  25.989  1.00  0.00     0.336 A 
ATOM      4  O   UNL     1      22.247  42.078  25.049  1.00  0.00    -0.246 OA
ATOM      5  O   UNL     1      21.980  42.547  27.221  1.00  0.00    -0.423 OA
ATOM      6  C   UNL     1      22.041  43.379  28.258  1.00  0.00     0.142 A 
ATOM      7  C   UNL     1      21.664  42.941  29.530  1.00  0.00     0.098 A 
ATOM      8  C   UNL     1      21.727  43.815  30.627  1.00  0.00     0.161 A 
ATOM      9  C   UNL     1      22.170  45.133  30.447  1.00  0.00     0.158 A 
ATOM     10  C   UNL     1      22.549  45.579  29.173  1.00  0.00     0.062 A 
ATOM     11  C   UNL     1      22.487  44.707  28.078  1.00  0.00     0.022 A 
ENDROOT
BRANCH   9  12
ATOM     12  O   UNL     1      22.229  45.995  31.541  1.00  0.00    -0.504 OA
ATOM     13  H   UNL     1      21.676  46.843  31.578  1.00  0.00     0.293 HD
ENDBRANCH   9  12
BRANCH   8  14
ATOM     14  O   UNL     1      21.351  43.380  31.896  1.00  0.00    -0.504 OA
ATOM     15  H   UNL     1      20.625  42.685  32.025  1.00  0.00     0.293 HD
ENDBRANCH   8  14
TORSDOF 2
ENDMDL
