MODEL 1
REMARK VINA RESULT:    -3.995      0.000      0.000
REMARK INTER + INTRA:         -15.310
REMARK INTER:                 -10.067
REMARK INTRA:                  -5.244
REMARK UNBOUND:                -5.244
REMARK SMILES CCCCCCCCCCCCCCCCCCCCCCCCCCCC(=O)[O-]
REMARK SMILES IDX 15 1 16 2 17 3 18 4 19 5 20 6 21 7 22 8 23 9 24 10 25 11
REMARK SMILES IDX 26 12 27 13 28 14 29 15 30 16 14 17 13 18 12 19 11 20 10 21
REMARK SMILES IDX 9 22 8 23 7 24 6 25 5 26 4 27 3 28 2 29 1 30
REMARK H PARENT
REMARK Flexibility Score: inf
ROOT
ATOM      1  C   UNL     1     191.235  -3.733 103.880  1.00  0.00     0.000 C 
ENDROOT
BRANCH   1   2
ATOM      2  C   UNL     1     191.803  -2.536 104.658  1.00  0.00     0.000 C 
BRANCH   2   3
ATOM      3  C   UNL     1     193.252  -2.770 105.120  1.00  0.00     0.000 C 
BRANCH   3   4
ATOM      4  C   UNL     1     194.163  -1.553 104.878  1.00  0.00     0.000 C 
BRANCH   4   5
ATOM      5  C   UNL     1     195.180  -1.717 103.735  1.00  0.00     0.000 C 
BRANCH   5   6
ATOM      6  C   UNL     1     194.623  -2.506 102.542  1.00  0.00     0.000 C 
BRANCH   6   7
ATOM      7  C   UNL     1     194.232  -1.565 101.392  1.00  0.00     0.000 C 
BRANCH   7   8
ATOM      8  C   UNL     1     192.716  -1.309 101.313  1.00  0.00     0.000 C 
BRANCH   8   9
ATOM      9  C   UNL     1     192.280   0.130 101.645  1.00  0.00     0.000 C 
BRANCH   9  10
ATOM     10  C   UNL     1     193.368   1.171 101.331  1.00  0.00     0.000 C 
BRANCH  10  11
ATOM     11  C   UNL     1     193.396   2.320 102.352  1.00  0.00     0.000 C 
BRANCH  11  12
ATOM     12  C   UNL     1     193.651   1.829 103.788  1.00  0.00     0.006 C 
BRANCH  12  13
ATOM     13  C   UNL     1     192.678   2.458 104.795  1.00  0.00     0.053 C 
BRANCH  13  14
ATOM     14  C   UNL     1     191.470   1.597 105.014  1.00  0.00     0.041 C 
ATOM     15  O   UNL     1     190.468   1.710 104.260  1.00  0.00    -0.550 OA
ATOM     16  O   UNL     1     191.434   0.708 106.080  1.00  0.00    -0.550 OA
ENDBRANCH  13  14
ENDBRANCH  12  13
ENDBRANCH  11  12
ENDBRANCH  10  11
ENDBRANCH   9  10
ENDBRANCH   8   9
ENDBRANCH   7   8
ENDBRANCH   6   7
ENDBRANCH   5   6
ENDBRANCH   4   5
ENDBRANCH   3   4
ENDBRANCH   2   3
ENDBRANCH   1   2
BRANCH   1  17
ATOM     17  C   UNL     1     192.089  -5.002 104.053  1.00  0.00     0.000 C 
BRANCH  17  18
ATOM     18  C   UNL     1     192.288  -5.767 102.735  1.00  0.00     0.000 C 
BRANCH  18  19
ATOM     19  C   UNL     1     191.969  -4.911 101.498  1.00  0.00     0.000 C 
BRANCH  19  20
ATOM     20  C   UNL     1     191.231  -5.698 100.404  1.00  0.00     0.000 C 
BRANCH  20  21
ATOM     21  C   UNL     1     190.437  -6.888 100.964  1.00  0.00     0.000 C 
BRANCH  21  22
ATOM     22  C   UNL     1     188.914  -6.701 100.840  1.00  0.00    -0.000 C 
BRANCH  22  23
ATOM     23  C   UNL     1     188.179  -6.664 102.199  1.00  0.00    -0.000 C 
BRANCH  23  24
ATOM     24  C   UNL     1     188.675  -7.761 103.159  1.00  0.00    -0.000 C 
BRANCH  24  25
ATOM     25  C   UNL     1     188.935  -7.245 104.588  1.00  0.00    -0.000 C 
BRANCH  25  26
ATOM     26  C   UNL     1     188.528  -5.783 104.848  1.00  0.00    -0.000 C 
BRANCH  26  27
ATOM     27  C   UNL     1     188.196  -5.498 106.321  1.00  0.00    -0.000 C 
BRANCH  27  28
ATOM     28  C   UNL     1     188.868  -4.218 106.848  1.00  0.00    -0.000 C 
BRANCH  28  29
ATOM     29  C   UNL     1     189.802  -4.455 108.054  1.00  0.00    -0.003 C 
ATOM     30  C   UNL     1     191.241  -4.751 107.631  1.00  0.00     0.004 C 
ENDBRANCH  28  29
ENDBRANCH  27  28
ENDBRANCH  26  27
ENDBRANCH  25  26
ENDBRANCH  24  25
ENDBRANCH  23  24
ENDBRANCH  22  23
ENDBRANCH  21  22
ENDBRANCH  20  21
ENDBRANCH  19  20
ENDBRANCH  18  19
ENDBRANCH  17  18
ENDBRANCH   1  17
TORSDOF 26
ENDMDL
MODEL 2
REMARK VINA RESULT:    -3.945      4.725      9.566
REMARK INTER + INTRA:         -15.185
REMARK INTER:                 -11.716
REMARK INTRA:                  -3.469
REMARK UNBOUND:                -5.244
REMARK SMILES CCCCCCCCCCCCCCCCCCCCCCCCCCCC(=O)[O-]
REMARK SMILES IDX 15 1 16 2 17 3 18 4 19 5 20 6 21 7 22 8 23 9 24 10 25 11
REMARK SMILES IDX 26 12 27 13 28 14 29 15 30 16 14 17 13 18 12 19 11 20 10 21
REMARK SMILES IDX 9 22 8 23 7 24 6 25 5 26 4 27 3 28 2 29 1 30
REMARK H PARENT
REMARK Flexibility Score: inf
ROOT
ATOM      1  C   UNL     1     193.929   2.684 103.137  1.00  0.00     0.000 C 
ENDROOT
BRANCH   1   2
ATOM      2  C   UNL     1     193.334   2.405 104.526  1.00  0.00     0.000 C 
BRANCH   2   3
ATOM      3  C   UNL     1     191.796   2.366 104.509  1.00  0.00     0.000 C 
BRANCH   3   4
ATOM      4  C   UNL     1     191.219   1.099 105.165  1.00  0.00     0.000 C 
BRANCH   4   5
ATOM      5  C   UNL     1     191.885   0.691 106.491  1.00  0.00     0.000 C 
BRANCH   5   6
ATOM      6  C   UNL     1     192.330  -0.778 106.515  1.00  0.00     0.000 C 
BRANCH   6   7
ATOM      7  C   UNL     1     192.558  -1.308 105.091  1.00  0.00     0.000 C 
BRANCH   7   8
ATOM      8  C   UNL     1     194.043  -1.320 104.684  1.00  0.00     0.000 C 
BRANCH   8   9
ATOM      9  C   UNL     1     194.306  -1.550 103.184  1.00  0.00     0.000 C 
BRANCH   9  10
ATOM     10  C   UNL     1     193.017  -1.800 102.383  1.00  0.00     0.000 C 
BRANCH  10  11
ATOM     11  C   UNL     1     193.268  -1.871 100.869  1.00  0.00     0.000 C 
BRANCH  11  12
ATOM     12  C   UNL     1     193.607  -3.295 100.392  1.00  0.00     0.006 C 
BRANCH  12  13
ATOM     13  C   UNL     1     192.364  -4.054  99.910  1.00  0.00     0.053 C 
BRANCH  13  14
ATOM     14  C   UNL     1     192.020  -5.195 100.820  1.00  0.00     0.041 C 
ATOM     15  O   UNL     1     192.867  -6.099 101.048  1.00  0.00    -0.550 OA
ATOM     16  O   UNL     1     190.751  -5.285 101.375  1.00  0.00    -0.550 OA
ENDBRANCH  13  14
ENDBRANCH  12  13
ENDBRANCH  11  12
ENDBRANCH  10  11
ENDBRANCH   9  10
ENDBRANCH   8   9
ENDBRANCH   7   8
ENDBRANCH   6   7
ENDBRANCH   5   6
ENDBRANCH   4   5
ENDBRANCH   3   4
ENDBRANCH   2   3
ENDBRANCH   1   2
BRANCH   1  17
ATOM     17  C   UNL     1     193.330   1.773 102.050  1.00  0.00     0.000 C 
BRANCH  17  18
ATOM     18  C   UNL     1     193.210   2.475 100.688  1.00  0.00     0.000 C 
BRANCH  18  19
ATOM     19  C   UNL     1     192.252   1.749  99.729  1.00  0.00     0.000 C 
BRANCH  19  20
ATOM     20  C   UNL     1     191.738   2.657  98.601  1.00  0.00     0.000 C 
BRANCH  20  21
ATOM     21  C   UNL     1     192.223   4.108  98.741  1.00  0.00     0.000 C 
BRANCH  21  22
ATOM     22  C   UNL     1     191.128   5.139  98.414  1.00  0.00    -0.000 C 
BRANCH  22  23
ATOM     23  C   UNL     1     189.738   4.511  98.164  1.00  0.00    -0.000 C 
BRANCH  23  24
ATOM     24  C   UNL     1     188.740   5.522  97.571  1.00  0.00    -0.000 C 
BRANCH  24  25
ATOM     25  C   UNL     1     188.281   5.158  96.145  1.00  0.00    -0.000 C 
BRANCH  25  26
ATOM     26  C   UNL     1     188.888   3.868  95.564  1.00  0.00    -0.000 C 
BRANCH  26  27
ATOM     27  C   UNL     1     189.720   4.107  94.294  1.00  0.00    -0.000 C 
BRANCH  27  28
ATOM     28  C   UNL     1     191.207   4.361  94.594  1.00  0.00    -0.000 C 
BRANCH  28  29
ATOM     29  C   UNL     1     191.957   3.121  95.126  1.00  0.00    -0.003 C 
ATOM     30  C   UNL     1     191.794   1.904  94.215  1.00  0.00     0.004 C 
ENDBRANCH  28  29
ENDBRANCH  27  28
ENDBRANCH  26  27
ENDBRANCH  25  26
ENDBRANCH  24  25
ENDBRANCH  23  24
ENDBRANCH  22  23
ENDBRANCH  21  22
ENDBRANCH  20  21
ENDBRANCH  19  20
ENDBRANCH  18  19
ENDBRANCH  17  18
ENDBRANCH   1  17
TORSDOF 26
ENDMDL
MODEL 3
REMARK VINA RESULT:    -3.931      3.519      8.772
REMARK INTER + INTRA:         -15.149
REMARK INTER:                 -11.877
REMARK INTRA:                  -3.271
REMARK UNBOUND:                -5.244
REMARK SMILES CCCCCCCCCCCCCCCCCCCCCCCCCCCC(=O)[O-]
REMARK SMILES IDX 15 1 16 2 17 3 18 4 19 5 20 6 21 7 22 8 23 9 24 10 25 11
REMARK SMILES IDX 26 12 27 13 28 14 29 15 30 16 14 17 13 18 12 19 11 20 10 21
REMARK SMILES IDX 9 22 8 23 7 24 6 25 5 26 4 27 3 28 2 29 1 30
REMARK H PARENT
REMARK Flexibility Score: inf
ROOT
ATOM      1  C   UNL     1     192.826  -2.185 104.812  1.00  0.00     0.000 C 
ENDROOT
BRANCH   1   2
ATOM      2  C   UNL     1     193.475  -1.938 103.440  1.00  0.00     0.000 C 
BRANCH   2   3
ATOM      3  C   UNL     1     192.473  -2.093 102.282  1.00  0.00     0.000 C 
BRANCH   3   4
ATOM      4  C   UNL     1     193.153  -2.129 100.902  1.00  0.00     0.000 C 
BRANCH   4   5
ATOM      5  C   UNL     1     194.684  -1.968 100.924  1.00  0.00     0.000 C 
BRANCH   5   6
ATOM      6  C   UNL     1     195.414  -3.041 100.105  1.00  0.00     0.000 C 
BRANCH   6   7
ATOM      7  C   UNL     1     195.286  -4.423 100.766  1.00  0.00     0.000 C 
BRANCH   7   8
ATOM      8  C   UNL     1     194.786  -5.509  99.797  1.00  0.00     0.000 C 
BRANCH   8   9
ATOM      9  C   UNL     1     193.921  -4.995  98.632  1.00  0.00     0.000 C 
BRANCH   9  10
ATOM     10  C   UNL     1     192.414  -5.083  98.923  1.00  0.00     0.000 C 
BRANCH  10  11
ATOM     11  C   UNL     1     192.087  -6.084 100.042  1.00  0.00     0.000 C 
BRANCH  11  12
ATOM     12  C   UNL     1     190.928  -5.611 100.938  1.00  0.00     0.006 C 
BRANCH  12  13
ATOM     13  C   UNL     1     190.179  -6.785 101.582  1.00  0.00     0.053 C 
BRANCH  13  14
ATOM     14  C   UNL     1     188.707  -6.727 101.304  1.00  0.00     0.041 C 
ATOM     15  O   UNL     1     188.284  -6.784 100.119  1.00  0.00    -0.550 OA
ATOM     16  O   UNL     1     187.807  -6.561 102.348  1.00  0.00    -0.550 OA
ENDBRANCH  13  14
ENDBRANCH  12  13
ENDBRANCH  11  12
ENDBRANCH  10  11
ENDBRANCH   9  10
ENDBRANCH   8   9
ENDBRANCH   7   8
ENDBRANCH   6   7
ENDBRANCH   5   6
ENDBRANCH   4   5
ENDBRANCH   3   4
ENDBRANCH   2   3
ENDBRANCH   1   2
BRANCH   1  17
ATOM     17  C   UNL     1     193.084  -1.031 105.797  1.00  0.00     0.000 C 
BRANCH  17  18
ATOM     18  C   UNL     1     191.966   0.023 105.781  1.00  0.00     0.000 C 
BRANCH  18  19
ATOM     19  C   UNL     1     192.421   1.380 106.345  1.00  0.00     0.000 C 
BRANCH  19  20
ATOM     20  C   UNL     1     193.299   2.169 105.362  1.00  0.00     0.000 C 
BRANCH  20  21
ATOM     21  C   UNL     1     192.618   2.384 104.002  1.00  0.00     0.000 C 
BRANCH  21  22
ATOM     22  C   UNL     1     193.624   2.612 102.859  1.00  0.00    -0.000 C 
BRANCH  22  23
ATOM     23  C   UNL     1     193.614   1.497 101.790  1.00  0.00    -0.000 C 
BRANCH  23  24
ATOM     24  C   UNL     1     192.275   1.428 101.033  1.00  0.00    -0.000 C 
BRANCH  24  25
ATOM     25  C   UNL     1     192.353   2.005  99.606  1.00  0.00    -0.000 C 
BRANCH  25  26
ATOM     26  C   UNL     1     192.802   3.475  99.511  1.00  0.00    -0.000 C 
BRANCH  26  27
ATOM     27  C   UNL     1     191.965   4.301  98.521  1.00  0.00    -0.000 C 
BRANCH  27  28
ATOM     28  C   UNL     1     190.850   3.479  97.852  1.00  0.00    -0.000 C 
BRANCH  28  29
ATOM     29  C   UNL     1     190.586   3.867  96.381  1.00  0.00    -0.003 C 
ATOM     30  C   UNL     1     191.850   3.803  95.524  1.00  0.00     0.004 C 
ENDBRANCH  28  29
ENDBRANCH  27  28
ENDBRANCH  26  27
ENDBRANCH  25  26
ENDBRANCH  24  25
ENDBRANCH  23  24
ENDBRANCH  22  23
ENDBRANCH  21  22
ENDBRANCH  20  21
ENDBRANCH  19  20
ENDBRANCH  18  19
ENDBRANCH  17  18
ENDBRANCH   1  17
TORSDOF 26
ENDMDL
MODEL 4
REMARK VINA RESULT:    -3.916      2.981      5.406
REMARK INTER + INTRA:         -15.113
REMARK INTER:                 -11.117
REMARK INTRA:                  -3.996
REMARK UNBOUND:                -5.244
REMARK SMILES CCCCCCCCCCCCCCCCCCCCCCCCCCCC(=O)[O-]
REMARK SMILES IDX 15 1 16 2 17 3 18 4 19 5 20 6 21 7 22 8 23 9 24 10 25 11
REMARK SMILES IDX 26 12 27 13 28 14 29 15 30 16 14 17 13 18 12 19 11 20 10 21
REMARK SMILES IDX 9 22 8 23 7 24 6 25 5 26 4 27 3 28 2 29 1 30
REMARK H PARENT
REMARK Flexibility Score: inf
ROOT
ATOM      1  C   UNL     1     191.645  -2.540 103.932  1.00  0.00     0.000 C 
ENDROOT
BRANCH   1   2
ATOM      2  C   UNL     1     192.388  -1.195 103.975  1.00  0.00     0.000 C 
BRANCH   2   3
ATOM      3  C   UNL     1     192.969  -0.891 105.367  1.00  0.00     0.000 C 
BRANCH   3   4
ATOM      4  C   UNL     1     192.394   0.393 105.990  1.00  0.00     0.000 C 
BRANCH   4   5
ATOM      5  C   UNL     1     192.303   1.597 105.036  1.00  0.00     0.000 C 
BRANCH   5   6
ATOM      6  C   UNL     1     193.669   2.039 104.492  1.00  0.00     0.000 C 
BRANCH   6   7
ATOM      7  C   UNL     1     193.527   2.689 103.107  1.00  0.00     0.000 C 
BRANCH   7   8
ATOM      8  C   UNL     1     193.696   1.685 101.952  1.00  0.00     0.000 C 
BRANCH   8   9
ATOM      9  C   UNL     1     192.399   1.337 101.198  1.00  0.00     0.000 C 
BRANCH   9  10
ATOM     10  C   UNL     1     192.407   1.824  99.739  1.00  0.00     0.000 C 
BRANCH  10  11
ATOM     11  C   UNL     1     192.768   3.313  99.617  1.00  0.00     0.000 C 
BRANCH  11  12
ATOM     12  C   UNL     1     191.967   4.026  98.513  1.00  0.00     0.006 C 
BRANCH  12  13
ATOM     13  C   UNL     1     190.546   3.465  98.375  1.00  0.00     0.053 C 
BRANCH  13  14
ATOM     14  C   UNL     1     189.614   4.454  97.743  1.00  0.00     0.041 C 
ATOM     15  O   UNL     1     189.721   5.681  98.006  1.00  0.00    -0.550 OA
ATOM     16  O   UNL     1     188.599   4.016  96.902  1.00  0.00    -0.550 OA
ENDBRANCH  13  14
ENDBRANCH  12  13
ENDBRANCH  11  12
ENDBRANCH  10  11
ENDBRANCH   9  10
ENDBRANCH   8   9
ENDBRANCH   7   8
ENDBRANCH   6   7
ENDBRANCH   5   6
ENDBRANCH   4   5
ENDBRANCH   3   4
ENDBRANCH   2   3
ENDBRANCH   1   2
BRANCH   1  17
ATOM     17  C   UNL     1     192.368  -3.634 104.736  1.00  0.00     0.000 C 
BRANCH  17  18
ATOM     18  C   UNL     1     193.363  -4.438 103.884  1.00  0.00     0.000 C 
BRANCH  18  19
ATOM     19  C   UNL     1     194.809  -3.934 104.027  1.00  0.00     0.000 C 
BRANCH  19  20
ATOM     20  C   UNL     1     195.544  -3.843 102.681  1.00  0.00     0.000 C 
BRANCH  20  21
ATOM     21  C   UNL     1     195.252  -2.531 101.935  1.00  0.00     0.000 C 
BRANCH  21  22
ATOM     22  C   UNL     1     194.558  -2.756 100.579  1.00  0.00    -0.000 C 
BRANCH  22  23
ATOM     23  C   UNL     1     193.119  -2.198 100.517  1.00  0.00    -0.000 C 
BRANCH  23  24
ATOM     24  C   UNL     1     192.060  -3.316 100.515  1.00  0.00    -0.000 C 
BRANCH  24  25
ATOM     25  C   UNL     1     192.645  -4.706 100.194  1.00  0.00    -0.000 C 
BRANCH  25  26
ATOM     26  C   UNL     1     191.906  -5.897 100.830  1.00  0.00    -0.000 C 
BRANCH  26  27
ATOM     27  C   UNL     1     190.653  -5.484 101.618  1.00  0.00    -0.000 C 
BRANCH  27  28
ATOM     28  C   UNL     1     189.933  -6.681 102.264  1.00  0.00    -0.000 C 
BRANCH  28  29
ATOM     29  C   UNL     1     189.035  -7.469 101.287  1.00  0.00    -0.003 C 
ATOM     30  C   UNL     1     187.585  -6.984 101.304  1.00  0.00     0.004 C 
ENDBRANCH  28  29
ENDBRANCH  27  28
ENDBRANCH  26  27
ENDBRANCH  25  26
ENDBRANCH  24  25
ENDBRANCH  23  24
ENDBRANCH  22  23
ENDBRANCH  21  22
ENDBRANCH  20  21
ENDBRANCH  19  20
ENDBRANCH  18  19
ENDBRANCH  17  18
ENDBRANCH   1  17
TORSDOF 26
ENDMDL
MODEL 5
REMARK VINA RESULT:    -3.894      2.580      5.609
REMARK INTER + INTRA:         -15.057
REMARK INTER:                 -11.029
REMARK INTRA:                  -4.028
REMARK UNBOUND:                -5.244
REMARK SMILES CCCCCCCCCCCCCCCCCCCCCCCCCCCC(=O)[O-]
REMARK SMILES IDX 15 1 16 2 17 3 18 4 19 5 20 6 21 7 22 8 23 9 24 10 25 11
REMARK SMILES IDX 26 12 27 13 28 14 29 15 30 16 14 17 13 18 12 19 11 20 10 21
REMARK SMILES IDX 9 22 8 23 7 24 6 25 5 26 4 27 3 28 2 29 1 30
REMARK H PARENT
REMARK Flexibility Score: inf
ROOT
ATOM      1  C   UNL     1     188.757  -7.276 101.357  1.00  0.00     0.000 C 
ENDROOT
BRANCH   1   2
ATOM      2  C   UNL     1     189.869  -6.281 100.991  1.00  0.00     0.000 C 
BRANCH   2   3
ATOM      3  C   UNL     1     191.269  -6.919 101.043  1.00  0.00     0.000 C 
BRANCH   3   4
ATOM      4  C   UNL     1     192.403  -5.879 101.067  1.00  0.00     0.000 C 
BRANCH   4   5
ATOM      5  C   UNL     1     191.956  -4.422 100.854  1.00  0.00     0.000 C 
BRANCH   5   6
ATOM      6  C   UNL     1     192.928  -3.616  99.981  1.00  0.00     0.000 C 
BRANCH   6   7
ATOM      7  C   UNL     1     193.552  -2.457 100.775  1.00  0.00     0.000 C 
BRANCH   7   8
ATOM      8  C   UNL     1     192.576  -1.289 101.002  1.00  0.00     0.000 C 
BRANCH   8   9
ATOM      9  C   UNL     1     193.239   0.090 101.176  1.00  0.00     0.000 C 
BRANCH   9  10
ATOM     10  C   UNL     1     192.241   1.252 101.054  1.00  0.00     0.000 C 
BRANCH  10  11
ATOM     11  C   UNL     1     192.761   2.385 100.154  1.00  0.00     0.000 C 
BRANCH  11  12
ATOM     12  C   UNL     1     192.119   2.371  98.755  1.00  0.00     0.006 C 
BRANCH  12  13
ATOM     13  C   UNL     1     191.619   3.759  98.335  1.00  0.00     0.053 C 
BRANCH  13  14
ATOM     14  C   UNL     1     190.254   3.697  97.718  1.00  0.00     0.041 C 
ATOM     15  O   UNL     1     189.228   3.769  98.444  1.00  0.00    -0.550 OA
ATOM     16  O   UNL     1     190.117   3.511  96.348  1.00  0.00    -0.550 OA
ENDBRANCH  13  14
ENDBRANCH  12  13
ENDBRANCH  11  12
ENDBRANCH  10  11
ENDBRANCH   9  10
ENDBRANCH   8   9
ENDBRANCH   7   8
ENDBRANCH   6   7
ENDBRANCH   5   6
ENDBRANCH   4   5
ENDBRANCH   3   4
ENDBRANCH   2   3
ENDBRANCH   1   2
BRANCH   1  17
ATOM     17  C   UNL     1     188.149  -6.990 102.742  1.00  0.00     0.000 C 
BRANCH  17  18
ATOM     18  C   UNL     1     188.427  -8.113 103.754  1.00  0.00     0.000 C 
BRANCH  18  19
ATOM     19  C   UNL     1     189.139  -7.607 105.020  1.00  0.00     0.000 C 
BRANCH  19  20
ATOM     20  C   UNL     1     190.668  -7.730 104.933  1.00  0.00     0.000 C 
BRANCH  20  21
ATOM     21  C   UNL     1     191.351  -6.394 104.601  1.00  0.00     0.000 C 
BRANCH  21  22
ATOM     22  C   UNL     1     190.455  -5.176 104.889  1.00  0.00    -0.000 C 
BRANCH  22  23
ATOM     23  C   UNL     1     191.025  -3.844 104.354  1.00  0.00    -0.000 C 
BRANCH  23  24
ATOM     24  C   UNL     1     192.564  -3.805 104.409  1.00  0.00    -0.000 C 
BRANCH  24  25
ATOM     25  C   UNL     1     193.135  -2.374 104.425  1.00  0.00    -0.000 C 
BRANCH  25  26
ATOM     26  C   UNL     1     192.090  -1.245 104.472  1.00  0.00    -0.000 C 
BRANCH  26  27
ATOM     27  C   UNL     1     192.628   0.054 105.093  1.00  0.00    -0.000 C 
BRANCH  27  28
ATOM     28  C   UNL     1     191.781   1.286 104.726  1.00  0.00    -0.000 C 
BRANCH  28  29
ATOM     29  C   UNL     1     192.616   2.551 104.431  1.00  0.00    -0.003 C 
ATOM     30  C   UNL     1     194.119   2.272 104.428  1.00  0.00     0.004 C 
ENDBRANCH  28  29
ENDBRANCH  27  28
ENDBRANCH  26  27
ENDBRANCH  25  26
ENDBRANCH  24  25
ENDBRANCH  23  24
ENDBRANCH  22  23
ENDBRANCH  21  22
ENDBRANCH  20  21
ENDBRANCH  19  20
ENDBRANCH  18  19
ENDBRANCH  17  18
ENDBRANCH   1  17
TORSDOF 26
ENDMDL
MODEL 6
REMARK VINA RESULT:    -3.889      4.336      6.757
REMARK INTER + INTRA:         -15.043
REMARK INTER:                 -12.470
REMARK INTRA:                  -2.573
REMARK UNBOUND:                -5.244
REMARK SMILES CCCCCCCCCCCCCCCCCCCCCCCCCCCC(=O)[O-]
REMARK SMILES IDX 15 1 16 2 17 3 18 4 19 5 20 6 21 7 22 8 23 9 24 10 25 11
REMARK SMILES IDX 26 12 27 13 28 14 29 15 30 16 14 17 13 18 12 19 11 20 10 21
REMARK SMILES IDX 9 22 8 23 7 24 6 25 5 26 4 27 3 28 2 29 1 30
REMARK H PARENT
REMARK Flexibility Score: inf
ROOT
ATOM      1  C   UNL     1     192.445   1.470 105.496  1.00  0.00     0.000 C 
ENDROOT
BRANCH   1   2
ATOM      2  C   UNL     1     193.608   2.118 104.727  1.00  0.00     0.000 C 
BRANCH   2   3
ATOM      3  C   UNL     1     193.160   2.719 103.383  1.00  0.00     0.000 C 
BRANCH   3   4
ATOM      4  C   UNL     1     193.660   1.914 102.170  1.00  0.00     0.000 C 
BRANCH   4   5
ATOM      5  C   UNL     1     192.556   1.402 101.227  1.00  0.00     0.000 C 
BRANCH   5   6
ATOM      6  C   UNL     1     192.610   2.042  99.833  1.00  0.00     0.000 C 
BRANCH   6   7
ATOM      7  C   UNL     1     193.097   3.498  99.912  1.00  0.00     0.000 C 
BRANCH   7   8
ATOM      8  C   UNL     1     192.307   4.447  98.993  1.00  0.00     0.000 C 
BRANCH   8   9
ATOM      9  C   UNL     1     191.832   3.824  97.667  1.00  0.00     0.000 C 
BRANCH   9  10
ATOM     10  C   UNL     1     190.315   3.578  97.632  1.00  0.00     0.000 C 
BRANCH  10  11
ATOM     11  C   UNL     1     189.679   4.006  96.300  1.00  0.00     0.000 C 
BRANCH  11  12
ATOM     12  C   UNL     1     190.728   4.372  95.235  1.00  0.00     0.006 C 
BRANCH  12  13
ATOM     13  C   UNL     1     190.505   3.613  93.920  1.00  0.00     0.053 C 
BRANCH  13  14
ATOM     14  C   UNL     1     191.368   2.391  93.829  1.00  0.00     0.041 C 
ATOM     15  O   UNL     1     191.319   1.657  92.806  1.00  0.00    -0.550 OA
ATOM     16  O   UNL     1     192.187   2.036  94.892  1.00  0.00    -0.550 OA
ENDBRANCH  13  14
ENDBRANCH  12  13
ENDBRANCH  11  12
ENDBRANCH  10  11
ENDBRANCH   9  10
ENDBRANCH   8   9
ENDBRANCH   7   8
ENDBRANCH   6   7
ENDBRANCH   5   6
ENDBRANCH   4   5
ENDBRANCH   3   4
ENDBRANCH   2   3
ENDBRANCH   1   2
BRANCH   1  17
ATOM     17  C   UNL     1     192.140   0.045 105.003  1.00  0.00     0.000 C 
BRANCH  17  18
ATOM     18  C   UNL     1     193.176  -0.983 105.485  1.00  0.00     0.000 C 
BRANCH  18  19
ATOM     19  C   UNL     1     193.895  -1.690 104.323  1.00  0.00     0.000 C 
BRANCH  19  20
ATOM     20  C   UNL     1     193.002  -1.857 103.084  1.00  0.00     0.000 C 
BRANCH  20  21
ATOM     21  C   UNL     1     193.801  -2.223 101.823  1.00  0.00     0.000 C 
BRANCH  21  22
ATOM     22  C   UNL     1     192.914  -2.360 100.572  1.00  0.00    -0.000 C 
BRANCH  22  23
ATOM     23  C   UNL     1     191.747  -3.358 100.744  1.00  0.00    -0.000 C 
BRANCH  23  24
ATOM     24  C   UNL     1     192.140  -4.789 100.335  1.00  0.00    -0.000 C 
BRANCH  24  25
ATOM     25  C   UNL     1     191.778  -5.846 101.397  1.00  0.00    -0.000 C 
BRANCH  25  26
ATOM     26  C   UNL     1     190.716  -5.414 102.425  1.00  0.00    -0.000 C 
BRANCH  26  27
ATOM     27  C   UNL     1     189.932  -6.594 103.020  1.00  0.00    -0.000 C 
BRANCH  27  28
ATOM     28  C   UNL     1     188.478  -6.658 102.519  1.00  0.00    -0.000 C 
BRANCH  28  29
ATOM     29  C   UNL     1     188.350  -6.708 100.982  1.00  0.00    -0.003 C 
ATOM     30  C   UNL     1     188.108  -8.125 100.461  1.00  0.00     0.004 C 
ENDBRANCH  28  29
ENDBRANCH  27  28
ENDBRANCH  26  27
ENDBRANCH  25  26
ENDBRANCH  24  25
ENDBRANCH  23  24
ENDBRANCH  22  23
ENDBRANCH  21  22
ENDBRANCH  20  21
ENDBRANCH  19  20
ENDBRANCH  18  19
ENDBRANCH  17  18
ENDBRANCH   1  17
TORSDOF 26
ENDMDL
MODEL 7
REMARK VINA RESULT:    -3.873      2.565      5.043
REMARK INTER + INTRA:         -15.003
REMARK INTER:                 -10.487
REMARK INTRA:                  -4.516
REMARK UNBOUND:                -5.244
REMARK SMILES CCCCCCCCCCCCCCCCCCCCCCCCCCCC(=O)[O-]
REMARK SMILES IDX 15 1 16 2 17 3 18 4 19 5 20 6 21 7 22 8 23 9 24 10 25 11
REMARK SMILES IDX 26 12 27 13 28 14 29 15 30 16 14 17 13 18 12 19 11 20 10 21
REMARK SMILES IDX 9 22 8 23 7 24 6 25 5 26 4 27 3 28 2 29 1 30
REMARK H PARENT
REMARK Flexibility Score: inf
ROOT
ATOM      1  C   UNL     1     192.857  -4.003 104.656  1.00  0.00     0.000 C 
ENDROOT
BRANCH   1   2
ATOM      2  C   UNL     1     191.779  -3.156 103.961  1.00  0.00     0.000 C 
BRANCH   2   3
ATOM      3  C   UNL     1     192.172  -1.671 103.864  1.00  0.00     0.000 C 
BRANCH   3   4
ATOM      4  C   UNL     1     193.129  -1.229 104.985  1.00  0.00     0.000 C 
BRANCH   4   5
ATOM      5  C   UNL     1     192.444  -0.676 106.247  1.00  0.00     0.000 C 
BRANCH   5   6
ATOM      6  C   UNL     1     191.745   0.670 106.012  1.00  0.00     0.000 C 
BRANCH   6   7
ATOM      7  C   UNL     1     192.759   1.761 105.635  1.00  0.00     0.000 C 
BRANCH   7   8
ATOM      8  C   UNL     1     192.444   2.434 104.287  1.00  0.00     0.000 C 
BRANCH   8   9
ATOM      9  C   UNL     1     193.652   2.603 103.346  1.00  0.00     0.000 C 
BRANCH   9  10
ATOM     10  C   UNL     1     193.838   1.411 102.393  1.00  0.00     0.000 C 
BRANCH  10  11
ATOM     11  C   UNL     1     192.708   1.302 101.357  1.00  0.00     0.000 C 
BRANCH  11  12
ATOM     12  C   UNL     1     192.919   2.235 100.151  1.00  0.00     0.006 C 
BRANCH  12  13
ATOM     13  C   UNL     1     191.642   2.400  99.317  1.00  0.00     0.053 C 
BRANCH  13  14
ATOM     14  C   UNL     1     191.593   3.732  98.630  1.00  0.00     0.041 C 
ATOM     15  O   UNL     1     190.684   3.980  97.795  1.00  0.00    -0.550 OA
ATOM     16  O   UNL     1     192.579   4.678  98.876  1.00  0.00    -0.550 OA
ENDBRANCH  13  14
ENDBRANCH  12  13
ENDBRANCH  11  12
ENDBRANCH  10  11
ENDBRANCH   9  10
ENDBRANCH   8   9
ENDBRANCH   7   8
ENDBRANCH   6   7
ENDBRANCH   5   6
ENDBRANCH   4   5
ENDBRANCH   3   4
ENDBRANCH   2   3
ENDBRANCH   1   2
BRANCH   1  17
ATOM     17  C   UNL     1     193.397  -5.122 103.749  1.00  0.00     0.000 C 
BRANCH  17  18
ATOM     18  C   UNL     1     194.926  -5.256 103.817  1.00  0.00     0.000 C 
BRANCH  18  19
ATOM     19  C   UNL     1     195.642  -3.894 103.811  1.00  0.00     0.000 C 
BRANCH  19  20
ATOM     20  C   UNL     1     195.978  -3.405 102.394  1.00  0.00     0.000 C 
BRANCH  20  21
ATOM     21  C   UNL     1     195.406  -2.009 102.098  1.00  0.00     0.000 C 
BRANCH  21  22
ATOM     22  C   UNL     1     194.367  -2.018 100.962  1.00  0.00    -0.000 C 
BRANCH  22  23
ATOM     23  C   UNL     1     193.992  -3.434 100.473  1.00  0.00    -0.000 C 
BRANCH  23  24
ATOM     24  C   UNL     1     192.479  -3.585 100.230  1.00  0.00    -0.000 C 
BRANCH  24  25
ATOM     25  C   UNL     1     191.998  -5.048 100.276  1.00  0.00    -0.000 C 
BRANCH  25  26
ATOM     26  C   UNL     1     190.752  -5.308 101.141  1.00  0.00    -0.000 C 
BRANCH  26  27
ATOM     27  C   UNL     1     190.665  -6.752 101.663  1.00  0.00    -0.000 C 
BRANCH  27  28
ATOM     28  C   UNL     1     189.255  -7.351 101.528  1.00  0.00    -0.000 C 
BRANCH  28  29
ATOM     29  C   UNL     1     188.191  -6.642 102.394  1.00  0.00    -0.003 C 
ATOM     30  C   UNL     1     188.722  -6.259 103.776  1.00  0.00     0.004 C 
ENDBRANCH  28  29
ENDBRANCH  27  28
ENDBRANCH  26  27
ENDBRANCH  25  26
ENDBRANCH  24  25
ENDBRANCH  23  24
ENDBRANCH  22  23
ENDBRANCH  21  22
ENDBRANCH  20  21
ENDBRANCH  19  20
ENDBRANCH  18  19
ENDBRANCH  17  18
ENDBRANCH   1  17
TORSDOF 26
ENDMDL
MODEL 8
REMARK VINA RESULT:    -3.844      1.433      2.058
REMARK INTER + INTRA:         -14.930
REMARK INTER:                  -9.200
REMARK INTRA:                  -5.730
REMARK UNBOUND:                -5.244
REMARK SMILES CCCCCCCCCCCCCCCCCCCCCCCCCCCC(=O)[O-]
REMARK SMILES IDX 15 1 16 2 17 3 18 4 19 5 20 6 21 7 22 8 23 9 24 10 25 11
REMARK SMILES IDX 26 12 27 13 28 14 29 15 30 16 14 17 13 18 12 19 11 20 10 21
REMARK SMILES IDX 9 22 8 23 7 24 6 25 5 26 4 27 3 28 2 29 1 30
REMARK H PARENT
REMARK Flexibility Score: inf
ROOT
ATOM      1  C   UNL     1     191.431  -3.705 103.447  1.00  0.00     0.000 C 
ENDROOT
BRANCH   1   2
ATOM      2  C   UNL     1     192.069  -2.556 104.242  1.00  0.00     0.000 C 
BRANCH   2   3
ATOM      3  C   UNL     1     193.434  -2.942 104.839  1.00  0.00     0.000 C 
BRANCH   3   4
ATOM      4  C   UNL     1     194.372  -1.736 105.025  1.00  0.00     0.000 C 
BRANCH   4   5
ATOM      5  C   UNL     1     195.645  -1.760 104.160  1.00  0.00     0.000 C 
BRANCH   5   6
ATOM      6  C   UNL     1     195.667  -2.917 103.151  1.00  0.00     0.000 C 
BRANCH   6   7
ATOM      7  C   UNL     1     195.418  -2.408 101.723  1.00  0.00     0.000 C 
BRANCH   7   8
ATOM      8  C   UNL     1     194.245  -3.121 101.026  1.00  0.00     0.000 C 
BRANCH   8   9
ATOM      9  C   UNL     1     193.129  -2.192 100.515  1.00  0.00     0.000 C 
BRANCH   9  10
ATOM     10  C   UNL     1     193.111  -0.831 101.229  1.00  0.00     0.000 C 
BRANCH  10  11
ATOM     11  C   UNL     1     191.686  -0.287 101.426  1.00  0.00     0.000 C 
BRANCH  11  12
ATOM     12  C   UNL     1     191.671   1.101 102.091  1.00  0.00     0.006 C 
BRANCH  12  13
ATOM     13  C   UNL     1     191.494   1.012 103.612  1.00  0.00     0.053 C 
BRANCH  13  14
ATOM     14  C   UNL     1     192.731   1.438 104.343  1.00  0.00     0.041 C 
ATOM     15  O   UNL     1     193.769   1.749 103.702  1.00  0.00    -0.550 OA
ATOM     16  O   UNL     1     192.752   1.445 105.732  1.00  0.00    -0.550 OA
ENDBRANCH  13  14
ENDBRANCH  12  13
ENDBRANCH  11  12
ENDBRANCH  10  11
ENDBRANCH   9  10
ENDBRANCH   8   9
ENDBRANCH   7   8
ENDBRANCH   6   7
ENDBRANCH   5   6
ENDBRANCH   4   5
ENDBRANCH   3   4
ENDBRANCH   2   3
ENDBRANCH   1   2
BRANCH   1  17
ATOM     17  C   UNL     1     192.254  -5.003 103.530  1.00  0.00     0.000 C 
BRANCH  17  18
ATOM     18  C   UNL     1     192.104  -5.881 102.277  1.00  0.00     0.000 C 
BRANCH  18  19
ATOM     19  C   UNL     1     191.156  -5.269 101.233  1.00  0.00     0.000 C 
BRANCH  19  20
ATOM     20  C   UNL     1     189.786  -5.964 101.193  1.00  0.00     0.000 C 
BRANCH  20  21
ATOM     21  C   UNL     1     189.820  -7.374 101.804  1.00  0.00     0.000 C 
BRANCH  21  22
ATOM     22  C   UNL     1     188.870  -7.527 103.006  1.00  0.00    -0.000 C 
BRANCH  22  23
ATOM     23  C   UNL     1     188.649  -6.217 103.795  1.00  0.00    -0.000 C 
BRANCH  23  24
ATOM     24  C   UNL     1     188.452  -6.471 105.301  1.00  0.00    -0.000 C 
BRANCH  24  25
ATOM     25  C   UNL     1     189.561  -5.850 106.171  1.00  0.00    -0.000 C 
BRANCH  25  26
ATOM     26  C   UNL     1     189.451  -4.331 106.400  1.00  0.00    -0.000 C 
BRANCH  26  27
ATOM     27  C   UNL     1     190.517  -3.784 107.363  1.00  0.00    -0.000 C 
BRANCH  27  28
ATOM     28  C   UNL     1     190.408  -2.263 107.568  1.00  0.00    -0.000 C 
BRANCH  28  29
ATOM     29  C   UNL     1     191.749  -1.585 107.925  1.00  0.00    -0.003 C 
ATOM     30  C   UNL     1     192.771  -2.571 108.489  1.00  0.00     0.004 C 
ENDBRANCH  28  29
ENDBRANCH  27  28
ENDBRANCH  26  27
ENDBRANCH  25  26
ENDBRANCH  24  25
ENDBRANCH  23  24
ENDBRANCH  22  23
ENDBRANCH  21  22
ENDBRANCH  20  21
ENDBRANCH  19  20
ENDBRANCH  18  19
ENDBRANCH  17  18
ENDBRANCH   1  17
TORSDOF 26
ENDMDL
MODEL 9
REMARK VINA RESULT:    -3.827      3.490      5.316
REMARK INTER + INTRA:         -14.889
REMARK INTER:                 -10.798
REMARK INTRA:                  -4.091
REMARK UNBOUND:                -5.244
REMARK SMILES CCCCCCCCCCCCCCCCCCCCCCCCCCCC(=O)[O-]
REMARK SMILES IDX 15 1 16 2 17 3 18 4 19 5 20 6 21 7 22 8 23 9 24 10 25 11
REMARK SMILES IDX 26 12 27 13 28 14 29 15 30 16 14 17 13 18 12 19 11 20 10 21
REMARK SMILES IDX 9 22 8 23 7 24 6 25 5 26 4 27 3 28 2 29 1 30
REMARK H PARENT
REMARK Flexibility Score: inf
ROOT
ATOM      1  C   UNL     1     192.161  -0.846 105.694  1.00  0.00     0.000 C 
ENDROOT
BRANCH   1   2
ATOM      2  C   UNL     1     191.957   0.218 106.784  1.00  0.00     0.000 C 
BRANCH   2   3
ATOM      3  C   UNL     1     191.976   1.649 106.218  1.00  0.00     0.000 C 
BRANCH   3   4
ATOM      4  C   UNL     1     191.954   1.687 104.679  1.00  0.00     0.000 C 
BRANCH   4   5
ATOM      5  C   UNL     1     193.185   2.338 104.025  1.00  0.00     0.000 C 
BRANCH   5   6
ATOM      6  C   UNL     1     193.303   2.032 102.525  1.00  0.00     0.000 C 
BRANCH   6   7
ATOM      7  C   UNL     1     191.999   1.426 101.982  1.00  0.00     0.000 C 
BRANCH   7   8
ATOM      8  C   UNL     1     191.957   1.372 100.444  1.00  0.00     0.000 C 
BRANCH   8   9
ATOM      9  C   UNL     1     192.855   2.401  99.732  1.00  0.00     0.000 C 
BRANCH   9  10
ATOM     10  C   UNL     1     192.061   3.574  99.134  1.00  0.00     0.000 C 
BRANCH  10  11
ATOM     11  C   UNL     1     191.230   3.161  97.908  1.00  0.00     0.000 C 
BRANCH  11  12
ATOM     12  C   UNL     1     189.771   3.644  97.994  1.00  0.00     0.006 C 
BRANCH  12  13
ATOM     13  C   UNL     1     189.308   4.317  96.695  1.00  0.00     0.053 C 
BRANCH  13  14
ATOM     14  C   UNL     1     188.346   5.436  96.959  1.00  0.00     0.041 C 
ATOM     15  O   UNL     1     188.375   6.048  98.059  1.00  0.00    -0.550 OA
ATOM     16  O   UNL     1     187.388   5.768  96.010  1.00  0.00    -0.550 OA
ENDBRANCH  13  14
ENDBRANCH  12  13
ENDBRANCH  11  12
ENDBRANCH  10  11
ENDBRANCH   9  10
ENDBRANCH   8   9
ENDBRANCH   7   8
ENDBRANCH   6   7
ENDBRANCH   5   6
ENDBRANCH   4   5
ENDBRANCH   3   4
ENDBRANCH   2   3
ENDBRANCH   1   2
BRANCH   1  17
ATOM     17  C   UNL     1     193.423  -1.694 105.933  1.00  0.00     0.000 C 
BRANCH  17  18
ATOM     18  C   UNL     1     194.189  -1.997 104.635  1.00  0.00     0.000 C 
BRANCH  18  19
ATOM     19  C   UNL     1     193.429  -1.542 103.378  1.00  0.00     0.000 C 
BRANCH  19  20
ATOM     20  C   UNL     1     194.296  -1.583 102.110  1.00  0.00     0.000 C 
BRANCH  20  21
ATOM     21  C   UNL     1     193.506  -2.016 100.866  1.00  0.00     0.000 C 
BRANCH  21  22
ATOM     22  C   UNL     1     192.125  -2.602 101.209  1.00  0.00    -0.000 C 
BRANCH  22  23
ATOM     23  C   UNL     1     191.888  -4.015 100.630  1.00  0.00    -0.000 C 
BRANCH  23  24
ATOM     24  C   UNL     1     191.482  -5.029 101.716  1.00  0.00    -0.000 C 
BRANCH  24  25
ATOM     25  C   UNL     1     192.433  -5.033 102.929  1.00  0.00    -0.000 C 
BRANCH  25  26
ATOM     26  C   UNL     1     191.755  -5.197 104.301  1.00  0.00    -0.000 C 
BRANCH  26  27
ATOM     27  C   UNL     1     190.739  -4.086 104.613  1.00  0.00    -0.000 C 
BRANCH  27  28
ATOM     28  C   UNL     1     190.394  -3.997 106.110  1.00  0.00    -0.000 C 
BRANCH  28  29
ATOM     29  C   UNL     1     188.936  -4.384 106.438  1.00  0.00    -0.003 C 
ATOM     30  C   UNL     1     188.432  -5.544 105.579  1.00  0.00     0.004 C 
ENDBRANCH  28  29
ENDBRANCH  27  28
ENDBRANCH  26  27
ENDBRANCH  25  26
ENDBRANCH  24  25
ENDBRANCH  23  24
ENDBRANCH  22  23
ENDBRANCH  21  22
ENDBRANCH  20  21
ENDBRANCH  19  20
ENDBRANCH  18  19
ENDBRANCH  17  18
ENDBRANCH   1  17
TORSDOF 26
ENDMDL
