MODEL 1
REMARK VINA RESULT:    -3.291      0.000      0.000
REMARK INTER + INTRA:          -8.424
REMARK INTER:                  -6.369
REMARK INTRA:                  -2.055
REMARK UNBOUND:                -2.055
REMARK SMILES CCCCCCCCCCCCCCCCCC(=O)[O-]
REMARK SMILES IDX 10 1 11 2 12 3 13 4 14 5 15 6 16 7 17 8 18 9 19 10 20 11
REMARK SMILES IDX 9 12 8 13 7 14 6 15 5 16 4 17 3 18 2 19 1 20
REMARK H PARENT
REMARK Flexibility Score: inf
ROOT
ATOM      1  C   UNL     1     -13.082 -22.789  19.625  1.00  0.00     0.000 C 
ENDROOT
BRANCH   1   2
ATOM      2  C   UNL     1     -12.087 -22.541  20.778  1.00  0.00     0.000 C 
BRANCH   2   3
ATOM      3  C   UNL     1     -12.668 -22.717  22.193  1.00  0.00     0.000 C 
BRANCH   3   4
ATOM      4  C   UNL     1     -13.988 -21.966  22.448  1.00  0.00     0.000 C 
BRANCH   4   5
ATOM      5  C   UNL     1     -14.663 -22.332  23.788  1.00  0.00     0.000 C 
BRANCH   5   6
ATOM      6  C   UNL     1     -15.717 -23.444  23.634  1.00  0.00     0.000 C 
BRANCH   6   7
ATOM      7  C   UNL     1     -17.082 -23.048  24.217  1.00  0.00     0.006 C 
BRANCH   7   8
ATOM      8  C   UNL     1     -16.958 -22.277  25.538  1.00  0.00     0.053 C 
BRANCH   8   9
ATOM      9  C   UNL     1     -18.205 -22.428  26.349  1.00  0.00     0.041 C 
ATOM     10  O   UNL     1     -18.949 -23.430  26.186  1.00  0.00    -0.550 OA
ATOM     11  O   UNL     1     -18.521 -21.487  27.322  1.00  0.00    -0.550 OA
ENDBRANCH   8   9
ENDBRANCH   7   8
ENDBRANCH   6   7
ENDBRANCH   5   6
ENDBRANCH   4   5
ENDBRANCH   3   4
ENDBRANCH   2   3
ENDBRANCH   1   2
BRANCH   1  12
ATOM     12  C   UNL     1     -13.330 -21.584  18.699  1.00  0.00     0.000 C 
BRANCH  12  13
ATOM     13  C   UNL     1     -12.060 -20.760  18.436  1.00  0.00    -0.000 C 
BRANCH  13  14
ATOM     14  C   UNL     1     -12.164 -19.316  18.960  1.00  0.00    -0.000 C 
BRANCH  14  15
ATOM     15  C   UNL     1     -13.306 -19.058  19.964  1.00  0.00    -0.000 C 
BRANCH  15  16
ATOM     16  C   UNL     1     -12.873 -18.407  21.290  1.00  0.00    -0.000 C 
BRANCH  16  17
ATOM     17  C   UNL     1     -11.650 -19.097  21.918  1.00  0.00    -0.000 C 
BRANCH  17  18
ATOM     18  C   UNL     1     -11.218 -18.441  23.239  1.00  0.00    -0.000 C 
BRANCH  18  19
ATOM     19  C   UNL     1     -12.410 -18.118  24.153  1.00  0.00    -0.003 C 
ATOM     20  C   UNL     1     -12.828 -19.342  24.963  1.00  0.00     0.004 C 
ENDBRANCH  18  19
ENDBRANCH  17  18
ENDBRANCH  16  17
ENDBRANCH  15  16
ENDBRANCH  14  15
ENDBRANCH  13  14
ENDBRANCH  12  13
ENDBRANCH   1  12
TORSDOF 16
ENDMDL
MODEL 2
REMARK VINA RESULT:    -3.246      2.307      6.059
REMARK INTER + INTRA:          -8.338
REMARK INTER:                  -6.649
REMARK INTRA:                  -1.690
REMARK UNBOUND:                -2.055
REMARK SMILES CCCCCCCCCCCCCCCCCC(=O)[O-]
REMARK SMILES IDX 10 1 11 2 12 3 13 4 14 5 15 6 16 7 17 8 18 9 19 10 20 11
REMARK SMILES IDX 9 12 8 13 7 14 6 15 5 16 4 17 3 18 2 19 1 20
REMARK H PARENT
REMARK Flexibility Score: inf
ROOT
ATOM      1  C   UNL     1     -13.253 -21.708  18.977  1.00  0.00     0.000 C 
ENDROOT
BRANCH   1   2
ATOM      2  C   UNL     1     -12.106 -21.054  18.178  1.00  0.00     0.000 C 
BRANCH   2   3
ATOM      3  C   UNL     1     -11.832 -19.577  18.516  1.00  0.00     0.000 C 
BRANCH   3   4
ATOM      4  C   UNL     1     -13.025 -18.823  19.134  1.00  0.00     0.000 C 
BRANCH   4   5
ATOM      5  C   UNL     1     -12.785 -18.367  20.589  1.00  0.00     0.000 C 
BRANCH   5   6
ATOM      6  C   UNL     1     -11.417 -18.819  21.131  1.00  0.00     0.000 C 
BRANCH   6   7
ATOM      7  C   UNL     1     -11.298 -18.646  22.654  1.00  0.00     0.006 C 
BRANCH   7   8
ATOM      8  C   UNL     1     -12.494 -17.896  23.257  1.00  0.00     0.053 C 
BRANCH   8   9
ATOM      9  C   UNL     1     -12.859 -18.479  24.584  1.00  0.00     0.041 C 
ATOM     10  O   UNL     1     -12.946 -19.727  24.726  1.00  0.00    -0.550 OA
ATOM     11  O   UNL     1     -13.056 -17.646  25.679  1.00  0.00    -0.550 OA
ENDBRANCH   8   9
ENDBRANCH   7   8
ENDBRANCH   6   7
ENDBRANCH   5   6
ENDBRANCH   4   5
ENDBRANCH   3   4
ENDBRANCH   2   3
ENDBRANCH   1   2
BRANCH   1  12
ATOM     12  C   UNL     1     -12.816 -22.757  20.016  1.00  0.00     0.000 C 
BRANCH  12  13
ATOM     13  C   UNL     1     -12.631 -22.164  21.423  1.00  0.00    -0.000 C 
BRANCH  13  14
ATOM     14  C   UNL     1     -13.966 -21.919  22.149  1.00  0.00    -0.000 C 
BRANCH  14  15
ATOM     15  C   UNL     1     -14.457 -23.077  23.041  1.00  0.00    -0.000 C 
BRANCH  15  16
ATOM     16  C   UNL     1     -15.865 -22.891  23.634  1.00  0.00    -0.000 C 
BRANCH  16  17
ATOM     17  C   UNL     1     -16.515 -24.221  24.049  1.00  0.00    -0.000 C 
BRANCH  17  18
ATOM     18  C   UNL     1     -18.050 -24.144  24.076  1.00  0.00    -0.000 C 
BRANCH  18  19
ATOM     19  C   UNL     1     -18.620 -24.259  25.498  1.00  0.00    -0.003 C 
ATOM     20  C   UNL     1     -18.567 -22.916  26.221  1.00  0.00     0.004 C 
ENDBRANCH  18  19
ENDBRANCH  17  18
ENDBRANCH  16  17
ENDBRANCH  15  16
ENDBRANCH  14  15
ENDBRANCH  13  14
ENDBRANCH  12  13
ENDBRANCH   1  12
TORSDOF 16
ENDMDL
MODEL 3
REMARK VINA RESULT:    -3.225      2.970      4.515
REMARK INTER + INTRA:          -8.298
REMARK INTER:                  -7.350
REMARK INTRA:                  -0.948
REMARK UNBOUND:                -2.055
REMARK SMILES CCCCCCCCCCCCCCCCCC(=O)[O-]
REMARK SMILES IDX 10 1 11 2 12 3 13 4 14 5 15 6 16 7 17 8 18 9 19 10 20 11
REMARK SMILES IDX 9 12 8 13 7 14 6 15 5 16 4 17 3 18 2 19 1 20
REMARK H PARENT
REMARK Flexibility Score: inf
ROOT
ATOM      1  C   UNL     1     -13.302 -21.305  18.838  1.00  0.00     0.000 C 
ENDROOT
BRANCH   1   2
ATOM      2  C   UNL     1     -13.118 -21.879  20.259  1.00  0.00     0.000 C 
BRANCH   2   3
ATOM      3  C   UNL     1     -13.771 -21.058  21.386  1.00  0.00     0.000 C 
BRANCH   3   4
ATOM      4  C   UNL     1     -13.910 -21.799  22.729  1.00  0.00     0.000 C 
BRANCH   4   5
ATOM      5  C   UNL     1     -13.848 -23.337  22.601  1.00  0.00     0.000 C 
BRANCH   5   6
ATOM      6  C   UNL     1     -14.846 -24.047  23.533  1.00  0.00     0.000 C 
BRANCH   6   7
ATOM      7  C   UNL     1     -16.127 -23.229  23.760  1.00  0.00     0.006 C 
BRANCH   7   8
ATOM      8  C   UNL     1     -17.265 -24.069  24.358  1.00  0.00     0.053 C 
BRANCH   8   9
ATOM      9  C   UNL     1     -18.059 -23.254  25.328  1.00  0.00     0.041 C 
ATOM     10  O   UNL     1     -19.160 -23.683  25.763  1.00  0.00    -0.550 OA
ATOM     11  O   UNL     1     -17.561 -22.043  25.791  1.00  0.00    -0.550 OA
ENDBRANCH   8   9
ENDBRANCH   7   8
ENDBRANCH   6   7
ENDBRANCH   5   6
ENDBRANCH   4   5
ENDBRANCH   3   4
ENDBRANCH   2   3
ENDBRANCH   1   2
BRANCH   1  12
ATOM     12  C   UNL     1     -12.000 -20.934  18.104  1.00  0.00     0.000 C 
BRANCH  12  13
ATOM     13  C   UNL     1     -11.364 -19.638  18.632  1.00  0.00    -0.000 C 
BRANCH  13  14
ATOM     14  C   UNL     1     -12.260 -18.404  18.421  1.00  0.00    -0.000 C 
BRANCH  14  15
ATOM     15  C   UNL     1     -11.592 -17.216  17.700  1.00  0.00    -0.000 C 
BRANCH  15  16
ATOM     16  C   UNL     1     -11.629 -17.283  16.163  1.00  0.00    -0.000 C 
BRANCH  16  17
ATOM     17  C   UNL     1     -11.172 -15.971  15.501  1.00  0.00    -0.000 C 
BRANCH  17  18
ATOM     18  C   UNL     1     -11.243 -14.772  16.459  1.00  0.00    -0.000 C 
BRANCH  18  19
ATOM     19  C   UNL     1     -12.020 -13.588  15.864  1.00  0.00    -0.003 C 
ATOM     20  C   UNL     1     -12.729 -13.990  14.574  1.00  0.00     0.004 C 
ENDBRANCH  18  19
ENDBRANCH  17  18
ENDBRANCH  16  17
ENDBRANCH  15  16
ENDBRANCH  14  15
ENDBRANCH  13  14
ENDBRANCH  12  13
ENDBRANCH   1  12
TORSDOF 16
ENDMDL
MODEL 4
REMARK VINA RESULT:    -3.203      2.054      3.793
REMARK INTER + INTRA:          -8.254
REMARK INTER:                  -7.237
REMARK INTRA:                  -1.017
REMARK UNBOUND:                -2.055
REMARK SMILES CCCCCCCCCCCCCCCCCC(=O)[O-]
REMARK SMILES IDX 10 1 11 2 12 3 13 4 14 5 15 6 16 7 17 8 18 9 19 10 20 11
REMARK SMILES IDX 9 12 8 13 7 14 6 15 5 16 4 17 3 18 2 19 1 20
REMARK H PARENT
REMARK Flexibility Score: inf
ROOT
ATOM      1  C   UNL     1     -13.073 -23.299  20.601  1.00  0.00     0.000 C 
ENDROOT
BRANCH   1   2
ATOM      2  C   UNL     1     -13.541 -23.575  22.045  1.00  0.00     0.000 C 
BRANCH   2   3
ATOM      3  C   UNL     1     -14.014 -22.336  22.827  1.00  0.00     0.000 C 
BRANCH   3   4
ATOM      4  C   UNL     1     -15.013 -22.629  23.962  1.00  0.00     0.000 C 
BRANCH   4   5
ATOM      5  C   UNL     1     -15.774 -23.962  23.792  1.00  0.00     0.000 C 
BRANCH   5   6
ATOM      6  C   UNL     1     -17.298 -23.763  23.700  1.00  0.00     0.000 C 
BRANCH   6   7
ATOM      7  C   UNL     1     -18.072 -24.691  24.650  1.00  0.00     0.006 C 
BRANCH   7   8
ATOM      8  C   UNL     1     -19.031 -23.923  25.571  1.00  0.00     0.053 C 
BRANCH   8   9
ATOM      9  C   UNL     1     -18.262 -23.108  26.561  1.00  0.00     0.041 C 
ATOM     10  O   UNL     1     -17.794 -23.647  27.598  1.00  0.00    -0.550 OA
ATOM     11  O   UNL     1     -18.019 -21.762  26.315  1.00  0.00    -0.550 OA
ENDBRANCH   8   9
ENDBRANCH   7   8
ENDBRANCH   6   7
ENDBRANCH   5   6
ENDBRANCH   4   5
ENDBRANCH   3   4
ENDBRANCH   2   3
ENDBRANCH   1   2
BRANCH   1  12
ATOM     12  C   UNL     1     -13.103 -21.822  20.170  1.00  0.00     0.000 C 
BRANCH  12  13
ATOM     13  C   UNL     1     -13.173 -21.644  18.644  1.00  0.00    -0.000 C 
BRANCH  13  14
ATOM     14  C   UNL     1     -11.989 -20.837  18.082  1.00  0.00    -0.000 C 
BRANCH  14  15
ATOM     15  C   UNL     1     -11.166 -20.055  19.125  1.00  0.00    -0.000 C 
BRANCH  15  16
ATOM     16  C   UNL     1     -11.592 -18.588  19.324  1.00  0.00    -0.000 C 
BRANCH  16  17
ATOM     17  C   UNL     1     -12.262 -17.991  18.076  1.00  0.00    -0.000 C 
BRANCH  17  18
ATOM     18  C   UNL     1     -11.353 -16.995  17.339  1.00  0.00    -0.000 C 
BRANCH  18  19
ATOM     19  C   UNL     1     -11.223 -17.313  15.842  1.00  0.00    -0.003 C 
ATOM     20  C   UNL     1     -11.992 -16.301  14.997  1.00  0.00     0.004 C 
ENDBRANCH  18  19
ENDBRANCH  17  18
ENDBRANCH  16  17
ENDBRANCH  15  16
ENDBRANCH  14  15
ENDBRANCH  13  14
ENDBRANCH  12  13
ENDBRANCH   1  12
TORSDOF 16
ENDMDL
MODEL 5
REMARK VINA RESULT:    -3.187      5.836      9.410
REMARK INTER + INTRA:          -8.224
REMARK INTER:                  -7.515
REMARK INTRA:                  -0.709
REMARK UNBOUND:                -2.055
REMARK SMILES CCCCCCCCCCCCCCCCCC(=O)[O-]
REMARK SMILES IDX 10 1 11 2 12 3 13 4 14 5 15 6 16 7 17 8 18 9 19 10 20 11
REMARK SMILES IDX 9 12 8 13 7 14 6 15 5 16 4 17 3 18 2 19 1 20
REMARK H PARENT
REMARK Flexibility Score: inf
ROOT
ATOM      1  C   UNL     1     -13.867 -20.268  20.469  1.00  0.00     0.000 C 
ENDROOT
BRANCH   1   2
ATOM      2  C   UNL     1     -13.095 -20.861  19.272  1.00  0.00     0.000 C 
BRANCH   2   3
ATOM      3  C   UNL     1     -12.158 -19.878  18.546  1.00  0.00     0.000 C 
BRANCH   3   4
ATOM      4  C   UNL     1     -12.451 -18.389  18.811  1.00  0.00     0.000 C 
BRANCH   4   5
ATOM      5  C   UNL     1     -11.460 -17.427  18.121  1.00  0.00     0.000 C 
BRANCH   5   6
ATOM      6  C   UNL     1     -11.473 -17.568  16.588  1.00  0.00     0.000 C 
BRANCH   6   7
ATOM      7  C   UNL     1     -11.471 -16.209  15.870  1.00  0.00     0.006 C 
BRANCH   7   8
ATOM      8  C   UNL     1     -11.955 -16.310  14.417  1.00  0.00     0.053 C 
BRANCH   8   9
ATOM      9  C   UNL     1     -12.305 -14.955  13.890  1.00  0.00     0.041 C 
ATOM     10  O   UNL     1     -12.582 -14.801  12.671  1.00  0.00    -0.550 OA
ATOM     11  O   UNL     1     -12.374 -13.868  14.754  1.00  0.00    -0.550 OA
ENDBRANCH   8   9
ENDBRANCH   7   8
ENDBRANCH   6   7
ENDBRANCH   5   6
ENDBRANCH   4   5
ENDBRANCH   3   4
ENDBRANCH   2   3
ENDBRANCH   1   2
BRANCH   1  12
ATOM     12  C   UNL     1     -13.698 -21.023  21.800  1.00  0.00     0.000 C 
BRANCH  12  13
ATOM     13  C   UNL     1     -13.468 -22.531  21.608  1.00  0.00    -0.000 C 
BRANCH  13  14
ATOM     14  C   UNL     1     -13.950 -23.367  22.808  1.00  0.00    -0.000 C 
BRANCH  14  15
ATOM     15  C   UNL     1     -14.761 -22.595  23.868  1.00  0.00    -0.000 C 
BRANCH  15  16
ATOM     16  C   UNL     1     -16.263 -22.929  23.909  1.00  0.00    -0.000 C 
BRANCH  16  17
ATOM     17  C   UNL     1     -16.958 -22.386  25.169  1.00  0.00    -0.000 C 
BRANCH  17  18
ATOM     18  C   UNL     1     -17.528 -23.504  26.056  1.00  0.00    -0.000 C 
BRANCH  18  19
ATOM     19  C   UNL     1     -18.825 -24.102  25.490  1.00  0.00    -0.003 C 
ATOM     20  C   UNL     1     -19.315 -25.263  26.351  1.00  0.00     0.004 C 
ENDBRANCH  18  19
ENDBRANCH  17  18
ENDBRANCH  16  17
ENDBRANCH  15  16
ENDBRANCH  14  15
ENDBRANCH  13  14
ENDBRANCH  12  13
ENDBRANCH   1  12
TORSDOF 16
ENDMDL
MODEL 6
REMARK VINA RESULT:    -3.091      3.801      7.249
REMARK INTER + INTRA:          -8.038
REMARK INTER:                  -5.987
REMARK INTRA:                  -2.051
REMARK UNBOUND:                -2.055
REMARK SMILES CCCCCCCCCCCCCCCCCC(=O)[O-]
REMARK SMILES IDX 10 1 11 2 12 3 13 4 14 5 15 6 16 7 17 8 18 9 19 10 20 11
REMARK SMILES IDX 9 12 8 13 7 14 6 15 5 16 4 17 3 18 2 19 1 20
REMARK H PARENT
REMARK Flexibility Score: inf
ROOT
ATOM      1  C   UNL     1     -16.256 -24.761  24.143  1.00  0.00     0.000 C 
ENDROOT
BRANCH   1   2
ATOM      2  C   UNL     1     -14.952 -24.044  23.735  1.00  0.00     0.000 C 
BRANCH   2   3
ATOM      3  C   UNL     1     -15.073 -22.520  23.551  1.00  0.00     0.000 C 
BRANCH   3   4
ATOM      4  C   UNL     1     -13.774 -21.815  23.117  1.00  0.00     0.000 C 
BRANCH   4   5
ATOM      5  C   UNL     1     -13.870 -21.132  21.735  1.00  0.00     0.000 C 
BRANCH   5   6
ATOM      6  C   UNL     1     -13.143 -21.924  20.634  1.00  0.00     0.000 C 
BRANCH   6   7
ATOM      7  C   UNL     1     -12.807 -21.060  19.408  1.00  0.00     0.006 C 
BRANCH   7   8
ATOM      8  C   UNL     1     -13.440 -19.663  19.481  1.00  0.00     0.053 C 
BRANCH   8   9
ATOM      9  C   UNL     1     -12.391 -18.608  19.327  1.00  0.00     0.041 C 
ATOM     10  O   UNL     1     -11.559 -18.402  20.249  1.00  0.00    -0.550 OA
ATOM     11  O   UNL     1     -12.301 -17.884  18.144  1.00  0.00    -0.550 OA
ENDBRANCH   8   9
ENDBRANCH   7   8
ENDBRANCH   6   7
ENDBRANCH   5   6
ENDBRANCH   4   5
ENDBRANCH   3   4
ENDBRANCH   2   3
ENDBRANCH   1   2
BRANCH   1  12
ATOM     12  C   UNL     1     -17.549 -23.960  23.905  1.00  0.00     0.000 C 
BRANCH  12  13
ATOM     13  C   UNL     1     -18.650 -24.282  24.929  1.00  0.00    -0.000 C 
BRANCH  13  14
ATOM     14  C   UNL     1     -18.418 -23.601  26.290  1.00  0.00    -0.000 C 
BRANCH  14  15
ATOM     15  C   UNL     1     -18.024 -22.111  26.225  1.00  0.00    -0.000 C 
BRANCH  15  16
ATOM     16  C   UNL     1     -16.947 -21.677  27.236  1.00  0.00    -0.000 C 
BRANCH  16  17
ATOM     17  C   UNL     1     -15.824 -22.718  27.389  1.00  0.00    -0.000 C 
BRANCH  17  18
ATOM     18  C   UNL     1     -14.434 -22.131  27.097  1.00  0.00    -0.000 C 
BRANCH  18  19
ATOM     19  C   UNL     1     -14.381 -20.610  27.305  1.00  0.00    -0.003 C 
ATOM     20  C   UNL     1     -13.395 -19.958  26.340  1.00  0.00     0.004 C 
ENDBRANCH  18  19
ENDBRANCH  17  18
ENDBRANCH  16  17
ENDBRANCH  15  16
ENDBRANCH  14  15
ENDBRANCH  13  14
ENDBRANCH  12  13
ENDBRANCH   1  12
TORSDOF 16
ENDMDL
MODEL 7
REMARK VINA RESULT:    -3.085      3.513      7.148
REMARK INTER + INTRA:          -8.026
REMARK INTER:                  -5.388
REMARK INTRA:                  -2.638
REMARK UNBOUND:                -2.055
REMARK SMILES CCCCCCCCCCCCCCCCCC(=O)[O-]
REMARK SMILES IDX 10 1 11 2 12 3 13 4 14 5 15 6 16 7 17 8 18 9 19 10 20 11
REMARK SMILES IDX 9 12 8 13 7 14 6 15 5 16 4 17 3 18 2 19 1 20
REMARK H PARENT
REMARK Flexibility Score: inf
ROOT
ATOM      1  C   UNL     1     -14.437 -23.524  26.040  1.00  0.00     0.000 C 
ENDROOT
BRANCH   1   2
ATOM      2  C   UNL     1     -13.096 -22.949  26.545  1.00  0.00     0.000 C 
BRANCH   2   3
ATOM      3  C   UNL     1     -12.837 -21.476  26.180  1.00  0.00     0.000 C 
BRANCH   3   4
ATOM      4  C   UNL     1     -13.796 -20.893  25.124  1.00  0.00     0.000 C 
BRANCH   4   5
ATOM      5  C   UNL     1     -13.103 -20.514  23.797  1.00  0.00     0.000 C 
BRANCH   5   6
ATOM      6  C   UNL     1     -12.730 -21.747  22.954  1.00  0.00     0.000 C 
BRANCH   6   7
ATOM      7  C   UNL     1     -13.552 -21.848  21.660  1.00  0.00     0.006 C 
BRANCH   7   8
ATOM      8  C   UNL     1     -13.915 -20.473  21.083  1.00  0.00     0.053 C 
BRANCH   8   9
ATOM      9  C   UNL     1     -13.550 -20.402  19.635  1.00  0.00     0.041 C 
ATOM     10  O   UNL     1     -13.190 -19.309  19.125  1.00  0.00    -0.550 OA
ATOM     11  O   UNL     1     -13.559 -21.554  18.858  1.00  0.00    -0.550 OA
ENDBRANCH   8   9
ENDBRANCH   7   8
ENDBRANCH   6   7
ENDBRANCH   5   6
ENDBRANCH   4   5
ENDBRANCH   3   4
ENDBRANCH   2   3
ENDBRANCH   1   2
BRANCH   1  12
ATOM     12  C   UNL     1     -14.320 -24.713  25.070  1.00  0.00     0.000 C 
BRANCH  12  13
ATOM     13  C   UNL     1     -15.128 -24.514  23.777  1.00  0.00    -0.000 C 
BRANCH  13  14
ATOM     14  C   UNL     1     -16.159 -23.376  23.886  1.00  0.00    -0.000 C 
BRANCH  14  15
ATOM     15  C   UNL     1     -17.617 -23.773  23.579  1.00  0.00    -0.000 C 
BRANCH  15  16
ATOM     16  C   UNL     1     -18.241 -24.776  24.567  1.00  0.00    -0.000 C 
BRANCH  16  17
ATOM     17  C   UNL     1     -18.884 -24.088  25.783  1.00  0.00    -0.000 C 
BRANCH  17  18
ATOM     18  C   UNL     1     -18.033 -24.224  27.055  1.00  0.00    -0.000 C 
BRANCH  18  19
ATOM     19  C   UNL     1     -17.763 -22.870  27.730  1.00  0.00    -0.003 C 
ATOM     20  C   UNL     1     -17.994 -21.717  26.757  1.00  0.00     0.004 C 
ENDBRANCH  18  19
ENDBRANCH  17  18
ENDBRANCH  16  17
ENDBRANCH  15  16
ENDBRANCH  14  15
ENDBRANCH  13  14
ENDBRANCH  12  13
ENDBRANCH   1  12
TORSDOF 16
ENDMDL
MODEL 8
REMARK VINA RESULT:    -3.071      8.584     11.463
REMARK INTER + INTRA:          -7.998
REMARK INTER:                  -7.186
REMARK INTRA:                  -0.812
REMARK UNBOUND:                -2.055
REMARK SMILES CCCCCCCCCCCCCCCCCC(=O)[O-]
REMARK SMILES IDX 10 1 11 2 12 3 13 4 14 5 15 6 16 7 17 8 18 9 19 10 20 11
REMARK SMILES IDX 9 12 8 13 7 14 6 15 5 16 4 17 3 18 2 19 1 20
REMARK H PARENT
REMARK Flexibility Score: inf
ROOT
ATOM      1  C   UNL     1     -12.750 -13.401  15.004  1.00  0.00     0.000 C 
ENDROOT
BRANCH   1   2
ATOM      2  C   UNL     1     -12.284 -14.749  14.415  1.00  0.00     0.000 C 
BRANCH   2   3
ATOM      3  C   UNL     1     -11.223 -15.494  15.245  1.00  0.00     0.000 C 
BRANCH   3   4
ATOM      4  C   UNL     1     -11.632 -16.908  15.699  1.00  0.00     0.000 C 
BRANCH   4   5
ATOM      5  C   UNL     1     -11.525 -17.126  17.224  1.00  0.00     0.000 C 
BRANCH   5   6
ATOM      6  C   UNL     1     -11.443 -18.616  17.602  1.00  0.00     0.000 C 
BRANCH   6   7
ATOM      7  C   UNL     1     -11.643 -18.856  19.107  1.00  0.00     0.006 C 
BRANCH   7   8
ATOM      8  C   UNL     1     -13.125 -18.926  19.501  1.00  0.00     0.053 C 
BRANCH   8   9
ATOM      9  C   UNL     1     -13.506 -20.331  19.846  1.00  0.00     0.041 C 
ATOM     10  O   UNL     1     -13.946 -20.605  20.993  1.00  0.00    -0.550 OA
ATOM     11  O   UNL     1     -13.421 -21.330  18.884  1.00  0.00    -0.550 OA
ENDBRANCH   8   9
ENDBRANCH   7   8
ENDBRANCH   6   7
ENDBRANCH   5   6
ENDBRANCH   4   5
ENDBRANCH   3   4
ENDBRANCH   2   3
ENDBRANCH   1   2
BRANCH   1  12
ATOM     12  C   UNL     1     -11.847 -12.196  14.684  1.00  0.00     0.000 C 
BRANCH  12  13
ATOM     13  C   UNL     1     -10.952 -12.428  13.456  1.00  0.00    -0.000 C 
BRANCH  13  14
ATOM     14  C   UNL     1     -11.573 -11.892  12.154  1.00  0.00    -0.000 C 
BRANCH  14  15
ATOM     15  C   UNL     1     -12.002 -12.966  11.134  1.00  0.00    -0.000 C 
BRANCH  15  16
ATOM     16  C   UNL     1     -11.299 -12.884   9.767  1.00  0.00    -0.000 C 
BRANCH  16  17
ATOM     17  C   UNL     1     -12.281 -12.638   8.609  1.00  0.00    -0.000 C 
BRANCH  17  18
ATOM     18  C   UNL     1     -13.598 -12.000   9.079  1.00  0.00    -0.000 C 
BRANCH  18  19
ATOM     19  C   UNL     1     -13.983 -10.765   8.250  1.00  0.00    -0.003 C 
ATOM     20  C   UNL     1     -15.375 -10.265   8.625  1.00  0.00     0.004 C 
ENDBRANCH  18  19
ENDBRANCH  17  18
ENDBRANCH  16  17
ENDBRANCH  15  16
ENDBRANCH  14  15
ENDBRANCH  13  14
ENDBRANCH  12  13
ENDBRANCH   1  12
TORSDOF 16
ENDMDL
MODEL 9
REMARK VINA RESULT:    -3.063      3.440      6.949
REMARK INTER + INTRA:          -7.984
REMARK INTER:                  -5.574
REMARK INTRA:                  -2.411
REMARK UNBOUND:                -2.055
REMARK SMILES CCCCCCCCCCCCCCCCCC(=O)[O-]
REMARK SMILES IDX 10 1 11 2 12 3 13 4 14 5 15 6 16 7 17 8 18 9 19 10 20 11
REMARK SMILES IDX 9 12 8 13 7 14 6 15 5 16 4 17 3 18 2 19 1 20
REMARK H PARENT
REMARK Flexibility Score: inf
ROOT
ATOM      1  C   UNL     1     -18.273 -24.534  25.781  1.00  0.00     0.000 C 
ENDROOT
BRANCH   1   2
ATOM      2  C   UNL     1     -18.018 -24.665  24.264  1.00  0.00     0.000 C 
BRANCH   2   3
ATOM      3  C   UNL     1     -17.172 -23.538  23.644  1.00  0.00     0.000 C 
BRANCH   3   4
ATOM      4  C   UNL     1     -15.681 -23.563  24.027  1.00  0.00     0.000 C 
BRANCH   4   5
ATOM      5  C   UNL     1     -14.852 -22.436  23.372  1.00  0.00     0.000 C 
BRANCH   5   6
ATOM      6  C   UNL     1     -13.863 -22.968  22.319  1.00  0.00     0.000 C 
BRANCH   6   7
ATOM      7  C   UNL     1     -13.022 -21.851  21.681  1.00  0.00     0.006 C 
BRANCH   7   8
ATOM      8  C   UNL     1     -13.876 -20.663  21.217  1.00  0.00     0.053 C 
BRANCH   8   9
ATOM      9  C   UNL     1     -13.633 -20.382  19.768  1.00  0.00     0.041 C 
ATOM     10  O   UNL     1     -13.763 -21.298  18.914  1.00  0.00    -0.550 OA
ATOM     11  O   UNL     1     -13.311 -19.095  19.353  1.00  0.00    -0.550 OA
ENDBRANCH   8   9
ENDBRANCH   7   8
ENDBRANCH   6   7
ENDBRANCH   5   6
ENDBRANCH   4   5
ENDBRANCH   3   4
ENDBRANCH   2   3
ENDBRANCH   1   2
BRANCH   1  12
ATOM     12  C   UNL     1     -18.768 -23.153  26.248  1.00  0.00     0.000 C 
BRANCH  12  13
ATOM     13  C   UNL     1     -17.767 -22.439  27.171  1.00  0.00    -0.000 C 
BRANCH  13  14
ATOM     14  C   UNL     1     -16.636 -23.364  27.656  1.00  0.00    -0.000 C 
BRANCH  14  15
ATOM     15  C   UNL     1     -15.220 -22.756  27.612  1.00  0.00    -0.000 C 
BRANCH  15  16
ATOM     16  C   UNL     1     -15.169 -21.218  27.675  1.00  0.00    -0.000 C 
BRANCH  16  17
ATOM     17  C   UNL     1     -14.225 -20.613  26.622  1.00  0.00    -0.000 C 
BRANCH  17  18
ATOM     18  C   UNL     1     -12.968 -21.467  26.397  1.00  0.00    -0.000 C 
BRANCH  18  19
ATOM     19  C   UNL     1     -12.093 -20.938  25.251  1.00  0.00    -0.003 C 
ATOM     20  C   UNL     1     -12.661 -19.641  24.681  1.00  0.00     0.004 C 
ENDBRANCH  18  19
ENDBRANCH  17  18
ENDBRANCH  16  17
ENDBRANCH  15  16
ENDBRANCH  14  15
ENDBRANCH  13  14
ENDBRANCH  12  13
ENDBRANCH   1  12
TORSDOF 16
ENDMDL
