MODEL 1
REMARK VINA RESULT:    -3.514      0.000      0.000
REMARK INTER + INTRA:          -7.506
REMARK INTER:                  -5.979
REMARK INTRA:                  -1.527
REMARK UNBOUND:                -1.527
REMARK SMILES CCCCCCCCCCCCCC(=O)[O-]
REMARK SMILES IDX 8 1 9 2 10 3 11 4 12 5 13 6 14 7 15 8 16 9 7 10 6 11 5 12
REMARK SMILES IDX 4 13 3 14 2 15 1 16
REMARK H PARENT
REMARK Flexibility Score: inf
ROOT
ATOM      1  C   UNL     1     119.153  52.713  54.226  1.00  0.00     0.000 C 
ENDROOT
BRANCH   1   2
ATOM      2  C   UNL     1     117.826  51.948  54.068  1.00  0.00     0.000 C 
BRANCH   2   3
ATOM      3  C   UNL     1     116.588  52.657  54.645  1.00  0.00     0.000 C 
BRANCH   3   4
ATOM      4  C   UNL     1     115.424  52.742  53.643  1.00  0.00     0.000 C 
BRANCH   4   5
ATOM      5  C   UNL     1     115.876  52.525  52.187  1.00  0.00     0.006 C 
BRANCH   5   6
ATOM      6  C   UNL     1     115.675  53.744  51.272  1.00  0.00     0.053 C 
BRANCH   6   7
ATOM      7  C   UNL     1     116.969  54.428  50.953  1.00  0.00     0.041 C 
ATOM      8  O   UNL     1     117.616  55.013  51.861  1.00  0.00    -0.550 OA
ATOM      9  O   UNL     1     117.475  54.390  49.660  1.00  0.00    -0.550 OA
ENDBRANCH   6   7
ENDBRANCH   5   6
ENDBRANCH   4   5
ENDBRANCH   3   4
ENDBRANCH   2   3
ENDBRANCH   1   2
BRANCH   1  10
ATOM     10  C   UNL     1     118.984  54.074  54.915  1.00  0.00     0.000 C 
BRANCH  10  11
ATOM     11  C   UNL     1     119.918  54.199  56.125  1.00  0.00    -0.000 C 
BRANCH  11  12
ATOM     12  C   UNL     1     120.971  53.085  56.125  1.00  0.00    -0.000 C 
BRANCH  12  13
ATOM     13  C   UNL     1     122.379  53.659  55.925  1.00  0.00    -0.000 C 
BRANCH  13  14
ATOM     14  C   UNL     1     122.918  53.322  54.527  1.00  0.00    -0.000 C 
BRANCH  14  15
ATOM     15  C   UNL     1     122.938  54.541  53.592  1.00  0.00    -0.003 C 
ATOM     16  C   UNL     1     121.918  54.433  52.458  1.00  0.00     0.004 C 
ENDBRANCH  14  15
ENDBRANCH  13  14
ENDBRANCH  12  13
ENDBRANCH  11  12
ENDBRANCH  10  11
ENDBRANCH   1  10
TORSDOF 12
ENDMDL
MODEL 2
REMARK VINA RESULT:    -3.478      3.041      6.316
REMARK INTER + INTRA:          -7.446
REMARK INTER:                  -6.489
REMARK INTRA:                  -0.957
REMARK UNBOUND:                -1.527
REMARK SMILES CCCCCCCCCCCCCC(=O)[O-]
REMARK SMILES IDX 8 1 9 2 10 3 11 4 12 5 13 6 14 7 15 8 16 9 7 10 6 11 5 12
REMARK SMILES IDX 4 13 3 14 2 15 1 16
REMARK H PARENT
REMARK Flexibility Score: inf
ROOT
ATOM      1  C   UNL     1     121.125  52.475  55.378  1.00  0.00     0.000 C 
ENDROOT
BRANCH   1   2
ATOM      2  C   UNL     1     122.468  52.743  54.674  1.00  0.00     0.000 C 
BRANCH   2   3
ATOM      3  C   UNL     1     122.816  54.229  54.471  1.00  0.00     0.000 C 
BRANCH   3   4
ATOM      4  C   UNL     1     122.818  54.647  52.990  1.00  0.00     0.000 C 
BRANCH   4   5
ATOM      5  C   UNL     1     123.958  55.626  52.650  1.00  0.00     0.006 C 
BRANCH   5   6
ATOM      6  C   UNL     1     123.714  56.471  51.389  1.00  0.00     0.053 C 
BRANCH   6   7
ATOM      7  C   UNL     1     123.952  57.930  51.635  1.00  0.00     0.041 C 
ATOM      8  O   UNL     1     123.008  58.755  51.514  1.00  0.00    -0.550 OA
ATOM      9  O   UNL     1     125.208  58.372  52.030  1.00  0.00    -0.550 OA
ENDBRANCH   6   7
ENDBRANCH   5   6
ENDBRANCH   4   5
ENDBRANCH   3   4
ENDBRANCH   2   3
ENDBRANCH   1   2
BRANCH   1  10
ATOM     10  C   UNL     1     120.497  53.741  55.979  1.00  0.00     0.000 C 
BRANCH  10  11
ATOM     11  C   UNL     1     119.086  53.972  55.426  1.00  0.00    -0.000 C 
BRANCH  11  12
ATOM     12  C   UNL     1     119.114  54.163  53.906  1.00  0.00    -0.000 C 
BRANCH  12  13
ATOM     13  C   UNL     1     117.999  53.359  53.228  1.00  0.00    -0.000 C 
BRANCH  13  14
ATOM     14  C   UNL     1     117.009  52.808  54.265  1.00  0.00    -0.000 C 
BRANCH  14  15
ATOM     15  C   UNL     1     115.598  52.611  53.690  1.00  0.00    -0.003 C 
ATOM     16  C   UNL     1     115.567  52.681  52.162  1.00  0.00     0.004 C 
ENDBRANCH  14  15
ENDBRANCH  13  14
ENDBRANCH  12  13
ENDBRANCH  11  12
ENDBRANCH  10  11
ENDBRANCH   1  10
TORSDOF 12
ENDMDL
MODEL 3
REMARK VINA RESULT:    -3.455      7.600     10.680
REMARK INTER + INTRA:          -7.406
REMARK INTER:                  -6.407
REMARK INTRA:                  -1.000
REMARK UNBOUND:                -1.527
REMARK SMILES CCCCCCCCCCCCCC(=O)[O-]
REMARK SMILES IDX 8 1 9 2 10 3 11 4 12 5 13 6 14 7 15 8 16 9 7 10 6 11 5 12
REMARK SMILES IDX 4 13 3 14 2 15 1 16
REMARK H PARENT
REMARK Flexibility Score: inf
ROOT
ATOM      1  C   UNL     1     124.185  57.221  45.798  1.00  0.00     0.000 C 
ENDROOT
BRANCH   1   2
ATOM      2  C   UNL     1     124.658  55.937  46.505  1.00  0.00     0.000 C 
BRANCH   2   3
ATOM      3  C   UNL     1     123.878  55.565  47.779  1.00  0.00     0.000 C 
BRANCH   3   4
ATOM      4  C   UNL     1     124.761  55.544  49.038  1.00  0.00     0.000 C 
BRANCH   4   5
ATOM      5  C   UNL     1     123.984  55.908  50.317  1.00  0.00     0.006 C 
BRANCH   5   6
ATOM      6  C   UNL     1     124.814  56.657  51.373  1.00  0.00     0.053 C 
BRANCH   6   7
ATOM      7  C   UNL     1     124.239  58.004  51.689  1.00  0.00     0.041 C 
ATOM      8  O   UNL     1     124.960  58.894  52.211  1.00  0.00    -0.550 OA
ATOM      9  O   UNL     1     122.915  58.285  51.376  1.00  0.00    -0.550 OA
ENDBRANCH   6   7
ENDBRANCH   5   6
ENDBRANCH   4   5
ENDBRANCH   3   4
ENDBRANCH   2   3
ENDBRANCH   1   2
BRANCH   1  10
ATOM     10  C   UNL     1     124.681  57.327  44.349  1.00  0.00     0.000 C 
BRANCH  10  11
ATOM     11  C   UNL     1     124.631  55.964  43.648  1.00  0.00    -0.000 C 
BRANCH  11  12
ATOM     12  C   UNL     1     125.966  55.645  42.967  1.00  0.00    -0.000 C 
BRANCH  12  13
ATOM     13  C   UNL     1     126.458  54.244  43.348  1.00  0.00    -0.000 C 
BRANCH  13  14
ATOM     14  C   UNL     1     125.310  53.225  43.299  1.00  0.00    -0.000 C 
BRANCH  14  15
ATOM     15  C   UNL     1     125.281  52.306  44.531  1.00  0.00    -0.003 C 
ATOM     16  C   UNL     1     126.242  52.760  45.630  1.00  0.00     0.004 C 
ENDBRANCH  14  15
ENDBRANCH  13  14
ENDBRANCH  12  13
ENDBRANCH  11  12
ENDBRANCH  10  11
ENDBRANCH   1  10
TORSDOF 12
ENDMDL
MODEL 4
REMARK VINA RESULT:    -3.404      7.308     10.315
REMARK INTER + INTRA:          -7.320
REMARK INTER:                  -5.812
REMARK INTRA:                  -1.507
REMARK UNBOUND:                -1.527
REMARK SMILES CCCCCCCCCCCCCC(=O)[O-]
REMARK SMILES IDX 8 1 9 2 10 3 11 4 12 5 13 6 14 7 15 8 16 9 7 10 6 11 5 12
REMARK SMILES IDX 4 13 3 14 2 15 1 16
REMARK H PARENT
REMARK Flexibility Score: inf
ROOT
ATOM      1  C   UNL     1     124.382  53.713  46.801  1.00  0.00     0.000 C 
ENDROOT
BRANCH   1   2
ATOM      2  C   UNL     1     125.503  54.541  47.455  1.00  0.00     0.000 C 
BRANCH   2   3
ATOM      3  C   UNL     1     125.035  55.801  48.206  1.00  0.00     0.000 C 
BRANCH   3   4
ATOM      4  C   UNL     1     123.585  55.695  48.709  1.00  0.00     0.000 C 
BRANCH   4   5
ATOM      5  C   UNL     1     123.482  55.757  50.245  1.00  0.00     0.006 C 
BRANCH   5   6
ATOM      6  C   UNL     1     123.464  57.181  50.823  1.00  0.00     0.053 C 
BRANCH   6   7
ATOM      7  C   UNL     1     124.626  57.433  51.735  1.00  0.00     0.041 C 
ATOM      8  O   UNL     1     124.910  58.607  52.089  1.00  0.00    -0.550 OA
ATOM      9  O   UNL     1     125.373  56.366  52.218  1.00  0.00    -0.550 OA
ENDBRANCH   6   7
ENDBRANCH   5   6
ENDBRANCH   4   5
ENDBRANCH   3   4
ENDBRANCH   2   3
ENDBRANCH   1   2
BRANCH   1  10
ATOM     10  C   UNL     1     124.885  52.814  45.662  1.00  0.00     0.000 C 
BRANCH  10  11
ATOM     11  C   UNL     1     126.188  53.359  45.065  1.00  0.00    -0.000 C 
BRANCH  11  12
ATOM     12  C   UNL     1     126.065  53.541  43.548  1.00  0.00    -0.000 C 
BRANCH  12  13
ATOM     13  C   UNL     1     126.105  55.025  43.167  1.00  0.00    -0.000 C 
BRANCH  13  14
ATOM     14  C   UNL     1     124.723  55.674  43.334  1.00  0.00    -0.000 C 
BRANCH  14  15
ATOM     15  C   UNL     1     124.701  56.742  44.439  1.00  0.00    -0.003 C 
ATOM     16  C   UNL     1     123.333  56.871  45.110  1.00  0.00     0.004 C 
ENDBRANCH  14  15
ENDBRANCH  13  14
ENDBRANCH  12  13
ENDBRANCH  11  12
ENDBRANCH  10  11
ENDBRANCH   1  10
TORSDOF 12
ENDMDL
MODEL 5
REMARK VINA RESULT:    -3.398      2.742      6.314
REMARK INTER + INTRA:          -7.309
REMARK INTER:                  -5.896
REMARK INTRA:                  -1.413
REMARK UNBOUND:                -1.527
REMARK SMILES CCCCCCCCCCCCCC(=O)[O-]
REMARK SMILES IDX 8 1 9 2 10 3 11 4 12 5 13 6 14 7 15 8 16 9 7 10 6 11 5 12
REMARK SMILES IDX 4 13 3 14 2 15 1 16
REMARK H PARENT
REMARK Flexibility Score: inf
ROOT
ATOM      1  C   UNL     1     118.943  54.262  53.539  1.00  0.00     0.000 C 
ENDROOT
BRANCH   1   2
ATOM      2  C   UNL     1     119.044  53.640  54.944  1.00  0.00     0.000 C 
BRANCH   2   3
ATOM      3  C   UNL     1     120.335  53.971  55.715  1.00  0.00     0.000 C 
BRANCH   3   4
ATOM      4  C   UNL     1     121.359  52.823  55.690  1.00  0.00     0.000 C 
BRANCH   4   5
ATOM      5  C   UNL     1     122.692  53.229  55.034  1.00  0.00     0.006 C 
BRANCH   5   6
ATOM      6  C   UNL     1     122.557  54.278  53.919  1.00  0.00     0.053 C 
BRANCH   6   7
ATOM      7  C   UNL     1     123.834  54.453  53.154  1.00  0.00     0.041 C 
ATOM      8  O   UNL     1     124.512  53.448  52.815  1.00  0.00    -0.550 OA
ATOM      9  O   UNL     1     124.255  55.726  52.788  1.00  0.00    -0.550 OA
ENDBRANCH   6   7
ENDBRANCH   5   6
ENDBRANCH   4   5
ENDBRANCH   3   4
ENDBRANCH   2   3
ENDBRANCH   1   2
BRANCH   1  10
ATOM     10  C   UNL     1     119.086  53.228  52.412  1.00  0.00     0.000 C 
BRANCH  10  11
ATOM     11  C   UNL     1     118.229  53.613  51.200  1.00  0.00    -0.000 C 
BRANCH  11  12
ATOM     12  C   UNL     1     117.074  54.532  51.611  1.00  0.00    -0.000 C 
BRANCH  12  13
ATOM     13  C   UNL     1     115.743  53.770  51.629  1.00  0.00    -0.000 C 
BRANCH  13  14
ATOM     14  C   UNL     1     115.327  53.423  53.066  1.00  0.00    -0.000 C 
BRANCH  14  15
ATOM     15  C   UNL     1     115.702  51.986  53.461  1.00  0.00    -0.003 C 
ATOM     16  C   UNL     1     115.722  51.031  52.267  1.00  0.00     0.004 C 
ENDBRANCH  14  15
ENDBRANCH  13  14
ENDBRANCH  12  13
ENDBRANCH  11  12
ENDBRANCH  10  11
ENDBRANCH   1  10
TORSDOF 12
ENDMDL
MODEL 6
REMARK VINA RESULT:    -3.355      2.948      4.168
REMARK INTER + INTRA:          -7.235
REMARK INTER:                  -5.818
REMARK INTRA:                  -1.417
REMARK UNBOUND:                -1.527
REMARK SMILES CCCCCCCCCCCCCC(=O)[O-]
REMARK SMILES IDX 8 1 9 2 10 3 11 4 12 5 13 6 14 7 15 8 16 9 7 10 6 11 5 12
REMARK SMILES IDX 4 13 3 14 2 15 1 16
REMARK H PARENT
REMARK Flexibility Score: inf
ROOT
ATOM      1  C   UNL     1     115.456  52.752  53.457  1.00  0.00     0.000 C 
ENDROOT
BRANCH   1   2
ATOM      2  C   UNL     1     115.604  51.793  52.261  1.00  0.00     0.000 C 
BRANCH   2   3
ATOM      3  C   UNL     1     115.603  52.468  50.876  1.00  0.00     0.000 C 
BRANCH   3   4
ATOM      4  C   UNL     1     115.294  53.973  50.943  1.00  0.00     0.000 C 
BRANCH   4   5
ATOM      5  C   UNL     1     114.754  54.530  49.613  1.00  0.00     0.006 C 
BRANCH   5   6
ATOM      6  C   UNL     1     113.927  55.818  49.752  1.00  0.00     0.053 C 
BRANCH   6   7
ATOM      7  C   UNL     1     112.724  55.814  48.859  1.00  0.00     0.041 C 
ATOM      8  O   UNL     1     112.819  55.408  47.671  1.00  0.00    -0.550 OA
ATOM      9  O   UNL     1     111.493  56.229  49.349  1.00  0.00    -0.550 OA
ENDBRANCH   6   7
ENDBRANCH   5   6
ENDBRANCH   4   5
ENDBRANCH   3   4
ENDBRANCH   2   3
ENDBRANCH   1   2
BRANCH   1  10
ATOM     10  C   UNL     1     116.414  52.424  54.612  1.00  0.00     0.000 C 
BRANCH  10  11
ATOM     11  C   UNL     1     117.829  52.145  54.092  1.00  0.00    -0.000 C 
BRANCH  11  12
ATOM     12  C   UNL     1     118.834  53.152  54.662  1.00  0.00    -0.000 C 
BRANCH  12  13
ATOM     13  C   UNL     1     119.092  54.294  53.671  1.00  0.00    -0.000 C 
BRANCH  13  14
ATOM     14  C   UNL     1     118.813  53.845  52.229  1.00  0.00    -0.000 C 
BRANCH  14  15
ATOM     15  C   UNL     1     119.163  54.927  51.195  1.00  0.00    -0.003 C 
ATOM     16  C   UNL     1     118.248  56.148  51.283  1.00  0.00     0.004 C 
ENDBRANCH  14  15
ENDBRANCH  13  14
ENDBRANCH  12  13
ENDBRANCH  11  12
ENDBRANCH  10  11
ENDBRANCH   1  10
TORSDOF 12
ENDMDL
MODEL 7
REMARK VINA RESULT:    -3.354      2.865      5.845
REMARK INTER + INTRA:          -7.235
REMARK INTER:                  -5.278
REMARK INTRA:                  -1.956
REMARK UNBOUND:                -1.527
REMARK SMILES CCCCCCCCCCCCCC(=O)[O-]
REMARK SMILES IDX 8 1 9 2 10 3 11 4 12 5 13 6 14 7 15 8 16 9 7 10 6 11 5 12
REMARK SMILES IDX 4 13 3 14 2 15 1 16
REMARK H PARENT
REMARK Flexibility Score: inf
ROOT
ATOM      1  C   UNL     1     115.435  53.314  51.946  1.00  0.00     0.000 C 
ENDROOT
BRANCH   1   2
ATOM      2  C   UNL     1     115.210  53.119  53.457  1.00  0.00     0.000 C 
BRANCH   2   3
ATOM      3  C   UNL     1     116.260  52.248  54.170  1.00  0.00     0.000 C 
BRANCH   3   4
ATOM      4  C   UNL     1     117.077  53.028  55.214  1.00  0.00     0.000 C 
BRANCH   4   5
ATOM      5  C   UNL     1     118.489  53.389  54.718  1.00  0.00     0.006 C 
BRANCH   5   6
ATOM      6  C   UNL     1     119.245  52.226  54.054  1.00  0.00     0.053 C 
BRANCH   6   7
ATOM      7  C   UNL     1     120.605  52.026  54.650  1.00  0.00     0.041 C 
ATOM      8  O   UNL     1     120.930  52.633  55.705  1.00  0.00    -0.550 OA
ATOM      9  O   UNL     1     121.501  51.145  54.058  1.00  0.00    -0.550 OA
ENDBRANCH   6   7
ENDBRANCH   5   6
ENDBRANCH   4   5
ENDBRANCH   3   4
ENDBRANCH   2   3
ENDBRANCH   1   2
BRANCH   1  10
ATOM     10  C   UNL     1     116.694  54.132  51.626  1.00  0.00     0.000 C 
BRANCH  10  11
ATOM     11  C   UNL     1     117.683  53.316  50.785  1.00  0.00    -0.000 C 
BRANCH  11  12
ATOM     12  C   UNL     1     117.097  51.947  50.421  1.00  0.00    -0.000 C 
BRANCH  12  13
ATOM     13  C   UNL     1     118.051  50.816  50.824  1.00  0.00    -0.000 C 
BRANCH  13  14
ATOM     14  C   UNL     1     117.326  49.761  51.673  1.00  0.00    -0.000 C 
BRANCH  14  15
ATOM     15  C   UNL     1     115.813  49.726  51.407  1.00  0.00    -0.003 C 
ATOM     16  C   UNL     1     115.298  48.318  51.103  1.00  0.00     0.004 C 
ENDBRANCH  14  15
ENDBRANCH  13  14
ENDBRANCH  12  13
ENDBRANCH  11  12
ENDBRANCH  10  11
ENDBRANCH   1  10
TORSDOF 12
ENDMDL
MODEL 8
REMARK VINA RESULT:    -3.294      1.163      1.929
REMARK INTER + INTRA:          -7.131
REMARK INTER:                  -5.672
REMARK INTRA:                  -1.459
REMARK UNBOUND:                -1.527
REMARK SMILES CCCCCCCCCCCCCC(=O)[O-]
REMARK SMILES IDX 8 1 9 2 10 3 11 4 12 5 13 6 14 7 15 8 16 9 7 10 6 11 5 12
REMARK SMILES IDX 4 13 3 14 2 15 1 16
REMARK H PARENT
REMARK Flexibility Score: inf
ROOT
ATOM      1  C   UNL     1     118.064  52.384  54.233  1.00  0.00     0.000 C 
ENDROOT
BRANCH   1   2
ATOM      2  C   UNL     1     116.592  52.439  54.681  1.00  0.00     0.000 C 
BRANCH   2   3
ATOM      3  C   UNL     1     115.589  52.846  53.585  1.00  0.00     0.000 C 
BRANCH   3   4
ATOM      4  C   UNL     1     115.610  51.901  52.372  1.00  0.00     0.000 C 
BRANCH   4   5
ATOM      5  C   UNL     1     115.630  52.656  51.030  1.00  0.00     0.006 C 
BRANCH   5   6
ATOM      6  C   UNL     1     115.905  54.163  51.153  1.00  0.00     0.053 C 
BRANCH   6   7
ATOM      7  C   UNL     1     117.328  54.504  50.830  1.00  0.00     0.041 C 
ATOM      8  O   UNL     1     118.019  53.730  50.117  1.00  0.00    -0.550 OA
ATOM      9  O   UNL     1     117.880  55.693  51.292  1.00  0.00    -0.550 OA
ENDBRANCH   6   7
ENDBRANCH   5   6
ENDBRANCH   4   5
ENDBRANCH   3   4
ENDBRANCH   2   3
ENDBRANCH   1   2
BRANCH   1  10
ATOM     10  C   UNL     1     118.737  53.764  54.208  1.00  0.00     0.000 C 
BRANCH  10  11
ATOM     11  C   UNL     1     119.020  54.265  55.629  1.00  0.00    -0.000 C 
BRANCH  11  12
ATOM     12  C   UNL     1     120.384  53.774  56.125  1.00  0.00    -0.000 C 
BRANCH  12  13
ATOM     13  C   UNL     1     121.442  53.876  55.019  1.00  0.00    -0.000 C 
BRANCH  13  14
ATOM     14  C   UNL     1     122.353  52.640  55.013  1.00  0.00    -0.000 C 
BRANCH  14  15
ATOM     15  C   UNL     1     121.630  51.369  55.486  1.00  0.00    -0.003 C 
ATOM     16  C   UNL     1     121.192  50.472  54.327  1.00  0.00     0.004 C 
ENDBRANCH  14  15
ENDBRANCH  13  14
ENDBRANCH  12  13
ENDBRANCH  11  12
ENDBRANCH  10  11
ENDBRANCH   1  10
TORSDOF 12
ENDMDL
