MODEL 1
REMARK VINA RESULT:    -5.186      0.000      0.000
REMARK INTER + INTRA:         -18.902
REMARK INTER:                 -13.675
REMARK INTRA:                  -5.228
REMARK UNBOUND:                -5.228
REMARK SMILES CCCCCCCCCCCCCCCCCCCCCCCCCCCCCC(=O)[O-]
REMARK SMILES IDX 16 1 17 2 18 3 19 4 20 5 21 6 22 7 23 8 24 9 25 10 26 11
REMARK SMILES IDX 27 12 28 13 29 14 30 15 31 16 32 17 15 18 14 19 13 20 12 21
REMARK SMILES IDX 11 22 10 23 9 24 8 25 7 26 6 27 5 28 4 29 3 30 2 31 1 32
REMARK H PARENT
REMARK Flexibility Score: inf
ROOT
ATOM      1  C   UNL     1      16.300 -30.258  23.009  1.00  0.00     0.000 C 
ENDROOT
BRANCH   1   2
ATOM      2  C   UNL     1      16.815 -29.838  21.624  1.00  0.00     0.000 C 
BRANCH   2   3
ATOM      3  C   UNL     1      17.382 -31.023  20.817  1.00  0.00     0.000 C 
BRANCH   3   4
ATOM      4  C   UNL     1      17.926 -32.152  21.719  1.00  0.00     0.000 C 
BRANCH   4   5
ATOM      5  C   UNL     1      19.300 -32.691  21.281  1.00  0.00     0.000 C 
BRANCH   5   6
ATOM      6  C   UNL     1      20.442 -32.472  22.287  1.00  0.00     0.000 C 
BRANCH   6   7
ATOM      7  C   UNL     1      20.245 -31.209  23.144  1.00  0.00     0.000 C 
BRANCH   7   8
ATOM      8  C   UNL     1      21.531 -30.377  23.299  1.00  0.00     0.000 C 
BRANCH   8   9
ATOM      9  C   UNL     1      21.674 -29.201  22.310  1.00  0.00     0.000 C 
BRANCH   9  10
ATOM     10  C   UNL     1      20.815 -29.302  21.033  1.00  0.00     0.000 C 
BRANCH  10  11
ATOM     11  C   UNL     1      19.827 -28.140  20.821  1.00  0.00     0.000 C 
BRANCH  11  12
ATOM     12  C   UNL     1      20.353 -26.807  21.376  1.00  0.00     0.000 C 
BRANCH  12  13
ATOM     13  C   UNL     1      20.652 -25.819  20.242  1.00  0.00     0.006 C 
BRANCH  13  14
ATOM     14  C   UNL     1      22.022 -25.159  20.432  1.00  0.00     0.053 C 
BRANCH  14  15
ATOM     15  C   UNL     1      23.117 -26.070  19.972  1.00  0.00     0.041 C 
ATOM     16  O   UNL     1      23.718 -26.808  20.798  1.00  0.00    -0.550 OA
ATOM     17  O   UNL     1      23.499 -26.082  18.636  1.00  0.00    -0.550 OA
ENDBRANCH  14  15
ENDBRANCH  13  14
ENDBRANCH  12  13
ENDBRANCH  11  12
ENDBRANCH  10  11
ENDBRANCH   9  10
ENDBRANCH   8   9
ENDBRANCH   7   8
ENDBRANCH   6   7
ENDBRANCH   5   6
ENDBRANCH   4   5
ENDBRANCH   3   4
ENDBRANCH   2   3
ENDBRANCH   1   2
BRANCH   1  18
ATOM     18  C   UNL     1      14.818 -29.908  23.219  1.00  0.00     0.000 C 
BRANCH  18  19
ATOM     19  C   UNL     1      13.925 -31.149  23.405  1.00  0.00     0.000 C 
BRANCH  19  20
ATOM     20  C   UNL     1      14.686 -32.470  23.629  1.00  0.00     0.000 C 
BRANCH  20  21
ATOM     21  C   UNL     1      14.544 -33.456  22.455  1.00  0.00     0.000 C 
BRANCH  21  22
ATOM     22  C   UNL     1      14.238 -32.748  21.116  1.00  0.00     0.000 C 
BRANCH  22  23
ATOM     23  C   UNL     1      14.310 -33.673  19.888  1.00  0.00     0.000 C 
BRANCH  23  24
ATOM     24  C   UNL     1      15.305 -34.829  20.076  1.00  0.00    -0.000 C 
BRANCH  24  25
ATOM     25  C   UNL     1      16.553 -34.717  19.178  1.00  0.00    -0.000 C 
BRANCH  25  26
ATOM     26  C   UNL     1      17.660 -35.757  19.431  1.00  0.00    -0.000 C 
BRANCH  26  27
ATOM     27  C   UNL     1      17.203 -36.931  20.309  1.00  0.00    -0.000 C 
BRANCH  27  28
ATOM     28  C   UNL     1      18.263 -37.339  21.346  1.00  0.00    -0.000 C 
BRANCH  28  29
ATOM     29  C   UNL     1      18.648 -36.204  22.322  1.00  0.00    -0.000 C 
BRANCH  29  30
ATOM     30  C   UNL     1      17.445 -35.527  22.999  1.00  0.00    -0.000 C 
BRANCH  30  31
ATOM     31  C   UNL     1      17.839 -34.731  24.251  1.00  0.00    -0.003 C 
ATOM     32  C   UNL     1      17.632 -35.560  25.516  1.00  0.00     0.004 C 
ENDBRANCH  30  31
ENDBRANCH  29  30
ENDBRANCH  28  29
ENDBRANCH  27  28
ENDBRANCH  26  27
ENDBRANCH  25  26
ENDBRANCH  24  25
ENDBRANCH  23  24
ENDBRANCH  22  23
ENDBRANCH  21  22
ENDBRANCH  20  21
ENDBRANCH  19  20
ENDBRANCH  18  19
ENDBRANCH   1  18
TORSDOF 28
ENDMDL
MODEL 2
REMARK VINA RESULT:    -5.171      1.238      2.690
REMARK INTER + INTRA:         -18.862
REMARK INTER:                 -13.439
REMARK INTRA:                  -5.424
REMARK UNBOUND:                -5.228
REMARK SMILES CCCCCCCCCCCCCCCCCCCCCCCCCCCCCC(=O)[O-]
REMARK SMILES IDX 16 1 17 2 18 3 19 4 20 5 21 6 22 7 23 8 24 9 25 10 26 11
REMARK SMILES IDX 27 12 28 13 29 14 30 15 31 16 32 17 15 18 14 19 13 20 12 21
REMARK SMILES IDX 11 22 10 23 9 24 8 25 7 26 6 27 5 28 4 29 3 30 2 31 1 32
REMARK H PARENT
REMARK Flexibility Score: inf
ROOT
ATOM      1  C   UNL     1      13.516 -31.048  23.953  1.00  0.00     0.000 C 
ENDROOT
BRANCH   1   2
ATOM      2  C   UNL     1      13.255 -30.337  22.617  1.00  0.00     0.000 C 
BRANCH   2   3
ATOM      3  C   UNL     1      14.184 -29.127  22.397  1.00  0.00     0.000 C 
BRANCH   3   4
ATOM      4  C   UNL     1      15.278 -29.399  21.342  1.00  0.00     0.000 C 
BRANCH   4   5
ATOM      5  C   UNL     1      16.589 -29.950  21.934  1.00  0.00     0.000 C 
BRANCH   5   6
ATOM      6  C   UNL     1      17.484 -30.716  20.945  1.00  0.00     0.000 C 
BRANCH   6   7
ATOM      7  C   UNL     1      18.307 -31.824  21.625  1.00  0.00     0.000 C 
BRANCH   7   8
ATOM      8  C   UNL     1      19.613 -32.151  20.877  1.00  0.00     0.000 C 
BRANCH   8   9
ATOM      9  C   UNL     1      20.859 -31.383  21.366  1.00  0.00     0.000 C 
BRANCH   9  10
ATOM     10  C   UNL     1      21.109 -30.024  20.682  1.00  0.00     0.000 C 
BRANCH  10  11
ATOM     11  C   UNL     1      20.728 -28.792  21.523  1.00  0.00     0.000 C 
BRANCH  11  12
ATOM     12  C   UNL     1      19.825 -27.810  20.760  1.00  0.00     0.000 C 
BRANCH  12  13
ATOM     13  C   UNL     1      20.059 -26.370  21.231  1.00  0.00     0.006 C 
BRANCH  13  14
ATOM     14  C   UNL     1      21.486 -26.185  21.759  1.00  0.00     0.053 C 
BRANCH  14  15
ATOM     15  C   UNL     1      22.269 -25.277  20.862  1.00  0.00     0.041 C 
ATOM     16  O   UNL     1      22.306 -25.490  19.620  1.00  0.00    -0.550 OA
ATOM     17  O   UNL     1      22.985 -24.214  21.399  1.00  0.00    -0.550 OA
ENDBRANCH  14  15
ENDBRANCH  13  14
ENDBRANCH  12  13
ENDBRANCH  11  12
ENDBRANCH  10  11
ENDBRANCH   9  10
ENDBRANCH   8   9
ENDBRANCH   7   8
ENDBRANCH   6   7
ENDBRANCH   5   6
ENDBRANCH   4   5
ENDBRANCH   3   4
ENDBRANCH   2   3
ENDBRANCH   1   2
BRANCH   1  18
ATOM     18  C   UNL     1      13.709 -32.564  23.787  1.00  0.00     0.000 C 
BRANCH  18  19
ATOM     19  C   UNL     1      15.168 -32.957  23.487  1.00  0.00     0.000 C 
BRANCH  19  20
ATOM     20  C   UNL     1      15.344 -33.983  22.350  1.00  0.00     0.000 C 
BRANCH  20  21
ATOM     21  C   UNL     1      14.846 -33.467  20.988  1.00  0.00     0.000 C 
BRANCH  21  22
ATOM     22  C   UNL     1      15.244 -34.395  19.818  1.00  0.00     0.000 C 
BRANCH  22  23
ATOM     23  C   UNL     1      16.663 -34.145  19.275  1.00  0.00     0.000 C 
BRANCH  23  24
ATOM     24  C   UNL     1      17.517 -35.421  19.239  1.00  0.00    -0.000 C 
BRANCH  24  25
ATOM     25  C   UNL     1      16.977 -36.547  20.142  1.00  0.00    -0.000 C 
BRANCH  25  26
ATOM     26  C   UNL     1      18.003 -37.211  21.078  1.00  0.00    -0.000 C 
BRANCH  26  27
ATOM     27  C   UNL     1      18.025 -36.599  22.487  1.00  0.00    -0.000 C 
BRANCH  27  28
ATOM     28  C   UNL     1      18.830 -35.291  22.548  1.00  0.00    -0.000 C 
BRANCH  28  29
ATOM     29  C   UNL     1      18.837 -34.628  23.945  1.00  0.00    -0.000 C 
BRANCH  29  30
ATOM     30  C   UNL     1      20.123 -33.847  24.259  1.00  0.00    -0.000 C 
BRANCH  30  31
ATOM     31  C   UNL     1      19.850 -32.519  24.978  1.00  0.00    -0.003 C 
ATOM     32  C   UNL     1      18.367 -32.369  25.308  1.00  0.00     0.004 C 
ENDBRANCH  30  31
ENDBRANCH  29  30
ENDBRANCH  28  29
ENDBRANCH  27  28
ENDBRANCH  26  27
ENDBRANCH  25  26
ENDBRANCH  24  25
ENDBRANCH  23  24
ENDBRANCH  22  23
ENDBRANCH  21  22
ENDBRANCH  20  21
ENDBRANCH  19  20
ENDBRANCH  18  19
ENDBRANCH   1  18
TORSDOF 28
ENDMDL
MODEL 3
REMARK VINA RESULT:    -5.118      1.343      2.968
REMARK INTER + INTRA:         -18.724
REMARK INTER:                 -13.839
REMARK INTRA:                  -4.886
REMARK UNBOUND:                -5.228
REMARK SMILES CCCCCCCCCCCCCCCCCCCCCCCCCCCCCC(=O)[O-]
REMARK SMILES IDX 16 1 17 2 18 3 19 4 20 5 21 6 22 7 23 8 24 9 25 10 26 11
REMARK SMILES IDX 27 12 28 13 29 14 30 15 31 16 32 17 15 18 14 19 13 20 12 21
REMARK SMILES IDX 11 22 10 23 9 24 8 25 7 26 6 27 5 28 4 29 3 30 2 31 1 32
REMARK H PARENT
REMARK Flexibility Score: inf
ROOT
ATOM      1  C   UNL     1      14.012 -30.251  21.281  1.00  0.00     0.000 C 
ENDROOT
BRANCH   1   2
ATOM      2  C   UNL     1      14.801 -29.811  22.524  1.00  0.00     0.000 C 
BRANCH   2   3
ATOM      3  C   UNL     1      15.181 -30.995  23.435  1.00  0.00     0.000 C 
BRANCH   3   4
ATOM      4  C   UNL     1      16.650 -31.435  23.259  1.00  0.00     0.000 C 
BRANCH   4   5
ATOM      5  C   UNL     1      17.450 -30.553  22.281  1.00  0.00     0.000 C 
BRANCH   5   6
ATOM      6  C   UNL     1      17.621 -31.132  20.866  1.00  0.00     0.000 C 
BRANCH   6   7
ATOM      7  C   UNL     1      18.715 -32.211  20.793  1.00  0.00     0.000 C 
BRANCH   7   8
ATOM      8  C   UNL     1      19.951 -31.877  21.650  1.00  0.00     0.000 C 
BRANCH   8   9
ATOM      9  C   UNL     1      20.997 -30.972  20.966  1.00  0.00     0.000 C 
BRANCH   9  10
ATOM     10  C   UNL     1      21.135 -29.555  21.558  1.00  0.00     0.000 C 
BRANCH  10  11
ATOM     11  C   UNL     1      20.280 -28.476  20.869  1.00  0.00     0.000 C 
BRANCH  11  12
ATOM     12  C   UNL     1      20.789 -27.053  21.142  1.00  0.00     0.000 C 
BRANCH  12  13
ATOM     13  C   UNL     1      22.194 -26.851  20.560  1.00  0.00     0.006 C 
BRANCH  13  14
ATOM     14  C   UNL     1      22.274 -25.555  19.746  1.00  0.00     0.053 C 
BRANCH  14  15
ATOM     15  C   UNL     1      23.194 -24.574  20.401  1.00  0.00     0.041 C 
ATOM     16  O   UNL     1      23.165 -24.413  21.652  1.00  0.00    -0.550 OA
ATOM     17  O   UNL     1      24.064 -23.811  19.632  1.00  0.00    -0.550 OA
ENDBRANCH  14  15
ENDBRANCH  13  14
ENDBRANCH  12  13
ENDBRANCH  11  12
ENDBRANCH  10  11
ENDBRANCH   9  10
ENDBRANCH   8   9
ENDBRANCH   7   8
ENDBRANCH   6   7
ENDBRANCH   5   6
ENDBRANCH   4   5
ENDBRANCH   3   4
ENDBRANCH   2   3
ENDBRANCH   1   2
BRANCH   1  18
ATOM     18  C   UNL     1      13.351 -31.627  21.458  1.00  0.00     0.000 C 
BRANCH  18  19
ATOM     19  C   UNL     1      13.864 -32.677  20.455  1.00  0.00     0.000 C 
BRANCH  19  20
ATOM     20  C   UNL     1      14.840 -33.715  21.042  1.00  0.00     0.000 C 
BRANCH  20  21
ATOM     21  C   UNL     1      15.154 -34.866  20.070  1.00  0.00     0.000 C 
BRANCH  21  22
ATOM     22  C   UNL     1      16.342 -34.549  19.134  1.00  0.00     0.000 C 
BRANCH  22  23
ATOM     23  C   UNL     1      17.566 -35.459  19.348  1.00  0.00     0.000 C 
BRANCH  23  24
ATOM     24  C   UNL     1      17.219 -36.752  20.101  1.00  0.00    -0.000 C 
BRANCH  24  25
ATOM     25  C   UNL     1      17.924 -36.876  21.465  1.00  0.00    -0.000 C 
BRANCH  25  26
ATOM     26  C   UNL     1      18.279 -35.551  22.163  1.00  0.00    -0.000 C 
BRANCH  26  27
ATOM     27  C   UNL     1      17.265 -35.138  23.239  1.00  0.00    -0.000 C 
BRANCH  27  28
ATOM     28  C   UNL     1      17.914 -34.951  24.620  1.00  0.00    -0.000 C 
BRANCH  28  29
ATOM     29  C   UNL     1      19.342 -34.361  24.562  1.00  0.00    -0.000 C 
BRANCH  29  30
ATOM     30  C   UNL     1      19.438 -32.912  25.068  1.00  0.00    -0.000 C 
BRANCH  30  31
ATOM     31  C   UNL     1      20.885 -32.471  25.333  1.00  0.00    -0.003 C 
ATOM     32  C   UNL     1      21.063 -30.981  25.058  1.00  0.00     0.004 C 
ENDBRANCH  30  31
ENDBRANCH  29  30
ENDBRANCH  28  29
ENDBRANCH  27  28
ENDBRANCH  26  27
ENDBRANCH  25  26
ENDBRANCH  24  25
ENDBRANCH  23  24
ENDBRANCH  22  23
ENDBRANCH  21  22
ENDBRANCH  20  21
ENDBRANCH  19  20
ENDBRANCH  18  19
ENDBRANCH   1  18
TORSDOF 28
ENDMDL
MODEL 4
REMARK VINA RESULT:    -5.036      3.164      8.207
REMARK INTER + INTRA:         -18.506
REMARK INTER:                 -14.241
REMARK INTRA:                  -4.265
REMARK UNBOUND:                -5.228
REMARK SMILES CCCCCCCCCCCCCCCCCCCCCCCCCCCCCC(=O)[O-]
REMARK SMILES IDX 16 1 17 2 18 3 19 4 20 5 21 6 22 7 23 8 24 9 25 10 26 11
REMARK SMILES IDX 27 12 28 13 29 14 30 15 31 16 32 17 15 18 14 19 13 20 12 21
REMARK SMILES IDX 11 22 10 23 9 24 8 25 7 26 6 27 5 28 4 29 3 30 2 31 1 32
REMARK H PARENT
REMARK Flexibility Score: inf
ROOT
ATOM      1  C   UNL     1      13.685 -29.985  23.764  1.00  0.00     0.000 C 
ENDROOT
BRANCH   1   2
ATOM      2  C   UNL     1      13.154 -31.290  23.149  1.00  0.00     0.000 C 
BRANCH   2   3
ATOM      3  C   UNL     1      14.003 -32.517  23.539  1.00  0.00     0.000 C 
BRANCH   3   4
ATOM      4  C   UNL     1      14.562 -33.268  22.311  1.00  0.00     0.000 C 
BRANCH   4   5
ATOM      5  C   UNL     1      14.041 -32.733  20.964  1.00  0.00     0.000 C 
BRANCH   5   6
ATOM      6  C   UNL     1      14.207 -33.689  19.771  1.00  0.00     0.000 C 
BRANCH   6   7
ATOM      7  C   UNL     1      15.306 -34.741  20.000  1.00  0.00     0.000 C 
BRANCH   7   8
ATOM      8  C   UNL     1      16.573 -34.482  19.164  1.00  0.00     0.000 C 
BRANCH   8   9
ATOM      9  C   UNL     1      17.630 -35.605  19.211  1.00  0.00     0.000 C 
BRANCH   9  10
ATOM     10  C   UNL     1      17.196 -36.893  19.942  1.00  0.00     0.000 C 
BRANCH  10  11
ATOM     11  C   UNL     1      17.923 -37.163  21.271  1.00  0.00     0.000 C 
BRANCH  11  12
ATOM     12  C   UNL     1      18.012 -35.914  22.162  1.00  0.00     0.000 C 
BRANCH  12  13
ATOM     13  C   UNL     1      18.605 -36.258  23.534  1.00  0.00     0.006 C 
BRANCH  13  14
ATOM     14  C   UNL     1      18.466 -35.082  24.507  1.00  0.00     0.053 C 
BRANCH  14  15
ATOM     15  C   UNL     1      17.198 -35.195  25.296  1.00  0.00     0.041 C 
ATOM     16  O   UNL     1      16.442 -34.195  25.427  1.00  0.00    -0.550 OA
ATOM     17  O   UNL     1      16.866 -36.394  25.915  1.00  0.00    -0.550 OA
ENDBRANCH  14  15
ENDBRANCH  13  14
ENDBRANCH  12  13
ENDBRANCH  11  12
ENDBRANCH  10  11
ENDBRANCH   9  10
ENDBRANCH   8   9
ENDBRANCH   7   8
ENDBRANCH   6   7
ENDBRANCH   5   6
ENDBRANCH   4   5
ENDBRANCH   3   4
ENDBRANCH   2   3
ENDBRANCH   1   2
BRANCH   1  18
ATOM     18  C   UNL     1      14.016 -28.924  22.702  1.00  0.00     0.000 C 
BRANCH  18  19
ATOM     19  C   UNL     1      15.028 -29.418  21.651  1.00  0.00     0.000 C 
BRANCH  19  20
ATOM     20  C   UNL     1      16.379 -29.892  22.222  1.00  0.00     0.000 C 
BRANCH  20  21
ATOM     21  C   UNL     1      17.178 -30.765  21.238  1.00  0.00     0.000 C 
BRANCH  21  22
ATOM     22  C   UNL     1      17.848 -31.976  21.926  1.00  0.00     0.000 C 
BRANCH  22  23
ATOM     23  C   UNL     1      19.031 -32.567  21.137  1.00  0.00     0.000 C 
BRANCH  23  24
ATOM     24  C   UNL     1      20.286 -32.756  22.005  1.00  0.00    -0.000 C 
BRANCH  24  25
ATOM     25  C   UNL     1      21.378 -31.701  21.741  1.00  0.00    -0.000 C 
BRANCH  25  26
ATOM     26  C   UNL     1      21.010 -30.584  20.747  1.00  0.00    -0.000 C 
BRANCH  26  27
ATOM     27  C   UNL     1      20.869 -29.205  21.407  1.00  0.00    -0.000 C 
BRANCH  27  28
ATOM     28  C   UNL     1      21.700 -28.124  20.696  1.00  0.00    -0.000 C 
BRANCH  28  29
ATOM     29  C   UNL     1      22.689 -27.386  21.627  1.00  0.00    -0.000 C 
BRANCH  29  30
ATOM     30  C   UNL     1      22.388 -25.887  21.794  1.00  0.00    -0.000 C 
BRANCH  30  31
ATOM     31  C   UNL     1      22.049 -25.198  20.464  1.00  0.00    -0.003 C 
ATOM     32  C   UNL     1      23.292 -25.049  19.591  1.00  0.00     0.004 C 
ENDBRANCH  30  31
ENDBRANCH  29  30
ENDBRANCH  28  29
ENDBRANCH  27  28
ENDBRANCH  26  27
ENDBRANCH  25  26
ENDBRANCH  24  25
ENDBRANCH  23  24
ENDBRANCH  22  23
ENDBRANCH  21  22
ENDBRANCH  20  21
ENDBRANCH  19  20
ENDBRANCH  18  19
ENDBRANCH   1  18
TORSDOF 28
ENDMDL
MODEL 5
REMARK VINA RESULT:    -4.980      1.764      2.592
REMARK INTER + INTRA:         -18.359
REMARK INTER:                 -13.724
REMARK INTRA:                  -4.635
REMARK UNBOUND:                -5.228
REMARK SMILES CCCCCCCCCCCCCCCCCCCCCCCCCCCCCC(=O)[O-]
REMARK SMILES IDX 16 1 17 2 18 3 19 4 20 5 21 6 22 7 23 8 24 9 25 10 26 11
REMARK SMILES IDX 27 12 28 13 29 14 30 15 31 16 32 17 15 18 14 19 13 20 12 21
REMARK SMILES IDX 11 22 10 23 9 24 8 25 7 26 6 27 5 28 4 29 3 30 2 31 1 32
REMARK H PARENT
REMARK Flexibility Score: inf
ROOT
ATOM      1  C   UNL     1      15.872 -29.905  22.216  1.00  0.00     0.000 C 
ENDROOT
BRANCH   1   2
ATOM      2  C   UNL     1      17.168 -30.731  22.238  1.00  0.00     0.000 C 
BRANCH   2   3
ATOM      3  C   UNL     1      17.468 -31.400  20.881  1.00  0.00     0.000 C 
BRANCH   3   4
ATOM      4  C   UNL     1      18.747 -32.263  20.912  1.00  0.00     0.000 C 
BRANCH   4   5
ATOM      5  C   UNL     1      19.896 -31.644  21.730  1.00  0.00     0.000 C 
BRANCH   5   6
ATOM      6  C   UNL     1      20.886 -30.786  20.924  1.00  0.00     0.000 C 
BRANCH   6   7
ATOM      7  C   UNL     1      20.994 -29.346  21.456  1.00  0.00     0.000 C 
BRANCH   7   8
ATOM      8  C   UNL     1      19.849 -28.437  20.973  1.00  0.00     0.000 C 
BRANCH   8   9
ATOM      9  C   UNL     1      20.275 -27.016  20.547  1.00  0.00     0.000 C 
BRANCH   9  10
ATOM     10  C   UNL     1      21.795 -26.752  20.550  1.00  0.00     0.000 C 
BRANCH  10  11
ATOM     11  C   UNL     1      22.235 -25.479  19.804  1.00  0.00     0.000 C 
BRANCH  11  12
ATOM     12  C   UNL     1      23.230 -24.633  20.614  1.00  0.00     0.000 C 
BRANCH  12  13
ATOM     13  C   UNL     1      22.945 -24.739  22.117  1.00  0.00     0.006 C 
BRANCH  13  14
ATOM     14  C   UNL     1      22.078 -23.570  22.599  1.00  0.00     0.053 C 
BRANCH  14  15
ATOM     15  C   UNL     1      20.742 -24.059  23.064  1.00  0.00     0.041 C 
ATOM     16  O   UNL     1      19.735 -23.967  22.311  1.00  0.00    -0.550 OA
ATOM     17  O   UNL     1      20.598 -24.587  24.341  1.00  0.00    -0.550 OA
ENDBRANCH  14  15
ENDBRANCH  13  14
ENDBRANCH  12  13
ENDBRANCH  11  12
ENDBRANCH  10  11
ENDBRANCH   9  10
ENDBRANCH   8   9
ENDBRANCH   7   8
ENDBRANCH   6   7
ENDBRANCH   5   6
ENDBRANCH   4   5
ENDBRANCH   3   4
ENDBRANCH   2   3
ENDBRANCH   1   2
BRANCH   1  18
ATOM     18  C   UNL     1      14.867 -30.356  23.288  1.00  0.00     0.000 C 
BRANCH  18  19
ATOM     19  C   UNL     1      13.977 -31.525  22.828  1.00  0.00     0.000 C 
BRANCH  19  20
ATOM     20  C   UNL     1      13.340 -31.348  21.436  1.00  0.00     0.000 C 
BRANCH  20  21
ATOM     21  C   UNL     1      13.657 -32.507  20.474  1.00  0.00     0.000 C 
BRANCH  21  22
ATOM     22  C   UNL     1      14.635 -33.537  21.084  1.00  0.00     0.000 C 
BRANCH  22  23
ATOM     23  C   UNL     1      14.979 -34.706  20.143  1.00  0.00     0.000 C 
BRANCH  23  24
ATOM     24  C   UNL     1      16.192 -34.407  19.247  1.00  0.00    -0.000 C 
BRANCH  24  25
ATOM     25  C   UNL     1      17.345 -35.415  19.419  1.00  0.00    -0.000 C 
BRANCH  25  26
ATOM     26  C   UNL     1      16.978 -36.750  20.092  1.00  0.00    -0.000 C 
BRANCH  26  27
ATOM     27  C   UNL     1      17.941 -37.148  21.219  1.00  0.00    -0.000 C 
BRANCH  27  28
ATOM     28  C   UNL     1      18.771 -35.959  21.732  1.00  0.00    -0.000 C 
BRANCH  28  29
ATOM     29  C   UNL     1      18.978 -35.959  23.264  1.00  0.00    -0.000 C 
BRANCH  29  30
ATOM     30  C   UNL     1      17.705 -35.643  24.066  1.00  0.00    -0.000 C 
BRANCH  30  31
ATOM     31  C   UNL     1      16.940 -34.432  23.514  1.00  0.00    -0.003 C 
ATOM     32  C   UNL     1      16.614 -33.436  24.624  1.00  0.00     0.004 C 
ENDBRANCH  30  31
ENDBRANCH  29  30
ENDBRANCH  28  29
ENDBRANCH  27  28
ENDBRANCH  26  27
ENDBRANCH  25  26
ENDBRANCH  24  25
ENDBRANCH  23  24
ENDBRANCH  22  23
ENDBRANCH  21  22
ENDBRANCH  20  21
ENDBRANCH  19  20
ENDBRANCH  18  19
ENDBRANCH   1  18
TORSDOF 28
ENDMDL
MODEL 6
REMARK VINA RESULT:    -4.960      2.945      8.077
REMARK INTER + INTRA:         -18.307
REMARK INTER:                 -13.484
REMARK INTRA:                  -4.823
REMARK UNBOUND:                -5.228
REMARK SMILES CCCCCCCCCCCCCCCCCCCCCCCCCCCCCC(=O)[O-]
REMARK SMILES IDX 16 1 17 2 18 3 19 4 20 5 21 6 22 7 23 8 24 9 25 10 26 11
REMARK SMILES IDX 27 12 28 13 29 14 30 15 31 16 32 17 15 18 14 19 13 20 12 21
REMARK SMILES IDX 11 22 10 23 9 24 8 25 7 26 6 27 5 28 4 29 3 30 2 31 1 32
REMARK H PARENT
REMARK Flexibility Score: inf
ROOT
ATOM      1  C   UNL     1      14.900 -30.166  23.344  1.00  0.00     0.000 C 
ENDROOT
BRANCH   1   2
ATOM      2  C   UNL     1      13.634 -31.036  23.297  1.00  0.00     0.000 C 
BRANCH   2   3
ATOM      3  C   UNL     1      13.875 -32.463  23.826  1.00  0.00     0.000 C 
BRANCH   3   4
ATOM      4  C   UNL     1      14.641 -33.351  22.821  1.00  0.00     0.000 C 
BRANCH   4   5
ATOM      5  C   UNL     1      15.895 -34.021  23.413  1.00  0.00     0.000 C 
BRANCH   5   6
ATOM      6  C   UNL     1      16.554 -33.265  24.579  1.00  0.00     0.000 C 
BRANCH   6   7
ATOM      7  C   UNL     1      17.404 -34.181  25.476  1.00  0.00     0.000 C 
BRANCH   7   8
ATOM      8  C   UNL     1      17.060 -35.673  25.315  1.00  0.00     0.000 C 
BRANCH   8   9
ATOM      9  C   UNL     1      18.101 -36.653  25.894  1.00  0.00     0.000 C 
BRANCH   9  10
ATOM     10  C   UNL     1      18.750 -37.608  24.873  1.00  0.00     0.000 C 
BRANCH  10  11
ATOM     11  C   UNL     1      19.612 -36.923  23.797  1.00  0.00     0.000 C 
BRANCH  11  12
ATOM     12  C   UNL     1      19.167 -37.274  22.369  1.00  0.00     0.000 C 
BRANCH  12  13
ATOM     13  C   UNL     1      18.017 -36.367  21.913  1.00  0.00     0.006 C 
BRANCH  13  14
ATOM     14  C   UNL     1      17.372 -36.897  20.628  1.00  0.00     0.053 C 
BRANCH  14  15
ATOM     15  C   UNL     1      17.058 -35.773  19.691  1.00  0.00     0.041 C 
ATOM     16  O   UNL     1      17.956 -35.304  18.940  1.00  0.00    -0.550 OA
ATOM     17  O   UNL     1      15.784 -35.220  19.667  1.00  0.00    -0.550 OA
ENDBRANCH  14  15
ENDBRANCH  13  14
ENDBRANCH  12  13
ENDBRANCH  11  12
ENDBRANCH  10  11
ENDBRANCH   9  10
ENDBRANCH   8   9
ENDBRANCH   7   8
ENDBRANCH   6   7
ENDBRANCH   5   6
ENDBRANCH   4   5
ENDBRANCH   3   4
ENDBRANCH   2   3
ENDBRANCH   1   2
BRANCH   1  18
ATOM     18  C   UNL     1      15.211 -29.504  21.992  1.00  0.00     0.000 C 
BRANCH  18  19
ATOM     19  C   UNL     1      16.702 -29.583  21.611  1.00  0.00     0.000 C 
BRANCH  19  20
ATOM     20  C   UNL     1      17.406 -30.895  22.007  1.00  0.00     0.000 C 
BRANCH  20  21
ATOM     21  C   UNL     1      17.623 -31.848  20.819  1.00  0.00     0.000 C 
BRANCH  21  22
ATOM     22  C   UNL     1      18.950 -32.633  20.919  1.00  0.00     0.000 C 
BRANCH  22  23
ATOM     23  C   UNL     1      19.348 -33.008  22.359  1.00  0.00     0.000 C 
BRANCH  23  24
ATOM     24  C   UNL     1      20.685 -32.382  22.786  1.00  0.00    -0.000 C 
BRANCH  24  25
ATOM     25  C   UNL     1      21.295 -31.451  21.720  1.00  0.00    -0.000 C 
BRANCH  25  26
ATOM     26  C   UNL     1      21.087 -29.942  21.945  1.00  0.00    -0.000 C 
BRANCH  26  27
ATOM     27  C   UNL     1      20.899 -29.153  20.642  1.00  0.00    -0.000 C 
BRANCH  27  28
ATOM     28  C   UNL     1      19.830 -28.054  20.768  1.00  0.00    -0.000 C 
BRANCH  28  29
ATOM     29  C   UNL     1      20.374 -26.718  21.325  1.00  0.00    -0.000 C 
BRANCH  29  30
ATOM     30  C   UNL     1      20.810 -25.721  20.238  1.00  0.00    -0.000 C 
BRANCH  30  31
ATOM     31  C   UNL     1      22.255 -25.236  20.424  1.00  0.00    -0.003 C 
ATOM     32  C   UNL     1      23.182 -25.867  19.389  1.00  0.00     0.004 C 
ENDBRANCH  30  31
ENDBRANCH  29  30
ENDBRANCH  28  29
ENDBRANCH  27  28
ENDBRANCH  26  27
ENDBRANCH  25  26
ENDBRANCH  24  25
ENDBRANCH  23  24
ENDBRANCH  22  23
ENDBRANCH  21  22
ENDBRANCH  20  21
ENDBRANCH  19  20
ENDBRANCH  18  19
ENDBRANCH   1  18
TORSDOF 28
ENDMDL
MODEL 7
REMARK VINA RESULT:    -4.941      1.233      2.812
REMARK INTER + INTRA:         -18.257
REMARK INTER:                 -13.710
REMARK INTRA:                  -4.547
REMARK UNBOUND:                -5.228
REMARK SMILES CCCCCCCCCCCCCCCCCCCCCCCCCCCCCC(=O)[O-]
REMARK SMILES IDX 16 1 17 2 18 3 19 4 20 5 21 6 22 7 23 8 24 9 25 10 26 11
REMARK SMILES IDX 27 12 28 13 29 14 30 15 31 16 32 17 15 18 14 19 13 20 12 21
REMARK SMILES IDX 11 22 10 23 9 24 8 25 7 26 6 27 5 28 4 29 3 30 2 31 1 32
REMARK H PARENT
REMARK Flexibility Score: inf
ROOT
ATOM      1  C   UNL     1      13.465 -31.508  22.912  1.00  0.00     0.000 C 
ENDROOT
BRANCH   1   2
ATOM      2  C   UNL     1      14.214 -30.202  23.217  1.00  0.00     0.000 C 
BRANCH   2   3
ATOM      3  C   UNL     1      14.953 -29.641  21.986  1.00  0.00     0.000 C 
BRANCH   3   4
ATOM      4  C   UNL     1      16.395 -30.178  21.860  1.00  0.00     0.000 C 
BRANCH   4   5
ATOM      5  C   UNL     1      17.017 -30.608  23.201  1.00  0.00     0.000 C 
BRANCH   5   6
ATOM      6  C   UNL     1      18.241 -31.534  23.090  1.00  0.00     0.000 C 
BRANCH   6   7
ATOM      7  C   UNL     1      18.366 -32.188  21.703  1.00  0.00     0.000 C 
BRANCH   7   8
ATOM      8  C   UNL     1      19.460 -31.546  20.829  1.00  0.00     0.000 C 
BRANCH   8   9
ATOM      9  C   UNL     1      20.709 -31.061  21.594  1.00  0.00     0.000 C 
BRANCH   9  10
ATOM     10  C   UNL     1      20.991 -29.548  21.510  1.00  0.00     0.000 C 
BRANCH  10  11
ATOM     11  C   UNL     1      19.738 -28.656  21.436  1.00  0.00     0.000 C 
BRANCH  11  12
ATOM     12  C   UNL     1      19.786 -27.663  20.264  1.00  0.00     0.000 C 
BRANCH  12  13
ATOM     13  C   UNL     1      20.288 -26.290  20.727  1.00  0.00     0.006 C 
BRANCH  13  14
ATOM     14  C   UNL     1      21.675 -25.986  20.151  1.00  0.00     0.053 C 
BRANCH  14  15
ATOM     15  C   UNL     1      22.538 -25.315  21.174  1.00  0.00     0.041 C 
ATOM     16  O   UNL     1      22.533 -25.717  22.369  1.00  0.00    -0.550 OA
ATOM     17  O   UNL     1      23.324 -24.226  20.818  1.00  0.00    -0.550 OA
ENDBRANCH  14  15
ENDBRANCH  13  14
ENDBRANCH  12  13
ENDBRANCH  11  12
ENDBRANCH  10  11
ENDBRANCH   9  10
ENDBRANCH   8   9
ENDBRANCH   7   8
ENDBRANCH   6   7
ENDBRANCH   5   6
ENDBRANCH   4   5
ENDBRANCH   3   4
ENDBRANCH   2   3
ENDBRANCH   1   2
BRANCH   1  18
ATOM     18  C   UNL     1      14.131 -32.735  23.557  1.00  0.00     0.000 C 
BRANCH  18  19
ATOM     19  C   UNL     1      14.887 -33.613  22.544  1.00  0.00     0.000 C 
BRANCH  19  20
ATOM     20  C   UNL     1      14.619 -33.278  21.064  1.00  0.00     0.000 C 
BRANCH  20  21
ATOM     21  C   UNL     1      14.845 -34.473  20.122  1.00  0.00     0.000 C 
BRANCH  21  22
ATOM     22  C   UNL     1      16.323 -34.627  19.698  1.00  0.00     0.000 C 
BRANCH  22  23
ATOM     23  C   UNL     1      16.731 -36.073  19.362  1.00  0.00     0.000 C 
BRANCH  23  24
ATOM     24  C   UNL     1      17.398 -36.790  20.546  1.00  0.00    -0.000 C 
BRANCH  24  25
ATOM     25  C   UNL     1      17.710 -35.857  21.732  1.00  0.00    -0.000 C 
BRANCH  25  26
ATOM     26  C   UNL     1      18.807 -36.340  22.698  1.00  0.00    -0.000 C 
BRANCH  26  27
ATOM     27  C   UNL     1      19.531 -35.193  23.417  1.00  0.00    -0.000 C 
BRANCH  27  28
ATOM     28  C   UNL     1      19.230 -35.159  24.925  1.00  0.00    -0.000 C 
BRANCH  28  29
ATOM     29  C   UNL     1      17.826 -34.611  25.267  1.00  0.00    -0.000 C 
BRANCH  29  30
ATOM     30  C   UNL     1      16.796 -35.701  25.608  1.00  0.00    -0.000 C 
BRANCH  30  31
ATOM     31  C   UNL     1      17.431 -36.927  26.279  1.00  0.00    -0.003 C 
ATOM     32  C   UNL     1      16.415 -37.663  27.150  1.00  0.00     0.004 C 
ENDBRANCH  30  31
ENDBRANCH  29  30
ENDBRANCH  28  29
ENDBRANCH  27  28
ENDBRANCH  26  27
ENDBRANCH  25  26
ENDBRANCH  24  25
ENDBRANCH  23  24
ENDBRANCH  22  23
ENDBRANCH  21  22
ENDBRANCH  20  21
ENDBRANCH  19  20
ENDBRANCH  18  19
ENDBRANCH   1  18
TORSDOF 28
ENDMDL
MODEL 8
REMARK VINA RESULT:    -4.895      2.806      8.550
REMARK INTER + INTRA:         -18.136
REMARK INTER:                 -13.759
REMARK INTRA:                  -4.378
REMARK UNBOUND:                -5.228
REMARK SMILES CCCCCCCCCCCCCCCCCCCCCCCCCCCCCC(=O)[O-]
REMARK SMILES IDX 16 1 17 2 18 3 19 4 20 5 21 6 22 7 23 8 24 9 25 10 26 11
REMARK SMILES IDX 27 12 28 13 29 14 30 15 31 16 32 17 15 18 14 19 13 20 12 21
REMARK SMILES IDX 11 22 10 23 9 24 8 25 7 26 6 27 5 28 4 29 3 30 2 31 1 32
REMARK H PARENT
REMARK Flexibility Score: inf
ROOT
ATOM      1  C   UNL     1      16.075 -29.837  22.178  1.00  0.00     0.000 C 
ENDROOT
BRANCH   1   2
ATOM      2  C   UNL     1      14.651 -29.309  22.413  1.00  0.00     0.000 C 
BRANCH   2   3
ATOM      3  C   UNL     1      13.716 -30.374  23.019  1.00  0.00     0.000 C 
BRANCH   3   4
ATOM      4  C   UNL     1      12.604 -30.815  22.043  1.00  0.00     0.000 C 
BRANCH   4   5
ATOM      5  C   UNL     1      13.131 -31.512  20.775  1.00  0.00     0.000 C 
BRANCH   5   6
ATOM      6  C   UNL     1      13.993 -32.762  21.023  1.00  0.00     0.000 C 
BRANCH   6   7
ATOM      7  C   UNL     1      14.211 -33.596  19.749  1.00  0.00     0.000 C 
BRANCH   7   8
ATOM      8  C   UNL     1      15.244 -34.723  19.935  1.00  0.00     0.000 C 
BRANCH   8   9
ATOM      9  C   UNL     1      16.510 -34.603  19.062  1.00  0.00     0.000 C 
BRANCH   9  10
ATOM     10  C   UNL     1      17.544 -35.734  19.237  1.00  0.00     0.000 C 
BRANCH  10  11
ATOM     11  C   UNL     1      17.106 -36.877  20.171  1.00  0.00     0.000 C 
BRANCH  11  12
ATOM     12  C   UNL     1      18.034 -37.037  21.386  1.00  0.00     0.000 C 
BRANCH  12  13
ATOM     13  C   UNL     1      17.882 -35.857  22.353  1.00  0.00     0.006 C 
BRANCH  13  14
ATOM     14  C   UNL     1      19.237 -35.441  22.935  1.00  0.00     0.053 C 
BRANCH  14  15
ATOM     15  C   UNL     1      19.093 -35.015  24.363  1.00  0.00     0.041 C 
ATOM     16  O   UNL     1      20.103 -34.645  25.020  1.00  0.00    -0.550 OA
ATOM     17  O   UNL     1      17.848 -35.056  24.980  1.00  0.00    -0.550 OA
ENDBRANCH  14  15
ENDBRANCH  13  14
ENDBRANCH  12  13
ENDBRANCH  11  12
ENDBRANCH  10  11
ENDBRANCH   9  10
ENDBRANCH   8   9
ENDBRANCH   7   8
ENDBRANCH   6   7
ENDBRANCH   5   6
ENDBRANCH   4   5
ENDBRANCH   3   4
ENDBRANCH   2   3
ENDBRANCH   1   2
BRANCH   1  18
ATOM     18  C   UNL     1      16.478 -30.917  23.195  1.00  0.00     0.000 C 
BRANCH  18  19
ATOM     19  C   UNL     1      17.126 -32.151  22.540  1.00  0.00     0.000 C 
BRANCH  19  20
ATOM     20  C   UNL     1      17.591 -31.946  21.085  1.00  0.00     0.000 C 
BRANCH  20  21
ATOM     21  C   UNL     1      19.075 -32.292  20.870  1.00  0.00     0.000 C 
BRANCH  21  22
ATOM     22  C   UNL     1      19.943 -31.991  22.113  1.00  0.00     0.000 C 
BRANCH  22  23
ATOM     23  C   UNL     1      20.479 -30.549  22.167  1.00  0.00     0.000 C 
BRANCH  23  24
ATOM     24  C   UNL     1      21.256 -30.158  20.900  1.00  0.00    -0.000 C 
BRANCH  24  25
ATOM     25  C   UNL     1      21.145 -28.661  20.549  1.00  0.00    -0.000 C 
BRANCH  25  26
ATOM     26  C   UNL     1      19.817 -27.979  20.925  1.00  0.00    -0.000 C 
BRANCH  26  27
ATOM     27  C   UNL     1      19.992 -26.527  21.393  1.00  0.00    -0.000 C 
BRANCH  27  28
ATOM     28  C   UNL     1      21.217 -26.345  22.303  1.00  0.00    -0.000 C 
BRANCH  28  29
ATOM     29  C   UNL     1      21.700 -24.880  22.413  1.00  0.00    -0.000 C 
BRANCH  29  30
ATOM     30  C   UNL     1      22.768 -24.495  21.377  1.00  0.00    -0.000 C 
BRANCH  30  31
ATOM     31  C   UNL     1      23.280 -25.701  20.577  1.00  0.00    -0.003 C 
ATOM     32  C   UNL     1      23.386 -25.369  19.091  1.00  0.00     0.004 C 
ENDBRANCH  30  31
ENDBRANCH  29  30
ENDBRANCH  28  29
ENDBRANCH  27  28
ENDBRANCH  26  27
ENDBRANCH  25  26
ENDBRANCH  24  25
ENDBRANCH  23  24
ENDBRANCH  22  23
ENDBRANCH  21  22
ENDBRANCH  20  21
ENDBRANCH  19  20
ENDBRANCH  18  19
ENDBRANCH   1  18
TORSDOF 28
ENDMDL
MODEL 9
REMARK VINA RESULT:    -4.872      1.610      3.004
REMARK INTER + INTRA:         -18.075
REMARK INTER:                 -12.283
REMARK INTRA:                  -5.792
REMARK UNBOUND:                -5.228
REMARK SMILES CCCCCCCCCCCCCCCCCCCCCCCCCCCCCC(=O)[O-]
REMARK SMILES IDX 16 1 17 2 18 3 19 4 20 5 21 6 22 7 23 8 24 9 25 10 26 11
REMARK SMILES IDX 27 12 28 13 29 14 30 15 31 16 32 17 15 18 14 19 13 20 12 21
REMARK SMILES IDX 11 22 10 23 9 24 8 25 7 26 6 27 5 28 4 29 3 30 2 31 1 32
REMARK H PARENT
REMARK Flexibility Score: inf
ROOT
ATOM      1  C   UNL     1      13.887 -30.337  23.399  1.00  0.00     0.000 C 
ENDROOT
BRANCH   1   2
ATOM      2  C   UNL     1      14.339 -29.698  22.076  1.00  0.00     0.000 C 
BRANCH   2   3
ATOM      3  C   UNL     1      15.862 -29.466  22.019  1.00  0.00     0.000 C 
BRANCH   3   4
ATOM      4  C   UNL     1      16.622 -30.649  21.381  1.00  0.00     0.000 C 
BRANCH   4   5
ATOM      5  C   UNL     1      17.610 -31.341  22.338  1.00  0.00     0.000 C 
BRANCH   5   6
ATOM      6  C   UNL     1      17.380 -31.062  23.833  1.00  0.00     0.000 C 
BRANCH   6   7
ATOM      7  C   UNL     1      17.944 -32.170  24.739  1.00  0.00     0.000 C 
BRANCH   7   8
ATOM      8  C   UNL     1      19.314 -31.814  25.346  1.00  0.00     0.000 C 
BRANCH   8   9
ATOM      9  C   UNL     1      20.366 -32.942  25.296  1.00  0.00     0.000 C 
BRANCH   9  10
ATOM     10  C   UNL     1      21.205 -33.009  24.004  1.00  0.00     0.000 C 
BRANCH  10  11
ATOM     11  C   UNL     1      21.225 -31.712  23.175  1.00  0.00     0.000 C 
BRANCH  11  12
ATOM     12  C   UNL     1      21.353 -31.976  21.666  1.00  0.00     0.000 C 
BRANCH  12  13
ATOM     13  C   UNL     1      21.024 -30.715  20.858  1.00  0.00     0.006 C 
BRANCH  13  14
ATOM     14  C   UNL     1      20.729 -29.527  21.782  1.00  0.00     0.053 C 
BRANCH  14  15
ATOM     15  C   UNL     1      21.760 -28.455  21.611  1.00  0.00     0.041 C 
ATOM     16  O   UNL     1      21.784 -27.760  20.559  1.00  0.00    -0.550 OA
ATOM     17  O   UNL     1      22.716 -28.243  22.597  1.00  0.00    -0.550 OA
ENDBRANCH  14  15
ENDBRANCH  13  14
ENDBRANCH  12  13
ENDBRANCH  11  12
ENDBRANCH  10  11
ENDBRANCH   9  10
ENDBRANCH   8   9
ENDBRANCH   7   8
ENDBRANCH   6   7
ENDBRANCH   5   6
ENDBRANCH   4   5
ENDBRANCH   3   4
ENDBRANCH   2   3
ENDBRANCH   1   2
BRANCH   1  18
ATOM     18  C   UNL     1      13.302 -31.745  23.205  1.00  0.00     0.000 C 
BRANCH  18  19
ATOM     19  C   UNL     1      14.144 -32.846  23.877  1.00  0.00     0.000 C 
BRANCH  19  20
ATOM     20  C   UNL     1      14.976 -33.711  22.910  1.00  0.00     0.000 C 
BRANCH  20  21
ATOM     21  C   UNL     1      14.562 -33.540  21.438  1.00  0.00     0.000 C 
BRANCH  21  22
ATOM     22  C   UNL     1      15.281 -34.534  20.498  1.00  0.00     0.000 C 
BRANCH  22  23
ATOM     23  C   UNL     1      16.604 -34.001  19.917  1.00  0.00     0.000 C 
BRANCH  23  24
ATOM     24  C   UNL     1      17.300 -35.018  18.999  1.00  0.00    -0.000 C 
BRANCH  24  25
ATOM     25  C   UNL     1      16.815 -36.466  19.208  1.00  0.00    -0.000 C 
BRANCH  25  26
ATOM     26  C   UNL     1      17.826 -37.427  19.859  1.00  0.00    -0.000 C 
BRANCH  26  27
ATOM     27  C   UNL     1      17.800 -37.390  21.393  1.00  0.00    -0.000 C 
BRANCH  27  28
ATOM     28  C   UNL     1      18.737 -36.317  21.973  1.00  0.00    -0.000 C 
BRANCH  28  29
ATOM     29  C   UNL     1      18.231 -35.696  23.295  1.00  0.00    -0.000 C 
BRANCH  29  30
ATOM     30  C   UNL     1      19.000 -36.167  24.541  1.00  0.00    -0.000 C 
BRANCH  30  31
ATOM     31  C   UNL     1      18.205 -35.971  25.839  1.00  0.00    -0.003 C 
ATOM     32  C   UNL     1      16.758 -35.585  25.542  1.00  0.00     0.004 C 
ENDBRANCH  30  31
ENDBRANCH  29  30
ENDBRANCH  28  29
ENDBRANCH  27  28
ENDBRANCH  26  27
ENDBRANCH  25  26
ENDBRANCH  24  25
ENDBRANCH  23  24
ENDBRANCH  22  23
ENDBRANCH  21  22
ENDBRANCH  20  21
ENDBRANCH  19  20
ENDBRANCH  18  19
ENDBRANCH   1  18
TORSDOF 28
ENDMDL
