MODEL 1
REMARK VINA RESULT:    -4.342      0.000      0.000
REMARK INTER + INTRA:         -10.527
REMARK INTER:                  -8.403
REMARK INTRA:                  -2.123
REMARK UNBOUND:                -2.123
REMARK SMILES CCCCCCCCCCCCCCCCCC(=O)[O-]
REMARK SMILES IDX 10 1 11 2 12 3 13 4 14 5 15 6 16 7 17 8 18 9 19 10 20 11
REMARK SMILES IDX 9 12 8 13 7 14 6 15 5 16 4 17 3 18 2 19 1 20
REMARK H PARENT
REMARK Flexibility Score: inf
ROOT
ATOM      1  C   UNL     1     -18.033  13.415  15.367  1.00  0.00     0.000 C 
ENDROOT
BRANCH   1   2
ATOM      2  C   UNL     1     -18.379  13.086  16.829  1.00  0.00     0.000 C 
BRANCH   2   3
ATOM      3  C   UNL     1     -19.475  14.002  17.406  1.00  0.00     0.000 C 
BRANCH   3   4
ATOM      4  C   UNL     1     -20.139  14.948  16.388  1.00  0.00     0.000 C 
BRANCH   4   5
ATOM      5  C   UNL     1     -19.903  16.432  16.705  1.00  0.00     0.000 C 
BRANCH   5   6
ATOM      6  C   UNL     1     -19.837  17.266  15.417  1.00  0.00     0.000 C 
BRANCH   6   7
ATOM      7  C   UNL     1     -18.553  17.011  14.611  1.00  0.00     0.006 C 
BRANCH   7   8
ATOM      8  C   UNL     1     -18.839  16.598  13.161  1.00  0.00     0.053 C 
BRANCH   8   9
ATOM      9  C   UNL     1     -18.693  17.772  12.244  1.00  0.00     0.041 C 
ATOM     10  O   UNL     1     -19.425  17.874  11.225  1.00  0.00    -0.550 OA
ATOM     11  O   UNL     1     -17.718  18.731  12.491  1.00  0.00    -0.550 OA
ENDBRANCH   8   9
ENDBRANCH   7   8
ENDBRANCH   6   7
ENDBRANCH   5   6
ENDBRANCH   4   5
ENDBRANCH   3   4
ENDBRANCH   2   3
ENDBRANCH   1   2
BRANCH   1  12
ATOM     12  C   UNL     1     -18.055  12.175  14.460  1.00  0.00     0.000 C 
BRANCH  12  13
ATOM     13  C   UNL     1     -19.328  11.328  14.634  1.00  0.00    -0.000 C 
BRANCH  13  14
ATOM     14  C   UNL     1     -19.005   9.869  15.022  1.00  0.00    -0.000 C 
BRANCH  14  15
ATOM     15  C   UNL     1     -19.852   9.341  16.193  1.00  0.00    -0.000 C 
BRANCH  15  16
ATOM     16  C   UNL     1     -19.160   9.512  17.555  1.00  0.00    -0.000 C 
BRANCH  16  17
ATOM     17  C   UNL     1     -19.955  10.415  18.511  1.00  0.00    -0.000 C 
BRANCH  17  18
ATOM     18  C   UNL     1     -21.306  10.861  17.921  1.00  0.00    -0.000 C 
BRANCH  18  19
ATOM     19  C   UNL     1     -22.485  10.559  18.858  1.00  0.00    -0.003 C 
ATOM     20  C   UNL     1     -23.160   9.223  18.546  1.00  0.00     0.004 C 
ENDBRANCH  18  19
ENDBRANCH  17  18
ENDBRANCH  16  17
ENDBRANCH  15  16
ENDBRANCH  14  15
ENDBRANCH  13  14
ENDBRANCH  12  13
ENDBRANCH   1  12
TORSDOF 16
ENDMDL
MODEL 2
REMARK VINA RESULT:    -4.313      2.948      5.849
REMARK INTER + INTRA:         -10.471
REMARK INTER:                  -7.472
REMARK INTRA:                  -2.999
REMARK UNBOUND:                -2.123
REMARK SMILES CCCCCCCCCCCCCCCCCC(=O)[O-]
REMARK SMILES IDX 10 1 11 2 12 3 13 4 14 5 15 6 16 7 17 8 18 9 19 10 20 11
REMARK SMILES IDX 9 12 8 13 7 14 6 15 5 16 4 17 3 18 2 19 1 20
REMARK H PARENT
REMARK Flexibility Score: inf
ROOT
ATOM      1  C   UNL     1     -21.190  11.064  18.575  1.00  0.00     0.000 C 
ENDROOT
BRANCH   1   2
ATOM      2  C   UNL     1     -19.672  10.999  18.334  1.00  0.00     0.000 C 
BRANCH   2   3
ATOM      3  C   UNL     1     -18.953  12.314  18.686  1.00  0.00     0.000 C 
BRANCH   3   4
ATOM      4  C   UNL     1     -19.228  13.486  17.726  1.00  0.00     0.000 C 
BRANCH   4   5
ATOM      5  C   UNL     1     -18.655  13.258  16.319  1.00  0.00     0.000 C 
BRANCH   5   6
ATOM      6  C   UNL     1     -19.772  13.259  15.264  1.00  0.00     0.000 C 
BRANCH   6   7
ATOM      7  C   UNL     1     -19.997  11.873  14.638  1.00  0.00     0.006 C 
BRANCH   7   8
ATOM      8  C   UNL     1     -18.780  10.951  14.791  1.00  0.00     0.053 C 
BRANCH   8   9
ATOM      9  C   UNL     1     -18.053  10.825  13.490  1.00  0.00     0.041 C 
ATOM     10  O   UNL     1     -16.823  10.552  13.476  1.00  0.00    -0.550 OA
ATOM     11  O   UNL     1     -18.721  11.053  12.293  1.00  0.00    -0.550 OA
ENDBRANCH   8   9
ENDBRANCH   7   8
ENDBRANCH   6   7
ENDBRANCH   5   6
ENDBRANCH   4   5
ENDBRANCH   3   4
ENDBRANCH   2   3
ENDBRANCH   1   2
BRANCH   1  12
ATOM     12  C   UNL     1     -22.001  10.469  17.413  1.00  0.00     0.000 C 
BRANCH  12  13
ATOM     13  C   UNL     1     -23.028  11.457  16.832  1.00  0.00    -0.000 C 
BRANCH  13  14
ATOM     14  C   UNL     1     -22.812  12.893  17.356  1.00  0.00    -0.000 C 
BRANCH  14  15
ATOM     15  C   UNL     1     -23.382  13.979  16.428  1.00  0.00    -0.000 C 
BRANCH  15  16
ATOM     16  C   UNL     1     -22.831  15.381  16.740  1.00  0.00    -0.000 C 
BRANCH  16  17
ATOM     17  C   UNL     1     -22.089  16.002  15.545  1.00  0.00    -0.000 C 
BRANCH  17  18
ATOM     18  C   UNL     1     -21.270  17.246  15.937  1.00  0.00    -0.000 C 
BRANCH  18  19
ATOM     19  C   UNL     1     -19.894  16.886  16.516  1.00  0.00    -0.003 C 
ATOM     20  C   UNL     1     -19.787  17.184  18.013  1.00  0.00     0.004 C 
ENDBRANCH  18  19
ENDBRANCH  17  18
ENDBRANCH  16  17
ENDBRANCH  15  16
ENDBRANCH  14  15
ENDBRANCH  13  14
ENDBRANCH  12  13
ENDBRANCH   1  12
TORSDOF 16
ENDMDL
MODEL 3
REMARK VINA RESULT:    -4.279      5.119      7.859
REMARK INTER + INTRA:         -10.405
REMARK INTER:                  -8.341
REMARK INTRA:                  -2.064
REMARK UNBOUND:                -2.123
REMARK SMILES CCCCCCCCCCCCCCCCCC(=O)[O-]
REMARK SMILES IDX 10 1 11 2 12 3 13 4 14 5 15 6 16 7 17 8 18 9 19 10 20 11
REMARK SMILES IDX 9 12 8 13 7 14 6 15 5 16 4 17 3 18 2 19 1 20
REMARK H PARENT
REMARK Flexibility Score: inf
ROOT
ATOM      1  C   UNL     1     -19.314  11.926  13.904  1.00  0.00     0.000 C 
ENDROOT
BRANCH   1   2
ATOM      2  C   UNL     1     -19.980  10.623  14.380  1.00  0.00     0.000 C 
BRANCH   2   3
ATOM      3  C   UNL     1     -19.156   9.885  15.450  1.00  0.00     0.000 C 
BRANCH   3   4
ATOM      4  C   UNL     1     -19.978   9.039  16.440  1.00  0.00     0.000 C 
BRANCH   4   5
ATOM      5  C   UNL     1     -19.637   9.333  17.909  1.00  0.00     0.000 C 
BRANCH   5   6
ATOM      6  C   UNL     1     -18.475   8.450  18.391  1.00  0.00     0.000 C 
BRANCH   6   7
ATOM      7  C   UNL     1     -18.881   6.978  18.562  1.00  0.00     0.006 C 
BRANCH   7   8
ATOM      8  C   UNL     1     -18.294   6.348  19.832  1.00  0.00     0.053 C 
BRANCH   8   9
ATOM      9  C   UNL     1     -16.978   5.700  19.534  1.00  0.00     0.041 C 
ATOM     10  O   UNL     1     -16.594   5.565  18.342  1.00  0.00    -0.550 OA
ATOM     11  O   UNL     1     -16.195   5.204  20.569  1.00  0.00    -0.550 OA
ENDBRANCH   8   9
ENDBRANCH   7   8
ENDBRANCH   6   7
ENDBRANCH   5   6
ENDBRANCH   4   5
ENDBRANCH   3   4
ENDBRANCH   2   3
ENDBRANCH   1   2
BRANCH   1  12
ATOM     12  C   UNL     1     -17.874  12.077  14.419  1.00  0.00     0.000 C 
BRANCH  12  13
ATOM     13  C   UNL     1     -17.680  13.328  15.294  1.00  0.00    -0.000 C 
BRANCH  13  14
ATOM     14  C   UNL     1     -18.606  13.321  16.529  1.00  0.00    -0.000 C 
BRANCH  14  15
ATOM     15  C   UNL     1     -19.625  14.474  16.540  1.00  0.00    -0.000 C 
BRANCH  15  16
ATOM     16  C   UNL     1     -21.081  13.984  16.457  1.00  0.00    -0.000 C 
BRANCH  16  17
ATOM     17  C   UNL     1     -21.286  12.625  17.146  1.00  0.00    -0.000 C 
BRANCH  17  18
ATOM     18  C   UNL     1     -22.771  12.304  17.395  1.00  0.00    -0.000 C 
BRANCH  18  19
ATOM     19  C   UNL     1     -23.014  10.812  17.666  1.00  0.00    -0.003 C 
ATOM     20  C   UNL     1     -23.039  10.479  19.159  1.00  0.00     0.004 C 
ENDBRANCH  18  19
ENDBRANCH  17  18
ENDBRANCH  16  17
ENDBRANCH  15  16
ENDBRANCH  14  15
ENDBRANCH  13  14
ENDBRANCH  12  13
ENDBRANCH   1  12
TORSDOF 16
ENDMDL
MODEL 4
REMARK VINA RESULT:    -4.268      4.765      7.805
REMARK INTER + INTRA:         -10.384
REMARK INTER:                  -8.239
REMARK INTRA:                  -2.145
REMARK UNBOUND:                -2.123
REMARK SMILES CCCCCCCCCCCCCCCCCC(=O)[O-]
REMARK SMILES IDX 10 1 11 2 12 3 13 4 14 5 15 6 16 7 17 8 18 9 19 10 20 11
REMARK SMILES IDX 9 12 8 13 7 14 6 15 5 16 4 17 3 18 2 19 1 20
REMARK H PARENT
REMARK Flexibility Score: inf
ROOT
ATOM      1  C   UNL     1     -19.969  11.064  18.554  1.00  0.00     0.000 C 
ENDROOT
BRANCH   1   2
ATOM      2  C   UNL     1     -21.432  11.366  18.187  1.00  0.00     0.000 C 
BRANCH   2   3
ATOM      3  C   UNL     1     -22.393  10.223  18.565  1.00  0.00     0.000 C 
BRANCH   3   4
ATOM      4  C   UNL     1     -22.847   9.336  17.391  1.00  0.00     0.000 C 
BRANCH   4   5
ATOM      5  C   UNL     1     -21.810   8.267  17.011  1.00  0.00     0.000 C 
BRANCH   5   6
ATOM      6  C   UNL     1     -21.462   7.385  18.219  1.00  0.00     0.000 C 
BRANCH   6   7
ATOM      7  C   UNL     1     -20.038   6.810  18.142  1.00  0.00     0.006 C 
BRANCH   7   8
ATOM      8  C   UNL     1     -18.957   7.890  18.279  1.00  0.00     0.053 C 
BRANCH   8   9
ATOM      9  C   UNL     1     -17.707   7.308  18.861  1.00  0.00     0.041 C 
ATOM     10  O   UNL     1     -16.594   7.525  18.314  1.00  0.00    -0.550 OA
ATOM     11  O   UNL     1     -17.776   6.487  19.980  1.00  0.00    -0.550 OA
ENDBRANCH   8   9
ENDBRANCH   7   8
ENDBRANCH   6   7
ENDBRANCH   5   6
ENDBRANCH   4   5
ENDBRANCH   3   4
ENDBRANCH   2   3
ENDBRANCH   1   2
BRANCH   1  12
ATOM     12  C   UNL     1     -19.091  12.325  18.575  1.00  0.00     0.000 C 
BRANCH  12  13
ATOM     13  C   UNL     1     -19.403  13.292  17.419  1.00  0.00    -0.000 C 
BRANCH  13  14
ATOM     14  C   UNL     1     -18.556  12.987  16.164  1.00  0.00    -0.000 C 
BRANCH  14  15
ATOM     15  C   UNL     1     -19.260  12.058  15.159  1.00  0.00    -0.000 C 
BRANCH  15  16
ATOM     16  C   UNL     1     -18.652  10.646  15.125  1.00  0.00    -0.000 C 
BRANCH  16  17
ATOM     17  C   UNL     1     -19.616   9.604  14.537  1.00  0.00    -0.000 C 
BRANCH  17  18
ATOM     18  C   UNL     1     -20.837  10.244  13.851  1.00  0.00    -0.000 C 
BRANCH  18  19
ATOM     19  C   UNL     1     -21.061   9.710  12.429  1.00  0.00    -0.003 C 
ATOM     20  C   UNL     1     -19.901  10.036  11.486  1.00  0.00     0.004 C 
ENDBRANCH  18  19
ENDBRANCH  17  18
ENDBRANCH  16  17
ENDBRANCH  15  16
ENDBRANCH  14  15
ENDBRANCH  13  14
ENDBRANCH  12  13
ENDBRANCH   1  12
TORSDOF 16
ENDMDL
MODEL 5
REMARK VINA RESULT:    -4.235      1.722      3.089
REMARK INTER + INTRA:         -10.319
REMARK INTER:                  -8.038
REMARK INTRA:                  -2.282
REMARK UNBOUND:                -2.123
REMARK SMILES CCCCCCCCCCCCCCCCCC(=O)[O-]
REMARK SMILES IDX 10 1 11 2 12 3 13 4 14 5 15 6 16 7 17 8 18 9 19 10 20 11
REMARK SMILES IDX 9 12 8 13 7 14 6 15 5 16 4 17 3 18 2 19 1 20
REMARK H PARENT
REMARK Flexibility Score: inf
ROOT
ATOM      1  C   UNL     1     -19.791  10.972  12.805  1.00  0.00     0.000 C 
ENDROOT
BRANCH   1   2
ATOM      2  C   UNL     1     -21.224  11.457  12.529  1.00  0.00     0.000 C 
BRANCH   2   3
ATOM      3  C   UNL     1     -21.622  12.671  13.388  1.00  0.00     0.000 C 
BRANCH   3   4
ATOM      4  C   UNL     1     -21.320  14.044  12.760  1.00  0.00     0.000 C 
BRANCH   4   5
ATOM      5  C   UNL     1     -20.643  15.016  13.739  1.00  0.00     0.000 C 
BRANCH   5   6
ATOM      6  C   UNL     1     -19.307  15.524  13.174  1.00  0.00     0.000 C 
BRANCH   6   7
ATOM      7  C   UNL     1     -18.539  16.406  14.171  1.00  0.00     0.006 C 
BRANCH   7   8
ATOM      8  C   UNL     1     -19.150  17.807  14.310  1.00  0.00     0.053 C 
BRANCH   8   9
ATOM      9  C   UNL     1     -18.182  18.848  13.842  1.00  0.00     0.041 C 
ATOM     10  O   UNL     1     -17.899  19.828  14.581  1.00  0.00    -0.550 OA
ATOM     11  O   UNL     1     -17.625  18.761  12.572  1.00  0.00    -0.550 OA
ENDBRANCH   8   9
ENDBRANCH   7   8
ENDBRANCH   6   7
ENDBRANCH   5   6
ENDBRANCH   4   5
ENDBRANCH   3   4
ENDBRANCH   2   3
ENDBRANCH   1   2
BRANCH   1  12
ATOM     12  C   UNL     1     -19.352  11.218  14.257  1.00  0.00     0.000 C 
BRANCH  12  13
ATOM     13  C   UNL     1     -18.039  12.014  14.360  1.00  0.00    -0.000 C 
BRANCH  13  14
ATOM     14  C   UNL     1     -18.048  12.995  15.552  1.00  0.00    -0.000 C 
BRANCH  14  15
ATOM     15  C   UNL     1     -19.311  12.891  16.425  1.00  0.00    -0.000 C 
BRANCH  15  16
ATOM     16  C   UNL     1     -19.008  12.997  17.928  1.00  0.00    -0.000 C 
BRANCH  16  17
ATOM     17  C   UNL     1     -19.469  11.758  18.712  1.00  0.00    -0.000 C 
BRANCH  17  18
ATOM     18  C   UNL     1     -20.783  11.167  18.170  1.00  0.00    -0.000 C 
BRANCH  18  19
ATOM     19  C   UNL     1     -20.713   9.644  17.988  1.00  0.00    -0.003 C 
ATOM     20  C   UNL     1     -19.289   9.098  18.115  1.00  0.00     0.004 C 
ENDBRANCH  18  19
ENDBRANCH  17  18
ENDBRANCH  16  17
ENDBRANCH  15  16
ENDBRANCH  14  15
ENDBRANCH  13  14
ENDBRANCH  12  13
ENDBRANCH   1  12
TORSDOF 16
ENDMDL
MODEL 6
REMARK VINA RESULT:    -4.227      1.721      2.788
REMARK INTER + INTRA:         -10.304
REMARK INTER:                  -7.733
REMARK INTRA:                  -2.571
REMARK UNBOUND:                -2.123
REMARK SMILES CCCCCCCCCCCCCCCCCC(=O)[O-]
REMARK SMILES IDX 10 1 11 2 12 3 13 4 14 5 15 6 16 7 17 8 18 9 19 10 20 11
REMARK SMILES IDX 9 12 8 13 7 14 6 15 5 16 4 17 3 18 2 19 1 20
REMARK H PARENT
REMARK Flexibility Score: inf
ROOT
ATOM      1  C   UNL     1     -21.871  14.874  13.893  1.00  0.00     0.000 C 
ENDROOT
BRANCH   1   2
ATOM      2  C   UNL     1     -22.314  13.840  14.942  1.00  0.00     0.000 C 
BRANCH   2   3
ATOM      3  C   UNL     1     -22.413  14.430  16.361  1.00  0.00     0.000 C 
BRANCH   3   4
ATOM      4  C   UNL     1     -22.262  15.960  16.444  1.00  0.00     0.000 C 
BRANCH   4   5
ATOM      5  C   UNL     1     -21.074  16.399  17.314  1.00  0.00     0.000 C 
BRANCH   5   6
ATOM      6  C   UNL     1     -19.859  16.758  16.444  1.00  0.00     0.000 C 
BRANCH   6   7
ATOM      7  C   UNL     1     -19.981  18.148  15.800  1.00  0.00     0.006 C 
BRANCH   7   8
ATOM      8  C   UNL     1     -19.847  18.104  14.272  1.00  0.00     0.053 C 
BRANCH   8   9
ATOM      9  C   UNL     1     -18.413  18.241  13.868  1.00  0.00     0.041 C 
ATOM     10  O   UNL     1     -17.560  18.661  14.695  1.00  0.00    -0.550 OA
ATOM     11  O   UNL     1     -18.024  17.948  12.567  1.00  0.00    -0.550 OA
ENDBRANCH   8   9
ENDBRANCH   7   8
ENDBRANCH   6   7
ENDBRANCH   5   6
ENDBRANCH   4   5
ENDBRANCH   3   4
ENDBRANCH   2   3
ENDBRANCH   1   2
BRANCH   1  12
ATOM     12  C   UNL     1     -20.448  14.617  13.372  1.00  0.00     0.000 C 
BRANCH  12  13
ATOM     13  C   UNL     1     -19.836  13.315  13.919  1.00  0.00    -0.000 C 
BRANCH  13  14
ATOM     14  C   UNL     1     -18.682  13.589  14.908  1.00  0.00    -0.000 C 
BRANCH  14  15
ATOM     15  C   UNL     1     -18.641  12.607  16.092  1.00  0.00    -0.000 C 
BRANCH  15  16
ATOM     16  C   UNL     1     -19.178  13.221  17.396  1.00  0.00    -0.000 C 
BRANCH  16  17
ATOM     17  C   UNL     1     -19.016  12.281  18.601  1.00  0.00    -0.000 C 
BRANCH  17  18
ATOM     18  C   UNL     1     -19.935  11.048  18.520  1.00  0.00    -0.000 C 
BRANCH  18  19
ATOM     19  C   UNL     1     -21.370  11.410  18.110  1.00  0.00    -0.003 C 
ATOM     20  C   UNL     1     -22.424  10.635  18.903  1.00  0.00     0.004 C 
ENDBRANCH  18  19
ENDBRANCH  17  18
ENDBRANCH  16  17
ENDBRANCH  15  16
ENDBRANCH  14  15
ENDBRANCH  13  14
ENDBRANCH  12  13
ENDBRANCH   1  12
TORSDOF 16
ENDMDL
MODEL 7
REMARK VINA RESULT:    -4.213      5.236      8.831
REMARK INTER + INTRA:         -10.277
REMARK INTER:                  -8.141
REMARK INTRA:                  -2.136
REMARK UNBOUND:                -2.123
REMARK SMILES CCCCCCCCCCCCCCCCCC(=O)[O-]
REMARK SMILES IDX 10 1 11 2 12 3 13 4 14 5 15 6 16 7 17 8 18 9 19 10 20 11
REMARK SMILES IDX 9 12 8 13 7 14 6 15 5 16 4 17 3 18 2 19 1 20
REMARK H PARENT
REMARK Flexibility Score: inf
ROOT
ATOM      1  C   UNL     1     -21.753  10.898  18.045  1.00  0.00     0.000 C 
ENDROOT
BRANCH   1   2
ATOM      2  C   UNL     1     -22.778  10.046  18.812  1.00  0.00     0.000 C 
BRANCH   2   3
ATOM      3  C   UNL     1     -23.285   8.841  17.998  1.00  0.00     0.000 C 
BRANCH   3   4
ATOM      4  C   UNL     1     -23.008   7.463  18.627  1.00  0.00     0.000 C 
BRANCH   4   5
ATOM      5  C   UNL     1     -21.837   6.723  17.962  1.00  0.00     0.000 C 
BRANCH   5   6
ATOM      6  C   UNL     1     -21.149   5.775  18.956  1.00  0.00     0.000 C 
BRANCH   6   7
ATOM      7  C   UNL     1     -19.721   6.221  19.308  1.00  0.00     0.006 C 
BRANCH   7   8
ATOM      8  C   UNL     1     -18.858   5.069  19.841  1.00  0.00     0.053 C 
BRANCH   8   9
ATOM      9  C   UNL     1     -17.418   5.294  19.502  1.00  0.00     0.041 C 
ATOM     10  O   UNL     1     -16.569   5.451  20.419  1.00  0.00    -0.550 OA
ATOM     11  O   UNL     1     -17.020   5.377  18.173  1.00  0.00    -0.550 OA
ENDBRANCH   8   9
ENDBRANCH   7   8
ENDBRANCH   6   7
ENDBRANCH   5   6
ENDBRANCH   4   5
ENDBRANCH   3   4
ENDBRANCH   2   3
ENDBRANCH   1   2
BRANCH   1  12
ATOM     12  C   UNL     1     -20.332  10.773  18.616  1.00  0.00     0.000 C 
BRANCH  12  13
ATOM     13  C   UNL     1     -19.546   9.595  18.014  1.00  0.00    -0.000 C 
BRANCH  13  14
ATOM     14  C   UNL     1     -19.823   9.424  16.505  1.00  0.00    -0.000 C 
BRANCH  14  15
ATOM     15  C   UNL     1     -18.881  10.247  15.610  1.00  0.00    -0.000 C 
BRANCH  15  16
ATOM     16  C   UNL     1     -19.636  11.135  14.607  1.00  0.00    -0.000 C 
BRANCH  16  17
ATOM     17  C   UNL     1     -19.836  12.569  15.124  1.00  0.00    -0.000 C 
BRANCH  17  18
ATOM     18  C   UNL     1     -18.652  13.065  15.974  1.00  0.00    -0.000 C 
BRANCH  18  19
ATOM     19  C   UNL     1     -19.103  13.703  17.296  1.00  0.00    -0.003 C 
ATOM     20  C   UNL     1     -19.866  15.012  17.091  1.00  0.00     0.004 C 
ENDBRANCH  18  19
ENDBRANCH  17  18
ENDBRANCH  16  17
ENDBRANCH  15  16
ENDBRANCH  14  15
ENDBRANCH  13  14
ENDBRANCH  12  13
ENDBRANCH   1  12
TORSDOF 16
ENDMDL
MODEL 8
REMARK VINA RESULT:    -4.190      6.242      9.717
REMARK INTER + INTRA:         -10.233
REMARK INTER:                  -8.541
REMARK INTRA:                  -1.693
REMARK UNBOUND:                -2.123
REMARK SMILES CCCCCCCCCCCCCCCCCC(=O)[O-]
REMARK SMILES IDX 10 1 11 2 12 3 13 4 14 5 15 6 16 7 17 8 18 9 19 10 20 11
REMARK SMILES IDX 9 12 8 13 7 14 6 15 5 16 4 17 3 18 2 19 1 20
REMARK H PARENT
REMARK Flexibility Score: inf
ROOT
ATOM      1  C   UNL     1     -20.522   9.640  17.818  1.00  0.00     0.000 C 
ENDROOT
BRANCH   1   2
ATOM      2  C   UNL     1     -19.081   9.116  17.949  1.00  0.00     0.000 C 
BRANCH   2   3
ATOM      3  C   UNL     1     -19.011   7.703  18.559  1.00  0.00     0.000 C 
BRANCH   3   4
ATOM      4  C   UNL     1     -20.239   6.814  18.291  1.00  0.00     0.000 C 
BRANCH   4   5
ATOM      5  C   UNL     1     -20.180   5.470  19.032  1.00  0.00     0.000 C 
BRANCH   5   6
ATOM      6  C   UNL     1     -18.781   4.844  18.926  1.00  0.00     0.000 C 
BRANCH   6   7
ATOM      7  C   UNL     1     -17.971   4.980  20.225  1.00  0.00     0.006 C 
BRANCH   7   8
ATOM      8  C   UNL     1     -16.488   5.278  19.967  1.00  0.00     0.053 C 
BRANCH   8   9
ATOM      9  C   UNL     1     -15.640   4.122  20.395  1.00  0.00     0.041 C 
ATOM     10  O   UNL     1     -14.928   4.209  21.431  1.00  0.00    -0.550 OA
ATOM     11  O   UNL     1     -15.600   2.965  19.627  1.00  0.00    -0.550 OA
ENDBRANCH   8   9
ENDBRANCH   7   8
ENDBRANCH   6   7
ENDBRANCH   5   6
ENDBRANCH   4   5
ENDBRANCH   3   4
ENDBRANCH   2   3
ENDBRANCH   1   2
BRANCH   1  12
ATOM     12  C   UNL     1     -20.599  11.174  17.857  1.00  0.00     0.000 C 
BRANCH  12  13
ATOM     13  C   UNL     1     -19.503  11.807  18.732  1.00  0.00    -0.000 C 
BRANCH  13  14
ATOM     14  C   UNL     1     -18.777  12.961  18.007  1.00  0.00    -0.000 C 
BRANCH  14  15
ATOM     15  C   UNL     1     -19.701  13.801  17.108  1.00  0.00    -0.000 C 
BRANCH  15  16
ATOM     16  C   UNL     1     -19.244  13.825  15.640  1.00  0.00    -0.000 C 
BRANCH  16  17
ATOM     17  C   UNL     1     -18.081  12.857  15.368  1.00  0.00    -0.000 C 
BRANCH  17  18
ATOM     18  C   UNL     1     -18.344  11.938  14.161  1.00  0.00    -0.000 C 
BRANCH  18  19
ATOM     19  C   UNL     1     -18.425  10.456  14.556  1.00  0.00    -0.003 C 
ATOM     20  C   UNL     1     -19.782   9.830  14.230  1.00  0.00     0.004 C 
ENDBRANCH  18  19
ENDBRANCH  17  18
ENDBRANCH  16  17
ENDBRANCH  15  16
ENDBRANCH  14  15
ENDBRANCH  13  14
ENDBRANCH  12  13
ENDBRANCH   1  12
TORSDOF 16
ENDMDL
MODEL 9
REMARK VINA RESULT:    -4.158      1.816      4.498
REMARK INTER + INTRA:         -10.171
REMARK INTER:                  -7.331
REMARK INTRA:                  -2.840
REMARK UNBOUND:                -2.123
REMARK SMILES CCCCCCCCCCCCCCCCCC(=O)[O-]
REMARK SMILES IDX 10 1 11 2 12 3 13 4 14 5 15 6 16 7 17 8 18 9 19 10 20 11
REMARK SMILES IDX 9 12 8 13 7 14 6 15 5 16 4 17 3 18 2 19 1 20
REMARK H PARENT
REMARK Flexibility Score: inf
ROOT
ATOM      1  C   UNL     1     -21.955  10.831  18.723  1.00  0.00     0.000 C 
ENDROOT
BRANCH   1   2
ATOM      2  C   UNL     1     -20.949   9.990  17.920  1.00  0.00     0.000 C 
BRANCH   2   3
ATOM      3  C   UNL     1     -19.540  10.611  17.885  1.00  0.00     0.000 C 
BRANCH   3   4
ATOM      4  C   UNL     1     -19.475  12.104  18.257  1.00  0.00     0.000 C 
BRANCH   4   5
ATOM      5  C   UNL     1     -19.140  13.007  17.060  1.00  0.00     0.000 C 
BRANCH   5   6
ATOM      6  C   UNL     1     -19.824  14.376  17.196  1.00  0.00     0.000 C 
BRANCH   6   7
ATOM      7  C   UNL     1     -20.092  15.041  15.837  1.00  0.00     0.006 C 
BRANCH   7   8
ATOM      8  C   UNL     1     -19.003  14.730  14.802  1.00  0.00     0.053 C 
BRANCH   8   9
ATOM      9  C   UNL     1     -18.607  15.973  14.069  1.00  0.00     0.041 C 
ATOM     10  O   UNL     1     -18.396  17.041  14.702  1.00  0.00    -0.550 OA
ATOM     11  O   UNL     1     -18.516  15.966  12.682  1.00  0.00    -0.550 OA
ENDBRANCH   8   9
ENDBRANCH   7   8
ENDBRANCH   6   7
ENDBRANCH   5   6
ENDBRANCH   4   5
ENDBRANCH   3   4
ENDBRANCH   2   3
ENDBRANCH   1   2
BRANCH   1  12
ATOM     12  C   UNL     1     -23.090  11.390  17.851  1.00  0.00     0.000 C 
BRANCH  12  13
ATOM     13  C   UNL     1     -22.895  11.095  16.353  1.00  0.00    -0.000 C 
BRANCH  13  14
ATOM     14  C   UNL     1     -22.552  12.369  15.551  1.00  0.00    -0.000 C 
BRANCH  14  15
ATOM     15  C   UNL     1     -22.322  12.108  14.052  1.00  0.00    -0.000 C 
BRANCH  15  16
ATOM     16  C   UNL     1     -20.847  11.839  13.713  1.00  0.00    -0.000 C 
BRANCH  16  17
ATOM     17  C   UNL     1     -20.533  10.339  13.595  1.00  0.00    -0.000 C 
BRANCH  17  18
ATOM     18  C   UNL     1     -19.296   9.925  14.415  1.00  0.00    -0.000 C 
BRANCH  18  19
ATOM     19  C   UNL     1     -18.112  10.884  14.219  1.00  0.00    -0.003 C 
ATOM     20  C   UNL     1     -17.433  10.715  12.859  1.00  0.00     0.004 C 
ENDBRANCH  18  19
ENDBRANCH  17  18
ENDBRANCH  16  17
ENDBRANCH  15  16
ENDBRANCH  14  15
ENDBRANCH  13  14
ENDBRANCH  12  13
ENDBRANCH   1  12
TORSDOF 16
ENDMDL
