MODEL 1
REMARK VINA RESULT:    -3.484      0.000      0.000
REMARK INTER + INTRA:          -8.181
REMARK INTER:                  -6.336
REMARK INTRA:                  -1.845
REMARK UNBOUND:                -1.845
REMARK SMILES CCCCCCCCCCCCCCCC(=O)[O-]
REMARK SMILES IDX 9 1 10 2 11 3 12 4 13 5 14 6 15 7 16 8 17 9 18 10 8 11 7 12
REMARK SMILES IDX 6 13 5 14 4 15 3 16 2 17 1 18
REMARK H PARENT
REMARK Flexibility Score: inf
ROOT
ATOM      1  C   UNL     1     -19.185  43.023  -9.491  1.00  0.00     0.000 C 
ENDROOT
BRANCH   1   2
ATOM      2  C   UNL     1     -18.427  43.131 -10.827  1.00  0.00     0.000 C 
BRANCH   2   3
ATOM      3  C   UNL     1     -16.900  43.158 -10.649  1.00  0.00     0.000 C 
BRANCH   3   4
ATOM      4  C   UNL     1     -16.310  44.578 -10.735  1.00  0.00     0.000 C 
BRANCH   4   5
ATOM      5  C   UNL     1     -15.412  44.989  -9.554  1.00  0.00     0.000 C 
BRANCH   5   6
ATOM      6  C   UNL     1     -15.818  46.330  -8.926  1.00  0.00     0.006 C 
BRANCH   6   7
ATOM      7  C   UNL     1     -14.704  47.369  -9.082  1.00  0.00     0.053 C 
BRANCH   7   8
ATOM      8  C   UNL     1     -14.793  48.398  -7.999  1.00  0.00     0.041 C 
ATOM      9  O   UNL     1     -14.667  48.061  -6.793  1.00  0.00    -0.550 OA
ATOM     10  O   UNL     1     -14.964  49.737  -8.325  1.00  0.00    -0.550 OA
ENDBRANCH   7   8
ENDBRANCH   6   7
ENDBRANCH   5   6
ENDBRANCH   4   5
ENDBRANCH   3   4
ENDBRANCH   2   3
ENDBRANCH   1   2
BRANCH   1  11
ATOM     11  C   UNL     1     -19.535  44.366  -8.824  1.00  0.00     0.000 C 
BRANCH  11  12
ATOM     12  C   UNL     1     -18.751  44.615  -7.526  1.00  0.00    -0.000 C 
BRANCH  12  13
ATOM     13  C   UNL     1     -18.020  43.345  -7.073  1.00  0.00    -0.000 C 
BRANCH  13  14
ATOM     14  C   UNL     1     -16.715  43.691  -6.346  1.00  0.00    -0.000 C 
BRANCH  14  15
ATOM     15  C   UNL     1     -16.738  43.174  -4.900  1.00  0.00    -0.000 C 
BRANCH  15  16
ATOM     16  C   UNL     1     -17.705  41.995  -4.708  1.00  0.00    -0.000 C 
BRANCH  16  17
ATOM     17  C   UNL     1     -18.808  42.295  -3.681  1.00  0.00    -0.003 C 
ATOM     18  C   UNL     1     -18.829  43.776  -3.314  1.00  0.00     0.004 C 
ENDBRANCH  16  17
ENDBRANCH  15  16
ENDBRANCH  14  15
ENDBRANCH  13  14
ENDBRANCH  12  13
ENDBRANCH  11  12
ENDBRANCH   1  11
TORSDOF 14
ENDMDL
MODEL 2
REMARK VINA RESULT:    -3.457      2.710      5.816
REMARK INTER + INTRA:          -8.131
REMARK INTER:                  -6.185
REMARK INTRA:                  -1.946
REMARK UNBOUND:                -1.845
REMARK SMILES CCCCCCCCCCCCCCCC(=O)[O-]
REMARK SMILES IDX 9 1 10 2 11 3 12 4 13 5 14 6 15 7 16 8 17 9 18 10 8 11 7 12
REMARK SMILES IDX 6 13 5 14 4 15 3 16 2 17 1 18
REMARK H PARENT
REMARK Flexibility Score: inf
ROOT
ATOM      1  C   UNL     1     -19.548  43.801  -9.315  1.00  0.00     0.000 C 
ENDROOT
BRANCH   1   2
ATOM      2  C   UNL     1     -19.896  44.507  -7.991  1.00  0.00     0.000 C 
BRANCH   2   3
ATOM      3  C   UNL     1     -18.676  44.693  -7.073  1.00  0.00     0.000 C 
BRANCH   3   4
ATOM      4  C   UNL     1     -17.792  43.435  -6.984  1.00  0.00     0.000 C 
BRANCH   4   5
ATOM      5  C   UNL     1     -16.470  43.614  -6.216  1.00  0.00     0.000 C 
BRANCH   5   6
ATOM      6  C   UNL     1     -16.607  43.339  -4.711  1.00  0.00     0.006 C 
BRANCH   6   7
ATOM      7  C   UNL     1     -17.654  42.254  -4.444  1.00  0.00     0.053 C 
BRANCH   7   8
ATOM      8  C   UNL     1     -18.773  42.800  -3.614  1.00  0.00     0.041 C 
ATOM      9  O   UNL     1     -19.683  42.037  -3.197  1.00  0.00    -0.550 OA
ATOM     10  O   UNL     1     -18.784  44.143  -3.259  1.00  0.00    -0.550 OA
ENDBRANCH   7   8
ENDBRANCH   6   7
ENDBRANCH   5   6
ENDBRANCH   4   5
ENDBRANCH   3   4
ENDBRANCH   2   3
ENDBRANCH   1   2
BRANCH   1  11
ATOM     11  C   UNL     1     -19.417  44.726 -10.539  1.00  0.00     0.000 C 
BRANCH  11  12
ATOM     12  C   UNL     1     -18.010  45.323 -10.694  1.00  0.00    -0.000 C 
BRANCH  12  13
ATOM     13  C   UNL     1     -16.936  44.233 -10.598  1.00  0.00    -0.000 C 
BRANCH  13  14
ATOM     14  C   UNL     1     -15.724  44.722  -9.796  1.00  0.00    -0.000 C 
BRANCH  14  15
ATOM     15  C   UNL     1     -16.035  46.049  -9.086  1.00  0.00    -0.000 C 
BRANCH  15  16
ATOM     16  C   UNL     1     -14.956  46.441  -8.064  1.00  0.00    -0.000 C 
BRANCH  16  17
ATOM     17  C   UNL     1     -14.797  47.962  -7.926  1.00  0.00    -0.003 C 
ATOM     18  C   UNL     1     -14.712  48.633  -9.294  1.00  0.00     0.004 C 
ENDBRANCH  16  17
ENDBRANCH  15  16
ENDBRANCH  14  15
ENDBRANCH  13  14
ENDBRANCH  12  13
ENDBRANCH  11  12
ENDBRANCH   1  11
TORSDOF 14
ENDMDL
MODEL 3
REMARK VINA RESULT:    -3.386      2.720      5.699
REMARK INTER + INTRA:          -8.002
REMARK INTER:                  -5.950
REMARK INTRA:                  -2.053
REMARK UNBOUND:                -1.845
REMARK SMILES CCCCCCCCCCCCCCCC(=O)[O-]
REMARK SMILES IDX 9 1 10 2 11 3 12 4 13 5 14 6 15 7 16 8 17 9 18 10 8 11 7 12
REMARK SMILES IDX 6 13 5 14 4 15 3 16 2 17 1 18
REMARK H PARENT
REMARK Flexibility Score: inf
ROOT
ATOM      1  C   UNL     1     -19.563  43.839  -9.304  1.00  0.00     0.000 C 
ENDROOT
BRANCH   1   2
ATOM      2  C   UNL     1     -19.632  44.675  -8.013  1.00  0.00     0.000 C 
BRANCH   2   3
ATOM      3  C   UNL     1     -18.273  44.797  -7.303  1.00  0.00     0.000 C 
BRANCH   3   4
ATOM      4  C   UNL     1     -17.582  43.436  -7.091  1.00  0.00     0.000 C 
BRANCH   4   5
ATOM      5  C   UNL     1     -16.292  43.479  -6.253  1.00  0.00     0.000 C 
BRANCH   5   6
ATOM      6  C   UNL     1     -16.554  43.416  -4.741  1.00  0.00     0.006 C 
BRANCH   6   7
ATOM      7  C   UNL     1     -17.611  42.360  -4.410  1.00  0.00     0.053 C 
BRANCH   7   8
ATOM      8  C   UNL     1     -18.741  42.972  -3.644  1.00  0.00     0.041 C 
ATOM      9  O   UNL     1     -19.109  44.150  -3.891  1.00  0.00    -0.550 OA
ATOM     10  O   UNL     1     -19.423  42.223  -2.693  1.00  0.00    -0.550 OA
ENDBRANCH   7   8
ENDBRANCH   6   7
ENDBRANCH   5   6
ENDBRANCH   4   5
ENDBRANCH   3   4
ENDBRANCH   2   3
ENDBRANCH   1   2
BRANCH   1  11
ATOM     11  C   UNL     1     -19.488  44.651 -10.610  1.00  0.00     0.000 C 
BRANCH  11  12
ATOM     12  C   UNL     1     -18.047  44.900 -11.082  1.00  0.00    -0.000 C 
BRANCH  12  13
ATOM     13  C   UNL     1     -17.229  43.603 -11.058  1.00  0.00    -0.000 C 
BRANCH  13  14
ATOM     14  C   UNL     1     -15.731  43.900 -10.923  1.00  0.00    -0.000 C 
BRANCH  14  15
ATOM     15  C   UNL     1     -15.499  45.326 -10.400  1.00  0.00    -0.000 C 
BRANCH  15  16
ATOM     16  C   UNL     1     -14.905  45.349  -8.983  1.00  0.00    -0.000 C 
BRANCH  16  17
ATOM     17  C   UNL     1     -15.232  46.643  -8.224  1.00  0.00    -0.003 C 
ATOM     18  C   UNL     1     -14.135  46.984  -7.220  1.00  0.00     0.004 C 
ENDBRANCH  16  17
ENDBRANCH  15  16
ENDBRANCH  14  15
ENDBRANCH  13  14
ENDBRANCH  12  13
ENDBRANCH  11  12
ENDBRANCH   1  11
TORSDOF 14
ENDMDL
MODEL 4
REMARK VINA RESULT:    -3.164      1.148      2.227
REMARK INTER + INTRA:          -7.597
REMARK INTER:                  -5.854
REMARK INTRA:                  -1.744
REMARK UNBOUND:                -1.845
REMARK SMILES CCCCCCCCCCCCCCCC(=O)[O-]
REMARK SMILES IDX 9 1 10 2 11 3 12 4 13 5 14 6 15 7 16 8 17 9 18 10 8 11 7 12
REMARK SMILES IDX 6 13 5 14 4 15 3 16 2 17 1 18
REMARK H PARENT
REMARK Flexibility Score: inf
ROOT
ATOM      1  C   UNL     1     -17.756  44.901 -10.672  1.00  0.00     0.000 C 
ENDROOT
BRANCH   1   2
ATOM      2  C   UNL     1     -16.302  45.393 -10.544  1.00  0.00     0.000 C 
BRANCH   2   3
ATOM      3  C   UNL     1     -15.409  44.424  -9.750  1.00  0.00     0.000 C 
BRANCH   3   4
ATOM      4  C   UNL     1     -14.934  45.008  -8.406  1.00  0.00     0.000 C 
BRANCH   4   5
ATOM      5  C   UNL     1     -15.413  46.440  -8.107  1.00  0.00     0.000 C 
BRANCH   5   6
ATOM      6  C   UNL     1     -14.274  47.470  -8.116  1.00  0.00     0.006 C 
BRANCH   6   7
ATOM      7  C   UNL     1     -14.758  48.829  -7.604  1.00  0.00     0.053 C 
BRANCH   7   8
ATOM      8  C   UNL     1     -14.740  49.841  -8.706  1.00  0.00     0.041 C 
ATOM      9  O   UNL     1     -14.423  51.035  -8.464  1.00  0.00    -0.550 OA
ATOM     10  O   UNL     1     -15.024  49.455 -10.009  1.00  0.00    -0.550 OA
ENDBRANCH   7   8
ENDBRANCH   6   7
ENDBRANCH   5   6
ENDBRANCH   4   5
ENDBRANCH   3   4
ENDBRANCH   2   3
ENDBRANCH   1   2
BRANCH   1  11
ATOM     11  C   UNL     1     -17.968  43.400 -10.400  1.00  0.00     0.000 C 
BRANCH  11  12
ATOM     12  C   UNL     1     -18.762  43.127  -9.114  1.00  0.00    -0.000 C 
BRANCH  12  13
ATOM     13  C   UNL     1     -19.255  44.435  -8.484  1.00  0.00    -0.000 C 
BRANCH  13  14
ATOM     14  C   UNL     1     -18.789  44.555  -7.028  1.00  0.00    -0.000 C 
BRANCH  14  15
ATOM     15  C   UNL     1     -17.772  43.456  -6.685  1.00  0.00    -0.000 C 
BRANCH  15  16
ATOM     16  C   UNL     1     -17.456  43.390  -5.182  1.00  0.00    -0.000 C 
BRANCH  16  17
ATOM     17  C   UNL     1     -18.028  42.131  -4.513  1.00  0.00    -0.003 C 
ATOM     18  C   UNL     1     -19.010  42.496  -3.404  1.00  0.00     0.004 C 
ENDBRANCH  16  17
ENDBRANCH  15  16
ENDBRANCH  14  15
ENDBRANCH  13  14
ENDBRANCH  12  13
ENDBRANCH  11  12
ENDBRANCH   1  11
TORSDOF 14
ENDMDL
MODEL 5
REMARK VINA RESULT:    -3.042      2.511      5.992
REMARK INTER + INTRA:          -7.376
REMARK INTER:                  -5.793
REMARK INTRA:                  -1.583
REMARK UNBOUND:                -1.845
REMARK SMILES CCCCCCCCCCCCCCCC(=O)[O-]
REMARK SMILES IDX 9 1 10 2 11 3 12 4 13 5 14 6 15 7 16 8 17 9 18 10 8 11 7 12
REMARK SMILES IDX 6 13 5 14 4 15 3 16 2 17 1 18
REMARK H PARENT
REMARK Flexibility Score: inf
ROOT
ATOM      1  C   UNL     1     -17.432  44.529 -10.609  1.00  0.00     0.000 C 
ENDROOT
BRANCH   1   2
ATOM      2  C   UNL     1     -17.779  43.100 -10.153  1.00  0.00     0.000 C 
BRANCH   2   3
ATOM      3  C   UNL     1     -18.866  43.065  -9.066  1.00  0.00     0.000 C 
BRANCH   3   4
ATOM      4  C   UNL     1     -19.139  44.448  -8.444  1.00  0.00     0.000 C 
BRANCH   4   5
ATOM      5  C   UNL     1     -18.768  44.584  -6.956  1.00  0.00     0.000 C 
BRANCH   5   6
ATOM      6  C   UNL     1     -17.563  43.721  -6.555  1.00  0.00     0.006 C 
BRANCH   6   7
ATOM      7  C   UNL     1     -17.939  42.732  -5.448  1.00  0.00     0.053 C 
BRANCH   7   8
ATOM      8  C   UNL     1     -17.688  43.332  -4.101  1.00  0.00     0.041 C 
ATOM      9  O   UNL     1     -18.651  43.724  -3.392  1.00  0.00    -0.550 OA
ATOM     10  O   UNL     1     -16.392  43.413  -3.607  1.00  0.00    -0.550 OA
ENDBRANCH   7   8
ENDBRANCH   6   7
ENDBRANCH   5   6
ENDBRANCH   4   5
ENDBRANCH   3   4
ENDBRANCH   2   3
ENDBRANCH   1   2
BRANCH   1  11
ATOM     11  C   UNL     1     -15.927  44.836 -10.722  1.00  0.00     0.000 C 
BRANCH  11  12
ATOM     12  C   UNL     1     -15.242  44.999  -9.357  1.00  0.00    -0.000 C 
BRANCH  12  13
ATOM     13  C   UNL     1     -15.731  46.265  -8.643  1.00  0.00    -0.000 C 
BRANCH  13  14
ATOM     14  C   UNL     1     -14.680  46.780  -7.653  1.00  0.00    -0.000 C 
BRANCH  14  15
ATOM     15  C   UNL     1     -14.648  48.316  -7.634  1.00  0.00    -0.000 C 
BRANCH  15  16
ATOM     16  C   UNL     1     -14.724  48.927  -9.042  1.00  0.00    -0.000 C 
BRANCH  16  17
ATOM     17  C   UNL     1     -14.630  50.460  -9.028  1.00  0.00    -0.003 C 
ATOM     18  C   UNL     1     -14.451  50.987  -7.608  1.00  0.00     0.004 C 
ENDBRANCH  16  17
ENDBRANCH  15  16
ENDBRANCH  14  15
ENDBRANCH  13  14
ENDBRANCH  12  13
ENDBRANCH  11  12
ENDBRANCH   1  11
TORSDOF 14
ENDMDL
MODEL 6
REMARK VINA RESULT:    -3.028      2.981      4.136
REMARK INTER + INTRA:          -7.350
REMARK INTER:                  -5.905
REMARK INTRA:                  -1.446
REMARK UNBOUND:                -1.845
REMARK SMILES CCCCCCCCCCCCCCCC(=O)[O-]
REMARK SMILES IDX 9 1 10 2 11 3 12 4 13 5 14 6 15 7 16 8 17 9 18 10 8 11 7 12
REMARK SMILES IDX 6 13 5 14 4 15 3 16 2 17 1 18
REMARK H PARENT
REMARK Flexibility Score: inf
ROOT
ATOM      1  C   UNL     1     -15.090  45.276  -8.029  1.00  0.00     0.000 C 
ENDROOT
BRANCH   1   2
ATOM      2  C   UNL     1     -14.518  44.784  -9.372  1.00  0.00     0.000 C 
BRANCH   2   3
ATOM      3  C   UNL     1     -14.446  45.894 -10.435  1.00  0.00     0.000 C 
BRANCH   3   4
ATOM      4  C   UNL     1     -15.553  46.952 -10.274  1.00  0.00     0.000 C 
BRANCH   4   5
ATOM      5  C   UNL     1     -16.817  46.715 -11.121  1.00  0.00     0.000 C 
BRANCH   5   6
ATOM      6  C   UNL     1     -17.946  46.029 -10.338  1.00  0.00     0.006 C 
BRANCH   6   7
ATOM      7  C   UNL     1     -18.244  44.639 -10.907  1.00  0.00     0.053 C 
BRANCH   7   8
ATOM      8  C   UNL     1     -19.642  44.224 -10.570  1.00  0.00     0.041 C 
ATOM      9  O   UNL     1     -19.845  43.269  -9.776  1.00  0.00    -0.550 OA
ATOM     10  O   UNL     1     -20.720  44.925 -11.094  1.00  0.00    -0.550 OA
ENDBRANCH   7   8
ENDBRANCH   6   7
ENDBRANCH   5   6
ENDBRANCH   4   5
ENDBRANCH   3   4
ENDBRANCH   2   3
ENDBRANCH   1   2
BRANCH   1  11
ATOM     11  C   UNL     1     -15.752  44.190  -7.160  1.00  0.00     0.000 C 
BRANCH  11  12
ATOM     12  C   UNL     1     -17.284  44.180  -7.272  1.00  0.00    -0.000 C 
BRANCH  12  13
ATOM     13  C   UNL     1     -17.910  43.309  -6.177  1.00  0.00    -0.000 C 
BRANCH  13  14
ATOM     14  C   UNL     1     -16.839  42.770  -5.221  1.00  0.00    -0.000 C 
BRANCH  14  15
ATOM     15  C   UNL     1     -17.154  43.157  -3.768  1.00  0.00    -0.000 C 
BRANCH  15  16
ATOM     16  C   UNL     1     -18.526  43.835  -3.621  1.00  0.00    -0.000 C 
BRANCH  16  17
ATOM     17  C   UNL     1     -19.549  42.948  -2.895  1.00  0.00    -0.003 C 
ATOM     18  C   UNL     1     -19.623  41.562  -3.529  1.00  0.00     0.004 C 
ENDBRANCH  16  17
ENDBRANCH  15  16
ENDBRANCH  14  15
ENDBRANCH  13  14
ENDBRANCH  12  13
ENDBRANCH  11  12
ENDBRANCH   1  11
TORSDOF 14
ENDMDL
MODEL 7
REMARK VINA RESULT:    -3.019      2.794      5.720
REMARK INTER + INTRA:          -7.335
REMARK INTER:                  -5.589
REMARK INTRA:                  -1.747
REMARK UNBOUND:                -1.845
REMARK SMILES CCCCCCCCCCCCCCCC(=O)[O-]
REMARK SMILES IDX 9 1 10 2 11 3 12 4 13 5 14 6 15 7 16 8 17 9 18 10 8 11 7 12
REMARK SMILES IDX 6 13 5 14 4 15 3 16 2 17 1 18
REMARK H PARENT
REMARK Flexibility Score: inf
ROOT
ATOM      1  C   UNL     1     -14.459  45.280  -9.553  1.00  0.00     0.000 C 
ENDROOT
BRANCH   1   2
ATOM      2  C   UNL     1     -15.251  45.437  -8.241  1.00  0.00     0.000 C 
BRANCH   2   3
ATOM      3  C   UNL     1     -15.422  44.111  -7.481  1.00  0.00     0.000 C 
BRANCH   3   4
ATOM      4  C   UNL     1     -15.720  44.311  -5.983  1.00  0.00     0.000 C 
BRANCH   4   5
ATOM      5  C   UNL     1     -16.177  43.048  -5.230  1.00  0.00     0.000 C 
BRANCH   5   6
ATOM      6  C   UNL     1     -17.641  42.678  -5.509  1.00  0.00     0.006 C 
BRANCH   6   7
ATOM      7  C   UNL     1     -18.237  41.880  -4.346  1.00  0.00     0.053 C 
BRANCH   7   8
ATOM      8  C   UNL     1     -18.881  42.798  -3.356  1.00  0.00     0.041 C 
ATOM      9  O   UNL     1     -18.732  44.044  -3.458  1.00  0.00    -0.550 OA
ATOM     10  O   UNL     1     -19.688  42.281  -2.351  1.00  0.00    -0.550 OA
ENDBRANCH   7   8
ENDBRANCH   6   7
ENDBRANCH   5   6
ENDBRANCH   4   5
ENDBRANCH   3   4
ENDBRANCH   2   3
ENDBRANCH   1   2
BRANCH   1  11
ATOM     11  C   UNL     1     -15.304  44.938 -10.794  1.00  0.00     0.000 C 
BRANCH  11  12
ATOM     12  C   UNL     1     -16.684  45.612 -10.786  1.00  0.00    -0.000 C 
BRANCH  12  13
ATOM     13  C   UNL     1     -17.795  44.594 -11.073  1.00  0.00    -0.000 C 
BRANCH  13  14
ATOM     14  C   UNL     1     -17.494  43.248 -10.405  1.00  0.00    -0.000 C 
BRANCH  14  15
ATOM     15  C   UNL     1     -18.512  42.946  -9.295  1.00  0.00    -0.000 C 
BRANCH  15  16
ATOM     16  C   UNL     1     -19.405  44.152  -8.966  1.00  0.00    -0.000 C 
BRANCH  16  17
ATOM     17  C   UNL     1     -18.840  45.014  -7.828  1.00  0.00    -0.003 C 
ATOM     18  C   UNL     1     -19.838  45.133  -6.680  1.00  0.00     0.004 C 
ENDBRANCH  16  17
ENDBRANCH  15  16
ENDBRANCH  14  15
ENDBRANCH  13  14
ENDBRANCH  12  13
ENDBRANCH  11  12
ENDBRANCH   1  11
TORSDOF 14
ENDMDL
MODEL 8
REMARK VINA RESULT:    -3.015      2.883      6.476
REMARK INTER + INTRA:          -7.327
REMARK INTER:                  -6.081
REMARK INTRA:                  -1.246
REMARK UNBOUND:                -1.845
REMARK SMILES CCCCCCCCCCCCCCCC(=O)[O-]
REMARK SMILES IDX 9 1 10 2 11 3 12 4 13 5 14 6 15 7 16 8 17 9 18 10 8 11 7 12
REMARK SMILES IDX 6 13 5 14 4 15 3 16 2 17 1 18
REMARK H PARENT
REMARK Flexibility Score: inf
ROOT
ATOM      1  C   UNL     1     -18.408  44.139 -10.686  1.00  0.00     0.000 C 
ENDROOT
BRANCH   1   2
ATOM      2  C   UNL     1     -18.756  43.364  -9.402  1.00  0.00     0.000 C 
BRANCH   2   3
ATOM      3  C   UNL     1     -19.458  44.237  -8.347  1.00  0.00     0.000 C 
BRANCH   3   4
ATOM      4  C   UNL     1     -18.566  44.541  -7.129  1.00  0.00     0.000 C 
BRANCH   4   5
ATOM      5  C   UNL     1     -17.419  43.543  -6.888  1.00  0.00     0.000 C 
BRANCH   5   6
ATOM      6  C   UNL     1     -17.086  43.356  -5.401  1.00  0.00     0.006 C 
BRANCH   6   7
ATOM      7  C   UNL     1     -17.933  42.240  -4.784  1.00  0.00     0.053 C 
BRANCH   7   8
ATOM      8  C   UNL     1     -18.811  42.786  -3.702  1.00  0.00     0.041 C 
ATOM      9  O   UNL     1     -19.607  42.027  -3.089  1.00  0.00    -0.550 OA
ATOM     10  O   UNL     1     -18.715  44.122  -3.337  1.00  0.00    -0.550 OA
ENDBRANCH   7   8
ENDBRANCH   6   7
ENDBRANCH   5   6
ENDBRANCH   4   5
ENDBRANCH   3   4
ENDBRANCH   2   3
ENDBRANCH   1   2
BRANCH   1  11
ATOM     11  C   UNL     1     -18.374  45.672 -10.541  1.00  0.00     0.000 C 
BRANCH  11  12
ATOM     12  C   UNL     1     -16.964  46.260 -10.701  1.00  0.00    -0.000 C 
BRANCH  12  13
ATOM     13  C   UNL     1     -16.101  45.966  -9.468  1.00  0.00    -0.000 C 
BRANCH  13  14
ATOM     14  C   UNL     1     -14.860  46.865  -9.438  1.00  0.00    -0.000 C 
BRANCH  14  15
ATOM     15  C   UNL     1     -15.168  48.247 -10.035  1.00  0.00    -0.000 C 
BRANCH  15  16
ATOM     16  C   UNL     1     -13.975  49.211  -9.944  1.00  0.00    -0.000 C 
BRANCH  16  17
ATOM     17  C   UNL     1     -14.383  50.615  -9.475  1.00  0.00    -0.003 C 
ATOM     18  C   UNL     1     -14.901  50.586  -8.040  1.00  0.00     0.004 C 
ENDBRANCH  16  17
ENDBRANCH  15  16
ENDBRANCH  14  15
ENDBRANCH  13  14
ENDBRANCH  12  13
ENDBRANCH  11  12
ENDBRANCH   1  11
TORSDOF 14
ENDMDL
MODEL 9
REMARK VINA RESULT:    -2.899      2.772      6.071
REMARK INTER + INTRA:          -7.116
REMARK INTER:                  -5.436
REMARK INTRA:                  -1.680
REMARK UNBOUND:                -1.845
REMARK SMILES CCCCCCCCCCCCCCCC(=O)[O-]
REMARK SMILES IDX 9 1 10 2 11 3 12 4 13 5 14 6 15 7 16 8 17 9 18 10 8 11 7 12
REMARK SMILES IDX 6 13 5 14 4 15 3 16 2 17 1 18
REMARK H PARENT
REMARK Flexibility Score: inf
ROOT
ATOM      1  C   UNL     1     -14.335  45.119  -9.393  1.00  0.00     0.000 C 
ENDROOT
BRANCH   1   2
ATOM      2  C   UNL     1     -15.238  44.132  -8.629  1.00  0.00     0.000 C 
BRANCH   2   3
ATOM      3  C   UNL     1     -16.031  44.801  -7.494  1.00  0.00     0.000 C 
BRANCH   3   4
ATOM      4  C   UNL     1     -17.389  44.123  -7.229  1.00  0.00     0.000 C 
BRANCH   4   5
ATOM      5  C   UNL     1     -17.364  42.986  -6.191  1.00  0.00     0.000 C 
BRANCH   5   6
ATOM      6  C   UNL     1     -16.650  43.375  -4.889  1.00  0.00     0.006 C 
BRANCH   6   7
ATOM      7  C   UNL     1     -17.342  42.750  -3.675  1.00  0.00     0.053 C 
BRANCH   7   8
ATOM      8  C   UNL     1     -18.774  43.179  -3.611  1.00  0.00     0.041 C 
ATOM      9  O   UNL     1     -19.660  42.372  -3.226  1.00  0.00    -0.550 OA
ATOM     10  O   UNL     1     -19.124  44.485  -3.929  1.00  0.00    -0.550 OA
ENDBRANCH   7   8
ENDBRANCH   6   7
ENDBRANCH   5   6
ENDBRANCH   4   5
ENDBRANCH   3   4
ENDBRANCH   2   3
ENDBRANCH   1   2
BRANCH   1  11
ATOM     11  C   UNL     1     -14.505  46.599  -9.005  1.00  0.00     0.000 C 
BRANCH  11  12
ATOM     12  C   UNL     1     -15.339  47.395 -10.021  1.00  0.00    -0.000 C 
BRANCH  12  13
ATOM     13  C   UNL     1     -15.911  46.474 -11.106  1.00  0.00    -0.000 C 
BRANCH  13  14
ATOM     14  C   UNL     1     -17.438  46.385 -11.004  1.00  0.00    -0.000 C 
BRANCH  14  15
ATOM     15  C   UNL     1     -17.910  44.926 -11.099  1.00  0.00    -0.000 C 
BRANCH  15  16
ATOM     16  C   UNL     1     -19.133  44.641 -10.212  1.00  0.00    -0.000 C 
BRANCH  16  17
ATOM     17  C   UNL     1     -19.577  43.171 -10.271  1.00  0.00    -0.003 C 
ATOM     18  C   UNL     1     -18.375  42.233 -10.242  1.00  0.00     0.004 C 
ENDBRANCH  16  17
ENDBRANCH  15  16
ENDBRANCH  14  15
ENDBRANCH  13  14
ENDBRANCH  12  13
ENDBRANCH  11  12
ENDBRANCH   1  11
TORSDOF 14
ENDMDL
