MODEL 1
REMARK VINA RESULT:    -5.674      0.000      0.000
REMARK INTER + INTRA:         -12.541
REMARK INTER:                  -9.986
REMARK INTRA:                  -2.555
REMARK UNBOUND:                -2.555
REMARK SMILES COc1cc(-c2[o+]c3cc(O)cc(O[C@H]4O[C@H](CO)[C@@H](O)[C@@H](O)[C@@H]4O)c3cc2O[C@H]2O[C@@H](CO)[C@@H](O)[C@@H](O)[C@H]2O)ccc1O
REMARK SMILES IDX 6 1 28 2 27 3 26 4 13 5 12 6 10 7 9 8 8 9 7 10 5 11 3 12
REMARK SMILES IDX 43 13 4 14 42 15 41 16 2 17 1 18 44 19 29 21 30 22 39 23
REMARK SMILES IDX 31 24 37 25 32 26 35 27 40 28 38 30 33 32 34 33 36 35 14 37
REMARK SMILES IDX 15 38 24 39 16 40 22 41 17 42 20 43 25 44 23 46 18 48 19 49
REMARK SMILES IDX 21 51 11 53
REMARK H PARENT 44 20 40 29 38 31 34 34 36 36 25 45 23 47 19 50 21 52 11 54
REMARK Flexibility Score: inf
ROOT
ATOM      1  C   UNL     1      -8.904  31.761   6.889  1.00  0.00     0.402 A 
ATOM      2  C   UNL     1      -9.922  32.105   7.806  1.00  0.00     0.229 A 
ATOM      3  C   UNL     1     -10.679  33.194   7.262  1.00  0.00     0.079 A 
ATOM      4  C   UNL     1      -9.945  34.325   6.873  1.00  0.00     0.126 A 
ATOM      5  C   UNL     1     -10.503  35.600   6.576  1.00  0.00     0.143 A 
ATOM      6  C   UNL     1      -9.704  36.485   5.793  1.00  0.00     0.094 A 
ATOM      7  C   UNL     1      -8.353  36.254   5.530  1.00  0.00     0.128 A 
ATOM      8  C   UNL     1      -7.897  34.978   5.653  1.00  0.00     0.162 A 
ATOM      9  C   UNL     1      -8.681  34.017   6.228  1.00  0.00     0.368 A 
ATOM     10  O   UNL     1      -8.251  32.787   6.275  1.00  0.00    -0.202 OA
ENDROOT
BRANCH   1  11
ATOM     11  C   UNL     1      -9.086  30.659   5.846  1.00  0.00     0.087 A 
ATOM     12  C   UNL     1      -7.678  29.224   4.408  1.00  0.00     0.161 A 
ATOM     13  C   UNL     1      -8.670  28.231   4.471  1.00  0.00     0.157 A 
ATOM     14  C   UNL     1      -7.993  30.483   4.980  1.00  0.00     0.068 A 
ATOM     15  C   UNL     1      -9.966  28.564   4.941  1.00  0.00     0.051 A 
ATOM     16  C   UNL     1     -10.232  29.807   5.601  1.00  0.00     0.022 A 
BRANCH  12  17
ATOM     17  O   UNL     1      -6.404  28.907   3.961  1.00  0.00    -0.493 OA
ATOM     18  C   UNL     1      -5.253  28.846   4.814  1.00  0.00     0.278 C 
ENDBRANCH  12  17
BRANCH  13  19
ATOM     19  O   UNL     1      -8.324  26.887   4.162  1.00  0.00    -0.504 OA
ATOM     20  H   UNL     1      -7.941  26.623   3.190  1.00  0.00     0.293 HD
ENDBRANCH  13  19
ENDBRANCH   1  11
BRANCH   2  21
ATOM     21  O   UNL     1     -10.090  31.527   9.138  1.00  0.00    -0.452 OA
BRANCH  21  22
ATOM     22  C   UNL     1     -11.434  31.129   9.599  1.00  0.00     0.339 C 
ATOM     23  C   UNL     1     -11.931  32.062  10.771  1.00  0.00     0.214 C 
ATOM     24  O   UNL     1     -11.420  29.725   9.960  1.00  0.00    -0.332 OA
ATOM     25  C   UNL     1     -11.571  31.479  12.170  1.00  0.00     0.180 C 
ATOM     26  C   UNL     1     -12.470  29.335  10.804  1.00  0.00     0.179 C 
ATOM     27  C   UNL     1     -12.259  30.057  12.259  1.00  0.00     0.177 C 
BRANCH  23  28
ATOM     28  O   UNL     1     -11.453  33.392  10.623  1.00  0.00    -0.384 OA
ATOM     29  H   UNL     1     -11.646  33.831  11.486  1.00  0.00     0.211 HD
ENDBRANCH  23  28
BRANCH  25  30
ATOM     30  O   UNL     1     -10.142  31.231  12.253  1.00  0.00    -0.387 OA
ATOM     31  H   UNL     1      -9.623  32.037  12.108  1.00  0.00     0.211 HD
ENDBRANCH  25  30
BRANCH  26  32
ATOM     32  C   UNL     1     -12.516  27.741  10.831  1.00  0.00     0.191 C 
BRANCH  32  33
ATOM     33  O   UNL     1     -11.237  27.107  10.898  1.00  0.00    -0.394 OA
ATOM     34  H   UNL     1     -10.731  27.570  11.621  1.00  0.00     0.210 HD
ENDBRANCH  32  33
ENDBRANCH  26  32
BRANCH  27  35
ATOM     35  O   UNL     1     -11.536  29.289  13.179  1.00  0.00    -0.387 OA
ATOM     36  H   UNL     1     -12.185  28.763  13.773  1.00  0.00     0.211 HD
ENDBRANCH  27  35
ENDBRANCH  21  22
ENDBRANCH   2  21
BRANCH   5  37
ATOM     37  O   UNL     1     -11.706  36.107   7.182  1.00  0.00    -0.461 OA
BRANCH  37  38
ATOM     38  C   UNL     1     -11.691  37.297   8.023  1.00  0.00     0.339 C 
ATOM     39  C   UNL     1     -11.707  36.857   9.548  1.00  0.00     0.214 C 
ATOM     40  O   UNL     1     -12.859  38.055   7.707  1.00  0.00    -0.332 OA
ATOM     41  C   UNL     1     -11.988  38.030  10.567  1.00  0.00     0.180 C 
ATOM     42  C   UNL     1     -13.072  39.249   8.529  1.00  0.00     0.179 C 
ATOM     43  C   UNL     1     -12.194  39.382   9.823  1.00  0.00     0.177 C 
BRANCH  39  44
ATOM     44  O   UNL     1     -10.454  36.210   9.838  1.00  0.00    -0.384 OA
ATOM     45  H   UNL     1     -10.561  35.807  10.746  1.00  0.00     0.211 HD
ENDBRANCH  39  44
BRANCH  41  46
ATOM     46  O   UNL     1     -13.125  37.706  11.343  1.00  0.00    -0.387 OA
ATOM     47  H   UNL     1     -13.002  36.779  11.631  1.00  0.00     0.211 HD
ENDBRANCH  41  46
BRANCH  42  48
ATOM     48  C   UNL     1     -13.117  40.563   7.592  1.00  0.00     0.191 C 
BRANCH  48  49
ATOM     49  O   UNL     1     -12.608  41.709   8.242  1.00  0.00    -0.394 OA
ATOM     50  H   UNL     1     -12.314  41.349   9.165  1.00  0.00     0.210 HD
ENDBRANCH  48  49
ENDBRANCH  42  48
BRANCH  43  51
ATOM     51  O   UNL     1     -12.723  40.395  10.622  1.00  0.00    -0.387 OA
ATOM     52  H   UNL     1     -12.937  41.200  10.043  1.00  0.00     0.211 HD
ENDBRANCH  43  51
ENDBRANCH  37  38
ENDBRANCH   5  37
BRANCH   7  53
ATOM     53  O   UNL     1      -7.532  37.281   5.012  1.00  0.00    -0.507 OA
ATOM     54  H   UNL     1      -7.428  37.457   4.001  1.00  0.00     0.293 HD
ENDBRANCH   7  53
TORSDOF 18
ENDMDL
MODEL 2
REMARK VINA RESULT:    -5.519      2.030      7.381
REMARK INTER + INTRA:         -12.269
REMARK INTER:                  -9.919
REMARK INTRA:                  -2.350
REMARK UNBOUND:                -2.555
REMARK SMILES COc1cc(-c2[o+]c3cc(O)cc(O[C@H]4O[C@H](CO)[C@@H](O)[C@@H](O)[C@@H]4O)c3cc2O[C@H]2O[C@@H](CO)[C@@H](O)[C@@H](O)[C@H]2O)ccc1O
REMARK SMILES IDX 6 1 28 2 27 3 26 4 13 5 12 6 10 7 9 8 8 9 7 10 5 11 3 12
REMARK SMILES IDX 43 13 4 14 42 15 41 16 2 17 1 18 44 19 29 21 30 22 39 23
REMARK SMILES IDX 31 24 37 25 32 26 35 27 40 28 38 30 33 32 34 33 36 35 14 37
REMARK SMILES IDX 15 38 24 39 16 40 22 41 17 42 20 43 25 44 23 46 18 48 19 49
REMARK SMILES IDX 21 51 11 53
REMARK H PARENT 44 20 40 29 38 31 34 34 36 36 25 45 23 47 19 50 21 52 11 54
REMARK Flexibility Score: inf
ROOT
ATOM      1  C   UNL     1      -8.415  31.408   5.996  1.00  0.00     0.402 A 
ATOM      2  C   UNL     1      -9.033  32.333   6.866  1.00  0.00     0.229 A 
ATOM      3  C   UNL     1      -9.852  31.612   7.793  1.00  0.00     0.079 A 
ATOM      4  C   UNL     1     -10.795  30.736   7.236  1.00  0.00     0.126 A 
ATOM      5  C   UNL     1     -11.879  30.141   7.942  1.00  0.00     0.143 A 
ATOM      6  C   UNL     1     -12.457  28.971   7.367  1.00  0.00     0.094 A 
ATOM      7  C   UNL     1     -12.176  28.548   6.067  1.00  0.00     0.128 A 
ATOM      8  C   UNL     1     -11.030  29.000   5.491  1.00  0.00     0.162 A 
ATOM      9  C   UNL     1     -10.309  30.002   6.081  1.00  0.00     0.368 A 
ATOM     10  O   UNL     1      -9.180  30.374   5.546  1.00  0.00    -0.202 OA
ENDROOT
BRANCH   1  11
ATOM     11  C   UNL     1      -7.017  30.848   6.261  1.00  0.00     0.087 A 
ATOM     12  C   UNL     1      -5.715  28.809   5.754  1.00  0.00     0.161 A 
ATOM     13  C   UNL     1      -4.543  29.584   5.773  1.00  0.00     0.157 A 
ATOM     14  C   UNL     1      -6.915  29.451   6.157  1.00  0.00     0.068 A 
ATOM     15  C   UNL     1      -4.573  30.886   6.333  1.00  0.00     0.051 A 
ATOM     16  C   UNL     1      -5.806  31.546   6.643  1.00  0.00     0.022 A 
BRANCH  12  17
ATOM     17  O   UNL     1      -5.701  27.539   5.198  1.00  0.00    -0.493 OA
ATOM     18  C   UNL     1      -6.688  27.063   4.274  1.00  0.00     0.278 C 
ENDBRANCH  12  17
BRANCH  13  19
ATOM     19  O   UNL     1      -3.375  29.087   5.134  1.00  0.00    -0.504 OA
ATOM     20  H   UNL     1      -2.751  28.351   5.614  1.00  0.00     0.293 HD
ENDBRANCH  13  19
ENDBRANCH   1  11
BRANCH   2  21
ATOM     21  O   UNL     1      -8.944  33.789   6.751  1.00  0.00    -0.452 OA
BRANCH  21  22
ATOM     22  C   UNL     1     -10.162  34.608   6.899  1.00  0.00     0.339 C 
ATOM     23  C   UNL     1     -10.456  35.431   5.584  1.00  0.00     0.214 C 
ATOM     24  O   UNL     1     -10.034  35.447   8.076  1.00  0.00    -0.332 OA
ATOM     25  C   UNL     1      -9.816  36.851   5.634  1.00  0.00     0.180 C 
ATOM     26  C   UNL     1     -10.891  36.558   8.089  1.00  0.00     0.179 C 
ATOM     27  C   UNL     1     -10.428  37.581   6.896  1.00  0.00     0.177 C 
BRANCH  23  28
ATOM     28  O   UNL     1     -10.057  34.721   4.420  1.00  0.00    -0.384 OA
ATOM     29  H   UNL     1      -9.089  34.898   4.331  1.00  0.00     0.211 HD
ENDBRANCH  23  28
BRANCH  25  30
ATOM     30  O   UNL     1      -8.390  36.746   5.892  1.00  0.00    -0.387 OA
ATOM     31  H   UNL     1      -7.956  36.116   5.295  1.00  0.00     0.211 HD
ENDBRANCH  25  30
BRANCH  26  32
ATOM     32  C   UNL     1     -10.880  37.172   9.560  1.00  0.00     0.191 C 
BRANCH  32  33
ATOM     33  O   UNL     1     -10.463  36.266  10.584  1.00  0.00    -0.394 OA
ATOM     34  H   UNL     1      -9.533  35.989  10.352  1.00  0.00     0.210 HD
ENDBRANCH  32  33
ENDBRANCH  26  32
BRANCH  27  35
ATOM     35  O   UNL     1      -9.518  38.562   7.306  1.00  0.00    -0.387 OA
ATOM     36  H   UNL     1      -8.565  38.188   7.260  1.00  0.00     0.211 HD
ENDBRANCH  27  35
ENDBRANCH  21  22
ENDBRANCH   2  21
BRANCH   5  37
ATOM     37  O   UNL     1     -12.539  30.761   9.061  1.00  0.00    -0.461 OA
BRANCH  37  38
ATOM     38  C   UNL     1     -12.183  30.427  10.435  1.00  0.00     0.339 C 
ATOM     39  C   UNL     1     -11.455  31.670  11.102  1.00  0.00     0.214 C 
ATOM     40  O   UNL     1     -11.309  29.300  10.385  1.00  0.00    -0.332 OA
ATOM     41  C   UNL     1     -10.754  31.358  12.482  1.00  0.00     0.180 C 
ATOM     42  C   UNL     1     -10.759  28.876  11.675  1.00  0.00     0.179 C 
ATOM     43  C   UNL     1     -10.940  29.865  12.880  1.00  0.00     0.177 C 
BRANCH  39  44
ATOM     44  O   UNL     1     -12.419  32.730  11.239  1.00  0.00    -0.384 OA
ATOM     45  H   UNL     1     -12.258  33.128  12.142  1.00  0.00     0.211 HD
ENDBRANCH  39  44
BRANCH  41  46
ATOM     46  O   UNL     1      -9.381  31.686  12.388  1.00  0.00    -0.387 OA
ATOM     47  H   UNL     1      -9.330  32.660  12.453  1.00  0.00     0.211 HD
ENDBRANCH  41  46
BRANCH  42  48
ATOM     48  C   UNL     1     -11.177  27.345  11.975  1.00  0.00     0.191 C 
BRANCH  48  49
ATOM     49  O   UNL     1     -11.789  27.189  13.238  1.00  0.00    -0.394 OA
ATOM     50  H   UNL     1     -12.242  26.262  13.172  1.00  0.00     0.210 HD
ENDBRANCH  48  49
ENDBRANCH  42  48
BRANCH  43  51
ATOM     51  O   UNL     1     -10.119  29.450  13.927  1.00  0.00    -0.387 OA
ATOM     52  H   UNL     1      -9.847  28.484  13.777  1.00  0.00     0.211 HD
ENDBRANCH  43  51
ENDBRANCH  37  38
ENDBRANCH   5  37
BRANCH   7  53
ATOM     53  O   UNL     1     -12.979  27.570   5.437  1.00  0.00    -0.507 OA
ATOM     54  H   UNL     1     -12.602  26.893   4.755  1.00  0.00     0.293 HD
ENDBRANCH   7  53
TORSDOF 18
ENDMDL
MODEL 3
REMARK VINA RESULT:    -5.268      2.432      6.930
REMARK INTER + INTRA:         -11.827
REMARK INTER:                 -10.302
REMARK INTRA:                  -1.525
REMARK UNBOUND:                -2.555
REMARK SMILES COc1cc(-c2[o+]c3cc(O)cc(O[C@H]4O[C@H](CO)[C@@H](O)[C@@H](O)[C@@H]4O)c3cc2O[C@H]2O[C@@H](CO)[C@@H](O)[C@@H](O)[C@H]2O)ccc1O
REMARK SMILES IDX 6 1 28 2 27 3 26 4 13 5 12 6 10 7 9 8 8 9 7 10 5 11 3 12
REMARK SMILES IDX 43 13 4 14 42 15 41 16 2 17 1 18 44 19 29 21 30 22 39 23
REMARK SMILES IDX 31 24 37 25 32 26 35 27 40 28 38 30 33 32 34 33 36 35 14 37
REMARK SMILES IDX 15 38 24 39 16 40 22 41 17 42 20 43 25 44 23 46 18 48 19 49
REMARK SMILES IDX 21 51 11 53
REMARK H PARENT 44 20 40 29 38 31 34 34 36 36 25 45 23 47 19 50 21 52 11 54
REMARK Flexibility Score: inf
ROOT
ATOM      1  C   UNL     1      -8.098  29.693   5.221  1.00  0.00     0.402 A 
ATOM      2  C   UNL     1      -8.660  30.412   6.300  1.00  0.00     0.229 A 
ATOM      3  C   UNL     1      -9.699  29.618   6.885  1.00  0.00     0.079 A 
ATOM      4  C   UNL     1     -10.695  29.158   6.011  1.00  0.00     0.126 A 
ATOM      5  C   UNL     1     -11.943  28.602   6.411  1.00  0.00     0.143 A 
ATOM      6  C   UNL     1     -12.628  27.802   5.450  1.00  0.00     0.094 A 
ATOM      7  C   UNL     1     -12.258  27.749   4.105  1.00  0.00     0.128 A 
ATOM      8  C   UNL     1     -10.989  28.121   3.786  1.00  0.00     0.162 A 
ATOM      9  C   UNL     1     -10.194  28.731   4.717  1.00  0.00     0.368 A 
ATOM     10  O   UNL     1      -8.960  29.018   4.410  1.00  0.00    -0.202 OA
ENDROOT
BRANCH   1  11
ATOM     11  C   UNL     1      -6.858  28.815   5.386  1.00  0.00     0.087 A 
ATOM     12  C   UNL     1      -4.496  29.062   6.075  1.00  0.00     0.161 A 
ATOM     13  C   UNL     1      -4.521  27.736   6.542  1.00  0.00     0.157 A 
ATOM     14  C   UNL     1      -5.637  29.512   5.363  1.00  0.00     0.068 A 
ATOM     15  C   UNL     1      -5.579  26.876   6.153  1.00  0.00     0.051 A 
ATOM     16  C   UNL     1      -6.762  27.376   5.518  1.00  0.00     0.022 A 
BRANCH  12  17
ATOM     17  O   UNL     1      -3.473  29.915   6.459  1.00  0.00    -0.493 OA
ATOM     18  C   UNL     1      -3.308  30.411   7.794  1.00  0.00     0.278 C 
ENDBRANCH  12  17
BRANCH  13  19
ATOM     19  O   UNL     1      -3.541  27.315   7.481  1.00  0.00    -0.504 OA
ATOM     20  H   UNL     1      -3.823  26.782   8.375  1.00  0.00     0.293 HD
ENDBRANCH  13  19
ENDBRANCH   1  11
BRANCH   2  21
ATOM     21  O   UNL     1      -8.319  31.785   6.669  1.00  0.00    -0.452 OA
BRANCH  21  22
ATOM     22  C   UNL     1      -9.201  32.893   6.257  1.00  0.00     0.339 C 
ATOM     23  C   UNL     1      -8.829  33.408   4.812  1.00  0.00     0.214 C 
ATOM     24  O   UNL     1      -9.156  33.939   7.261  1.00  0.00    -0.332 OA
ATOM     25  C   UNL     1      -7.813  34.589   4.861  1.00  0.00     0.180 C 
ATOM     26  C   UNL     1      -9.580  35.196   6.805  1.00  0.00     0.179 C 
ATOM     27  C   UNL     1      -8.495  35.740   5.705  1.00  0.00     0.177 C 
BRANCH  23  28
ATOM     28  O   UNL     1      -8.361  32.353   3.983  1.00  0.00    -0.384 OA
ATOM     29  H   UNL     1      -8.850  32.461   3.131  1.00  0.00     0.211 HD
ENDBRANCH  23  28
BRANCH  25  30
ATOM     30  O   UNL     1      -6.631  34.198   5.612  1.00  0.00    -0.387 OA
ATOM     31  H   UNL     1      -6.260  33.359   5.297  1.00  0.00     0.211 HD
ENDBRANCH  25  30
BRANCH  26  32
ATOM     32  C   UNL     1      -9.796  36.135   8.075  1.00  0.00     0.191 C 
BRANCH  32  33
ATOM     33  O   UNL     1      -9.491  37.515   7.857  1.00  0.00    -0.394 OA
ATOM     34  H   UNL     1     -10.334  38.019   8.025  1.00  0.00     0.210 HD
ENDBRANCH  32  33
ENDBRANCH  26  32
BRANCH  27  35
ATOM     35  O   UNL     1      -7.478  36.533   6.248  1.00  0.00    -0.387 OA
ATOM     36  H   UNL     1      -6.741  36.673   5.549  1.00  0.00     0.211 HD
ENDBRANCH  27  35
ENDBRANCH  21  22
ENDBRANCH   2  21
BRANCH   5  37
ATOM     37  O   UNL     1     -12.629  28.968   7.622  1.00  0.00    -0.461 OA
BRANCH  37  38
ATOM     38  C   UNL     1     -12.094  29.980   8.525  1.00  0.00     0.339 C 
ATOM     39  C   UNL     1     -11.990  29.373   9.987  1.00  0.00     0.214 C 
ATOM     40  O   UNL     1     -12.994  31.087   8.502  1.00  0.00    -0.332 OA
ATOM     41  C   UNL     1     -11.706  30.435  11.121  1.00  0.00     0.180 C 
ATOM     42  C   UNL     1     -12.673  32.174   9.432  1.00  0.00     0.179 C 
ATOM     43  C   UNL     1     -11.594  31.870  10.529  1.00  0.00     0.177 C 
BRANCH  39  44
ATOM     44  O   UNL     1     -10.979  28.348   9.974  1.00  0.00    -0.384 OA
ATOM     45  H   UNL     1     -10.898  28.060   9.021  1.00  0.00     0.211 HD
ENDBRANCH  39  44
BRANCH  41  46
ATOM     46  O   UNL     1     -12.739  30.368  12.085  1.00  0.00    -0.387 OA
ATOM     47  H   UNL     1     -12.798  29.431  12.356  1.00  0.00     0.211 HD
ENDBRANCH  41  46
BRANCH  42  48
ATOM     48  C   UNL     1     -12.455  33.550   8.616  1.00  0.00     0.191 C 
BRANCH  48  49
ATOM     49  O   UNL     1     -12.468  34.685   9.457  1.00  0.00    -0.394 OA
ATOM     50  H   UNL     1     -13.082  34.398  10.237  1.00  0.00     0.210 HD
ENDBRANCH  48  49
ENDBRANCH  42  48
BRANCH  43  51
ATOM     51  O   UNL     1     -11.629  32.883  11.486  1.00  0.00    -0.387 OA
ATOM     52  H   UNL     1     -12.040  32.521  12.341  1.00  0.00     0.211 HD
ENDBRANCH  43  51
ENDBRANCH  37  38
ENDBRANCH   5  37
BRANCH   7  53
ATOM     53  O   UNL     1     -13.125  27.189   3.139  1.00  0.00    -0.507 OA
ATOM     54  H   UNL     1     -13.754  27.762   2.554  1.00  0.00     0.293 HD
ENDBRANCH   7  53
TORSDOF 18
ENDMDL
MODEL 4
REMARK VINA RESULT:    -4.340      1.365      2.170
REMARK INTER + INTRA:         -10.193
REMARK INTER:                  -8.166
REMARK INTRA:                  -2.027
REMARK UNBOUND:                -2.555
REMARK SMILES COc1cc(-c2[o+]c3cc(O)cc(O[C@H]4O[C@H](CO)[C@@H](O)[C@@H](O)[C@@H]4O)c3cc2O[C@H]2O[C@@H](CO)[C@@H](O)[C@@H](O)[C@H]2O)ccc1O
REMARK SMILES IDX 6 1 28 2 27 3 26 4 13 5 12 6 10 7 9 8 8 9 7 10 5 11 3 12
REMARK SMILES IDX 43 13 4 14 42 15 41 16 2 17 1 18 44 19 29 21 30 22 39 23
REMARK SMILES IDX 31 24 37 25 32 26 35 27 40 28 38 30 33 32 34 33 36 35 14 37
REMARK SMILES IDX 15 38 24 39 16 40 22 41 17 42 20 43 25 44 23 46 18 48 19 49
REMARK SMILES IDX 21 51 11 53
REMARK H PARENT 44 20 40 29 38 31 34 34 36 36 25 45 23 47 19 50 21 52 11 54
REMARK Flexibility Score: inf
ROOT
ATOM      1  C   UNL     1      -8.695  32.592   7.338  1.00  0.00     0.402 A 
ATOM      2  C   UNL     1      -9.958  32.813   7.930  1.00  0.00     0.229 A 
ATOM      3  C   UNL     1     -10.703  33.711   7.098  1.00  0.00     0.079 A 
ATOM      4  C   UNL     1     -10.075  34.924   6.780  1.00  0.00     0.126 A 
ATOM      5  C   UNL     1     -10.724  36.058   6.213  1.00  0.00     0.143 A 
ATOM      6  C   UNL     1      -9.892  37.014   5.558  1.00  0.00     0.094 A 
ATOM      7  C   UNL     1      -8.501  37.008   5.665  1.00  0.00     0.128 A 
ATOM      8  C   UNL     1      -7.903  35.844   6.038  1.00  0.00     0.162 A 
ATOM      9  C   UNL     1      -8.654  34.801   6.505  1.00  0.00     0.368 A 
ATOM     10  O   UNL     1      -8.068  33.673   6.794  1.00  0.00    -0.202 OA
ENDROOT
BRANCH   1  11
ATOM     11  C   UNL     1      -8.426  31.406   6.412  1.00  0.00     0.087 A 
ATOM     12  C   UNL     1      -6.523  29.977   5.743  1.00  0.00     0.161 A 
ATOM     13  C   UNL     1      -7.425  28.921   5.527  1.00  0.00     0.157 A 
ATOM     14  C   UNL     1      -7.081  31.248   6.035  1.00  0.00     0.068 A 
ATOM     15  C   UNL     1      -8.814  29.192   5.448  1.00  0.00     0.051 A 
ATOM     16  C   UNL     1      -9.360  30.457   5.840  1.00  0.00     0.022 A 
BRANCH  12  17
ATOM     17  O   UNL     1      -5.163  29.723   5.834  1.00  0.00    -0.493 OA
ATOM     18  C   UNL     1      -4.235  30.584   6.507  1.00  0.00     0.278 C 
ENDBRANCH  12  17
BRANCH  13  19
ATOM     19  O   UNL     1      -6.934  27.588   5.499  1.00  0.00    -0.504 OA
ATOM     20  H   UNL     1      -5.953  27.366   5.112  1.00  0.00     0.293 HD
ENDBRANCH  13  19
ENDBRANCH   1  11
BRANCH   2  21
ATOM     21  O   UNL     1     -10.378  32.307   9.236  1.00  0.00    -0.452 OA
BRANCH  21  22
ATOM     22  C   UNL     1     -11.677  31.620   9.370  1.00  0.00     0.339 C 
ATOM     23  C   UNL     1     -12.321  31.893  10.785  1.00  0.00     0.214 C 
ATOM     24  O   UNL     1     -11.502  30.207   9.090  1.00  0.00    -0.332 OA
ATOM     25  C   UNL     1     -11.935  30.793  11.819  1.00  0.00     0.180 C 
ATOM     26  C   UNL     1     -12.523  29.388   9.595  1.00  0.00     0.179 C 
ATOM     27  C   UNL     1     -12.445  29.417  11.231  1.00  0.00     0.177 C 
BRANCH  23  28
ATOM     28  O   UNL     1     -12.004  33.192  11.264  1.00  0.00    -0.384 OA
ATOM     29  H   UNL     1     -12.593  33.328  12.046  1.00  0.00     0.211 HD
ENDBRANCH  23  28
BRANCH  25  30
ATOM     30  O   UNL     1     -10.489  30.674  11.903  1.00  0.00    -0.387 OA
ATOM     31  H   UNL     1     -10.133  30.072  11.230  1.00  0.00     0.211 HD
ENDBRANCH  25  30
BRANCH  26  32
ATOM     32  C   UNL     1     -12.374  27.947   8.929  1.00  0.00     0.191 C 
BRANCH  32  33
ATOM     33  O   UNL     1     -11.526  27.904   7.778  1.00  0.00    -0.394 OA
ATOM     34  H   UNL     1     -11.671  28.762   7.291  1.00  0.00     0.210 HD
ENDBRANCH  32  33
ENDBRANCH  26  32
BRANCH  27  35
ATOM     35  O   UNL     1     -11.663  28.397  11.785  1.00  0.00    -0.387 OA
ATOM     36  H   UNL     1     -11.923  28.259  12.767  1.00  0.00     0.211 HD
ENDBRANCH  27  35
ENDBRANCH  21  22
ENDBRANCH   2  21
BRANCH   5  37
ATOM     37  O   UNL     1     -12.107  36.385   6.442  1.00  0.00    -0.461 OA
BRANCH  37  38
ATOM     38  C   UNL     1     -12.502  37.347   7.464  1.00  0.00     0.339 C 
ATOM     39  C   UNL     1     -11.865  38.760   7.123  1.00  0.00     0.214 C 
ATOM     40  O   UNL     1     -12.012  36.863   8.714  1.00  0.00    -0.332 OA
ATOM     41  C   UNL     1     -11.962  39.822   8.287  1.00  0.00     0.180 C 
ATOM     42  C   UNL     1     -12.227  37.754   9.858  1.00  0.00     0.179 C 
ATOM     43  C   UNL     1     -12.675  39.222   9.535  1.00  0.00     0.177 C 
BRANCH  39  44
ATOM     44  O   UNL     1     -12.488  39.252   5.922  1.00  0.00    -0.384 OA
ATOM     45  H   UNL     1     -12.610  38.453   5.334  1.00  0.00     0.211 HD
ENDBRANCH  39  44
BRANCH  41  46
ATOM     46  O   UNL     1     -10.661  40.266   8.617  1.00  0.00    -0.387 OA
ATOM     47  H   UNL     1     -10.260  40.578   7.782  1.00  0.00     0.211 HD
ENDBRANCH  41  46
BRANCH  42  48
ATOM     48  C   UNL     1     -13.103  37.000  10.986  1.00  0.00     0.191 C 
BRANCH  48  49
ATOM     49  O   UNL     1     -13.125  35.599  10.807  1.00  0.00    -0.394 OA
ATOM     50  H   UNL     1     -12.307  35.276  11.350  1.00  0.00     0.210 HD
ENDBRANCH  48  49
ENDBRANCH  42  48
BRANCH  43  51
ATOM     51  O   UNL     1     -12.545  39.994  10.688  1.00  0.00    -0.387 OA
ATOM     52  H   UNL     1     -13.437  40.428  10.902  1.00  0.00     0.211 HD
ENDBRANCH  43  51
ENDBRANCH  37  38
ENDBRANCH   5  37
BRANCH   7  53
ATOM     53  O   UNL     1      -7.740  38.126   5.255  1.00  0.00    -0.507 OA
ATOM     54  H   UNL     1      -7.421  38.258   4.282  1.00  0.00     0.293 HD
ENDBRANCH   7  53
TORSDOF 18
ENDMDL
MODEL 5
REMARK VINA RESULT:    -4.134      2.693      7.747
REMARK INTER + INTRA:          -9.830
REMARK INTER:                 -10.372
REMARK INTRA:                   0.542
REMARK UNBOUND:                -2.555
REMARK SMILES COc1cc(-c2[o+]c3cc(O)cc(O[C@H]4O[C@H](CO)[C@@H](O)[C@@H](O)[C@@H]4O)c3cc2O[C@H]2O[C@@H](CO)[C@@H](O)[C@@H](O)[C@H]2O)ccc1O
REMARK SMILES IDX 6 1 28 2 27 3 26 4 13 5 12 6 10 7 9 8 8 9 7 10 5 11 3 12
REMARK SMILES IDX 43 13 4 14 42 15 41 16 2 17 1 18 44 19 29 21 30 22 39 23
REMARK SMILES IDX 31 24 37 25 32 26 35 27 40 28 38 30 33 32 34 33 36 35 14 37
REMARK SMILES IDX 15 38 24 39 16 40 22 41 17 42 20 43 25 44 23 46 18 48 19 49
REMARK SMILES IDX 21 51 11 53
REMARK H PARENT 44 20 40 29 38 31 34 34 36 36 25 45 23 47 19 50 21 52 11 54
REMARK Flexibility Score: inf
ROOT
ATOM      1  C   UNL     1      -8.949  30.807   5.365  1.00  0.00     0.402 A 
ATOM      2  C   UNL     1      -9.135  31.975   6.138  1.00  0.00     0.229 A 
ATOM      3  C   UNL     1      -9.415  31.590   7.489  1.00  0.00     0.079 A 
ATOM      4  C   UNL     1     -10.476  30.691   7.669  1.00  0.00     0.126 A 
ATOM      5  C   UNL     1     -11.096  30.396   8.916  1.00  0.00     0.143 A 
ATOM      6  C   UNL     1     -11.830  29.176   8.997  1.00  0.00     0.094 A 
ATOM      7  C   UNL     1     -12.159  28.413   7.876  1.00  0.00     0.128 A 
ATOM      8  C   UNL     1     -11.418  28.598   6.750  1.00  0.00     0.162 A 
ATOM      9  C   UNL     1     -10.544  29.647   6.662  1.00  0.00     0.368 A 
ATOM     10  O   UNL     1      -9.797  29.767   5.601  1.00  0.00    -0.202 OA
ENDROOT
BRANCH   1  11
ATOM     11  C   UNL     1      -7.565  30.208   5.115  1.00  0.00     0.087 A 
ATOM     12  C   UNL     1      -5.281  30.379   6.045  1.00  0.00     0.161 A 
ATOM     13  C   UNL     1      -5.053  29.046   5.660  1.00  0.00     0.157 A 
ATOM     14  C   UNL     1      -6.495  30.971   5.614  1.00  0.00     0.068 A 
ATOM     15  C   UNL     1      -5.938  28.418   4.748  1.00  0.00     0.051 A 
ATOM     16  C   UNL     1      -7.202  28.998   4.405  1.00  0.00     0.022 A 
BRANCH  12  17
ATOM     17  O   UNL     1      -4.428  30.998   6.945  1.00  0.00    -0.493 OA
ATOM     18  C   UNL     1      -3.398  30.312   7.669  1.00  0.00     0.278 C 
ENDBRANCH  12  17
BRANCH  13  19
ATOM     19  O   UNL     1      -3.998  28.320   6.276  1.00  0.00    -0.504 OA
ATOM     20  H   UNL     1      -3.354  28.787   7.004  1.00  0.00     0.293 HD
ENDBRANCH  13  19
ENDBRANCH   1  11
BRANCH   2  21
ATOM     21  O   UNL     1      -9.161  33.339   5.612  1.00  0.00    -0.452 OA
BRANCH  21  22
ATOM     22  C   UNL     1      -9.089  34.482   6.542  1.00  0.00     0.339 C 
ATOM     23  C   UNL     1     -10.517  34.843   7.109  1.00  0.00     0.214 C 
ATOM     24  O   UNL     1      -8.443  35.599   5.879  1.00  0.00    -0.332 OA
ATOM     25  C   UNL     1     -11.225  35.932   6.247  1.00  0.00     0.180 C 
ATOM     26  C   UNL     1      -8.698  36.846   6.469  1.00  0.00     0.179 C 
ATOM     27  C   UNL     1     -10.283  37.203   6.258  1.00  0.00     0.177 C 
BRANCH  23  28
ATOM     28  O   UNL     1     -11.331  33.688   7.258  1.00  0.00    -0.384 OA
ATOM     29  H   UNL     1     -10.980  33.041   6.599  1.00  0.00     0.211 HD
ENDBRANCH  23  28
BRANCH  25  30
ATOM     30  O   UNL     1     -11.291  35.504   4.860  1.00  0.00    -0.387 OA
ATOM     31  H   UNL     1     -10.502  35.007   4.593  1.00  0.00     0.211 HD
ENDBRANCH  25  30
BRANCH  26  32
ATOM     32  C   UNL     1      -7.672  37.901   5.855  1.00  0.00     0.191 C 
BRANCH  32  33
ATOM     33  O   UNL     1      -7.604  39.146   6.555  1.00  0.00    -0.394 OA
ATOM     34  H   UNL     1      -8.506  39.294   6.954  1.00  0.00     0.210 HD
ENDBRANCH  32  33
ENDBRANCH  26  32
BRANCH  27  35
ATOM     35  O   UNL     1     -10.553  37.947   5.104  1.00  0.00    -0.387 OA
ATOM     36  H   UNL     1     -10.919  38.868   5.367  1.00  0.00     0.211 HD
ENDBRANCH  27  35
ENDBRANCH  21  22
ENDBRANCH   2  21
BRANCH   5  37
ATOM     37  O   UNL     1     -11.196  31.337  10.002  1.00  0.00    -0.461 OA
BRANCH  37  38
ATOM     38  C   UNL     1     -11.014  30.922  11.387  1.00  0.00     0.339 C 
ATOM     39  C   UNL     1      -9.801  31.728  12.018  1.00  0.00     0.214 C 
ATOM     40  O   UNL     1     -10.736  29.522  11.378  1.00  0.00    -0.332 OA
ATOM     41  C   UNL     1      -9.301  31.179  13.411  1.00  0.00     0.180 C 
ATOM     42  C   UNL     1     -10.423  28.937  12.684  1.00  0.00     0.179 C 
ATOM     43  C   UNL     1     -10.131  29.939  13.855  1.00  0.00     0.177 C 
BRANCH  39  44
ATOM     44  O   UNL     1     -10.189  33.111  12.116  1.00  0.00    -0.384 OA
ATOM     45  H   UNL     1     -11.148  33.144  11.839  1.00  0.00     0.211 HD
ENDBRANCH  39  44
BRANCH  41  46
ATOM     46  O   UNL     1      -7.928  30.856  13.314  1.00  0.00    -0.387 OA
ATOM     47  H   UNL     1      -7.596  31.315  12.518  1.00  0.00     0.211 HD
ENDBRANCH  41  46
BRANCH  42  48
ATOM     48  C   UNL     1     -11.477  27.764  13.030  1.00  0.00     0.191 C 
BRANCH  48  49
ATOM     49  O   UNL     1     -12.294  28.081  14.138  1.00  0.00    -0.394 OA
ATOM     50  H   UNL     1     -11.691  28.692  14.713  1.00  0.00     0.210 HD
ENDBRANCH  48  49
ENDBRANCH  42  48
BRANCH  43  51
ATOM     51  O   UNL     1      -9.572  29.234  14.921  1.00  0.00    -0.387 OA
ATOM     52  H   UNL     1      -9.304  28.308  14.605  1.00  0.00     0.211 HD
ENDBRANCH  43  51
ENDBRANCH  37  38
ENDBRANCH   5  37
BRANCH   7  53
ATOM     53  O   UNL     1     -13.125  27.384   7.959  1.00  0.00    -0.507 OA
ATOM     54  H   UNL     1     -13.325  26.876   8.834  1.00  0.00     0.293 HD
ENDBRANCH   7  53
TORSDOF 18
ENDMDL
MODEL 6
REMARK VINA RESULT:    -4.112      2.121      8.169
REMARK INTER + INTRA:          -9.793
REMARK INTER:                  -8.028
REMARK INTRA:                  -1.765
REMARK UNBOUND:                -2.555
REMARK SMILES COc1cc(-c2[o+]c3cc(O)cc(O[C@H]4O[C@H](CO)[C@@H](O)[C@@H](O)[C@@H]4O)c3cc2O[C@H]2O[C@@H](CO)[C@@H](O)[C@@H](O)[C@H]2O)ccc1O
REMARK SMILES IDX 6 1 28 2 27 3 26 4 13 5 12 6 10 7 9 8 8 9 7 10 5 11 3 12
REMARK SMILES IDX 43 13 4 14 42 15 41 16 2 17 1 18 44 19 29 21 30 22 39 23
REMARK SMILES IDX 31 24 37 25 32 26 35 27 40 28 38 30 33 32 34 33 36 35 14 37
REMARK SMILES IDX 15 38 24 39 16 40 22 41 17 42 20 43 25 44 23 46 18 48 19 49
REMARK SMILES IDX 21 51 11 53
REMARK H PARENT 44 20 40 29 38 31 34 34 36 36 25 45 23 47 19 50 21 52 11 54
REMARK Flexibility Score: inf
ROOT
ATOM      1  C   UNL     1      -9.898  32.891   6.790  1.00  0.00     0.402 A 
ATOM      2  C   UNL     1     -10.645  33.192   7.951  1.00  0.00     0.229 A 
ATOM      3  C   UNL     1     -10.647  32.041   8.804  1.00  0.00     0.079 A 
ATOM      4  C   UNL     1     -11.079  30.840   8.222  1.00  0.00     0.126 A 
ATOM      5  C   UNL     1     -11.422  29.660   8.940  1.00  0.00     0.143 A 
ATOM      6  C   UNL     1     -11.410  28.435   8.208  1.00  0.00     0.094 A 
ATOM      7  C   UNL     1     -11.323  28.385   6.817  1.00  0.00     0.128 A 
ATOM      8  C   UNL     1     -10.817  29.475   6.178  1.00  0.00     0.162 A 
ATOM      9  C   UNL     1     -10.621  30.645   6.859  1.00  0.00     0.368 A 
ATOM     10  O   UNL     1     -10.074  31.656   6.243  1.00  0.00    -0.202 OA
ENDROOT
BRANCH   1  11
ATOM     11  C   UNL     1      -8.412  33.228   6.668  1.00  0.00     0.087 A 
ATOM     12  C   UNL     1      -6.238  32.055   6.747  1.00  0.00     0.161 A 
ATOM     13  C   UNL     1      -5.715  33.020   5.869  1.00  0.00     0.157 A 
ATOM     14  C   UNL     1      -7.547  32.284   7.245  1.00  0.00     0.068 A 
ATOM     15  C   UNL     1      -6.425  34.227   5.651  1.00  0.00     0.051 A 
ATOM     16  C   UNL     1      -7.780  34.394   6.084  1.00  0.00     0.022 A 
BRANCH  12  17
ATOM     17  O   UNL     1      -5.558  30.865   6.959  1.00  0.00    -0.493 OA
ATOM     18  C   UNL     1      -5.422  29.839   5.967  1.00  0.00     0.278 C 
ENDBRANCH  12  17
BRANCH  13  19
ATOM     19  O   UNL     1      -4.536  32.719   5.135  1.00  0.00    -0.504 OA
ATOM     20  H   UNL     1      -4.422  33.043   4.112  1.00  0.00     0.293 HD
ENDBRANCH  13  19
ENDBRANCH   1  11
BRANCH   2  21
ATOM     21  O   UNL     1     -11.392  34.429   8.177  1.00  0.00    -0.452 OA
BRANCH  21  22
ATOM     22  C   UNL     1     -10.670  35.661   8.547  1.00  0.00     0.339 C 
ATOM     23  C   UNL     1     -11.596  36.635   9.376  1.00  0.00     0.214 C 
ATOM     24  O   UNL     1     -10.129  36.276   7.350  1.00  0.00    -0.332 OA
ATOM     25  C   UNL     1     -12.330  37.658   8.458  1.00  0.00     0.180 C 
ATOM     26  C   UNL     1      -9.812  37.635   7.492  1.00  0.00     0.179 C 
ATOM     27  C   UNL     1     -11.207  38.471   7.696  1.00  0.00     0.177 C 
BRANCH  23  28
ATOM     28  O   UNL     1     -12.512  35.919  10.194  1.00  0.00    -0.384 OA
ATOM     29  H   UNL     1     -13.397  36.072   9.782  1.00  0.00     0.211 HD
ENDBRANCH  23  28
BRANCH  25  30
ATOM     30  O   UNL     1     -13.076  36.957   7.427  1.00  0.00    -0.387 OA
ATOM     31  H   UNL     1     -13.116  36.002   7.591  1.00  0.00     0.211 HD
ENDBRANCH  25  30
BRANCH  26  32
ATOM     32  C   UNL     1      -8.932  38.071   6.236  1.00  0.00     0.191 C 
BRANCH  32  33
ATOM     33  O   UNL     1      -7.607  38.503   6.556  1.00  0.00    -0.394 OA
ATOM     34  H   UNL     1      -7.003  37.740   6.341  1.00  0.00     0.210 HD
ENDBRANCH  32  33
ENDBRANCH  26  32
BRANCH  27  35
ATOM     35  O   UNL     1     -11.762  38.957   6.507  1.00  0.00    -0.387 OA
ATOM     36  H   UNL     1     -12.430  38.273   6.136  1.00  0.00     0.211 HD
ENDBRANCH  27  35
ENDBRANCH  21  22
ENDBRANCH   2  21
BRANCH   5  37
ATOM     37  O   UNL     1     -11.968  29.664  10.272  1.00  0.00    -0.461 OA
BRANCH  37  38
ATOM     38  C   UNL     1     -11.310  28.962  11.367  1.00  0.00     0.339 C 
ATOM     39  C   UNL     1     -12.315  27.900  11.985  1.00  0.00     0.214 C 
ATOM     40  O   UNL     1     -10.949  29.940  12.342  1.00  0.00    -0.332 OA
ATOM     41  C   UNL     1     -11.847  27.274  13.357  1.00  0.00     0.180 C 
ATOM     42  C   UNL     1     -10.360  29.408  13.574  1.00  0.00     0.179 C 
ATOM     43  C   UNL     1     -10.476  27.860  13.802  1.00  0.00     0.177 C 
BRANCH  39  44
ATOM     44  O   UNL     1     -12.541  26.875  10.999  1.00  0.00    -0.384 OA
ATOM     45  H   UNL     1     -11.692  26.811  10.476  1.00  0.00     0.211 HD
ENDBRANCH  39  44
BRANCH  41  46
ATOM     46  O   UNL     1     -12.839  27.516  14.336  1.00  0.00    -0.387 OA
ATOM     47  H   UNL     1     -12.389  27.983  15.069  1.00  0.00     0.211 HD
ENDBRANCH  41  46
BRANCH  42  48
ATOM     48  C   UNL     1      -8.883  30.026  13.789  1.00  0.00     0.191 C 
BRANCH  48  49
ATOM     49  O   UNL     1      -8.251  29.525  14.949  1.00  0.00    -0.394 OA
ATOM     50  H   UNL     1      -8.069  28.535  14.714  1.00  0.00     0.210 HD
ENDBRANCH  48  49
ENDBRANCH  42  48
BRANCH  43  51
ATOM     51  O   UNL     1     -10.139  27.575  15.124  1.00  0.00    -0.387 OA
ATOM     52  H   UNL     1     -10.975  27.613  15.698  1.00  0.00     0.211 HD
ENDBRANCH  43  51
ENDBRANCH  37  38
ENDBRANCH   5  37
BRANCH   7  53
ATOM     53  O   UNL     1     -11.609  27.191   6.117  1.00  0.00    -0.507 OA
ATOM     54  H   UNL     1     -10.987  26.809   5.387  1.00  0.00     0.293 HD
ENDBRANCH   7  53
TORSDOF 18
ENDMDL
MODEL 7
REMARK VINA RESULT:    -3.684     15.225     19.055
REMARK INTER + INTRA:          -9.038
REMARK INTER:                  -9.718
REMARK INTRA:                   0.679
REMARK UNBOUND:                -2.555
REMARK SMILES COc1cc(-c2[o+]c3cc(O)cc(O[C@H]4O[C@H](CO)[C@@H](O)[C@@H](O)[C@@H]4O)c3cc2O[C@H]2O[C@@H](CO)[C@@H](O)[C@@H](O)[C@H]2O)ccc1O
REMARK SMILES IDX 6 1 28 2 27 3 26 4 13 5 12 6 10 7 9 8 8 9 7 10 5 11 3 12
REMARK SMILES IDX 43 13 4 14 42 15 41 16 2 17 1 18 44 19 29 21 30 22 39 23
REMARK SMILES IDX 31 24 37 25 32 26 35 27 40 28 38 30 33 32 34 33 36 35 14 37
REMARK SMILES IDX 15 38 24 39 16 40 22 41 17 42 20 43 25 44 23 46 18 48 19 49
REMARK SMILES IDX 21 51 11 53
REMARK H PARENT 44 20 40 29 38 31 34 34 36 36 25 45 23 47 19 50 21 52 11 54
REMARK Flexibility Score: inf
ROOT
ATOM      1  C   UNL     1       2.065  43.423   1.433  1.00  0.00     0.402 A 
ATOM      2  C   UNL     1       2.393  44.797   1.423  1.00  0.00     0.229 A 
ATOM      3  C   UNL     1       2.620  45.223   2.771  1.00  0.00     0.079 A 
ATOM      4  C   UNL     1       1.592  44.955   3.687  1.00  0.00     0.126 A 
ATOM      5  C   UNL     1       1.485  45.525   4.988  1.00  0.00     0.143 A 
ATOM      6  C   UNL     1       0.661  44.836   5.926  1.00  0.00     0.094 A 
ATOM      7  C   UNL     1      -0.206  43.806   5.559  1.00  0.00     0.128 A 
ATOM      8  C   UNL     1       0.040  43.163   4.386  1.00  0.00     0.162 A 
ATOM      9  C   UNL     1       0.960  43.661   3.505  1.00  0.00     0.368 A 
ATOM     10  O   UNL     1       1.228  42.993   2.418  1.00  0.00    -0.202 OA
ENDROOT
BRANCH   1  11
ATOM     11  C   UNL     1       3.117  42.333   1.231  1.00  0.00     0.087 A 
ATOM     12  C   UNL     1       5.443  42.137   0.417  1.00  0.00     0.161 A 
ATOM     13  C   UNL     1       5.626  41.044   1.282  1.00  0.00     0.157 A 
ATOM     14  C   UNL     1       4.127  42.655   0.308  1.00  0.00     0.068 A 
ATOM     15  C   UNL     1       4.497  40.416   1.866  1.00  0.00     0.051 A 
ATOM     16  C   UNL     1       3.195  41.012   1.820  1.00  0.00     0.022 A 
BRANCH  12  17
ATOM     17  O   UNL     1       6.541  42.767  -0.150  1.00  0.00    -0.493 OA
ATOM     18  C   UNL     1       6.740  44.187  -0.135  1.00  0.00     0.278 C 
ENDBRANCH  12  17
BRANCH  13  19
ATOM     19  O   UNL     1       6.946  40.657   1.637  1.00  0.00    -0.504 OA
ATOM     20  H   UNL     1       7.740  41.384   1.698  1.00  0.00     0.293 HD
ENDBRANCH  13  19
ENDBRANCH   1  11
BRANCH   2  21
ATOM     21  O   UNL     1       2.376  45.661   0.242  1.00  0.00    -0.452 OA
BRANCH  21  22
ATOM     22  C   UNL     1       1.789  45.165  -1.017  1.00  0.00     0.339 C 
ATOM     23  C   UNL     1       0.344  45.759  -1.243  1.00  0.00     0.214 C 
ATOM     24  O   UNL     1       1.813  43.715  -1.018  1.00  0.00    -0.332 OA
ATOM     25  C   UNL     1      -0.763  44.823  -0.671  1.00  0.00     0.180 C 
ATOM     26  C   UNL     1       0.916  43.123  -1.920  1.00  0.00     0.179 C 
ATOM     27  C   UNL     1      -0.609  43.433  -1.410  1.00  0.00     0.177 C 
BRANCH  23  28
ATOM     28  O   UNL     1       0.231  47.076  -0.724  1.00  0.00    -0.384 OA
ATOM     29  H   UNL     1      -0.726  47.305  -0.813  1.00  0.00     0.211 HD
ENDBRANCH  23  28
BRANCH  25  30
ATOM     30  O   UNL     1      -0.508  44.552   0.734  1.00  0.00    -0.387 OA
ATOM     31  H   UNL     1      -1.317  44.602   1.268  1.00  0.00     0.211 HD
ENDBRANCH  25  30
BRANCH  26  32
ATOM     32  C   UNL     1       1.293  41.580  -2.051  1.00  0.00     0.191 C 
BRANCH  32  33
ATOM     33  O   UNL     1       2.449  41.312  -2.850  1.00  0.00    -0.394 OA
ATOM     34  H   UNL     1       2.859  40.482  -2.481  1.00  0.00     0.210 HD
ENDBRANCH  32  33
ENDBRANCH  26  32
BRANCH  27  35
ATOM     35  O   UNL     1      -1.146  42.444  -0.578  1.00  0.00    -0.387 OA
ATOM     36  H   UNL     1      -1.828  42.865   0.061  1.00  0.00     0.211 HD
ENDBRANCH  27  35
ENDBRANCH  21  22
ENDBRANCH   2  21
BRANCH   5  37
ATOM     37  O   UNL     1       1.981  46.832   5.331  1.00  0.00    -0.461 OA
BRANCH  37  38
ATOM     38  C   UNL     1       3.324  47.021   5.866  1.00  0.00     0.339 C 
ATOM     39  C   UNL     1       4.376  46.362   4.877  1.00  0.00     0.214 C 
ATOM     40  O   UNL     1       3.365  46.383   7.142  1.00  0.00    -0.332 OA
ATOM     41  C   UNL     1       5.836  46.230   5.464  1.00  0.00     0.180 C 
ATOM     42  C   UNL     1       4.676  46.380   7.798  1.00  0.00     0.179 C 
ATOM     43  C   UNL     1       5.908  46.787   6.916  1.00  0.00     0.177 C 
BRANCH  39  44
ATOM     44  O   UNL     1       4.377  47.124   3.656  1.00  0.00    -0.384 OA
ATOM     45  H   UNL     1       5.225  47.653   3.667  1.00  0.00     0.211 HD
ENDBRANCH  39  44
BRANCH  41  46
ATOM     46  O   UNL     1       6.227  44.871   5.427  1.00  0.00    -0.387 OA
ATOM     47  H   UNL     1       5.703  44.419   6.117  1.00  0.00     0.211 HD
ENDBRANCH  41  46
BRANCH  42  48
ATOM     48  C   UNL     1       4.578  47.125   9.228  1.00  0.00     0.191 C 
BRANCH  48  49
ATOM     49  O   UNL     1       5.608  46.734  10.112  1.00  0.00    -0.394 OA
ATOM     50  H   UNL     1       5.375  47.234  10.986  1.00  0.00     0.210 HD
ENDBRANCH  48  49
ENDBRANCH  42  48
BRANCH  43  51
ATOM     51  O   UNL     1       7.077  46.448   7.596  1.00  0.00    -0.387 OA
ATOM     52  H   UNL     1       7.876  46.822   7.094  1.00  0.00     0.211 HD
ENDBRANCH  43  51
ENDBRANCH  37  38
ENDBRANCH   5  37
BRANCH   7  53
ATOM     53  O   UNL     1      -1.208  43.354   6.448  1.00  0.00    -0.507 OA
ATOM     54  H   UNL     1      -1.687  43.981   7.115  1.00  0.00     0.293 HD
ENDBRANCH   7  53
TORSDOF 18
ENDMDL
MODEL 8
REMARK VINA RESULT:    -3.512      2.122      3.843
REMARK INTER + INTRA:          -8.736
REMARK INTER:                  -7.844
REMARK INTRA:                  -0.892
REMARK UNBOUND:                -2.555
REMARK SMILES COc1cc(-c2[o+]c3cc(O)cc(O[C@H]4O[C@H](CO)[C@@H](O)[C@@H](O)[C@@H]4O)c3cc2O[C@H]2O[C@@H](CO)[C@@H](O)[C@@H](O)[C@H]2O)ccc1O
REMARK SMILES IDX 6 1 28 2 27 3 26 4 13 5 12 6 10 7 9 8 8 9 7 10 5 11 3 12
REMARK SMILES IDX 43 13 4 14 42 15 41 16 2 17 1 18 44 19 29 21 30 22 39 23
REMARK SMILES IDX 31 24 37 25 32 26 35 27 40 28 38 30 33 32 34 33 36 35 14 37
REMARK SMILES IDX 15 38 24 39 16 40 22 41 17 42 20 43 25 44 23 46 18 48 19 49
REMARK SMILES IDX 21 51 11 53
REMARK H PARENT 44 20 40 29 38 31 34 34 36 36 25 45 23 47 19 50 21 52 11 54
REMARK Flexibility Score: inf
ROOT
ATOM      1  C   UNL     1      -9.299  28.858   6.658  1.00  0.00     0.402 A 
ATOM      2  C   UNL     1     -10.373  29.510   7.305  1.00  0.00     0.229 A 
ATOM      3  C   UNL     1     -10.508  30.825   6.753  1.00  0.00     0.079 A 
ATOM      4  C   UNL     1      -9.354  31.622   6.761  1.00  0.00     0.126 A 
ATOM      5  C   UNL     1      -9.326  33.026   6.527  1.00  0.00     0.143 A 
ATOM      6  C   UNL     1      -8.074  33.589   6.140  1.00  0.00     0.094 A 
ATOM      7  C   UNL     1      -6.871  32.888   6.222  1.00  0.00     0.128 A 
ATOM      8  C   UNL     1      -6.934  31.530   6.263  1.00  0.00     0.162 A 
ATOM      9  C   UNL     1      -8.135  30.900   6.445  1.00  0.00     0.368 A 
ATOM     10  O   UNL     1      -8.182  29.598   6.414  1.00  0.00    -0.202 OA
ENDROOT
BRANCH   1  11
ATOM     11  C   UNL     1      -9.509  27.951   5.445  1.00  0.00     0.087 A 
ATOM     12  C   UNL     1     -11.329  27.337   3.889  1.00  0.00     0.161 A 
ATOM     13  C   UNL     1     -10.365  27.114   2.891  1.00  0.00     0.157 A 
ATOM     14  C   UNL     1     -10.848  27.604   5.196  1.00  0.00     0.068 A 
ATOM     15  C   UNL     1      -8.998  27.003   3.250  1.00  0.00     0.051 A 
ATOM     16  C   UNL     1      -8.528  27.370   4.552  1.00  0.00     0.022 A 
BRANCH  12  17
ATOM     17  O   UNL     1     -12.667  27.460   3.548  1.00  0.00    -0.493 OA
ATOM     18  C   UNL     1     -13.125  27.976   2.290  1.00  0.00     0.278 C 
ENDBRANCH  12  17
BRANCH  13  19
ATOM     19  O   UNL     1     -10.768  27.110   1.528  1.00  0.00    -0.504 OA
ATOM     20  H   UNL     1     -11.809  27.185   1.258  1.00  0.00     0.293 HD
ENDBRANCH  13  19
ENDBRANCH   1  11
BRANCH   2  21
ATOM     21  O   UNL     1     -11.131  28.972   8.434  1.00  0.00    -0.452 OA
BRANCH  21  22
ATOM     22  C   UNL     1     -10.750  29.339   9.811  1.00  0.00     0.339 C 
ATOM     23  C   UNL     1     -10.104  28.113  10.567  1.00  0.00     0.214 C 
ATOM     24  O   UNL     1     -11.906  29.883  10.498  1.00  0.00    -0.332 OA
ATOM     25  C   UNL     1     -11.166  27.298  11.364  1.00  0.00     0.180 C 
ATOM     26  C   UNL     1     -11.810  29.861  11.897  1.00  0.00     0.179 C 
ATOM     27  C   UNL     1     -11.831  28.300  12.391  1.00  0.00     0.177 C 
BRANCH  23  28
ATOM     28  O   UNL     1      -9.364  27.282   9.684  1.00  0.00    -0.384 OA
ATOM     29  H   UNL     1      -9.528  27.653   8.784  1.00  0.00     0.211 HD
ENDBRANCH  23  28
BRANCH  25  30
ATOM     30  O   UNL     1     -12.237  26.875  10.476  1.00  0.00    -0.387 OA
ATOM     31  H   UNL     1     -12.251  25.913  10.354  1.00  0.00     0.211 HD
ENDBRANCH  25  30
BRANCH  26  32
ATOM     32  C   UNL     1     -12.971  30.781  12.486  1.00  0.00     0.191 C 
BRANCH  32  33
ATOM     33  O   UNL     1     -12.831  32.176  12.202  1.00  0.00    -0.394 OA
ATOM     34  H   UNL     1     -12.409  32.238  11.301  1.00  0.00     0.210 HD
ENDBRANCH  32  33
ENDBRANCH  26  32
BRANCH  27  35
ATOM     35  O   UNL     1     -13.108  27.814  12.697  1.00  0.00    -0.387 OA
ATOM     36  H   UNL     1     -13.415  28.198  13.597  1.00  0.00     0.211 HD
ENDBRANCH  27  35
ENDBRANCH  21  22
ENDBRANCH   2  21
BRANCH   5  37
ATOM     37  O   UNL     1     -10.413  33.912   6.854  1.00  0.00    -0.461 OA
BRANCH  37  38
ATOM     38  C   UNL     1     -10.173  35.291   7.263  1.00  0.00     0.339 C 
ATOM     39  C   UNL     1     -11.496  35.879   7.912  1.00  0.00     0.214 C 
ATOM     40  O   UNL     1      -9.818  36.025   6.091  1.00  0.00    -0.332 OA
ATOM     41  C   UNL     1     -11.480  37.443   8.133  1.00  0.00     0.180 C 
ATOM     42  C   UNL     1      -9.635  37.466   6.287  1.00  0.00     0.179 C 
ATOM     43  C   UNL     1     -10.138  38.063   7.648  1.00  0.00     0.177 C 
BRANCH  39  44
ATOM     44  O   UNL     1     -11.731  35.184   9.151  1.00  0.00    -0.384 OA
ATOM     45  H   UNL     1     -11.506  35.836   9.874  1.00  0.00     0.211 HD
ENDBRANCH  39  44
BRANCH  41  46
ATOM     46  O   UNL     1     -12.576  38.017   7.449  1.00  0.00    -0.387 OA
ATOM     47  H   UNL     1     -13.373  37.555   7.776  1.00  0.00     0.211 HD
ENDBRANCH  41  46
BRANCH  42  48
ATOM     48  C   UNL     1      -8.138  37.894   5.859  1.00  0.00     0.191 C 
BRANCH  48  49
ATOM     49  O   UNL     1      -7.595  38.884   6.709  1.00  0.00    -0.394 OA
ATOM     50  H   UNL     1      -8.424  39.256   7.201  1.00  0.00     0.210 HD
ENDBRANCH  48  49
ENDBRANCH  42  48
BRANCH  43  51
ATOM     51  O   UNL     1     -10.160  39.454   7.546  1.00  0.00    -0.387 OA
ATOM     52  H   UNL     1     -10.585  39.718   6.663  1.00  0.00     0.211 HD
ENDBRANCH  43  51
ENDBRANCH  37  38
ENDBRANCH   5  37
BRANCH   7  53
ATOM     53  O   UNL     1      -5.633  33.563   6.115  1.00  0.00    -0.507 OA
ATOM     54  H   UNL     1      -5.412  34.413   6.657  1.00  0.00     0.293 HD
ENDBRANCH   7  53
TORSDOF 18
ENDMDL
