MODEL 1
REMARK VINA RESULT:    -8.931      0.000      0.000
REMARK INTER + INTRA:         -10.763
REMARK INTER:                 -10.498
REMARK INTRA:                  -0.265
REMARK UNBOUND:                -0.265
REMARK SMILES O=c1cc(-c2ccc(O)c(O)c2)oc2cc(O)cc(O)c12
REMARK SMILES IDX 4 1 3 2 2 3 1 4 21 5 19 6 18 7 16 8 15 9 14 10 13 11 5 12
REMARK SMILES IDX 6 13 7 14 8 15 12 16 10 17 9 18 11 20 20 22 17 24
REMARK H PARENT 9 19 11 21 20 23 17 25
REMARK Flexibility Score: inf
ROOT
ATOM      1  C   UNL     1      10.019 -46.212  35.654  1.00  0.00     0.138 A 
ATOM      2  C   UNL     1       9.183 -46.708  36.663  1.00  0.00     0.100 A 
ATOM      3  C   UNL     1       9.730 -47.083  37.891  1.00  0.00     0.197 A 
ATOM      4  O   UNL     1       8.963 -47.577  38.757  1.00  0.00    -0.289 OA
ATOM      5  C   UNL     1      11.119 -46.926  38.120  1.00  0.00     0.107 A 
ATOM      6  C   UNL     1      11.784 -47.242  39.344  1.00  0.00     0.134 A 
ATOM      7  C   UNL     1      13.179 -47.138  39.418  1.00  0.00     0.093 A 
ATOM      8  C   UNL     1      13.926 -46.673  38.334  1.00  0.00     0.123 A 
ATOM      9  C   UNL     1      13.282 -46.314  37.152  1.00  0.00     0.094 A 
ATOM     10  C   UNL     1      11.895 -46.440  37.034  1.00  0.00     0.146 A 
ATOM     11  O   UNL     1      11.324 -46.104  35.883  1.00  0.00    -0.456 OA
ENDROOT
BRANCH   1  12
ATOM     12  C   UNL     1       9.489 -45.795  34.330  1.00  0.00     0.021 A 
ATOM     13  C   UNL     1       9.514 -44.454  33.912  1.00  0.00     0.016 A 
ATOM     14  C   UNL     1       8.998 -44.091  32.666  1.00  0.00     0.051 A 
ATOM     15  C   UNL     1       8.442 -45.052  31.816  1.00  0.00     0.157 A 
ATOM     16  C   UNL     1       8.917 -46.758  33.482  1.00  0.00     0.062 A 
ATOM     17  C   UNL     1       8.398 -46.404  32.230  1.00  0.00     0.158 A 
BRANCH  15  18
ATOM     18  O   UNL     1       7.946 -44.623  30.582  1.00  0.00    -0.504 OA
ATOM     19  H   UNL     1       8.244 -44.996  29.693  1.00  0.00     0.293 HD
ENDBRANCH  15  18
BRANCH  17  20
ATOM     20  O   UNL     1       7.853 -47.417  31.439  1.00  0.00    -0.504 OA
ATOM     21  H   UNL     1       8.095 -47.570  30.471  1.00  0.00     0.293 HD
ENDBRANCH  17  20
ENDBRANCH   1  12
BRANCH   6  22
ATOM     22  O   UNL     1      11.127 -47.638  40.513  1.00  0.00    -0.507 OA
ATOM     23  H   UNL     1      10.131 -47.593  40.661  1.00  0.00     0.293 HD
ENDBRANCH   6  22
BRANCH   8  24
ATOM     24  O   UNL     1      15.311 -46.557  38.422  1.00  0.00    -0.508 OA
ATOM     25  H   UNL     1      15.885 -47.315  38.776  1.00  0.00     0.293 HD
ENDBRANCH   8  24
TORSDOF 5
ENDMDL
MODEL 2
REMARK VINA RESULT:    -8.779      1.593      7.376
REMARK INTER + INTRA:         -10.584
REMARK INTER:                 -10.295
REMARK INTRA:                  -0.289
REMARK UNBOUND:                -0.265
REMARK SMILES O=c1cc(-c2ccc(O)c(O)c2)oc2cc(O)cc(O)c12
REMARK SMILES IDX 4 1 3 2 2 3 1 4 21 5 19 6 18 7 16 8 15 9 14 10 13 11 5 12
REMARK SMILES IDX 6 13 7 14 8 15 12 16 10 17 9 18 11 20 20 22 17 24
REMARK H PARENT 9 19 11 21 20 23 17 25
REMARK Flexibility Score: inf
ROOT
ATOM      1  C   UNL     1      10.229 -46.247  35.863  1.00  0.00     0.138 A 
ATOM      2  C   UNL     1      10.793 -45.369  34.927  1.00  0.00     0.100 A 
ATOM      3  C   UNL     1      10.119 -45.105  33.734  1.00  0.00     0.197 A 
ATOM      4  O   UNL     1      10.677 -44.357  32.891  1.00  0.00    -0.289 OA
ATOM      5  C   UNL     1       8.855 -45.698  33.494  1.00  0.00     0.107 A 
ATOM      6  C   UNL     1       8.060 -45.475  32.329  1.00  0.00     0.134 A 
ATOM      7  C   UNL     1       6.871 -46.195  32.158  1.00  0.00     0.093 A 
ATOM      8  C   UNL     1       6.419 -47.085  33.136  1.00  0.00     0.123 A 
ATOM      9  C   UNL     1       7.163 -47.270  34.299  1.00  0.00     0.094 A 
ATOM     10  C   UNL     1       8.371 -46.593  34.484  1.00  0.00     0.146 A 
ATOM     11  O   UNL     1       9.057 -46.814  35.600  1.00  0.00    -0.456 OA
ENDROOT
BRANCH   1  12
ATOM     12  C   UNL     1      10.903 -46.560  37.150  1.00  0.00     0.021 A 
ATOM     13  C   UNL     1      10.180 -46.976  38.280  1.00  0.00     0.016 A 
ATOM     14  C   UNL     1      10.840 -47.253  39.480  1.00  0.00     0.051 A 
ATOM     15  C   UNL     1      12.228 -47.115  39.580  1.00  0.00     0.157 A 
ATOM     16  C   UNL     1      12.295 -46.407  37.256  1.00  0.00     0.062 A 
ATOM     17  C   UNL     1      12.966 -46.684  38.454  1.00  0.00     0.158 A 
BRANCH  15  18
ATOM     18  O   UNL     1      12.826 -47.411  40.807  1.00  0.00    -0.504 OA
ATOM     19  H   UNL     1      12.324 -47.475  41.680  1.00  0.00     0.293 HD
ENDBRANCH  15  18
BRANCH  17  20
ATOM     20  O   UNL     1      14.352 -46.517  38.479  1.00  0.00    -0.504 OA
ATOM     21  H   UNL     1      14.948 -46.617  37.671  1.00  0.00     0.293 HD
ENDBRANCH  17  20
ENDBRANCH   1  12
BRANCH   6  22
ATOM     22  O   UNL     1       8.377 -44.551  31.328  1.00  0.00    -0.507 OA
ATOM     23  H   UNL     1       9.270 -44.480  30.867  1.00  0.00     0.293 HD
ENDBRANCH   6  22
BRANCH   8  24
ATOM     24  O   UNL     1       5.227 -47.784  32.965  1.00  0.00    -0.508 OA
ATOM     25  H   UNL     1       5.164 -48.579  32.339  1.00  0.00     0.293 HD
ENDBRANCH   8  24
TORSDOF 5
ENDMDL
MODEL 3
REMARK VINA RESULT:    -8.590      0.668      1.500
REMARK INTER + INTRA:         -10.361
REMARK INTER:                 -10.090
REMARK INTRA:                  -0.271
REMARK UNBOUND:                -0.265
REMARK SMILES O=c1cc(-c2ccc(O)c(O)c2)oc2cc(O)cc(O)c12
REMARK SMILES IDX 4 1 3 2 2 3 1 4 21 5 19 6 18 7 16 8 15 9 14 10 13 11 5 12
REMARK SMILES IDX 6 13 7 14 8 15 12 16 10 17 9 18 11 20 20 22 17 24
REMARK H PARENT 9 19 11 21 20 23 17 25
REMARK Flexibility Score: inf
ROOT
ATOM      1  C   UNL     1       9.727 -46.382  35.619  1.00  0.00     0.138 A 
ATOM      2  C   UNL     1       8.967 -46.937  36.657  1.00  0.00     0.100 A 
ATOM      3  C   UNL     1       9.580 -47.247  37.873  1.00  0.00     0.197 A 
ATOM      4  O   UNL     1       8.884 -47.796  38.765  1.00  0.00    -0.289 OA
ATOM      5  C   UNL     1      10.955 -46.964  38.059  1.00  0.00     0.107 A 
ATOM      6  C   UNL     1      11.679 -47.205  39.267  1.00  0.00     0.134 A 
ATOM      7  C   UNL     1      13.061 -46.976  39.299  1.00  0.00     0.093 A 
ATOM      8  C   UNL     1      13.733 -46.460  38.188  1.00  0.00     0.123 A 
ATOM      9  C   UNL     1      13.026 -46.175  37.023  1.00  0.00     0.094 A 
ATOM     10  C   UNL     1      11.654 -46.425  36.946  1.00  0.00     0.146 A 
ATOM     11  O   UNL     1      11.023 -46.155  35.809  1.00  0.00    -0.456 OA
ENDROOT
BRANCH   1  12
ATOM     12  C   UNL     1       9.125 -46.031  34.307  1.00  0.00     0.021 A 
ATOM     13  C   UNL     1       8.666 -47.016  33.416  1.00  0.00     0.016 A 
ATOM     14  C   UNL     1       8.115 -46.655  32.185  1.00  0.00     0.051 A 
ATOM     15  C   UNL     1       8.014 -45.311  31.814  1.00  0.00     0.157 A 
ATOM     16  C   UNL     1       9.036 -44.681  33.927  1.00  0.00     0.062 A 
ATOM     17  C   UNL     1       8.483 -44.309  32.695  1.00  0.00     0.158 A 
BRANCH  15  18
ATOM     18  O   UNL     1       7.449 -45.017  30.570  1.00  0.00    -0.504 OA
ATOM     19  H   UNL     1       6.649 -44.415  30.441  1.00  0.00     0.293 HD
ENDBRANCH  15  18
BRANCH  17  20
ATOM     20  O   UNL     1       8.421 -42.948  32.391  1.00  0.00    -0.504 OA
ATOM     21  H   UNL     1       9.205 -42.408  32.053  1.00  0.00     0.293 HD
ENDBRANCH  17  20
ENDBRANCH   1  12
BRANCH   6  22
ATOM     22  O   UNL     1      11.093 -47.643  40.458  1.00  0.00    -0.507 OA
ATOM     23  H   UNL     1      11.363 -47.341  41.381  1.00  0.00     0.293 HD
ENDBRANCH   6  22
BRANCH   8  24
ATOM     24  O   UNL     1      15.104 -46.221  38.235  1.00  0.00    -0.508 OA
ATOM     25  H   UNL     1      15.652 -46.438  39.060  1.00  0.00     0.293 HD
ENDBRANCH   8  24
TORSDOF 5
ENDMDL
MODEL 4
REMARK VINA RESULT:    -8.356      1.379      6.806
REMARK INTER + INTRA:         -10.087
REMARK INTER:                  -9.792
REMARK INTRA:                  -0.295
REMARK UNBOUND:                -0.265
REMARK SMILES O=c1cc(-c2ccc(O)c(O)c2)oc2cc(O)cc(O)c12
REMARK SMILES IDX 4 1 3 2 2 3 1 4 21 5 19 6 18 7 16 8 15 9 14 10 13 11 5 12
REMARK SMILES IDX 6 13 7 14 8 15 12 16 10 17 9 18 11 20 20 22 17 24
REMARK H PARENT 9 19 11 21 20 23 17 25
REMARK Flexibility Score: inf
ROOT
ATOM      1  C   UNL     1      10.541 -46.512  36.021  1.00  0.00     0.138 A 
ATOM      2  C   UNL     1       9.359 -47.029  36.568  1.00  0.00     0.100 A 
ATOM      3  C   UNL     1       8.189 -47.031  35.806  1.00  0.00     0.197 A 
ATOM      4  O   UNL     1       7.132 -47.450  36.344  1.00  0.00    -0.289 OA
ATOM      5  C   UNL     1       8.214 -46.545  34.476  1.00  0.00     0.107 A 
ATOM      6  C   UNL     1       7.091 -46.529  33.594  1.00  0.00     0.134 A 
ATOM      7  C   UNL     1       7.214 -45.931  32.333  1.00  0.00     0.093 A 
ATOM      8  C   UNL     1       8.432 -45.402  31.900  1.00  0.00     0.123 A 
ATOM      9  C   UNL     1       9.546 -45.459  32.735  1.00  0.00     0.094 A 
ATOM     10  C   UNL     1       9.448 -46.016  34.012  1.00  0.00     0.146 A 
ATOM     11  O   UNL     1      10.531 -46.032  34.781  1.00  0.00    -0.456 OA
ENDROOT
BRANCH   1  12
ATOM     12  C   UNL     1      11.815 -46.488  36.786  1.00  0.00     0.021 A 
ATOM     13  C   UNL     1      13.013 -46.028  36.214  1.00  0.00     0.016 A 
ATOM     14  C   UNL     1      14.196 -46.028  36.955  1.00  0.00     0.051 A 
ATOM     15  C   UNL     1      14.214 -46.491  38.274  1.00  0.00     0.157 A 
ATOM     16  C   UNL     1      11.835 -46.966  38.107  1.00  0.00     0.062 A 
ATOM     17  C   UNL     1      13.017 -46.969  38.858  1.00  0.00     0.158 A 
BRANCH  15  18
ATOM     18  O   UNL     1      15.430 -46.461  38.961  1.00  0.00    -0.504 OA
ATOM     19  H   UNL     1      16.257 -46.958  38.666  1.00  0.00     0.293 HD
ENDBRANCH  15  18
BRANCH  17  20
ATOM     20  O   UNL     1      12.958 -47.451  40.167  1.00  0.00    -0.504 OA
ATOM     21  H   UNL     1      12.865 -48.427  40.406  1.00  0.00     0.293 HD
ENDBRANCH  17  20
ENDBRANCH   1  12
BRANCH   6  22
ATOM     22  O   UNL     1       5.851 -47.101  33.894  1.00  0.00    -0.507 OA
ATOM     23  H   UNL     1       5.669 -48.090  33.955  1.00  0.00     0.293 HD
ENDBRANCH   6  22
BRANCH   8  24
ATOM     24  O   UNL     1       8.548 -44.824  30.639  1.00  0.00    -0.508 OA
ATOM     25  H   UNL     1       7.745 -44.713  30.031  1.00  0.00     0.293 HD
ENDBRANCH   8  24
TORSDOF 5
ENDMDL
MODEL 5
REMARK VINA RESULT:    -8.196      1.545      7.158
REMARK INTER + INTRA:          -9.899
REMARK INTER:                  -9.623
REMARK INTRA:                  -0.276
REMARK UNBOUND:                -0.265
REMARK SMILES O=c1cc(-c2ccc(O)c(O)c2)oc2cc(O)cc(O)c12
REMARK SMILES IDX 4 1 3 2 2 3 1 4 21 5 19 6 18 7 16 8 15 9 14 10 13 11 5 12
REMARK SMILES IDX 6 13 7 14 8 15 12 16 10 17 9 18 11 20 20 22 17 24
REMARK H PARENT 9 19 11 21 20 23 17 25
REMARK Flexibility Score: inf
ROOT
ATOM      1  C   UNL     1       9.499 -46.663  35.573  1.00  0.00     0.138 A 
ATOM      2  C   UNL     1       8.974 -47.814  34.970  1.00  0.00     0.100 A 
ATOM      3  C   UNL     1       8.264 -47.704  33.774  1.00  0.00     0.197 A 
ATOM      4  O   UNL     1       7.758 -48.748  33.287  1.00  0.00    -0.289 OA
ATOM      5  C   UNL     1       8.111 -46.437  33.160  1.00  0.00     0.107 A 
ATOM      6  C   UNL     1       7.436 -46.208  31.922  1.00  0.00     0.134 A 
ATOM      7  C   UNL     1       7.262 -44.896  31.464  1.00  0.00     0.093 A 
ATOM      8  C   UNL     1       7.789 -43.810  32.168  1.00  0.00     0.123 A 
ATOM      9  C   UNL     1       8.492 -44.028  33.351  1.00  0.00     0.094 A 
ATOM     10  C   UNL     1       8.653 -45.322  33.853  1.00  0.00     0.146 A 
ATOM     11  O   UNL     1       9.314 -45.482  34.993  1.00  0.00    -0.456 OA
ENDROOT
BRANCH   1  12
ATOM     12  C   UNL     1      10.265 -46.723  36.845  1.00  0.00     0.021 A 
ATOM     13  C   UNL     1       9.677 -47.163  38.042  1.00  0.00     0.016 A 
ATOM     14  C   UNL     1      10.420 -47.198  39.224  1.00  0.00     0.051 A 
ATOM     15  C   UNL     1      11.758 -46.791  39.240  1.00  0.00     0.157 A 
ATOM     16  C   UNL     1      11.605 -46.301  36.864  1.00  0.00     0.062 A 
ATOM     17  C   UNL     1      12.358 -46.334  38.044  1.00  0.00     0.158 A 
BRANCH  15  18
ATOM     18  O   UNL     1      12.446 -46.854  40.455  1.00  0.00    -0.504 OA
ATOM     19  H   UNL     1      12.622 -46.055  41.046  1.00  0.00     0.293 HD
ENDBRANCH  15  18
BRANCH  17  20
ATOM     20  O   UNL     1      13.686 -45.906  37.983  1.00  0.00    -0.504 OA
ATOM     21  H   UNL     1      14.140 -45.590  37.139  1.00  0.00     0.293 HD
ENDBRANCH  17  20
ENDBRANCH   1  12
BRANCH   6  22
ATOM     22  O   UNL     1       6.942 -47.225  31.099  1.00  0.00    -0.507 OA
ATOM     23  H   UNL     1       6.484 -48.062  31.424  1.00  0.00     0.293 HD
ENDBRANCH   6  22
BRANCH   8  24
ATOM     24  O   UNL     1       7.625 -42.510  31.697  1.00  0.00    -0.508 OA
ATOM     25  H   UNL     1       8.103 -41.726  32.126  1.00  0.00     0.293 HD
ENDBRANCH   8  24
TORSDOF 5
ENDMDL
MODEL 6
REMARK VINA RESULT:    -8.196      3.950      5.775
REMARK INTER + INTRA:          -9.898
REMARK INTER:                  -9.599
REMARK INTRA:                  -0.299
REMARK UNBOUND:                -0.265
REMARK SMILES O=c1cc(-c2ccc(O)c(O)c2)oc2cc(O)cc(O)c12
REMARK SMILES IDX 4 1 3 2 2 3 1 4 21 5 19 6 18 7 16 8 15 9 14 10 13 11 5 12
REMARK SMILES IDX 6 13 7 14 8 15 12 16 10 17 9 18 11 20 20 22 17 24
REMARK H PARENT 9 19 11 21 20 23 17 25
REMARK Flexibility Score: inf
ROOT
ATOM      1  C   UNL     1       7.479 -48.713  36.084  1.00  0.00     0.138 A 
ATOM      2  C   UNL     1       7.946 -48.168  34.880  1.00  0.00     0.100 A 
ATOM      3  C   UNL     1       9.041 -47.302  34.893  1.00  0.00     0.197 A 
ATOM      4  O   UNL     1       9.401 -46.786  33.803  1.00  0.00    -0.289 OA
ATOM      5  C   UNL     1       9.693 -47.009  36.115  1.00  0.00     0.107 A 
ATOM      6  C   UNL     1      10.840 -46.168  36.245  1.00  0.00     0.134 A 
ATOM      7  C   UNL     1      11.337 -45.873  37.521  1.00  0.00     0.093 A 
ATOM      8  C   UNL     1      10.767 -46.436  38.666  1.00  0.00     0.123 A 
ATOM      9  C   UNL     1       9.680 -47.298  38.545  1.00  0.00     0.094 A 
ATOM     10  C   UNL     1       9.138 -47.585  37.289  1.00  0.00     0.146 A 
ATOM     11  O   UNL     1       8.090 -48.397  37.222  1.00  0.00    -0.456 OA
ENDROOT
BRANCH   1  12
ATOM     12  C   UNL     1       6.321 -49.641  36.128  1.00  0.00     0.021 A 
ATOM     13  C   UNL     1       6.110 -50.608  35.131  1.00  0.00     0.016 A 
ATOM     14  C   UNL     1       5.005 -51.460  35.193  1.00  0.00     0.051 A 
ATOM     15  C   UNL     1       4.086 -51.363  36.243  1.00  0.00     0.157 A 
ATOM     16  C   UNL     1       5.389 -49.534  37.174  1.00  0.00     0.062 A 
ATOM     17  C   UNL     1       4.279 -50.385  37.246  1.00  0.00     0.158 A 
BRANCH  15  18
ATOM     18  O   UNL     1       3.005 -52.248  36.248  1.00  0.00    -0.504 OA
ATOM     19  H   UNL     1       2.172 -52.125  35.691  1.00  0.00     0.293 HD
ENDBRANCH  15  18
BRANCH  17  20
ATOM     20  O   UNL     1       3.402 -50.225  38.320  1.00  0.00    -0.504 OA
ATOM     21  H   UNL     1       2.770 -49.444  38.422  1.00  0.00     0.293 HD
ENDBRANCH  17  20
ENDBRANCH   1  12
BRANCH   6  22
ATOM     22  O   UNL     1      11.535 -45.618  35.164  1.00  0.00    -0.507 OA
ATOM     23  H   UNL     1      12.323 -44.994  35.239  1.00  0.00     0.293 HD
ENDBRANCH   6  22
BRANCH   8  24
ATOM     24  O   UNL     1      11.279 -46.150  39.929  1.00  0.00    -0.508 OA
ATOM     25  H   UNL     1      10.773 -45.568  40.587  1.00  0.00     0.293 HD
ENDBRANCH   8  24
TORSDOF 5
ENDMDL
MODEL 7
REMARK VINA RESULT:    -8.170      3.805      7.095
REMARK INTER + INTRA:          -9.868
REMARK INTER:                  -9.573
REMARK INTRA:                  -0.295
REMARK UNBOUND:                -0.265
REMARK SMILES O=c1cc(-c2ccc(O)c(O)c2)oc2cc(O)cc(O)c12
REMARK SMILES IDX 4 1 3 2 2 3 1 4 21 5 19 6 18 7 16 8 15 9 14 10 13 11 5 12
REMARK SMILES IDX 6 13 7 14 8 15 12 16 10 17 9 18 11 20 20 22 17 24
REMARK H PARENT 9 19 11 21 20 23 17 25
REMARK Flexibility Score: inf
ROOT
ATOM      1  C   UNL     1       7.617 -48.853  34.870  1.00  0.00     0.138 A 
ATOM      2  C   UNL     1       8.648 -48.324  35.659  1.00  0.00     0.100 A 
ATOM      3  C   UNL     1       9.328 -47.183  35.233  1.00  0.00     0.197 A 
ATOM      4  O   UNL     1      10.284 -46.765  35.935  1.00  0.00    -0.289 OA
ATOM      5  C   UNL     1       8.948 -46.547  34.026  1.00  0.00     0.107 A 
ATOM      6  C   UNL     1       9.546 -45.358  33.508  1.00  0.00     0.134 A 
ATOM      7  C   UNL     1       9.152 -44.878  32.253  1.00  0.00     0.093 A 
ATOM      8  C   UNL     1       8.141 -45.509  31.524  1.00  0.00     0.123 A 
ATOM      9  C   UNL     1       7.516 -46.639  32.044  1.00  0.00     0.094 A 
ATOM     10  C   UNL     1       7.910 -47.164  33.277  1.00  0.00     0.146 A 
ATOM     11  O   UNL     1       7.301 -48.255  33.726  1.00  0.00    -0.456 OA
ENDROOT
BRANCH   1  12
ATOM     12  C   UNL     1       6.859 -50.063  35.278  1.00  0.00     0.021 A 
ATOM     13  C   UNL     1       5.762 -50.534  34.537  1.00  0.00     0.016 A 
ATOM     14  C   UNL     1       5.062 -51.669  34.952  1.00  0.00     0.051 A 
ATOM     15  C   UNL     1       5.433 -52.353  36.113  1.00  0.00     0.157 A 
ATOM     16  C   UNL     1       7.223 -50.743  36.453  1.00  0.00     0.062 A 
ATOM     17  C   UNL     1       6.527 -51.882  36.876  1.00  0.00     0.158 A 
BRANCH  15  18
ATOM     18  O   UNL     1       4.694 -53.483  36.471  1.00  0.00    -0.504 OA
ATOM     19  H   UNL     1       4.109 -53.538  37.292  1.00  0.00     0.293 HD
ENDBRANCH  15  18
BRANCH  17  20
ATOM     20  O   UNL     1       6.954 -52.509  38.049  1.00  0.00    -0.504 OA
ATOM     21  H   UNL     1       7.604 -52.100  38.704  1.00  0.00     0.293 HD
ENDBRANCH  17  20
ENDBRANCH   1  12
BRANCH   6  22
ATOM     22  O   UNL     1      10.507 -44.604  34.189  1.00  0.00    -0.507 OA
ATOM     23  H   UNL     1      10.318 -43.986  34.962  1.00  0.00     0.293 HD
ENDBRANCH   6  22
BRANCH   8  24
ATOM     24  O   UNL     1       7.744 -45.014  30.284  1.00  0.00    -0.508 OA
ATOM     25  H   UNL     1       8.226 -44.238  29.844  1.00  0.00     0.293 HD
ENDBRANCH   8  24
TORSDOF 5
ENDMDL
MODEL 8
REMARK VINA RESULT:    -8.076      4.330      7.381
REMARK INTER + INTRA:          -9.758
REMARK INTER:                  -9.465
REMARK INTRA:                  -0.293
REMARK UNBOUND:                -0.265
REMARK SMILES O=c1cc(-c2ccc(O)c(O)c2)oc2cc(O)cc(O)c12
REMARK SMILES IDX 4 1 3 2 2 3 1 4 21 5 19 6 18 7 16 8 15 9 14 10 13 11 5 12
REMARK SMILES IDX 6 13 7 14 8 15 12 16 10 17 9 18 11 20 20 22 17 24
REMARK H PARENT 9 19 11 21 20 23 17 25
REMARK Flexibility Score: inf
ROOT
ATOM      1  C   UNL     1       6.816 -48.101  34.264  1.00  0.00     0.138 A 
ATOM      2  C   UNL     1       5.947 -48.067  33.165  1.00  0.00     0.100 A 
ATOM      3  C   UNL     1       6.036 -47.020  32.246  1.00  0.00     0.197 A 
ATOM      4  O   UNL     1       5.205 -46.987  31.302  1.00  0.00    -0.289 OA
ATOM      5  C   UNL     1       7.025 -46.020  32.412  1.00  0.00     0.107 A 
ATOM      6  C   UNL     1       7.233 -44.924  31.521  1.00  0.00     0.134 A 
ATOM      7  C   UNL     1       8.179 -43.943  31.843  1.00  0.00     0.093 A 
ATOM      8  C   UNL     1       8.966 -44.049  32.992  1.00  0.00     0.123 A 
ATOM      9  C   UNL     1       8.807 -45.142  33.841  1.00  0.00     0.094 A 
ATOM     10  C   UNL     1       7.847 -46.119  33.567  1.00  0.00     0.146 A 
ATOM     11  O   UNL     1       7.715 -47.134  34.413  1.00  0.00    -0.456 OA
ENDROOT
BRANCH   1  12
ATOM     12  C   UNL     1       6.767 -49.194  35.269  1.00  0.00     0.021 A 
ATOM     13  C   UNL     1       7.437 -49.097  36.500  1.00  0.00     0.016 A 
ATOM     14  C   UNL     1       7.382 -50.146  37.420  1.00  0.00     0.051 A 
ATOM     15  C   UNL     1       6.665 -51.312  37.133  1.00  0.00     0.157 A 
ATOM     16  C   UNL     1       6.060 -50.371  34.975  1.00  0.00     0.062 A 
ATOM     17  C   UNL     1       5.997 -51.428  35.892  1.00  0.00     0.158 A 
BRANCH  15  18
ATOM     18  O   UNL     1       6.647 -52.322  38.098  1.00  0.00    -0.504 OA
ATOM     19  H   UNL     1       7.274 -53.112  38.100  1.00  0.00     0.293 HD
ENDBRANCH  15  18
BRANCH  17  20
ATOM     20  O   UNL     1       5.267 -52.563  35.532  1.00  0.00    -0.504 OA
ATOM     21  H   UNL     1       4.283 -52.554  35.310  1.00  0.00     0.293 HD
ENDBRANCH  17  20
ENDBRANCH   1  12
BRANCH   6  22
ATOM     22  O   UNL     1       6.558 -44.763  30.307  1.00  0.00    -0.507 OA
ATOM     23  H   UNL     1       5.593 -44.490  30.212  1.00  0.00     0.293 HD
ENDBRANCH   6  22
BRANCH   8  24
ATOM     24  O   UNL     1       9.916 -43.077  33.296  1.00  0.00    -0.508 OA
ATOM     25  H   UNL     1      10.369 -42.534  32.570  1.00  0.00     0.293 HD
ENDBRANCH   8  24
TORSDOF 5
ENDMDL
MODEL 9
REMARK VINA RESULT:    -7.931      4.582      8.207
REMARK INTER + INTRA:          -9.587
REMARK INTER:                  -9.270
REMARK INTRA:                  -0.317
REMARK UNBOUND:                -0.265
REMARK SMILES O=c1cc(-c2ccc(O)c(O)c2)oc2cc(O)cc(O)c12
REMARK SMILES IDX 4 1 3 2 2 3 1 4 21 5 19 6 18 7 16 8 15 9 14 10 13 11 5 12
REMARK SMILES IDX 6 13 7 14 8 15 12 16 10 17 9 18 11 20 20 22 17 24
REMARK H PARENT 9 19 11 21 20 23 17 25
REMARK Flexibility Score: inf
ROOT
ATOM      1  C   UNL     1       6.858 -48.065  34.167  1.00  0.00     0.138 A 
ATOM      2  C   UNL     1       7.982 -47.233  34.259  1.00  0.00     0.100 A 
ATOM      3  C   UNL     1       8.065 -46.093  33.460  1.00  0.00     0.197 A 
ATOM      4  O   UNL     1       9.112 -45.397  33.525  1.00  0.00    -0.289 OA
ATOM      5  C   UNL     1       6.998 -45.765  32.588  1.00  0.00     0.107 A 
ATOM      6  C   UNL     1       6.956 -44.609  31.751  1.00  0.00     0.134 A 
ATOM      7  C   UNL     1       5.890 -44.443  30.857  1.00  0.00     0.093 A 
ATOM      8  C   UNL     1       4.837 -45.359  30.813  1.00  0.00     0.123 A 
ATOM      9  C   UNL     1       4.844 -46.463  31.662  1.00  0.00     0.094 A 
ATOM     10  C   UNL     1       5.909 -46.676  32.540  1.00  0.00     0.146 A 
ATOM     11  O   UNL     1       5.884 -47.752  33.319  1.00  0.00    -0.456 OA
ENDROOT
BRANCH   1  12
ATOM     12  C   UNL     1       6.717 -49.289  34.997  1.00  0.00     0.021 A 
ATOM     13  C   UNL     1       7.588 -49.562  36.065  1.00  0.00     0.016 A 
ATOM     14  C   UNL     1       7.437 -50.727  36.821  1.00  0.00     0.051 A 
ATOM     15  C   UNL     1       6.424 -51.644  36.526  1.00  0.00     0.157 A 
ATOM     16  C   UNL     1       5.708 -50.218  34.692  1.00  0.00     0.062 A 
ATOM     17  C   UNL     1       5.549 -51.388  35.445  1.00  0.00     0.158 A 
BRANCH  15  18
ATOM     18  O   UNL     1       6.326 -52.788  37.322  1.00  0.00    -0.504 OA
ATOM     19  H   UNL     1       5.894 -52.806  38.234  1.00  0.00     0.293 HD
ENDBRANCH  15  18
BRANCH  17  20
ATOM     20  O   UNL     1       4.518 -52.259  35.087  1.00  0.00    -0.504 OA
ATOM     21  H   UNL     1       4.547 -53.258  35.228  1.00  0.00     0.293 HD
ENDBRANCH  17  20
ENDBRANCH   1  12
BRANCH   6  22
ATOM     22  O   UNL     1       7.915 -43.591  31.771  1.00  0.00    -0.507 OA
ATOM     23  H   UNL     1       8.851 -43.670  31.407  1.00  0.00     0.293 HD
ENDBRANCH   6  22
BRANCH   8  24
ATOM     24  O   UNL     1       3.773 -45.177  29.933  1.00  0.00    -0.508 OA
ATOM     25  H   UNL     1       3.078 -44.455  30.083  1.00  0.00     0.293 HD
ENDBRANCH   8  24
TORSDOF 5
ENDMDL
