MODEL 1
REMARK VINA RESULT:    -4.104      0.000      0.000
REMARK INTER + INTRA:          -4.488
REMARK INTER:                  -4.344
REMARK INTRA:                  -0.145
REMARK UNBOUND:                -0.145
REMARK SMILES CC1=CC[C@@H](C(C)C)C=C1
REMARK SMILES IDX 1 1 2 2 3 3 4 4 5 5 9 6 10 7 6 8 7 9 8 10
REMARK H PARENT
REMARK Flexibility Score: inf
ROOT
ATOM      1  C   UNL     1      30.705   6.119  37.050  1.00  0.00     0.044 C 
ATOM      2  C   UNL     1      31.096   7.097  35.983  1.00  0.00    -0.055 C 
ATOM      3  C   UNL     1      31.151   8.411  36.256  1.00  0.00    -0.023 C 
ATOM      4  C   UNL     1      31.686   9.386  35.239  1.00  0.00     0.035 C 
ATOM      5  C   UNL     1      31.332   8.933  33.802  1.00  0.00     0.018 C 
ATOM      6  C   UNL     1      31.646   7.461  33.623  1.00  0.00    -0.023 C 
ATOM      7  C   UNL     1      31.484   6.607  34.641  1.00  0.00    -0.001 C 
ENDROOT
BRANCH   5   8
ATOM      8  C   UNL     1      31.984   9.846  32.721  1.00  0.00    -0.010 C 
ATOM      9  C   UNL     1      30.978  10.752  31.989  1.00  0.00     0.008 C 
ATOM     10  C   UNL     1      33.120  10.692  33.317  1.00  0.00     0.008 C 
ENDBRANCH   5   8
TORSDOF 1
ENDMDL
MODEL 2
REMARK VINA RESULT:    -4.059      1.277      4.566
REMARK INTER + INTRA:          -4.441
REMARK INTER:                  -4.251
REMARK INTRA:                  -0.190
REMARK UNBOUND:                -0.145
REMARK SMILES CC1=CC[C@@H](C(C)C)C=C1
REMARK SMILES IDX 1 1 2 2 3 3 4 4 5 5 9 6 10 7 6 8 7 9 8 10
REMARK H PARENT
REMARK Flexibility Score: inf
ROOT
ATOM      1  C   UNL     1      31.822  12.243  31.489  1.00  0.00     0.044 C 
ATOM      2  C   UNL     1      31.646  10.883  32.093  1.00  0.00    -0.055 C 
ATOM      3  C   UNL     1      32.126  10.619  33.320  1.00  0.00    -0.023 C 
ATOM      4  C   UNL     1      31.826   9.307  33.998  1.00  0.00     0.035 C 
ATOM      5  C   UNL     1      31.741   8.159  32.964  1.00  0.00     0.018 C 
ATOM      6  C   UNL     1      30.881   8.575  31.787  1.00  0.00    -0.023 C 
ATOM      7  C   UNL     1      30.885   9.844  31.362  1.00  0.00    -0.001 C 
ENDROOT
BRANCH   5   8
ATOM      8  C   UNL     1      31.300   6.813  33.614  1.00  0.00    -0.010 C 
ATOM      9  C   UNL     1      31.248   6.858  35.152  1.00  0.00     0.008 C 
ATOM     10  C   UNL     1      29.951   6.338  33.053  1.00  0.00     0.008 C 
ENDBRANCH   5   8
TORSDOF 1
ENDMDL
MODEL 3
REMARK VINA RESULT:    -4.059      2.115      4.121
REMARK INTER + INTRA:          -4.441
REMARK INTER:                  -4.272
REMARK INTRA:                  -0.168
REMARK UNBOUND:                -0.145
REMARK SMILES CC1=CC[C@@H](C(C)C)C=C1
REMARK SMILES IDX 1 1 2 2 3 3 4 4 5 5 9 6 10 7 6 8 7 9 8 10
REMARK H PARENT
REMARK Flexibility Score: inf
ROOT
ATOM      1  C   UNL     1      30.212   6.732  29.465  1.00  0.00     0.044 C 
ATOM      2  C   UNL     1      30.651   7.631  30.581  1.00  0.00    -0.055 C 
ATOM      3  C   UNL     1      31.212   7.115  31.687  1.00  0.00    -0.023 C 
ATOM      4  C   UNL     1      31.793   8.014  32.747  1.00  0.00     0.035 C 
ATOM      5  C   UNL     1      30.980   9.326  32.863  1.00  0.00     0.018 C 
ATOM      6  C   UNL     1      30.723   9.907  31.486  1.00  0.00    -0.023 C 
ATOM      7  C   UNL     1      30.523   9.100  30.438  1.00  0.00    -0.001 C 
ENDROOT
BRANCH   5   8
ATOM      8  C   UNL     1      31.632  10.335  33.855  1.00  0.00    -0.010 C 
ATOM      9  C   UNL     1      31.609   9.864  35.320  1.00  0.00     0.008 C 
ATOM     10  C   UNL     1      33.068  10.683  33.434  1.00  0.00     0.008 C 
ENDBRANCH   5   8
TORSDOF 1
ENDMDL
MODEL 4
REMARK VINA RESULT:    -4.040      1.075      4.564
REMARK INTER + INTRA:          -4.421
REMARK INTER:                  -4.270
REMARK INTRA:                  -0.150
REMARK UNBOUND:                -0.145
REMARK SMILES CC1=CC[C@@H](C(C)C)C=C1
REMARK SMILES IDX 1 1 2 2 3 3 4 4 5 5 9 6 10 7 6 8 7 9 8 10
REMARK H PARENT
REMARK Flexibility Score: inf
ROOT
ATOM      1  C   UNL     1      32.320  11.406  32.817  1.00  0.00     0.044 C 
ATOM      2  C   UNL     1      31.976  10.083  33.432  1.00  0.00    -0.055 C 
ATOM      3  C   UNL     1      31.909   8.979  32.670  1.00  0.00    -0.023 C 
ATOM      4  C   UNL     1      31.714   7.623  33.297  1.00  0.00     0.035 C 
ATOM      5  C   UNL     1      30.817   7.721  34.555  1.00  0.00     0.018 C 
ATOM      6  C   UNL     1      31.276   8.863  35.439  1.00  0.00    -0.023 C 
ATOM      7  C   UNL     1      31.772   9.981  34.895  1.00  0.00    -0.001 C 
ENDROOT
BRANCH   5   8
ATOM      8  C   UNL     1      30.704   6.359  35.303  1.00  0.00    -0.010 C 
ATOM      9  C   UNL     1      31.669   6.227  36.496  1.00  0.00     0.008 C 
ATOM     10  C   UNL     1      29.262   6.090  35.758  1.00  0.00     0.008 C 
ENDBRANCH   5   8
TORSDOF 1
ENDMDL
MODEL 5
REMARK VINA RESULT:    -4.031      2.325      4.237
REMARK INTER + INTRA:          -4.411
REMARK INTER:                  -4.267
REMARK INTRA:                  -0.145
REMARK UNBOUND:                -0.145
REMARK SMILES CC1=CC[C@@H](C(C)C)C=C1
REMARK SMILES IDX 1 1 2 2 3 3 4 4 5 5 9 6 10 7 6 8 7 9 8 10
REMARK H PARENT
REMARK Flexibility Score: inf
ROOT
ATOM      1  C   UNL     1      30.548   6.524  29.039  1.00  0.00     0.044 C 
ATOM      2  C   UNL     1      30.757   7.460  30.191  1.00  0.00    -0.055 C 
ATOM      3  C   UNL     1      30.434   8.759  30.076  1.00  0.00    -0.023 C 
ATOM      4  C   UNL     1      30.498   9.675  31.271  1.00  0.00     0.035 C 
ATOM      5  C   UNL     1      31.657   9.272  32.214  1.00  0.00     0.018 C 
ATOM      6  C   UNL     1      31.640   7.775  32.455  1.00  0.00    -0.023 C 
ATOM      7  C   UNL     1      31.262   6.939  31.482  1.00  0.00    -0.001 C 
ENDROOT
BRANCH   5   8
ATOM      8  C   UNL     1      31.668  10.115  33.524  1.00  0.00    -0.010 C 
ATOM      9  C   UNL     1      31.283   9.311  34.780  1.00  0.00     0.008 C 
ATOM     10  C   UNL     1      33.025  10.803  33.733  1.00  0.00     0.008 C 
ENDBRANCH   5   8
TORSDOF 1
ENDMDL
MODEL 6
REMARK VINA RESULT:    -4.029      2.872      5.523
REMARK INTER + INTRA:          -4.409
REMARK INTER:                  -4.223
REMARK INTRA:                  -0.185
REMARK UNBOUND:                -0.145
REMARK SMILES CC1=CC[C@@H](C(C)C)C=C1
REMARK SMILES IDX 1 1 2 2 3 3 4 4 5 5 9 6 10 7 6 8 7 9 8 10
REMARK H PARENT
REMARK Flexibility Score: inf
ROOT
ATOM      1  C   UNL     1      29.349   8.897  27.542  1.00  0.00     0.044 C 
ATOM      2  C   UNL     1      29.925   8.746  28.917  1.00  0.00    -0.055 C 
ATOM      3  C   UNL     1      30.372   7.551  29.338  1.00  0.00    -0.023 C 
ATOM      4  C   UNL     1      31.090   7.418  30.656  1.00  0.00     0.035 C 
ATOM      5  C   UNL     1      30.521   8.413  31.696  1.00  0.00     0.018 C 
ATOM      6  C   UNL     1      30.389   9.794  31.083  1.00  0.00    -0.023 C 
ATOM      7  C   UNL     1      30.062   9.932  29.793  1.00  0.00    -0.001 C 
ENDROOT
BRANCH   5   8
ATOM      8  C   UNL     1      31.329   8.396  33.028  1.00  0.00    -0.010 C 
ATOM      9  C   UNL     1      31.997   7.042  33.329  1.00  0.00     0.008 C 
ATOM     10  C   UNL     1      32.376   9.520  33.060  1.00  0.00     0.008 C 
ENDBRANCH   5   8
TORSDOF 1
ENDMDL
MODEL 7
REMARK VINA RESULT:    -4.025      1.394      2.408
REMARK INTER + INTRA:          -4.405
REMARK INTER:                  -4.215
REMARK INTRA:                  -0.191
REMARK UNBOUND:                -0.145
REMARK SMILES CC1=CC[C@@H](C(C)C)C=C1
REMARK SMILES IDX 1 1 2 2 3 3 4 4 5 5 9 6 10 7 6 8 7 9 8 10
REMARK H PARENT
REMARK Flexibility Score: inf
ROOT
ATOM      1  C   UNL     1      30.854   8.881  39.294  1.00  0.00     0.044 C 
ATOM      2  C   UNL     1      31.061   8.817  37.811  1.00  0.00    -0.055 C 
ATOM      3  C   UNL     1      31.261   9.942  37.105  1.00  0.00    -0.023 C 
ATOM      4  C   UNL     1      31.620   9.880  35.643  1.00  0.00     0.035 C 
ATOM      5  C   UNL     1      30.927   8.680  34.956  1.00  0.00     0.018 C 
ATOM      6  C   UNL     1      31.096   7.427  35.793  1.00  0.00    -0.023 C 
ATOM      7  C   UNL     1      31.108   7.503  37.129  1.00  0.00    -0.001 C 
ENDROOT
BRANCH   5   8
ATOM      8  C   UNL     1      31.381   8.507  33.476  1.00  0.00    -0.010 C 
ATOM      9  C   UNL     1      32.420   9.548  33.023  1.00  0.00     0.008 C 
ATOM     10  C   UNL     1      31.907   7.087  33.215  1.00  0.00     0.008 C 
ENDBRANCH   5   8
TORSDOF 1
ENDMDL
MODEL 8
REMARK VINA RESULT:    -4.022      3.377      5.706
REMARK INTER + INTRA:          -4.402
REMARK INTER:                  -4.264
REMARK INTRA:                  -0.138
REMARK UNBOUND:                -0.145
REMARK SMILES CC1=CC[C@@H](C(C)C)C=C1
REMARK SMILES IDX 1 1 2 2 3 3 4 4 5 5 9 6 10 7 6 8 7 9 8 10
REMARK H PARENT
REMARK Flexibility Score: inf
ROOT
ATOM      1  C   UNL     1      29.560   7.657  27.295  1.00  0.00     0.044 C 
ATOM      2  C   UNL     1      30.193   7.594  28.652  1.00  0.00    -0.055 C 
ATOM      3  C   UNL     1      30.841   6.485  29.047  1.00  0.00    -0.023 C 
ATOM      4  C   UNL     1      31.608   6.463  30.343  1.00  0.00     0.035 C 
ATOM      5  C   UNL     1      30.916   7.345  31.409  1.00  0.00     0.018 C 
ATOM      6  C   UNL     1      30.543   8.690  30.816  1.00  0.00    -0.023 C 
ATOM      7  C   UNL     1      30.161   8.781  29.537  1.00  0.00    -0.001 C 
ENDROOT
BRANCH   5   8
ATOM      8  C   UNL     1      31.754   7.452  32.718  1.00  0.00    -0.010 C 
ATOM      9  C   UNL     1      32.070   8.900  33.134  1.00  0.00     0.008 C 
ATOM     10  C   UNL     1      31.075   6.706  33.877  1.00  0.00     0.008 C 
ENDBRANCH   5   8
TORSDOF 1
ENDMDL
MODEL 9
REMARK VINA RESULT:    -4.010      1.417      4.146
REMARK INTER + INTRA:          -4.389
REMARK INTER:                  -4.261
REMARK INTRA:                  -0.128
REMARK UNBOUND:                -0.145
REMARK SMILES CC1=CC[C@@H](C(C)C)C=C1
REMARK SMILES IDX 1 1 2 2 3 3 4 4 5 5 9 6 10 7 6 8 7 9 8 10
REMARK H PARENT
REMARK Flexibility Score: inf
ROOT
ATOM      1  C   UNL     1      30.883   8.051  30.823  1.00  0.00     0.044 C 
ATOM      2  C   UNL     1      31.125   8.079  32.302  1.00  0.00    -0.055 C 
ATOM      3  C   UNL     1      30.975   6.964  33.035  1.00  0.00    -0.023 C 
ATOM      4  C   UNL     1      31.360   6.943  34.492  1.00  0.00     0.035 C 
ATOM      5  C   UNL     1      31.091   8.316  35.153  1.00  0.00     0.018 C 
ATOM      6  C   UNL     1      31.630   9.433  34.282  1.00  0.00    -0.023 C 
ATOM      7  C   UNL     1      31.594   9.327  32.948  1.00  0.00    -0.001 C 
ENDROOT
BRANCH   5   8
ATOM      8  C   UNL     1      31.602   8.370  36.624  1.00  0.00    -0.010 C 
ATOM      9  C   UNL     1      32.013   9.781  37.084  1.00  0.00     0.008 C 
ATOM     10  C   UNL     1      30.571   7.777  37.596  1.00  0.00     0.008 C 
ENDBRANCH   5   8
TORSDOF 1
ENDMDL
