MODEL 1
REMARK VINA RESULT:    -7.088      0.000      0.000
REMARK INTER + INTRA:         -10.964
REMARK INTER:                 -10.402
REMARK INTRA:                  -0.562
REMARK UNBOUND:                -0.562
REMARK SMILES O=c1c(O[C@H]2O[C@@H](CO)[C@@H](O)[C@@H](O)[C@@H]2O)c(-c2ccc(O)c(O)c2)oc2cc(O)cc(O)c12
REMARK SMILES IDX 4 1 3 2 16 3 25 4 2 5 26 6 1 7 33 8 27 9 31 10 28 11 30 12
REMARK SMILES IDX 17 13 18 14 19 15 20 16 24 17 22 18 21 19 23 21 32 23 29 25
REMARK SMILES IDX 5 27 14 28 6 29 12 30 7 31 10 32 15 33 13 35 8 37 9 38 11 40
REMARK H PARENT 21 20 23 22 32 24 29 26 15 34 13 36 9 39 11 41
REMARK Flexibility Score: inf
ROOT
ATOM      1  O   UNL     1       5.811  26.568  60.039  1.00  0.00    -0.454 OA
ENDROOT
BRANCH   1   2
ATOM      2  C   UNL     1       7.165  26.423  59.666  1.00  0.00     0.214 A 
ATOM      3  C   UNL     1       7.553  26.878  58.391  1.00  0.00     0.180 A 
ATOM      4  O   UNL     1       8.783  26.659  57.948  1.00  0.00    -0.452 OA
ATOM      5  C   UNL     1       8.141  25.798  60.478  1.00  0.00     0.239 A 
ATOM      6  C   UNL     1       9.726  26.072  58.672  1.00  0.00     0.146 A 
ATOM      7  O   UNL     1       7.808  25.313  61.590  1.00  0.00    -0.285 OA
ATOM      8  C   UNL     1       9.469  25.662  60.004  1.00  0.00     0.111 A 
ATOM      9  C   UNL     1      10.981  25.870  58.092  1.00  0.00     0.094 A 
ATOM     10  C   UNL     1      10.543  25.101  60.760  1.00  0.00     0.134 A 
ATOM     11  C   UNL     1      12.007  25.273  58.824  1.00  0.00     0.123 A 
ATOM     12  C   UNL     1      11.786  24.895  60.148  1.00  0.00     0.093 A 
BRANCH   3  13
ATOM     13  C   UNL     1       6.628  27.627  57.520  1.00  0.00     0.025 A 
ATOM     14  C   UNL     1       6.953  28.929  57.111  1.00  0.00     0.016 A 
ATOM     15  C   UNL     1       6.045  29.677  56.357  1.00  0.00     0.051 A 
ATOM     16  C   UNL     1       4.792  29.143  56.025  1.00  0.00     0.157 A 
ATOM     17  C   UNL     1       5.370  27.095  57.192  1.00  0.00     0.062 A 
ATOM     18  C   UNL     1       4.452  27.850  56.446  1.00  0.00     0.158 A 
BRANCH  16  19
ATOM     19  O   UNL     1       3.881  29.887  55.280  1.00  0.00    -0.504 OA
ATOM     20  H   UNL     1       4.131  30.283  54.382  1.00  0.00     0.293 HD
ENDBRANCH  16  19
BRANCH  18  21
ATOM     21  O   UNL     1       3.199  27.329  56.132  1.00  0.00    -0.504 OA
ATOM     22  H   UNL     1       2.899  26.422  56.470  1.00  0.00     0.293 HD
ENDBRANCH  18  21
ENDBRANCH   3  13
BRANCH  10  23
ATOM     23  O   UNL     1      10.450  24.766  62.114  1.00  0.00    -0.507 OA
ATOM     24  H   UNL     1      11.230  24.475  62.685  1.00  0.00     0.293 HD
ENDBRANCH  10  23
BRANCH  11  25
ATOM     25  O   UNL     1      13.258  25.065  58.249  1.00  0.00    -0.508 OA
ATOM     26  H   UNL     1      13.851  24.294  58.533  1.00  0.00     0.293 HD
ENDBRANCH  11  25
ENDBRANCH   1   2
BRANCH   1  27
ATOM     27  C   UNL     1       4.777  25.595  59.872  1.00  0.00     0.339 C 
ATOM     28  C   UNL     1       3.405  26.262  60.202  1.00  0.00     0.214 C 
ATOM     29  O   UNL     1       5.104  24.461  60.673  1.00  0.00    -0.332 OA
ATOM     30  C   UNL     1       3.015  26.064  61.678  1.00  0.00     0.180 C 
ATOM     31  C   UNL     1       3.957  23.753  61.088  1.00  0.00     0.179 C 
ATOM     32  C   UNL     1       3.206  24.589  62.153  1.00  0.00     0.177 C 
BRANCH  28  33
ATOM     33  O   UNL     1       2.398  25.717  59.387  1.00  0.00    -0.384 OA
ATOM     34  H   UNL     1       1.539  25.829  59.871  1.00  0.00     0.211 HD
ENDBRANCH  28  33
BRANCH  30  35
ATOM     35  O   UNL     1       3.771  26.955  62.461  1.00  0.00    -0.387 OA
ATOM     36  H   UNL     1       3.888  26.529  63.351  1.00  0.00     0.211 HD
ENDBRANCH  30  35
BRANCH  31  37
ATOM     37  C   UNL     1       4.386  22.376  61.619  1.00  0.00     0.191 C 
BRANCH  37  38
ATOM     38  O   UNL     1       5.685  22.441  62.139  1.00  0.00    -0.394 OA
ATOM     39  H   UNL     1       5.835  23.388  62.392  1.00  0.00     0.210 HD
ENDBRANCH  37  38
ENDBRANCH  31  37
BRANCH  32  40
ATOM     40  O   UNL     1       3.925  24.555  63.365  1.00  0.00    -0.387 OA
ATOM     41  H   UNL     1       4.146  25.496  63.599  1.00  0.00     0.211 HD
ENDBRANCH  32  40
ENDBRANCH   1  27
TORSDOF 12
ENDMDL
MODEL 2
REMARK VINA RESULT:    -6.736      1.655      6.035
REMARK INTER + INTRA:         -10.449
REMARK INTER:                  -8.729
REMARK INTRA:                  -1.719
REMARK UNBOUND:                -0.562
REMARK SMILES O=c1c(O[C@H]2O[C@@H](CO)[C@@H](O)[C@@H](O)[C@@H]2O)c(-c2ccc(O)c(O)c2)oc2cc(O)cc(O)c12
REMARK SMILES IDX 4 1 3 2 16 3 25 4 2 5 26 6 1 7 33 8 27 9 31 10 28 11 30 12
REMARK SMILES IDX 17 13 18 14 19 15 20 16 24 17 22 18 21 19 23 21 32 23 29 25
REMARK SMILES IDX 5 27 14 28 6 29 12 30 7 31 10 32 15 33 13 35 8 37 9 38 11 40
REMARK H PARENT 21 20 23 22 32 24 29 26 15 34 13 36 9 39 11 41
REMARK Flexibility Score: inf
ROOT
ATOM      1  O   UNL     1       7.806  24.518  60.453  1.00  0.00    -0.454 OA
ENDROOT
BRANCH   1   2
ATOM      2  C   UNL     1       7.447  25.498  59.501  1.00  0.00     0.214 A 
ATOM      3  C   UNL     1       8.466  26.311  58.970  1.00  0.00     0.180 A 
ATOM      4  O   UNL     1       8.166  27.321  58.166  1.00  0.00    -0.452 OA
ATOM      5  C   UNL     1       6.115  25.744  59.093  1.00  0.00     0.239 A 
ATOM      6  C   UNL     1       6.932  27.591  57.763  1.00  0.00     0.146 A 
ATOM      7  O   UNL     1       5.174  25.085  59.606  1.00  0.00    -0.285 OA
ATOM      8  C   UNL     1       5.843  26.776  58.161  1.00  0.00     0.111 A 
ATOM      9  C   UNL     1       6.729  28.697  56.934  1.00  0.00     0.094 A 
ATOM     10  C   UNL     1       4.547  27.072  57.639  1.00  0.00     0.134 A 
ATOM     11  C   UNL     1       5.451  29.007  56.472  1.00  0.00     0.123 A 
ATOM     12  C   UNL     1       4.371  28.196  56.823  1.00  0.00     0.093 A 
BRANCH   3  13
ATOM     13  C   UNL     1       9.889  26.062  59.265  1.00  0.00     0.025 A 
ATOM     14  C   UNL     1      10.424  26.445  60.504  1.00  0.00     0.016 A 
ATOM     15  C   UNL     1      11.789  26.292  60.759  1.00  0.00     0.051 A 
ATOM     16  C   UNL     1      12.640  25.777  59.771  1.00  0.00     0.157 A 
ATOM     17  C   UNL     1      10.744  25.552  58.273  1.00  0.00     0.062 A 
ATOM     18  C   UNL     1      12.118  25.409  58.524  1.00  0.00     0.158 A 
BRANCH  16  19
ATOM     19  O   UNL     1      14.003  25.628  60.018  1.00  0.00    -0.504 OA
ATOM     20  H   UNL     1      14.438  26.029  60.840  1.00  0.00     0.293 HD
ENDBRANCH  16  19
BRANCH  18  21
ATOM     21  O   UNL     1      12.968  24.916  57.537  1.00  0.00    -0.504 OA
ATOM     22  H   UNL     1      13.231  23.937  57.501  1.00  0.00     0.293 HD
ENDBRANCH  18  21
ENDBRANCH   3  13
BRANCH  10  23
ATOM     23  O   UNL     1       3.418  26.279  57.862  1.00  0.00    -0.507 OA
ATOM     24  H   UNL     1       3.441  25.279  58.001  1.00  0.00     0.293 HD
ENDBRANCH  10  23
BRANCH  11  25
ATOM     25  O   UNL     1       5.244  30.111  55.650  1.00  0.00    -0.508 OA
ATOM     26  H   UNL     1       4.331  30.321  55.262  1.00  0.00     0.293 HD
ENDBRANCH  11  25
ENDBRANCH   1   2
BRANCH   1  27
ATOM     27  C   UNL     1       7.741  24.653  61.874  1.00  0.00     0.339 C 
ATOM     28  C   UNL     1       7.248  23.303  62.483  1.00  0.00     0.214 C 
ATOM     29  O   UNL     1       6.925  25.783  62.174  1.00  0.00    -0.332 OA
ATOM     30  C   UNL     1       5.718  23.284  62.661  1.00  0.00     0.180 C 
ATOM     31  C   UNL     1       6.287  25.664  63.427  1.00  0.00     0.179 C 
ATOM     32  C   UNL     1       5.178  24.588  63.327  1.00  0.00     0.177 C 
BRANCH  28  33
ATOM     33  O   UNL     1       7.855  23.088  63.732  1.00  0.00    -0.384 OA
ATOM     34  H   UNL     1       8.672  23.651  63.760  1.00  0.00     0.211 HD
ENDBRANCH  28  33
BRANCH  30  35
ATOM     35  O   UNL     1       5.127  23.070  61.402  1.00  0.00    -0.387 OA
ATOM     36  H   UNL     1       4.236  22.663  61.568  1.00  0.00     0.211 HD
ENDBRANCH  30  35
BRANCH  31  37
ATOM     37  C   UNL     1       5.737  27.037  63.839  1.00  0.00     0.191 C 
BRANCH  37  38
ATOM     38  O   UNL     1       5.347  27.763  62.706  1.00  0.00    -0.394 OA
ATOM     39  H   UNL     1       4.356  27.727  62.681  1.00  0.00     0.210 HD
ENDBRANCH  37  38
ENDBRANCH  31  37
BRANCH  32  40
ATOM     40  O   UNL     1       4.095  25.103  62.586  1.00  0.00    -0.387 OA
ATOM     41  H   UNL     1       3.324  25.174  63.210  1.00  0.00     0.211 HD
ENDBRANCH  32  40
ENDBRANCH   1  27
TORSDOF 12
ENDMDL
MODEL 3
REMARK VINA RESULT:    -6.593      0.880      2.092
REMARK INTER + INTRA:         -10.238
REMARK INTER:                  -9.720
REMARK INTRA:                  -0.518
REMARK UNBOUND:                -0.562
REMARK SMILES O=c1c(O[C@H]2O[C@@H](CO)[C@@H](O)[C@@H](O)[C@@H]2O)c(-c2ccc(O)c(O)c2)oc2cc(O)cc(O)c12
REMARK SMILES IDX 4 1 3 2 16 3 25 4 2 5 26 6 1 7 33 8 27 9 31 10 28 11 30 12
REMARK SMILES IDX 17 13 18 14 19 15 20 16 24 17 22 18 21 19 23 21 32 23 29 25
REMARK SMILES IDX 5 27 14 28 6 29 12 30 7 31 10 32 15 33 13 35 8 37 9 38 11 40
REMARK H PARENT 21 20 23 22 32 24 29 26 15 34 13 36 9 39 11 41
REMARK Flexibility Score: inf
ROOT
ATOM      1  O   UNL     1       5.872  26.555  60.120  1.00  0.00    -0.454 OA
ENDROOT
BRANCH   1   2
ATOM      2  C   UNL     1       7.223  26.398  59.740  1.00  0.00     0.214 A 
ATOM      3  C   UNL     1       7.605  26.830  58.456  1.00  0.00     0.180 A 
ATOM      4  O   UNL     1       8.831  26.597  58.008  1.00  0.00    -0.452 OA
ATOM      5  C   UNL     1       8.202  25.783  60.557  1.00  0.00     0.239 A 
ATOM      6  C   UNL     1       9.776  26.019  58.737  1.00  0.00     0.146 A 
ATOM      7  O   UNL     1       7.874  25.319  61.679  1.00  0.00    -0.285 OA
ATOM      8  C   UNL     1       9.526  25.633  60.077  1.00  0.00     0.111 A 
ATOM      9  C   UNL     1      11.027  25.801  58.153  1.00  0.00     0.094 A 
ATOM     10  C   UNL     1      10.603  25.080  60.836  1.00  0.00     0.134 A 
ATOM     11  C   UNL     1      12.055  25.213  58.888  1.00  0.00     0.123 A 
ATOM     12  C   UNL     1      11.840  24.859  60.220  1.00  0.00     0.093 A 
BRANCH   3  13
ATOM     13  C   UNL     1       6.678  27.567  57.578  1.00  0.00     0.025 A 
ATOM     14  C   UNL     1       7.014  28.853  57.128  1.00  0.00     0.016 A 
ATOM     15  C   UNL     1       6.106  29.593  56.368  1.00  0.00     0.051 A 
ATOM     16  C   UNL     1       4.841  29.068  56.068  1.00  0.00     0.157 A 
ATOM     17  C   UNL     1       5.407  27.045  57.283  1.00  0.00     0.062 A 
ATOM     18  C   UNL     1       4.489  27.792  56.529  1.00  0.00     0.158 A 
BRANCH  16  19
ATOM     19  O   UNL     1       3.929  29.804  55.316  1.00  0.00    -0.504 OA
ATOM     20  H   UNL     1       4.181  30.694  54.903  1.00  0.00     0.293 HD
ENDBRANCH  16  19
BRANCH  18  21
ATOM     21  O   UNL     1       3.225  27.280  56.247  1.00  0.00    -0.504 OA
ATOM     22  H   UNL     1       2.674  27.622  55.467  1.00  0.00     0.293 HD
ENDBRANCH  18  21
ENDBRANCH   3  13
BRANCH  10  23
ATOM     23  O   UNL     1      10.516  24.768  62.196  1.00  0.00    -0.507 OA
ATOM     24  H   UNL     1      11.282  24.848  62.849  1.00  0.00     0.293 HD
ENDBRANCH  10  23
BRANCH  11  25
ATOM     25  O   UNL     1      13.301  24.990  58.309  1.00  0.00    -0.508 OA
ATOM     26  H   UNL     1      14.135  25.457  58.645  1.00  0.00     0.293 HD
ENDBRANCH  11  25
ENDBRANCH   1   2
BRANCH   1  27
ATOM     27  C   UNL     1       5.199  25.853  61.167  1.00  0.00     0.339 C 
ATOM     28  C   UNL     1       4.548  24.567  60.568  1.00  0.00     0.214 C 
ATOM     29  O   UNL     1       4.287  26.754  61.790  1.00  0.00    -0.332 OA
ATOM     30  C   UNL     1       3.092  24.815  60.132  1.00  0.00     0.180 C 
ATOM     31  C   UNL     1       3.180  26.088  62.356  1.00  0.00     0.179 C 
ATOM     32  C   UNL     1       2.266  25.575  61.217  1.00  0.00     0.177 C 
BRANCH  28  33
ATOM     33  O   UNL     1       4.570  23.529  61.515  1.00  0.00    -0.384 OA
ATOM     34  H   UNL     1       5.505  23.449  61.838  1.00  0.00     0.211 HD
ENDBRANCH  28  33
BRANCH  30  35
ATOM     35  O   UNL     1       3.106  25.520  58.915  1.00  0.00    -0.387 OA
ATOM     36  H   UNL     1       3.702  25.018  58.298  1.00  0.00     0.211 HD
ENDBRANCH  30  35
BRANCH  31  37
ATOM     37  C   UNL     1       2.450  27.051  63.305  1.00  0.00     0.191 C 
BRANCH  37  38
ATOM     38  O   UNL     1       1.073  26.796  63.288  1.00  0.00    -0.394 OA
ATOM     39  H   UNL     1       0.626  27.682  63.313  1.00  0.00     0.210 HD
ENDBRANCH  37  38
ENDBRANCH  31  37
BRANCH  32  40
ATOM     40  O   UNL     1       1.583  26.665  60.639  1.00  0.00    -0.387 OA
ATOM     41  H   UNL     1       1.736  27.450  61.230  1.00  0.00     0.211 HD
ENDBRANCH  32  40
ENDBRANCH   1  27
TORSDOF 12
ENDMDL
MODEL 4
REMARK VINA RESULT:    -6.416      2.500      3.809
REMARK INTER + INTRA:          -9.979
REMARK INTER:                  -8.938
REMARK INTRA:                  -1.041
REMARK UNBOUND:                -0.562
REMARK SMILES O=c1c(O[C@H]2O[C@@H](CO)[C@@H](O)[C@@H](O)[C@@H]2O)c(-c2ccc(O)c(O)c2)oc2cc(O)cc(O)c12
REMARK SMILES IDX 4 1 3 2 16 3 25 4 2 5 26 6 1 7 33 8 27 9 31 10 28 11 30 12
REMARK SMILES IDX 17 13 18 14 19 15 20 16 24 17 22 18 21 19 23 21 32 23 29 25
REMARK SMILES IDX 5 27 14 28 6 29 12 30 7 31 10 32 15 33 13 35 8 37 9 38 11 40
REMARK H PARENT 21 20 23 22 32 24 29 26 15 34 13 36 9 39 11 41
REMARK Flexibility Score: inf
ROOT
ATOM      1  O   UNL     1       6.686  26.748  60.882  1.00  0.00    -0.454 OA
ENDROOT
BRANCH   1   2
ATOM      2  C   UNL     1       7.930  26.498  60.261  1.00  0.00     0.214 A 
ATOM      3  C   UNL     1       8.022  26.678  58.868  1.00  0.00     0.180 A 
ATOM      4  O   UNL     1       9.130  26.344  58.222  1.00  0.00    -0.452 OA
ATOM      5  C   UNL     1       9.071  26.027  60.951  1.00  0.00     0.239 A 
ATOM      6  C   UNL     1      10.220  25.894  58.828  1.00  0.00     0.146 A 
ATOM      7  O   UNL     1       8.998  25.784  62.184  1.00  0.00    -0.285 OA
ATOM      8  C   UNL     1      10.268  25.766  60.239  1.00  0.00     0.111 A 
ATOM      9  C   UNL     1      11.324  25.548  58.043  1.00  0.00     0.094 A 
ATOM     10  C   UNL     1      11.491  25.344  60.841  1.00  0.00     0.134 A 
ATOM     11  C   UNL     1      12.496  25.088  58.640  1.00  0.00     0.123 A 
ATOM     12  C   UNL     1      12.576  24.990  60.029  1.00  0.00     0.093 A 
BRANCH   3  13
ATOM     13  C   UNL     1       6.914  27.257  58.085  1.00  0.00     0.025 A 
ATOM     14  C   UNL     1       5.692  26.574  57.993  1.00  0.00     0.016 A 
ATOM     15  C   UNL     1       4.667  27.072  57.185  1.00  0.00     0.051 A 
ATOM     16  C   UNL     1       4.860  28.244  56.440  1.00  0.00     0.157 A 
ATOM     17  C   UNL     1       7.108  28.428  57.333  1.00  0.00     0.062 A 
ATOM     18  C   UNL     1       6.084  28.922  56.511  1.00  0.00     0.158 A 
BRANCH  16  19
ATOM     19  O   UNL     1       3.843  28.741  55.628  1.00  0.00    -0.504 OA
ATOM     20  H   UNL     1       3.805  28.528  54.638  1.00  0.00     0.293 HD
ENDBRANCH  16  19
BRANCH  18  21
ATOM     21  O   UNL     1       6.280  30.076  55.755  1.00  0.00    -0.504 OA
ATOM     22  H   UNL     1       5.539  30.753  55.617  1.00  0.00     0.293 HD
ENDBRANCH  18  21
ENDBRANCH   3  13
BRANCH  10  23
ATOM     23  O   UNL     1      11.701  25.291  62.222  1.00  0.00    -0.507 OA
ATOM     24  H   UNL     1      12.103  26.040  62.768  1.00  0.00     0.293 HD
ENDBRANCH  10  23
BRANCH  11  25
ATOM     25  O   UNL     1      13.596  24.738  57.861  1.00  0.00    -0.508 OA
ATOM     26  H   UNL     1      14.429  24.330  58.271  1.00  0.00     0.293 HD
ENDBRANCH  11  25
ENDBRANCH   1   2
BRANCH   1  27
ATOM     27  C   UNL     1       6.467  27.540  62.052  1.00  0.00     0.339 C 
ATOM     28  C   UNL     1       4.968  27.974  62.088  1.00  0.00     0.214 C 
ATOM     29  O   UNL     1       7.404  28.614  62.041  1.00  0.00    -0.332 OA
ATOM     30  C   UNL     1       4.754  29.344  61.419  1.00  0.00     0.180 C 
ATOM     31  C   UNL     1       6.923  29.750  62.725  1.00  0.00     0.179 C 
ATOM     32  C   UNL     1       5.800  30.405  61.887  1.00  0.00     0.177 C 
BRANCH  28  33
ATOM     33  O   UNL     1       4.518  28.040  63.418  1.00  0.00    -0.384 OA
ATOM     34  H   UNL     1       3.531  28.139  63.388  1.00  0.00     0.211 HD
ENDBRANCH  28  33
BRANCH  30  35
ATOM     35  O   UNL     1       4.793  29.169  60.024  1.00  0.00    -0.387 OA
ATOM     36  H   UNL     1       4.368  29.970  59.621  1.00  0.00     0.211 HD
ENDBRANCH  30  35
BRANCH  31  37
ATOM     37  C   UNL     1       8.095  30.708  62.987  1.00  0.00     0.191 C 
BRANCH  37  38
ATOM     38  O   UNL     1       7.619  32.007  63.205  1.00  0.00    -0.394 OA
ATOM     39  H   UNL     1       7.824  32.222  64.152  1.00  0.00     0.210 HD
ENDBRANCH  37  38
ENDBRANCH  31  37
BRANCH  32  40
ATOM     40  O   UNL     1       6.368  31.056  60.772  1.00  0.00    -0.387 OA
ATOM     41  H   UNL     1       5.636  31.556  60.323  1.00  0.00     0.211 HD
ENDBRANCH  32  40
ENDBRANCH   1  27
TORSDOF 12
ENDMDL
MODEL 5
REMARK VINA RESULT:    -6.372      1.612      5.324
REMARK INTER + INTRA:          -9.914
REMARK INTER:                  -8.636
REMARK INTRA:                  -1.278
REMARK UNBOUND:                -0.562
REMARK SMILES O=c1c(O[C@H]2O[C@@H](CO)[C@@H](O)[C@@H](O)[C@@H]2O)c(-c2ccc(O)c(O)c2)oc2cc(O)cc(O)c12
REMARK SMILES IDX 4 1 3 2 16 3 25 4 2 5 26 6 1 7 33 8 27 9 31 10 28 11 30 12
REMARK SMILES IDX 17 13 18 14 19 15 20 16 24 17 22 18 21 19 23 21 32 23 29 25
REMARK SMILES IDX 5 27 14 28 6 29 12 30 7 31 10 32 15 33 13 35 8 37 9 38 11 40
REMARK H PARENT 21 20 23 22 32 24 29 26 15 34 13 36 9 39 11 41
REMARK Flexibility Score: inf
ROOT
ATOM      1  O   UNL     1       7.164  26.367  58.692  1.00  0.00    -0.454 OA
ENDROOT
BRANCH   1   2
ATOM      2  C   UNL     1       8.239  25.830  59.434  1.00  0.00     0.214 A 
ATOM      3  C   UNL     1       7.962  25.288  60.703  1.00  0.00     0.180 A 
ATOM      4  O   UNL     1       8.950  24.880  61.487  1.00  0.00    -0.452 OA
ATOM      5  C   UNL     1       9.584  25.854  58.997  1.00  0.00     0.239 A 
ATOM      6  C   UNL     1      10.224  24.891  61.121  1.00  0.00     0.146 A 
ATOM      7  O   UNL     1       9.873  26.400  57.901  1.00  0.00    -0.285 OA
ATOM      8  C   UNL     1      10.604  25.327  59.827  1.00  0.00     0.111 A 
ATOM      9  C   UNL     1      11.185  24.461  62.039  1.00  0.00     0.094 A 
ATOM     10  C   UNL     1      11.983  25.249  59.462  1.00  0.00     0.134 A 
ATOM     11  C   UNL     1      12.534  24.439  61.689  1.00  0.00     0.123 A 
ATOM     12  C   UNL     1      12.926  24.829  60.408  1.00  0.00     0.093 A 
BRANCH   3  13
ATOM     13  C   UNL     1       6.581  25.133  61.196  1.00  0.00     0.025 A 
ATOM     14  C   UNL     1       6.171  25.812  62.354  1.00  0.00     0.016 A 
ATOM     15  C   UNL     1       4.893  25.604  62.877  1.00  0.00     0.051 A 
ATOM     16  C   UNL     1       4.016  24.698  62.263  1.00  0.00     0.157 A 
ATOM     17  C   UNL     1       5.704  24.220  60.586  1.00  0.00     0.062 A 
ATOM     18  C   UNL     1       4.423  24.001  61.117  1.00  0.00     0.158 A 
BRANCH  16  19
ATOM     19  O   UNL     1       2.743  24.483  62.784  1.00  0.00    -0.504 OA
ATOM     20  H   UNL     1       2.068  25.235  62.859  1.00  0.00     0.293 HD
ENDBRANCH  16  19
BRANCH  18  21
ATOM     21  O   UNL     1       3.558  23.087  60.521  1.00  0.00    -0.504 OA
ATOM     22  H   UNL     1       3.291  23.165  59.546  1.00  0.00     0.293 HD
ENDBRANCH  18  21
ENDBRANCH   3  13
BRANCH  10  23
ATOM     23  O   UNL     1      12.467  25.537  58.183  1.00  0.00    -0.507 OA
ATOM     24  H   UNL     1      13.366  25.956  57.994  1.00  0.00     0.293 HD
ENDBRANCH  10  23
BRANCH  11  25
ATOM     25  O   UNL     1      13.496  24.016  62.603  1.00  0.00    -0.508 OA
ATOM     26  H   UNL     1      14.159  24.663  63.015  1.00  0.00     0.293 HD
ENDBRANCH  11  25
ENDBRANCH   1   2
BRANCH   1  27
ATOM     27  C   UNL     1       6.793  27.745  58.613  1.00  0.00     0.339 C 
ATOM     28  C   UNL     1       5.560  27.985  59.539  1.00  0.00     0.214 C 
ATOM     29  O   UNL     1       6.589  28.071  57.240  1.00  0.00    -0.332 OA
ATOM     30  C   UNL     1       4.234  27.838  58.770  1.00  0.00     0.180 C 
ATOM     31  C   UNL     1       5.664  29.123  57.073  1.00  0.00     0.179 C 
ATOM     32  C   UNL     1       4.245  28.604  57.410  1.00  0.00     0.177 C 
BRANCH  28  33
ATOM     33  O   UNL     1       5.622  29.271  60.100  1.00  0.00    -0.384 OA
ATOM     34  H   UNL     1       5.784  29.907  59.356  1.00  0.00     0.211 HD
ENDBRANCH  28  33
BRANCH  30  35
ATOM     35  O   UNL     1       3.977  26.468  58.583  1.00  0.00    -0.387 OA
ATOM     36  H   UNL     1       4.119  26.277  57.618  1.00  0.00     0.211 HD
ENDBRANCH  30  35
BRANCH  31  37
ATOM     37  C   UNL     1       5.768  29.655  55.636  1.00  0.00     0.191 C 
BRANCH  37  38
ATOM     38  O   UNL     1       4.539  30.188  55.226  1.00  0.00    -0.394 OA
ATOM     39  H   UNL     1       4.738  30.790  54.463  1.00  0.00     0.210 HD
ENDBRANCH  37  38
ENDBRANCH  31  37
BRANCH  32  40
ATOM     40  O   UNL     1       3.797  27.763  56.371  1.00  0.00    -0.387 OA
ATOM     41  H   UNL     1       2.878  27.468  56.611  1.00  0.00     0.211 HD
ENDBRANCH  32  40
ENDBRANCH   1  27
TORSDOF 12
ENDMDL
MODEL 6
REMARK VINA RESULT:    -6.368      2.191      6.400
REMARK INTER + INTRA:          -9.908
REMARK INTER:                  -8.906
REMARK INTRA:                  -1.002
REMARK UNBOUND:                -0.562
REMARK SMILES O=c1c(O[C@H]2O[C@@H](CO)[C@@H](O)[C@@H](O)[C@@H]2O)c(-c2ccc(O)c(O)c2)oc2cc(O)cc(O)c12
REMARK SMILES IDX 4 1 3 2 16 3 25 4 2 5 26 6 1 7 33 8 27 9 31 10 28 11 30 12
REMARK SMILES IDX 17 13 18 14 19 15 20 16 24 17 22 18 21 19 23 21 32 23 29 25
REMARK SMILES IDX 5 27 14 28 6 29 12 30 7 31 10 32 15 33 13 35 8 37 9 38 11 40
REMARK H PARENT 21 20 23 22 32 24 29 26 15 34 13 36 9 39 11 41
REMARK Flexibility Score: inf
ROOT
ATOM      1  O   UNL     1       7.980  24.716  61.095  1.00  0.00    -0.454 OA
ENDROOT
BRANCH   1   2
ATOM      2  C   UNL     1       7.544  25.567  60.056  1.00  0.00     0.214 A 
ATOM      3  C   UNL     1       8.520  26.246  59.303  1.00  0.00     0.180 A 
ATOM      4  O   UNL     1       8.162  27.145  58.397  1.00  0.00    -0.452 OA
ATOM      5  C   UNL     1       6.182  25.818  59.765  1.00  0.00     0.239 A 
ATOM      6  C   UNL     1       6.899  27.415  58.097  1.00  0.00     0.146 A 
ATOM      7  O   UNL     1       5.287  25.285  60.470  1.00  0.00    -0.285 OA
ATOM      8  C   UNL     1       5.838  26.719  58.728  1.00  0.00     0.111 A 
ATOM      9  C   UNL     1       6.638  28.401  57.143  1.00  0.00     0.094 A 
ATOM     10  C   UNL     1       4.501  27.001  58.314  1.00  0.00     0.134 A 
ATOM     11  C   UNL     1       5.325  28.704  56.784  1.00  0.00     0.123 A 
ATOM     12  C   UNL     1       4.267  28.006  57.367  1.00  0.00     0.093 A 
BRANCH   3  13
ATOM     13  C   UNL     1       9.960  25.972  59.472  1.00  0.00     0.025 A 
ATOM     14  C   UNL     1      10.596  26.297  60.679  1.00  0.00     0.016 A 
ATOM     15  C   UNL     1      11.975  26.121  60.818  1.00  0.00     0.051 A 
ATOM     16  C   UNL     1      12.738  25.641  59.744  1.00  0.00     0.157 A 
ATOM     17  C   UNL     1      10.727  25.498  58.395  1.00  0.00     0.062 A 
ATOM     18  C   UNL     1      12.114  25.332  58.528  1.00  0.00     0.158 A 
BRANCH  16  19
ATOM     19  O   UNL     1      14.114  25.470  59.875  1.00  0.00    -0.504 OA
ATOM     20  H   UNL     1      14.592  24.682  59.455  1.00  0.00     0.293 HD
ENDBRANCH  16  19
BRANCH  18  21
ATOM     21  O   UNL     1      12.877  24.875  57.457  1.00  0.00    -0.504 OA
ATOM     22  H   UNL     1      12.714  23.967  57.036  1.00  0.00     0.293 HD
ENDBRANCH  18  21
ENDBRANCH   3  13
BRANCH  10  23
ATOM     23  O   UNL     1       3.380  26.304  58.773  1.00  0.00    -0.507 OA
ATOM     24  H   UNL     1       3.229  26.037  59.736  1.00  0.00     0.293 HD
ENDBRANCH  10  23
BRANCH  11  25
ATOM     25  O   UNL     1       5.060  29.690  55.837  1.00  0.00    -0.508 OA
ATOM     26  H   UNL     1       5.798  30.097  55.273  1.00  0.00     0.293 HD
ENDBRANCH  11  25
ENDBRANCH   1   2
BRANCH   1  27
ATOM     27  C   UNL     1       7.938  23.287  61.094  1.00  0.00     0.339 C 
ATOM     28  C   UNL     1       7.039  22.811  62.278  1.00  0.00     0.214 C 
ATOM     29  O   UNL     1       9.280  22.805  61.125  1.00  0.00    -0.332 OA
ATOM     30  C   UNL     1       7.866  22.541  63.548  1.00  0.00     0.180 C 
ATOM     31  C   UNL     1       9.378  21.537  61.736  1.00  0.00     0.179 C 
ATOM     32  C   UNL     1       9.145  21.693  63.258  1.00  0.00     0.177 C 
BRANCH  28  33
ATOM     33  O   UNL     1       6.354  21.638  61.921  1.00  0.00    -0.384 OA
ATOM     34  H   UNL     1       6.584  21.442  60.975  1.00  0.00     0.211 HD
ENDBRANCH  28  33
BRANCH  30  35
ATOM     35  O   UNL     1       8.195  23.776  64.136  1.00  0.00    -0.387 OA
ATOM     36  H   UNL     1       9.173  23.901  64.016  1.00  0.00     0.211 HD
ENDBRANCH  30  35
BRANCH  31  37
ATOM     37  C   UNL     1      10.752  20.932  61.412  1.00  0.00     0.191 C 
BRANCH  37  38
ATOM     38  O   UNL     1      10.765  20.434  60.102  1.00  0.00    -0.394 OA
ATOM     39  H   UNL     1      11.697  20.534  59.777  1.00  0.00     0.210 HD
ENDBRANCH  37  38
ENDBRANCH  31  37
BRANCH  32  40
ATOM     40  O   UNL     1      10.276  22.298  63.844  1.00  0.00    -0.387 OA
ATOM     41  H   UNL     1      10.726  22.824  63.131  1.00  0.00     0.211 HD
ENDBRANCH  32  40
ENDBRANCH   1  27
TORSDOF 12
ENDMDL
MODEL 7
REMARK VINA RESULT:    -6.303      2.163      6.409
REMARK INTER + INTRA:          -9.813
REMARK INTER:                  -8.649
REMARK INTRA:                  -1.164
REMARK UNBOUND:                -0.562
REMARK SMILES O=c1c(O[C@H]2O[C@@H](CO)[C@@H](O)[C@@H](O)[C@@H]2O)c(-c2ccc(O)c(O)c2)oc2cc(O)cc(O)c12
REMARK SMILES IDX 4 1 3 2 16 3 25 4 2 5 26 6 1 7 33 8 27 9 31 10 28 11 30 12
REMARK SMILES IDX 17 13 18 14 19 15 20 16 24 17 22 18 21 19 23 21 32 23 29 25
REMARK SMILES IDX 5 27 14 28 6 29 12 30 7 31 10 32 15 33 13 35 8 37 9 38 11 40
REMARK H PARENT 21 20 23 22 32 24 29 26 15 34 13 36 9 39 11 41
REMARK Flexibility Score: inf
ROOT
ATOM      1  O   UNL     1       6.848  25.697  59.145  1.00  0.00    -0.454 OA
ENDROOT
BRANCH   1   2
ATOM      2  C   UNL     1       6.917  24.907  60.313  1.00  0.00     0.214 A 
ATOM      3  C   UNL     1       8.153  24.816  60.980  1.00  0.00     0.180 A 
ATOM      4  O   UNL     1       8.300  23.995  62.010  1.00  0.00    -0.452 OA
ATOM      5  C   UNL     1       5.828  24.159  60.820  1.00  0.00     0.239 A 
ATOM      6  C   UNL     1       7.309  23.273  62.514  1.00  0.00     0.146 A 
ATOM      7  O   UNL     1       4.731  24.160  60.204  1.00  0.00    -0.285 OA
ATOM      8  C   UNL     1       6.000  23.362  61.979  1.00  0.00     0.111 A 
ATOM      9  C   UNL     1       7.584  22.421  63.587  1.00  0.00     0.094 A 
ATOM     10  C   UNL     1       4.957  22.615  62.607  1.00  0.00     0.134 A 
ATOM     11  C   UNL     1       6.568  21.657  64.159  1.00  0.00     0.123 A 
ATOM     12  C   UNL     1       5.265  21.758  63.670  1.00  0.00     0.093 A 
BRANCH   3  13
ATOM     13  C   UNL     1       9.313  25.635  60.579  1.00  0.00     0.025 A 
ATOM     14  C   UNL     1       9.953  25.388  59.355  1.00  0.00     0.016 A 
ATOM     15  C   UNL     1      11.103  26.100  59.007  1.00  0.00     0.051 A 
ATOM     16  C   UNL     1      11.641  27.050  59.887  1.00  0.00     0.157 A 
ATOM     17  C   UNL     1       9.856  26.582  61.463  1.00  0.00     0.062 A 
ATOM     18  C   UNL     1      11.019  27.290  61.119  1.00  0.00     0.158 A 
BRANCH  16  19
ATOM     19  O   UNL     1      12.791  27.759  59.547  1.00  0.00    -0.504 OA
ATOM     20  H   UNL     1      13.714  27.406  59.768  1.00  0.00     0.293 HD
ENDBRANCH  16  19
BRANCH  18  21
ATOM     21  O   UNL     1      11.566  28.220  62.000  1.00  0.00    -0.504 OA
ATOM     22  H   UNL     1      12.377  28.002  62.568  1.00  0.00     0.293 HD
ENDBRANCH  18  21
ENDBRANCH   3  13
BRANCH  10  23
ATOM     23  O   UNL     1       3.609  22.706  62.249  1.00  0.00    -0.507 OA
ATOM     24  H   UNL     1       2.874  23.018  62.867  1.00  0.00     0.293 HD
ENDBRANCH  10  23
BRANCH  11  25
ATOM     25  O   UNL     1       6.839  20.803  65.225  1.00  0.00    -0.508 OA
ATOM     26  H   UNL     1       7.383  21.109  66.025  1.00  0.00     0.293 HD
ENDBRANCH  11  25
ENDBRANCH   1   2
BRANCH   1  27
ATOM     27  C   UNL     1       6.741  27.122  59.090  1.00  0.00     0.339 C 
ATOM     28  C   UNL     1       5.520  27.564  59.957  1.00  0.00     0.214 C 
ATOM     29  O   UNL     1       6.677  27.509  57.719  1.00  0.00    -0.332 OA
ATOM     30  C   UNL     1       4.236  27.680  59.116  1.00  0.00     0.180 C 
ATOM     31  C   UNL     1       5.971  28.716  57.538  1.00  0.00     0.179 C 
ATOM     32  C   UNL     1       4.464  28.460  57.783  1.00  0.00     0.177 C 
BRANCH  28  33
ATOM     33  O   UNL     1       5.784  28.805  60.562  1.00  0.00    -0.384 OA
ATOM     34  H   UNL     1       6.676  29.101  60.243  1.00  0.00     0.211 HD
ENDBRANCH  28  33
BRANCH  30  35
ATOM     35  O   UNL     1       3.745  26.385  58.873  1.00  0.00    -0.387 OA
ATOM     36  H   UNL     1       3.029  26.471  58.190  1.00  0.00     0.211 HD
ENDBRANCH  30  35
BRANCH  31  37
ATOM     37  C   UNL     1       6.252  29.251  56.125  1.00  0.00     0.191 C 
BRANCH  37  38
ATOM     38  O   UNL     1       7.602  29.604  56.001  1.00  0.00    -0.394 OA
ATOM     39  H   UNL     1       7.796  30.225  56.750  1.00  0.00     0.210 HD
ENDBRANCH  37  38
ENDBRANCH  31  37
BRANCH  32  40
ATOM     40  O   UNL     1       3.930  27.738  56.696  1.00  0.00    -0.387 OA
ATOM     41  H   UNL     1       2.963  27.961  56.646  1.00  0.00     0.211 HD
ENDBRANCH  32  40
ENDBRANCH   1  27
TORSDOF 12
ENDMDL
MODEL 8
REMARK VINA RESULT:    -6.288      1.930      6.220
REMARK INTER + INTRA:          -9.791
REMARK INTER:                  -8.691
REMARK INTRA:                  -1.100
REMARK UNBOUND:                -0.562
REMARK SMILES O=c1c(O[C@H]2O[C@@H](CO)[C@@H](O)[C@@H](O)[C@@H]2O)c(-c2ccc(O)c(O)c2)oc2cc(O)cc(O)c12
REMARK SMILES IDX 4 1 3 2 16 3 25 4 2 5 26 6 1 7 33 8 27 9 31 10 28 11 30 12
REMARK SMILES IDX 17 13 18 14 19 15 20 16 24 17 22 18 21 19 23 21 32 23 29 25
REMARK SMILES IDX 5 27 14 28 6 29 12 30 7 31 10 32 15 33 13 35 8 37 9 38 11 40
REMARK H PARENT 21 20 23 22 32 24 29 26 15 34 13 36 9 39 11 41
REMARK Flexibility Score: inf
ROOT
ATOM      1  O   UNL     1       7.832  24.495  60.419  1.00  0.00    -0.454 OA
ENDROOT
BRANCH   1   2
ATOM      2  C   UNL     1       7.469  25.481  59.475  1.00  0.00     0.214 A 
ATOM      3  C   UNL     1       8.487  26.296  58.944  1.00  0.00     0.180 A 
ATOM      4  O   UNL     1       8.185  27.311  58.146  1.00  0.00    -0.452 OA
ATOM      5  C   UNL     1       6.136  25.732  59.074  1.00  0.00     0.239 A 
ATOM      6  C   UNL     1       6.949  27.585  57.751  1.00  0.00     0.146 A 
ATOM      7  O   UNL     1       5.196  25.071  59.588  1.00  0.00    -0.285 OA
ATOM      8  C   UNL     1       5.861  26.770  58.149  1.00  0.00     0.111 A 
ATOM      9  C   UNL     1       6.745  28.696  56.929  1.00  0.00     0.094 A 
ATOM     10  C   UNL     1       4.564  27.070  57.634  1.00  0.00     0.134 A 
ATOM     11  C   UNL     1       5.464  29.010  56.475  1.00  0.00     0.123 A 
ATOM     12  C   UNL     1       4.385  28.199  56.826  1.00  0.00     0.093 A 
BRANCH   3  13
ATOM     13  C   UNL     1       9.911  26.043  59.230  1.00  0.00     0.025 A 
ATOM     14  C   UNL     1      10.450  26.408  60.474  1.00  0.00     0.016 A 
ATOM     15  C   UNL     1      11.816  26.252  60.723  1.00  0.00     0.051 A 
ATOM     16  C   UNL     1      12.664  25.752  59.724  1.00  0.00     0.157 A 
ATOM     17  C   UNL     1      10.764  25.549  58.229  1.00  0.00     0.062 A 
ATOM     18  C   UNL     1      12.138  25.403  58.473  1.00  0.00     0.158 A 
BRANCH  16  19
ATOM     19  O   UNL     1      14.027  25.600  59.965  1.00  0.00    -0.504 OA
ATOM     20  H   UNL     1      14.369  25.017  60.719  1.00  0.00     0.293 HD
ENDBRANCH  16  19
BRANCH  18  21
ATOM     21  O   UNL     1      12.986  24.926  57.476  1.00  0.00    -0.504 OA
ATOM     22  H   UNL     1      12.673  24.818  56.518  1.00  0.00     0.293 HD
ENDBRANCH  18  21
ENDBRANCH   3  13
BRANCH  10  23
ATOM     23  O   UNL     1       3.434  26.277  57.858  1.00  0.00    -0.507 OA
ATOM     24  H   UNL     1       2.596  26.306  57.295  1.00  0.00     0.293 HD
ENDBRANCH  10  23
BRANCH  11  25
ATOM     25  O   UNL     1       5.255  30.120  55.660  1.00  0.00    -0.508 OA
ATOM     26  H   UNL     1       4.860  30.030  54.731  1.00  0.00     0.293 HD
ENDBRANCH  11  25
ENDBRANCH   1   2
BRANCH   1  27
ATOM     27  C   UNL     1       7.266  24.319  61.720  1.00  0.00     0.339 C 
ATOM     28  C   UNL     1       8.351  24.665  62.788  1.00  0.00     0.214 C 
ATOM     29  O   UNL     1       6.743  22.995  61.799  1.00  0.00    -0.332 OA
ATOM     30  C   UNL     1       9.135  23.415  63.229  1.00  0.00     0.180 C 
ATOM     31  C   UNL     1       6.742  22.500  63.120  1.00  0.00     0.179 C 
ATOM     32  C   UNL     1       8.200  22.207  63.549  1.00  0.00     0.177 C 
BRANCH  28  33
ATOM     33  O   UNL     1       7.747  25.246  63.916  1.00  0.00    -0.384 OA
ATOM     34  H   UNL     1       8.011  24.701  64.702  1.00  0.00     0.211 HD
ENDBRANCH  28  33
BRANCH  30  35
ATOM     35  O   UNL     1      10.060  23.092  62.220  1.00  0.00    -0.387 OA
ATOM     36  H   UNL     1      10.237  22.117  62.292  1.00  0.00     0.211 HD
ENDBRANCH  30  35
BRANCH  31  37
ATOM     37  C   UNL     1       5.849  21.251  63.184  1.00  0.00     0.191 C 
BRANCH  37  38
ATOM     38  O   UNL     1       5.784  20.637  61.926  1.00  0.00    -0.394 OA
ATOM     39  H   UNL     1       4.849  20.324  61.819  1.00  0.00     0.210 HD
ENDBRANCH  37  38
ENDBRANCH  31  37
BRANCH  32  40
ATOM     40  O   UNL     1       8.656  21.047  62.889  1.00  0.00    -0.387 OA
ATOM     41  H   UNL     1       8.085  20.294  63.197  1.00  0.00     0.211 HD
ENDBRANCH  32  40
ENDBRANCH   1  27
TORSDOF 12
ENDMDL
MODEL 9
REMARK VINA RESULT:    -6.241      1.611      2.139
REMARK INTER + INTRA:          -9.722
REMARK INTER:                  -8.212
REMARK INTRA:                  -1.510
REMARK UNBOUND:                -0.562
REMARK SMILES O=c1c(O[C@H]2O[C@@H](CO)[C@@H](O)[C@@H](O)[C@@H]2O)c(-c2ccc(O)c(O)c2)oc2cc(O)cc(O)c12
REMARK SMILES IDX 4 1 3 2 16 3 25 4 2 5 26 6 1 7 33 8 27 9 31 10 28 11 30 12
REMARK SMILES IDX 17 13 18 14 19 15 20 16 24 17 22 18 21 19 23 21 32 23 29 25
REMARK SMILES IDX 5 27 14 28 6 29 12 30 7 31 10 32 15 33 13 35 8 37 9 38 11 40
REMARK H PARENT 21 20 23 22 32 24 29 26 15 34 13 36 9 39 11 41
REMARK Flexibility Score: inf
ROOT
ATOM      1  O   UNL     1       6.683  26.896  60.941  1.00  0.00    -0.454 OA
ENDROOT
BRANCH   1   2
ATOM      2  C   UNL     1       7.913  26.612  60.307  1.00  0.00     0.214 A 
ATOM      3  C   UNL     1       7.977  26.722  58.905  1.00  0.00     0.180 A 
ATOM      4  O   UNL     1       9.070  26.353  58.253  1.00  0.00    -0.452 OA
ATOM      5  C   UNL     1       9.067  26.170  60.996  1.00  0.00     0.239 A 
ATOM      6  C   UNL     1      10.171  25.928  58.858  1.00  0.00     0.146 A 
ATOM      7  O   UNL     1       9.020  25.988  62.240  1.00  0.00    -0.285 OA
ATOM      8  C   UNL     1      10.248  25.870  60.272  1.00  0.00     0.111 A 
ATOM      9  C   UNL     1      11.257  25.541  58.068  1.00  0.00     0.094 A 
ATOM     10  C   UNL     1      11.483  25.473  60.869  1.00  0.00     0.134 A 
ATOM     11  C   UNL     1      12.440  25.105  58.663  1.00  0.00     0.123 A 
ATOM     12  C   UNL     1      12.549  25.075  60.053  1.00  0.00     0.093 A 
BRANCH   3  13
ATOM     13  C   UNL     1       6.855  27.267  58.118  1.00  0.00     0.025 A 
ATOM     14  C   UNL     1       5.649  26.554  58.034  1.00  0.00     0.016 A 
ATOM     15  C   UNL     1       4.612  27.019  57.222  1.00  0.00     0.051 A 
ATOM     16  C   UNL     1       4.775  28.188  56.466  1.00  0.00     0.157 A 
ATOM     17  C   UNL     1       7.020  28.435  57.355  1.00  0.00     0.062 A 
ATOM     18  C   UNL     1       5.983  28.896  56.529  1.00  0.00     0.158 A 
BRANCH  16  19
ATOM     19  O   UNL     1       3.746  28.653  55.650  1.00  0.00    -0.504 OA
ATOM     20  H   UNL     1       3.342  29.572  55.780  1.00  0.00     0.293 HD
ENDBRANCH  16  19
BRANCH  18  21
ATOM     21  O   UNL     1       6.150  30.047  55.762  1.00  0.00    -0.504 OA
ATOM     22  H   UNL     1       6.477  30.004  54.803  1.00  0.00     0.293 HD
ENDBRANCH  18  21
ENDBRANCH   3  13
BRANCH  10  23
ATOM     23  O   UNL     1      11.721  25.486  62.246  1.00  0.00    -0.507 OA
ATOM     24  H   UNL     1      12.449  24.957  62.704  1.00  0.00     0.293 HD
ENDBRANCH  10  23
BRANCH  11  25
ATOM     25  O   UNL     1      13.523  24.713  57.879  1.00  0.00    -0.508 OA
ATOM     26  H   UNL     1      13.429  24.559  56.882  1.00  0.00     0.293 HD
ENDBRANCH  11  25
ENDBRANCH   1   2
BRANCH   1  27
ATOM     27  C   UNL     1       5.714  25.940  61.378  1.00  0.00     0.339 C 
ATOM     28  C   UNL     1       5.119  26.419  62.739  1.00  0.00     0.214 C 
ATOM     29  O   UNL     1       6.340  24.660  61.411  1.00  0.00    -0.332 OA
ATOM     30  C   UNL     1       5.884  25.824  63.936  1.00  0.00     0.180 C 
ATOM     31  C   UNL     1       5.752  23.802  62.365  1.00  0.00     0.179 C 
ATOM     32  C   UNL     1       6.133  24.291  63.783  1.00  0.00     0.177 C 
BRANCH  28  33
ATOM     33  O   UNL     1       3.767  26.045  62.831  1.00  0.00    -0.384 OA
ATOM     34  H   UNL     1       3.229  26.874  62.741  1.00  0.00     0.211 HD
ENDBRANCH  28  33
BRANCH  30  35
ATOM     35  O   UNL     1       7.095  26.526  64.083  1.00  0.00    -0.387 OA
ATOM     36  H   UNL     1       7.810  25.846  64.194  1.00  0.00     0.211 HD
ENDBRANCH  30  35
BRANCH  31  37
ATOM     37  C   UNL     1       6.217  22.363  62.096  1.00  0.00     0.191 C 
BRANCH  37  38
ATOM     38  O   UNL     1       7.521  22.363  61.584  1.00  0.00    -0.394 OA
ATOM     39  H   UNL     1       7.740  23.309  61.382  1.00  0.00     0.210 HD
ENDBRANCH  37  38
ENDBRANCH  31  37
BRANCH  32  40
ATOM     40  O   UNL     1       7.487  23.987  64.034  1.00  0.00    -0.387 OA
ATOM     41  H   UNL     1       7.547  23.002  64.153  1.00  0.00     0.211 HD
ENDBRANCH  32  40
ENDBRANCH   1  27
TORSDOF 12
ENDMDL
