MODEL 1
REMARK VINA RESULT:    -6.601      0.000      0.000
REMARK INTER + INTRA:         -12.202
REMARK INTER:                 -11.232
REMARK INTRA:                  -0.970
REMARK UNBOUND:                -0.970
REMARK SMILES CCCCCCCCCCCCCC(=O)[O-]
REMARK SMILES IDX 8 1 9 2 10 3 11 4 12 5 13 6 14 7 15 8 16 9 7 10 6 11 5 12
REMARK SMILES IDX 4 13 3 14 2 15 1 16
REMARK H PARENT
REMARK Flexibility Score: inf
ROOT
ATOM      1  C   UNL     1      17.030  73.039  72.008  1.00  0.00     0.000 C 
ENDROOT
BRANCH   1   2
ATOM      2  C   UNL     1      18.539  72.744  72.066  1.00  0.00     0.000 C 
BRANCH   2   3
ATOM      3  C   UNL     1      18.946  71.333  71.598  1.00  0.00     0.000 C 
BRANCH   3   4
ATOM      4  C   UNL     1      20.198  70.750  72.285  1.00  0.00     0.000 C 
BRANCH   4   5
ATOM      5  C   UNL     1      21.173  70.021  71.345  1.00  0.00     0.006 C 
BRANCH   5   6
ATOM      6  C   UNL     1      20.713  70.035  69.882  1.00  0.00     0.053 C 
BRANCH   6   7
ATOM      7  C   UNL     1      20.349  68.654  69.437  1.00  0.00     0.041 C 
ATOM      8  O   UNL     1      19.448  68.011  70.038  1.00  0.00    -0.550 OA
ATOM      9  O   UNL     1      21.037  68.057  68.388  1.00  0.00    -0.550 OA
ENDBRANCH   6   7
ENDBRANCH   5   6
ENDBRANCH   4   5
ENDBRANCH   3   4
ENDBRANCH   2   3
ENDBRANCH   1   2
BRANCH   1  10
ATOM     10  C   UNL     1      16.286  72.594  73.276  1.00  0.00     0.000 C 
BRANCH  10  11
ATOM     11  C   UNL     1      14.866  72.121  72.942  1.00  0.00    -0.000 C 
BRANCH  11  12
ATOM     12  C   UNL     1      14.878  70.679  72.413  1.00  0.00    -0.000 C 
BRANCH  12  13
ATOM     13  C   UNL     1      14.194  69.692  73.371  1.00  0.00    -0.000 C 
BRANCH  13  14
ATOM     14  C   UNL     1      13.530  70.395  74.568  1.00  0.00    -0.000 C 
BRANCH  14  15
ATOM     15  C   UNL     1      14.015  69.844  75.918  1.00  0.00    -0.003 C 
ATOM     16  C   UNL     1      15.165  70.659  76.510  1.00  0.00     0.004 C 
ENDBRANCH  14  15
ENDBRANCH  13  14
ENDBRANCH  12  13
ENDBRANCH  11  12
ENDBRANCH  10  11
ENDBRANCH   1  10
TORSDOF 12
ENDMDL
MODEL 2
REMARK VINA RESULT:    -6.371      3.008      3.680
REMARK INTER + INTRA:         -11.810
REMARK INTER:                 -10.911
REMARK INTRA:                  -0.900
REMARK UNBOUND:                -0.970
REMARK SMILES CCCCCCCCCCCCCC(=O)[O-]
REMARK SMILES IDX 8 1 9 2 10 3 11 4 12 5 13 6 14 7 15 8 16 9 7 10 6 11 5 12
REMARK SMILES IDX 4 13 3 14 2 15 1 16
REMARK H PARENT
REMARK Flexibility Score: inf
ROOT
ATOM      1  C   UNL     1      18.884  71.989  72.703  1.00  0.00     0.000 C 
ENDROOT
BRANCH   1   2
ATOM      2  C   UNL     1      19.319  71.158  71.483  1.00  0.00     0.000 C 
BRANCH   2   3
ATOM      3  C   UNL     1      20.842  71.082  71.256  1.00  0.00     0.000 C 
BRANCH   3   4
ATOM      4  C   UNL     1      21.550  72.443  71.101  1.00  0.00     0.000 C 
BRANCH   4   5
ATOM      5  C   UNL     1      22.901  72.558  71.828  1.00  0.00     0.006 C 
BRANCH   5   6
ATOM      6  C   UNL     1      22.749  72.679  73.350  1.00  0.00     0.053 C 
BRANCH   6   7
ATOM      7  C   UNL     1      23.470  71.564  74.037  1.00  0.00     0.041 C 
ATOM      8  O   UNL     1      23.449  70.402  73.551  1.00  0.00    -0.550 OA
ATOM      9  O   UNL     1      24.124  71.795  75.241  1.00  0.00    -0.550 OA
ENDBRANCH   6   7
ENDBRANCH   5   6
ENDBRANCH   4   5
ENDBRANCH   3   4
ENDBRANCH   2   3
ENDBRANCH   1   2
BRANCH   1  10
ATOM     10  C   UNL     1      18.030  73.207  72.322  1.00  0.00     0.000 C 
BRANCH  10  11
ATOM     11  C   UNL     1      16.631  72.774  71.866  1.00  0.00    -0.000 C 
BRANCH  11  12
ATOM     12  C   UNL     1      15.928  71.949  72.954  1.00  0.00    -0.000 C 
BRANCH  12  13
ATOM     13  C   UNL     1      15.017  70.858  72.371  1.00  0.00    -0.000 C 
BRANCH  13  14
ATOM     14  C   UNL     1      14.293  70.049  73.462  1.00  0.00    -0.000 C 
BRANCH  14  15
ATOM     15  C   UNL     1      14.790  70.392  74.876  1.00  0.00    -0.003 C 
ATOM     16  C   UNL     1      13.764  70.058  75.959  1.00  0.00     0.004 C 
ENDBRANCH  14  15
ENDBRANCH  13  14
ENDBRANCH  12  13
ENDBRANCH  11  12
ENDBRANCH  10  11
ENDBRANCH   1  10
TORSDOF 12
ENDMDL
MODEL 3
REMARK VINA RESULT:    -6.299      2.802      3.384
REMARK INTER + INTRA:         -11.687
REMARK INTER:                 -10.722
REMARK INTRA:                  -0.966
REMARK UNBOUND:                -0.970
REMARK SMILES CCCCCCCCCCCCCC(=O)[O-]
REMARK SMILES IDX 8 1 9 2 10 3 11 4 12 5 13 6 14 7 15 8 16 9 7 10 6 11 5 12
REMARK SMILES IDX 4 13 3 14 2 15 1 16
REMARK H PARENT
REMARK Flexibility Score: inf
ROOT
ATOM      1  C   UNL     1      17.391  71.793  72.106  1.00  0.00     0.000 C 
ENDROOT
BRANCH   1   2
ATOM      2  C   UNL     1      18.670  72.589  71.791  1.00  0.00     0.000 C 
BRANCH   2   3
ATOM      3  C   UNL     1      19.919  71.730  71.510  1.00  0.00     0.000 C 
BRANCH   3   4
ATOM      4  C   UNL     1      20.622  71.167  72.763  1.00  0.00     0.000 C 
BRANCH   4   5
ATOM      5  C   UNL     1      20.909  72.201  73.865  1.00  0.00     0.006 C 
BRANCH   5   6
ATOM      6  C   UNL     1      22.382  72.627  73.913  1.00  0.00     0.053 C 
BRANCH   6   7
ATOM      7  C   UNL     1      23.255  71.453  74.224  1.00  0.00     0.041 C 
ATOM      8  O   UNL     1      24.080  71.034  73.370  1.00  0.00    -0.550 OA
ATOM      9  O   UNL     1      23.123  70.790  75.438  1.00  0.00    -0.550 OA
ENDBRANCH   6   7
ENDBRANCH   5   6
ENDBRANCH   4   5
ENDBRANCH   3   4
ENDBRANCH   2   3
ENDBRANCH   1   2
BRANCH   1  10
ATOM     10  C   UNL     1      16.395  72.583  72.968  1.00  0.00     0.000 C 
BRANCH  10  11
ATOM     11  C   UNL     1      14.963  72.076  72.756  1.00  0.00    -0.000 C 
BRANCH  11  12
ATOM     12  C   UNL     1      14.952  70.568  72.461  1.00  0.00    -0.000 C 
BRANCH  12  13
ATOM     13  C   UNL     1      14.055  69.784  73.431  1.00  0.00    -0.000 C 
BRANCH  13  14
ATOM     14  C   UNL     1      13.577  70.640  74.617  1.00  0.00    -0.000 C 
BRANCH  14  15
ATOM     15  C   UNL     1      14.063  70.095  75.969  1.00  0.00    -0.003 C 
ATOM     16  C   UNL     1      15.376  70.732  76.425  1.00  0.00     0.004 C 
ENDBRANCH  14  15
ENDBRANCH  13  14
ENDBRANCH  12  13
ENDBRANCH  11  12
ENDBRANCH  10  11
ENDBRANCH   1  10
TORSDOF 12
ENDMDL
MODEL 4
REMARK VINA RESULT:    -6.254      3.280      4.072
REMARK INTER + INTRA:         -11.611
REMARK INTER:                 -10.387
REMARK INTRA:                  -1.224
REMARK UNBOUND:                -0.970
REMARK SMILES CCCCCCCCCCCCCC(=O)[O-]
REMARK SMILES IDX 8 1 9 2 10 3 11 4 12 5 13 6 14 7 15 8 16 9 7 10 6 11 5 12
REMARK SMILES IDX 4 13 3 14 2 15 1 16
REMARK H PARENT
REMARK Flexibility Score: inf
ROOT
ATOM      1  C   UNL     1      16.947  71.796  75.533  1.00  0.00     0.000 C 
ENDROOT
BRANCH   1   2
ATOM      2  C   UNL     1      17.947  71.288  76.586  1.00  0.00     0.000 C 
BRANCH   2   3
ATOM      3  C   UNL     1      19.432  71.466  76.214  1.00  0.00     0.000 C 
BRANCH   3   4
ATOM      4  C   UNL     1      20.264  70.168  76.199  1.00  0.00     0.000 C 
BRANCH   4   5
ATOM      5  C   UNL     1      21.465  70.178  75.236  1.00  0.00     0.006 C 
BRANCH   5   6
ATOM      6  C   UNL     1      21.421  71.344  74.242  1.00  0.00     0.053 C 
BRANCH   6   7
ATOM      7  C   UNL     1      22.800  71.864  73.985  1.00  0.00     0.041 C 
ATOM      8  O   UNL     1      23.030  73.101  74.034  1.00  0.00    -0.550 OA
ATOM      9  O   UNL     1      23.822  70.986  73.644  1.00  0.00    -0.550 OA
ENDBRANCH   6   7
ENDBRANCH   5   6
ENDBRANCH   4   5
ENDBRANCH   3   4
ENDBRANCH   2   3
ENDBRANCH   1   2
BRANCH   1  10
ATOM     10  C   UNL     1      17.432  71.572  74.093  1.00  0.00     0.000 C 
BRANCH  10  11
ATOM     11  C   UNL     1      16.704  72.504  73.116  1.00  0.00    -0.000 C 
BRANCH  11  12
ATOM     12  C   UNL     1      15.210  72.157  73.036  1.00  0.00    -0.000 C 
BRANCH  12  13
ATOM     13  C   UNL     1      14.958  70.771  72.422  1.00  0.00    -0.000 C 
BRANCH  13  14
ATOM     14  C   UNL     1      14.202  69.831  73.378  1.00  0.00    -0.000 C 
BRANCH  14  15
ATOM     15  C   UNL     1      13.650  70.564  74.610  1.00  0.00    -0.003 C 
ATOM     16  C   UNL     1      13.938  69.824  75.916  1.00  0.00     0.004 C 
ENDBRANCH  14  15
ENDBRANCH  13  14
ENDBRANCH  12  13
ENDBRANCH  11  12
ENDBRANCH  10  11
ENDBRANCH   1  10
TORSDOF 12
ENDMDL
MODEL 5
REMARK VINA RESULT:    -6.241      1.632      2.161
REMARK INTER + INTRA:         -11.590
REMARK INTER:                 -10.213
REMARK INTRA:                  -1.377
REMARK UNBOUND:                -0.970
REMARK SMILES CCCCCCCCCCCCCC(=O)[O-]
REMARK SMILES IDX 8 1 9 2 10 3 11 4 12 5 13 6 14 7 15 8 16 9 7 10 6 11 5 12
REMARK SMILES IDX 4 13 3 14 2 15 1 16
REMARK H PARENT
REMARK Flexibility Score: inf
ROOT
ATOM      1  C   UNL     1      17.824  71.839  72.256  1.00  0.00     0.000 C 
ENDROOT
BRANCH   1   2
ATOM      2  C   UNL     1      17.883  71.440  73.741  1.00  0.00     0.000 C 
BRANCH   2   3
ATOM      3  C   UNL     1      19.300  71.190  74.293  1.00  0.00     0.000 C 
BRANCH   3   4
ATOM      4  C   UNL     1      20.354  72.242  73.891  1.00  0.00     0.000 C 
BRANCH   4   5
ATOM      5  C   UNL     1      21.596  71.676  73.178  1.00  0.00     0.006 C 
BRANCH   5   6
ATOM      6  C   UNL     1      21.449  70.194  72.812  1.00  0.00     0.053 C 
BRANCH   6   7
ATOM      7  C   UNL     1      21.117  70.045  71.362  1.00  0.00     0.041 C 
ATOM      8  O   UNL     1      21.180  71.040  70.592  1.00  0.00    -0.550 OA
ATOM      9  O   UNL     1      20.690  68.818  70.868  1.00  0.00    -0.550 OA
ENDBRANCH   6   7
ENDBRANCH   5   6
ENDBRANCH   4   5
ENDBRANCH   3   4
ENDBRANCH   2   3
ENDBRANCH   1   2
BRANCH   1  10
ATOM     10  C   UNL     1      16.681  72.818  71.946  1.00  0.00     0.000 C 
BRANCH  10  11
ATOM     11  C   UNL     1      15.553  72.689  72.978  1.00  0.00    -0.000 C 
BRANCH  11  12
ATOM     12  C   UNL     1      14.197  72.485  72.286  1.00  0.00    -0.000 C 
BRANCH  12  13
ATOM     13  C   UNL     1      13.442  71.258  72.818  1.00  0.00    -0.000 C 
BRANCH  13  14
ATOM     14  C   UNL     1      14.389  70.148  73.308  1.00  0.00    -0.000 C 
BRANCH  14  15
ATOM     15  C   UNL     1      14.040  69.659  74.723  1.00  0.00    -0.003 C 
ATOM     16  C   UNL     1      14.709  70.490  75.817  1.00  0.00     0.004 C 
ENDBRANCH  14  15
ENDBRANCH  13  14
ENDBRANCH  12  13
ENDBRANCH  11  12
ENDBRANCH  10  11
ENDBRANCH   1  10
TORSDOF 12
ENDMDL
MODEL 6
REMARK VINA RESULT:    -6.227      7.473     10.989
REMARK INTER + INTRA:         -11.567
REMARK INTER:                 -10.720
REMARK INTRA:                  -0.847
REMARK UNBOUND:                -0.970
REMARK SMILES CCCCCCCCCCCCCC(=O)[O-]
REMARK SMILES IDX 8 1 9 2 10 3 11 4 12 5 13 6 14 7 15 8 16 9 7 10 6 11 5 12
REMARK SMILES IDX 4 13 3 14 2 15 1 16
REMARK H PARENT
REMARK Flexibility Score: inf
ROOT
ATOM      1  C   UNL     1      10.803  72.314  74.332  1.00  0.00     0.000 C 
ENDROOT
BRANCH   1   2
ATOM      2  C   UNL     1       9.518  71.875  75.057  1.00  0.00     0.000 C 
BRANCH   2   3
ATOM      3  C   UNL     1       9.497  72.156  76.573  1.00  0.00     0.000 C 
BRANCH   3   4
ATOM      4  C   UNL     1       8.717  73.418  76.994  1.00  0.00     0.000 C 
BRANCH   4   5
ATOM      5  C   UNL     1       7.498  73.158  77.895  1.00  0.00     0.006 C 
BRANCH   5   6
ATOM      6  C   UNL     1       6.253  73.937  77.453  1.00  0.00     0.053 C 
BRANCH   6   7
ATOM      7  C   UNL     1       5.236  73.008  76.869  1.00  0.00     0.041 C 
ATOM      8  O   UNL     1       5.546  72.249  75.913  1.00  0.00    -0.550 OA
ATOM      9  O   UNL     1       3.932  73.015  77.348  1.00  0.00    -0.550 OA
ENDBRANCH   6   7
ENDBRANCH   5   6
ENDBRANCH   4   5
ENDBRANCH   3   4
ENDBRANCH   2   3
ENDBRANCH   1   2
BRANCH   1  10
ATOM     10  C   UNL     1      10.807  71.934  72.844  1.00  0.00     0.000 C 
BRANCH  10  11
ATOM     11  C   UNL     1      11.978  72.600  72.111  1.00  0.00    -0.000 C 
BRANCH  11  12
ATOM     12  C   UNL     1      13.321  72.024  72.584  1.00  0.00    -0.000 C 
BRANCH  12  13
ATOM     13  C   UNL     1      13.426  70.508  72.358  1.00  0.00    -0.000 C 
BRANCH  13  14
ATOM     14  C   UNL     1      14.305  69.813  73.413  1.00  0.00    -0.000 C 
BRANCH  14  15
ATOM     15  C   UNL     1      14.409  70.621  74.716  1.00  0.00    -0.003 C 
ATOM     16  C   UNL     1      13.918  69.840  75.935  1.00  0.00     0.004 C 
ENDBRANCH  14  15
ENDBRANCH  13  14
ENDBRANCH  12  13
ENDBRANCH  11  12
ENDBRANCH  10  11
ENDBRANCH   1  10
TORSDOF 12
ENDMDL
MODEL 7
REMARK VINA RESULT:    -6.222      3.048      6.905
REMARK INTER + INTRA:         -11.557
REMARK INTER:                 -10.790
REMARK INTRA:                  -0.767
REMARK UNBOUND:                -0.970
REMARK SMILES CCCCCCCCCCCCCC(=O)[O-]
REMARK SMILES IDX 8 1 9 2 10 3 11 4 12 5 13 6 14 7 15 8 16 9 7 10 6 11 5 12
REMARK SMILES IDX 4 13 3 14 2 15 1 16
REMARK H PARENT
REMARK Flexibility Score: inf
ROOT
ATOM      1  C   UNL     1      15.618  72.625  72.042  1.00  0.00     0.000 C 
ENDROOT
BRANCH   1   2
ATOM      2  C   UNL     1      15.558  71.115  72.334  1.00  0.00     0.000 C 
BRANCH   2   3
ATOM      3  C   UNL     1      14.139  70.513  72.366  1.00  0.00     0.000 C 
BRANCH   3   4
ATOM      4  C   UNL     1      13.461  70.509  73.752  1.00  0.00     0.000 C 
BRANCH   4   5
ATOM      5  C   UNL     1      14.152  69.630  74.809  1.00  0.00     0.006 C 
BRANCH   5   6
ATOM      6  C   UNL     1      14.108  70.243  76.214  1.00  0.00     0.053 C 
BRANCH   6   7
ATOM      7  C   UNL     1      15.460  70.751  76.605  1.00  0.00     0.041 C 
ATOM      8  O   UNL     1      15.868  70.620  77.789  1.00  0.00    -0.550 OA
ATOM      9  O   UNL     1      16.251  71.412  75.673  1.00  0.00    -0.550 OA
ENDBRANCH   6   7
ENDBRANCH   5   6
ENDBRANCH   4   5
ENDBRANCH   3   4
ENDBRANCH   2   3
ENDBRANCH   1   2
BRANCH   1  10
ATOM     10  C   UNL     1      17.054  73.144  71.877  1.00  0.00     0.000 C 
BRANCH  10  11
ATOM     11  C   UNL     1      18.046  72.270  72.655  1.00  0.00    -0.000 C 
BRANCH  11  12
ATOM     12  C   UNL     1      19.060  71.613  71.707  1.00  0.00    -0.000 C 
BRANCH  12  13
ATOM     13  C   UNL     1      20.035  70.679  72.442  1.00  0.00    -0.000 C 
BRANCH  13  14
ATOM     14  C   UNL     1      21.073  70.048  71.496  1.00  0.00    -0.000 C 
BRANCH  14  15
ATOM     15  C   UNL     1      20.567  69.950  70.049  1.00  0.00    -0.003 C 
ATOM     16  C   UNL     1      19.980  68.578  69.719  1.00  0.00     0.004 C 
ENDBRANCH  14  15
ENDBRANCH  13  14
ENDBRANCH  12  13
ENDBRANCH  11  12
ENDBRANCH  10  11
ENDBRANCH   1  10
TORSDOF 12
ENDMDL
MODEL 8
REMARK VINA RESULT:    -6.096      2.897      4.527
REMARK INTER + INTRA:         -11.342
REMARK INTER:                 -10.399
REMARK INTRA:                  -0.943
REMARK UNBOUND:                -0.970
REMARK SMILES CCCCCCCCCCCCCC(=O)[O-]
REMARK SMILES IDX 8 1 9 2 10 3 11 4 12 5 13 6 14 7 15 8 16 9 7 10 6 11 5 12
REMARK SMILES IDX 4 13 3 14 2 15 1 16
REMARK H PARENT
REMARK Flexibility Score: inf
ROOT
ATOM      1  C   UNL     1      16.031  71.135  76.065  1.00  0.00     0.000 C 
ENDROOT
BRANCH   1   2
ATOM      2  C   UNL     1      17.164  71.204  77.105  1.00  0.00     0.000 C 
BRANCH   2   3
ATOM      3  C   UNL     1      18.540  71.614  76.542  1.00  0.00     0.000 C 
BRANCH   3   4
ATOM      4  C   UNL     1      19.618  70.511  76.580  1.00  0.00     0.000 C 
BRANCH   4   5
ATOM      5  C   UNL     1      20.338  70.262  75.243  1.00  0.00     0.006 C 
BRANCH   5   6
ATOM      6  C   UNL     1      21.864  70.219  75.389  1.00  0.00     0.053 C 
BRANCH   6   7
ATOM      7  C   UNL     1      22.523  70.615  74.105  1.00  0.00     0.041 C 
ATOM      8  O   UNL     1      23.709  71.038  74.106  1.00  0.00    -0.550 OA
ATOM      9  O   UNL     1      21.810  70.563  72.913  1.00  0.00    -0.550 OA
ENDBRANCH   6   7
ENDBRANCH   5   6
ENDBRANCH   4   5
ENDBRANCH   3   4
ENDBRANCH   2   3
ENDBRANCH   1   2
BRANCH   1  10
ATOM     10  C   UNL     1      14.790  70.393  76.585  1.00  0.00     0.000 C 
BRANCH  10  11
ATOM     11  C   UNL     1      14.011  69.752  75.430  1.00  0.00    -0.000 C 
BRANCH  11  12
ATOM     12  C   UNL     1      13.923  70.706  74.230  1.00  0.00    -0.000 C 
BRANCH  12  13
ATOM     13  C   UNL     1      14.406  70.058  72.923  1.00  0.00    -0.000 C 
BRANCH  13  14
ATOM     14  C   UNL     1      15.476  70.901  72.206  1.00  0.00    -0.000 C 
BRANCH  14  15
ATOM     15  C   UNL     1      15.466  72.370  72.657  1.00  0.00    -0.003 C 
ATOM     16  C   UNL     1      16.865  72.901  72.970  1.00  0.00     0.004 C 
ENDBRANCH  14  15
ENDBRANCH  13  14
ENDBRANCH  12  13
ENDBRANCH  11  12
ENDBRANCH  10  11
ENDBRANCH   1  10
TORSDOF 12
ENDMDL
MODEL 9
REMARK VINA RESULT:    -6.029      1.853      2.982
REMARK INTER + INTRA:         -11.229
REMARK INTER:                 -10.065
REMARK INTRA:                  -1.165
REMARK UNBOUND:                -0.970
REMARK SMILES CCCCCCCCCCCCCC(=O)[O-]
REMARK SMILES IDX 8 1 9 2 10 3 11 4 12 5 13 6 14 7 15 8 16 9 7 10 6 11 5 12
REMARK SMILES IDX 4 13 3 14 2 15 1 16
REMARK H PARENT
REMARK Flexibility Score: inf
ROOT
ATOM      1  C   UNL     1      15.817  72.420  73.406  1.00  0.00     0.000 C 
ENDROOT
BRANCH   1   2
ATOM      2  C   UNL     1      16.539  72.253  72.057  1.00  0.00     0.000 C 
BRANCH   2   3
ATOM      3  C   UNL     1      17.644  73.291  71.776  1.00  0.00     0.000 C 
BRANCH   3   4
ATOM      4  C   UNL     1      19.040  72.924  72.320  1.00  0.00     0.000 C 
BRANCH   4   5
ATOM      5  C   UNL     1      19.307  71.414  72.457  1.00  0.00     0.006 C 
BRANCH   5   6
ATOM      6  C   UNL     1      19.868  70.790  71.173  1.00  0.00     0.053 C 
BRANCH   6   7
ATOM      7  C   UNL     1      20.889  69.748  71.502  1.00  0.00     0.041 C 
ATOM      8  O   UNL     1      20.933  68.675  70.844  1.00  0.00    -0.550 OA
ATOM      9  O   UNL     1      21.760  69.940  72.567  1.00  0.00    -0.550 OA
ENDBRANCH   6   7
ENDBRANCH   5   6
ENDBRANCH   4   5
ENDBRANCH   3   4
ENDBRANCH   2   3
ENDBRANCH   1   2
BRANCH   1  10
ATOM     10  C   UNL     1      15.799  71.128  74.236  1.00  0.00     0.000 C 
BRANCH  10  11
ATOM     11  C   UNL     1      14.412  70.474  74.204  1.00  0.00    -0.000 C 
BRANCH  11  12
ATOM     12  C   UNL     1      14.011  70.107  72.768  1.00  0.00    -0.000 C 
BRANCH  12  13
ATOM     13  C   UNL     1      12.704  70.784  72.328  1.00  0.00    -0.000 C 
BRANCH  13  14
ATOM     14  C   UNL     1      12.197  71.813  73.355  1.00  0.00    -0.000 C 
BRANCH  14  15
ATOM     15  C   UNL     1      12.002  73.208  72.742  1.00  0.00    -0.003 C 
ATOM     16  C   UNL     1      12.854  73.429  71.492  1.00  0.00     0.004 C 
ENDBRANCH  14  15
ENDBRANCH  13  14
ENDBRANCH  12  13
ENDBRANCH  11  12
ENDBRANCH  10  11
ENDBRANCH   1  10
TORSDOF 12
ENDMDL
