MODEL 1
REMARK VINA RESULT:    -3.398      0.000      0.000
REMARK INTER + INTRA:         -13.595
REMARK INTER:                  -8.564
REMARK INTRA:                  -5.031
REMARK UNBOUND:                -5.031
REMARK SMILES CCCCCCCCCCCCCCCCCCCCCCCCCCCC(=O)[O-]
REMARK SMILES IDX 15 1 16 2 17 3 18 4 19 5 20 6 21 7 22 8 23 9 24 10 25 11
REMARK SMILES IDX 26 12 27 13 28 14 29 15 30 16 14 17 13 18 12 19 11 20 10 21
REMARK SMILES IDX 9 22 8 23 7 24 6 25 5 26 4 27 3 28 2 29 1 30
REMARK H PARENT
REMARK Flexibility Score: inf
ROOT
ATOM      1  C   UNL     1      51.895  32.864  84.990  1.00  0.00     0.000 C 
ENDROOT
BRANCH   1   2
ATOM      2  C   UNL     1      50.598  32.913  84.167  1.00  0.00     0.000 C 
BRANCH   2   3
ATOM      3  C   UNL     1      49.842  34.245  84.321  1.00  0.00     0.000 C 
BRANCH   3   4
ATOM      4  C   UNL     1      48.597  34.158  85.229  1.00  0.00     0.000 C 
BRANCH   4   5
ATOM      5  C   UNL     1      48.689  35.105  86.439  1.00  0.00     0.000 C 
BRANCH   5   6
ATOM      6  C   UNL     1      49.212  34.407  87.707  1.00  0.00     0.000 C 
BRANCH   6   7
ATOM      7  C   UNL     1      49.017  32.875  87.687  1.00  0.00     0.000 C 
BRANCH   7   8
ATOM      8  C   UNL     1      47.769  32.437  88.474  1.00  0.00     0.000 C 
BRANCH   8   9
ATOM      9  C   UNL     1      47.160  31.132  87.941  1.00  0.00     0.000 C 
BRANCH   9  10
ATOM     10  C   UNL     1      46.386  30.356  89.019  1.00  0.00     0.000 C 
BRANCH  10  11
ATOM     11  C   UNL     1      46.803  30.750  90.446  1.00  0.00     0.000 C 
BRANCH  11  12
ATOM     12  C   UNL     1      46.264  29.786  91.512  1.00  0.00     0.006 C 
BRANCH  12  13
ATOM     13  C   UNL     1      44.782  29.484  91.273  1.00  0.00     0.053 C 
BRANCH  13  14
ATOM     14  C   UNL     1      43.922  30.359  92.130  1.00  0.00     0.041 C 
ATOM     15  O   UNL     1      42.767  29.984  92.464  1.00  0.00    -0.550 OA
ATOM     16  O   UNL     1      44.411  31.575  92.589  1.00  0.00    -0.550 OA
ENDBRANCH  13  14
ENDBRANCH  12  13
ENDBRANCH  11  12
ENDBRANCH  10  11
ENDBRANCH   9  10
ENDBRANCH   8   9
ENDBRANCH   7   8
ENDBRANCH   6   7
ENDBRANCH   5   6
ENDBRANCH   4   5
ENDBRANCH   3   4
ENDBRANCH   2   3
ENDBRANCH   1   2
BRANCH   1  17
ATOM     17  C   UNL     1      52.546  34.249  85.147  1.00  0.00     0.000 C 
BRANCH  17  18
ATOM     18  C   UNL     1      52.696  34.664  86.618  1.00  0.00     0.000 C 
BRANCH  18  19
ATOM     19  C   UNL     1      53.260  33.514  87.460  1.00  0.00     0.000 C 
BRANCH  19  20
ATOM     20  C   UNL     1      52.758  33.594  88.910  1.00  0.00     0.000 C 
BRANCH  20  21
ATOM     21  C   UNL     1      53.820  34.156  89.870  1.00  0.00     0.000 C 
BRANCH  21  22
ATOM     22  C   UNL     1      53.941  33.321  91.156  1.00  0.00    -0.000 C 
BRANCH  22  23
ATOM     23  C   UNL     1      53.701  31.818  90.922  1.00  0.00    -0.000 C 
BRANCH  23  24
ATOM     24  C   UNL     1      52.790  31.137  91.958  1.00  0.00    -0.000 C 
BRANCH  24  25
ATOM     25  C   UNL     1      51.469  31.894  92.188  1.00  0.00    -0.000 C 
BRANCH  25  26
ATOM     26  C   UNL     1      50.338  31.413  91.255  1.00  0.00    -0.000 C 
BRANCH  26  27
ATOM     27  C   UNL     1      50.301  29.886  91.050  1.00  0.00    -0.000 C 
BRANCH  27  28
ATOM     28  C   UNL     1      50.332  29.419  89.583  1.00  0.00    -0.000 C 
BRANCH  28  29
ATOM     29  C   UNL     1      51.241  30.247  88.657  1.00  0.00    -0.003 C 
ATOM     30  C   UNL     1      51.072  29.893  87.181  1.00  0.00     0.004 C 
ENDBRANCH  28  29
ENDBRANCH  27  28
ENDBRANCH  26  27
ENDBRANCH  25  26
ENDBRANCH  24  25
ENDBRANCH  23  24
ENDBRANCH  22  23
ENDBRANCH  21  22
ENDBRANCH  20  21
ENDBRANCH  19  20
ENDBRANCH  18  19
ENDBRANCH  17  18
ENDBRANCH   1  17
TORSDOF 26
ENDMDL
MODEL 2
REMARK VINA RESULT:    -3.393      3.710      7.210
REMARK INTER + INTRA:         -13.581
REMARK INTER:                  -7.900
REMARK INTRA:                  -5.681
REMARK UNBOUND:                -5.031
REMARK SMILES CCCCCCCCCCCCCCCCCCCCCCCCCCCC(=O)[O-]
REMARK SMILES IDX 15 1 16 2 17 3 18 4 19 5 20 6 21 7 22 8 23 9 24 10 25 11
REMARK SMILES IDX 26 12 27 13 28 14 29 15 30 16 14 17 13 18 12 19 11 20 10 21
REMARK SMILES IDX 9 22 8 23 7 24 6 25 5 26 4 27 3 28 2 29 1 30
REMARK H PARENT
REMARK Flexibility Score: inf
ROOT
ATOM      1  C   UNL     1      50.865  32.041  89.785  1.00  0.00     0.000 C 
ENDROOT
BRANCH   1   2
ATOM      2  C   UNL     1      52.207  31.599  89.179  1.00  0.00     0.000 C 
BRANCH   2   3
ATOM      3  C   UNL     1      52.059  31.017  87.761  1.00  0.00     0.000 C 
BRANCH   3   4
ATOM      4  C   UNL     1      51.873  32.084  86.662  1.00  0.00     0.000 C 
BRANCH   4   5
ATOM      5  C   UNL     1      52.936  33.194  86.739  1.00  0.00     0.000 C 
BRANCH   5   6
ATOM      6  C   UNL     1      52.336  34.607  86.626  1.00  0.00     0.000 C 
BRANCH   6   7
ATOM      7  C   UNL     1      51.911  35.200  87.987  1.00  0.00     0.000 C 
BRANCH   7   8
ATOM      8  C   UNL     1      50.455  35.701  87.975  1.00  0.00     0.000 C 
BRANCH   8   9
ATOM      9  C   UNL     1      49.439  34.562  87.800  1.00  0.00     0.000 C 
BRANCH   9  10
ATOM     10  C   UNL     1      48.491  34.792  86.612  1.00  0.00     0.000 C 
BRANCH  10  11
ATOM     11  C   UNL     1      48.711  33.780  85.476  1.00  0.00     0.000 C 
BRANCH  11  12
ATOM     12  C   UNL     1      48.901  34.451  84.108  1.00  0.00     0.006 C 
BRANCH  12  13
ATOM     13  C   UNL     1      50.309  34.192  83.565  1.00  0.00     0.053 C 
BRANCH  13  14
ATOM     14  C   UNL     1      50.276  34.013  82.079  1.00  0.00     0.041 C 
ATOM     15  O   UNL     1      51.081  33.227  81.515  1.00  0.00    -0.550 OA
ATOM     16  O   UNL     1      49.328  34.690  81.322  1.00  0.00    -0.550 OA
ENDBRANCH  13  14
ENDBRANCH  12  13
ENDBRANCH  11  12
ENDBRANCH  10  11
ENDBRANCH   9  10
ENDBRANCH   8   9
ENDBRANCH   7   8
ENDBRANCH   6   7
ENDBRANCH   5   6
ENDBRANCH   4   5
ENDBRANCH   3   4
ENDBRANCH   2   3
ENDBRANCH   1   2
BRANCH   1  17
ATOM     17  C   UNL     1      50.515  31.269  91.068  1.00  0.00     0.000 C 
BRANCH  17  18
ATOM     18  C   UNL     1      50.544  29.747  90.865  1.00  0.00     0.000 C 
BRANCH  18  19
ATOM     19  C   UNL     1      49.176  29.125  91.164  1.00  0.00     0.000 C 
BRANCH  19  20
ATOM     20  C   UNL     1      48.651  28.338  89.953  1.00  0.00     0.000 C 
BRANCH  20  21
ATOM     21  C   UNL     1      49.470  28.605  88.679  1.00  0.00     0.000 C 
BRANCH  21  22
ATOM     22  C   UNL     1      48.577  28.949  87.474  1.00  0.00    -0.000 C 
BRANCH  22  23
ATOM     23  C   UNL     1      48.415  30.465  87.260  1.00  0.00    -0.000 C 
BRANCH  23  24
ATOM     24  C   UNL     1      47.103  31.061  87.799  1.00  0.00    -0.000 C 
BRANCH  24  25
ATOM     25  C   UNL     1      47.316  31.988  89.010  1.00  0.00    -0.000 C 
BRANCH  25  26
ATOM     26  C   UNL     1      46.491  31.557  90.241  1.00  0.00    -0.000 C 
BRANCH  26  27
ATOM     27  C   UNL     1      45.643  30.290  90.014  1.00  0.00    -0.000 C 
BRANCH  27  28
ATOM     28  C   UNL     1      44.821  29.823  91.229  1.00  0.00    -0.000 C 
BRANCH  28  29
ATOM     29  C   UNL     1      45.562  28.875  92.189  1.00  0.00    -0.003 C 
ATOM     30  C   UNL     1      45.409  27.403  91.811  1.00  0.00     0.004 C 
ENDBRANCH  28  29
ENDBRANCH  27  28
ENDBRANCH  26  27
ENDBRANCH  25  26
ENDBRANCH  24  25
ENDBRANCH  23  24
ENDBRANCH  22  23
ENDBRANCH  21  22
ENDBRANCH  20  21
ENDBRANCH  19  20
ENDBRANCH  18  19
ENDBRANCH  17  18
ENDBRANCH   1  17
TORSDOF 26
ENDMDL
MODEL 3
REMARK VINA RESULT:    -3.349      2.409      6.069
REMARK INTER + INTRA:         -13.471
REMARK INTER:                  -8.568
REMARK INTRA:                  -4.903
REMARK UNBOUND:                -5.031
REMARK SMILES CCCCCCCCCCCCCCCCCCCCCCCCCCCC(=O)[O-]
REMARK SMILES IDX 15 1 16 2 17 3 18 4 19 5 20 6 21 7 22 8 23 9 24 10 25 11
REMARK SMILES IDX 26 12 27 13 28 14 29 15 30 16 14 17 13 18 12 19 11 20 10 21
REMARK SMILES IDX 9 22 8 23 7 24 6 25 5 26 4 27 3 28 2 29 1 30
REMARK H PARENT
REMARK Flexibility Score: inf
ROOT
ATOM      1  C   UNL     1      46.448  30.540  88.680  1.00  0.00     0.000 C 
ENDROOT
BRANCH   1   2
ATOM      2  C   UNL     1      46.603  31.705  89.672  1.00  0.00     0.000 C 
BRANCH   2   3
ATOM      3  C   UNL     1      46.034  31.383  91.066  1.00  0.00     0.000 C 
BRANCH   3   4
ATOM      4  C   UNL     1      44.536  31.015  91.062  1.00  0.00     0.000 C 
BRANCH   4   5
ATOM      5  C   UNL     1      44.281  29.598  91.608  1.00  0.00     0.000 C 
BRANCH   5   6
ATOM      6  C   UNL     1      45.513  28.994  92.305  1.00  0.00     0.000 C 
BRANCH   6   7
ATOM      7  C   UNL     1      46.210  27.898  91.470  1.00  0.00     0.000 C 
BRANCH   7   8
ATOM      8  C   UNL     1      47.744  28.028  91.505  1.00  0.00     0.000 C 
BRANCH   8   9
ATOM      9  C   UNL     1      48.419  27.409  90.272  1.00  0.00     0.000 C 
BRANCH   9  10
ATOM     10  C   UNL     1      49.080  28.463  89.368  1.00  0.00     0.000 C 
BRANCH  10  11
ATOM     11  C   UNL     1      50.332  29.087  90.004  1.00  0.00     0.000 C 
BRANCH  11  12
ATOM     12  C   UNL     1      50.056  30.457  90.642  1.00  0.00     0.006 C 
BRANCH  12  13
ATOM     13  C   UNL     1      50.514  30.479  92.102  1.00  0.00     0.053 C 
BRANCH  13  14
ATOM     14  C   UNL     1      51.106  31.809  92.449  1.00  0.00     0.041 C 
ATOM     15  O   UNL     1      52.051  32.283  91.765  1.00  0.00    -0.550 OA
ATOM     16  O   UNL     1      50.588  32.543  93.508  1.00  0.00    -0.550 OA
ENDBRANCH  13  14
ENDBRANCH  12  13
ENDBRANCH  11  12
ENDBRANCH  10  11
ENDBRANCH   9  10
ENDBRANCH   8   9
ENDBRANCH   7   8
ENDBRANCH   6   7
ENDBRANCH   5   6
ENDBRANCH   4   5
ENDBRANCH   3   4
ENDBRANCH   2   3
ENDBRANCH   1   2
BRANCH   1  17
ATOM     17  C   UNL     1      47.070  30.849  87.308  1.00  0.00     0.000 C 
BRANCH  17  18
ATOM     18  C   UNL     1      48.125  31.964  87.378  1.00  0.00     0.000 C 
BRANCH  18  19
ATOM     19  C   UNL     1      48.312  32.632  86.012  1.00  0.00     0.000 C 
BRANCH  19  20
ATOM     20  C   UNL     1      48.587  34.136  86.165  1.00  0.00     0.000 C 
BRANCH  20  21
ATOM     21  C   UNL     1      48.702  34.565  87.638  1.00  0.00     0.000 C 
BRANCH  21  22
ATOM     22  C   UNL     1      49.838  35.576  87.862  1.00  0.00    -0.000 C 
BRANCH  22  23
ATOM     23  C   UNL     1      51.230  34.918  87.901  1.00  0.00    -0.000 C 
BRANCH  23  24
ATOM     24  C   UNL     1      51.264  33.507  88.514  1.00  0.00    -0.000 C 
BRANCH  24  25
ATOM     25  C   UNL     1      52.429  32.649  87.985  1.00  0.00    -0.000 C 
BRANCH  25  26
ATOM     26  C   UNL     1      51.986  31.224  87.593  1.00  0.00    -0.000 C 
BRANCH  26  27
ATOM     27  C   UNL     1      52.508  30.761  86.219  1.00  0.00    -0.000 C 
BRANCH  27  28
ATOM     28  C   UNL     1      52.897  31.893  85.250  1.00  0.00    -0.000 C 
BRANCH  28  29
ATOM     29  C   UNL     1      51.731  32.476  84.432  1.00  0.00    -0.003 C 
ATOM     30  C   UNL     1      51.769  34.000  84.339  1.00  0.00     0.004 C 
ENDBRANCH  28  29
ENDBRANCH  27  28
ENDBRANCH  26  27
ENDBRANCH  25  26
ENDBRANCH  24  25
ENDBRANCH  23  24
ENDBRANCH  22  23
ENDBRANCH  21  22
ENDBRANCH  20  21
ENDBRANCH  19  20
ENDBRANCH  18  19
ENDBRANCH  17  18
ENDBRANCH   1  17
TORSDOF 26
ENDMDL
MODEL 4
REMARK VINA RESULT:    -3.322      1.235      5.013
REMARK INTER + INTRA:         -13.403
REMARK INTER:                  -8.647
REMARK INTRA:                  -4.756
REMARK UNBOUND:                -5.031
REMARK SMILES CCCCCCCCCCCCCCCCCCCCCCCCCCCC(=O)[O-]
REMARK SMILES IDX 15 1 16 2 17 3 18 4 19 5 20 6 21 7 22 8 23 9 24 10 25 11
REMARK SMILES IDX 26 12 27 13 28 14 29 15 30 16 14 17 13 18 12 19 11 20 10 21
REMARK SMILES IDX 9 22 8 23 7 24 6 25 5 26 4 27 3 28 2 29 1 30
REMARK H PARENT
REMARK Flexibility Score: inf
ROOT
ATOM      1  C   UNL     1      52.147  33.608  88.437  1.00  0.00     0.000 C 
ENDROOT
BRANCH   1   2
ATOM      2  C   UNL     1      53.514  33.536  89.136  1.00  0.00     0.000 C 
BRANCH   2   3
ATOM      3  C   UNL     1      53.404  33.186  90.631  1.00  0.00     0.000 C 
BRANCH   3   4
ATOM      4  C   UNL     1      53.737  31.715  90.957  1.00  0.00     0.000 C 
BRANCH   4   5
ATOM      5  C   UNL     1      52.635  31.037  91.791  1.00  0.00     0.000 C 
BRANCH   5   6
ATOM      6  C   UNL     1      51.513  32.007  92.203  1.00  0.00     0.000 C 
BRANCH   6   7
ATOM      7  C   UNL     1      50.111  31.360  92.190  1.00  0.00     0.000 C 
BRANCH   7   8
ATOM      8  C   UNL     1      49.933  30.380  91.016  1.00  0.00     0.000 C 
BRANCH   8   9
ATOM      9  C   UNL     1      48.459  30.166  90.641  1.00  0.00     0.000 C 
BRANCH   9  10
ATOM     10  C   UNL     1      47.868  31.354  89.864  1.00  0.00     0.000 C 
BRANCH  10  11
ATOM     11  C   UNL     1      46.337  31.434  89.980  1.00  0.00     0.000 C 
BRANCH  11  12
ATOM     12  C   UNL     1      45.850  31.465  91.436  1.00  0.00     0.006 C 
BRANCH  12  13
ATOM     13  C   UNL     1      44.422  30.925  91.544  1.00  0.00     0.053 C 
BRANCH  13  14
ATOM     14  C   UNL     1      44.035  30.740  92.978  1.00  0.00     0.041 C 
ATOM     15  O   UNL     1      43.799  31.739  93.707  1.00  0.00    -0.550 OA
ATOM     16  O   UNL     1      43.901  29.460  93.499  1.00  0.00    -0.550 OA
ENDBRANCH  13  14
ENDBRANCH  12  13
ENDBRANCH  11  12
ENDBRANCH  10  11
ENDBRANCH   9  10
ENDBRANCH   8   9
ENDBRANCH   7   8
ENDBRANCH   6   7
ENDBRANCH   5   6
ENDBRANCH   4   5
ENDBRANCH   3   4
ENDBRANCH   2   3
ENDBRANCH   1   2
BRANCH   1  17
ATOM     17  C   UNL     1      51.834  35.014  87.897  1.00  0.00     0.000 C 
BRANCH  17  18
ATOM     18  C   UNL     1      50.325  35.278  87.784  1.00  0.00     0.000 C 
BRANCH  18  19
ATOM     19  C   UNL     1      49.519  34.023  88.132  1.00  0.00     0.000 C 
BRANCH  19  20
ATOM     20  C   UNL     1      48.432  33.755  87.079  1.00  0.00     0.000 C 
BRANCH  20  21
ATOM     21  C   UNL     1      48.580  34.655  85.840  1.00  0.00     0.000 C 
BRANCH  21  22
ATOM     22  C   UNL     1      49.017  33.865  84.596  1.00  0.00    -0.000 C 
BRANCH  22  23
ATOM     23  C   UNL     1      50.510  34.043  84.266  1.00  0.00    -0.000 C 
BRANCH  23  24
ATOM     24  C   UNL     1      51.344  32.750  84.309  1.00  0.00    -0.000 C 
BRANCH  24  25
ATOM     25  C   UNL     1      50.591  31.570  84.949  1.00  0.00    -0.000 C 
BRANCH  25  26
ATOM     26  C   UNL     1      51.170  31.171  86.323  1.00  0.00    -0.000 C 
BRANCH  26  27
ATOM     27  C   UNL     1      50.205  30.341  87.192  1.00  0.00    -0.000 C 
BRANCH  27  28
ATOM     28  C   UNL     1      49.287  29.377  86.417  1.00  0.00    -0.000 C 
BRANCH  28  29
ATOM     29  C   UNL     1      47.783  29.547  86.698  1.00  0.00    -0.003 C 
ATOM     30  C   UNL     1      47.134  30.633  85.843  1.00  0.00     0.004 C 
ENDBRANCH  28  29
ENDBRANCH  27  28
ENDBRANCH  26  27
ENDBRANCH  25  26
ENDBRANCH  24  25
ENDBRANCH  23  24
ENDBRANCH  22  23
ENDBRANCH  21  22
ENDBRANCH  20  21
ENDBRANCH  19  20
ENDBRANCH  18  19
ENDBRANCH  17  18
ENDBRANCH   1  17
TORSDOF 26
ENDMDL
MODEL 5
REMARK VINA RESULT:    -3.297      3.688      6.391
REMARK INTER + INTRA:         -13.339
REMARK INTER:                  -7.778
REMARK INTRA:                  -5.561
REMARK UNBOUND:                -5.031
REMARK SMILES CCCCCCCCCCCCCCCCCCCCCCCCCCCC(=O)[O-]
REMARK SMILES IDX 15 1 16 2 17 3 18 4 19 5 20 6 21 7 22 8 23 9 24 10 25 11
REMARK SMILES IDX 26 12 27 13 28 14 29 15 30 16 14 17 13 18 12 19 11 20 10 21
REMARK SMILES IDX 9 22 8 23 7 24 6 25 5 26 4 27 3 28 2 29 1 30
REMARK H PARENT
REMARK Flexibility Score: inf
ROOT
ATOM      1  C   UNL     1      47.829  31.717  86.786  1.00  0.00     0.000 C 
ENDROOT
BRANCH   1   2
ATOM      2  C   UNL     1      48.466  33.096  86.551  1.00  0.00     0.000 C 
BRANCH   2   3
ATOM      3  C   UNL     1      48.749  33.854  87.861  1.00  0.00     0.000 C 
BRANCH   3   4
ATOM      4  C   UNL     1      50.147  34.504  87.920  1.00  0.00     0.000 C 
BRANCH   4   5
ATOM      5  C   UNL     1      50.811  34.589  86.534  1.00  0.00     0.000 C 
BRANCH   5   6
ATOM      6  C   UNL     1      52.345  34.687  86.609  1.00  0.00     0.000 C 
BRANCH   6   7
ATOM      7  C   UNL     1      53.061  33.958  85.451  1.00  0.00     0.000 C 
BRANCH   7   8
ATOM      8  C   UNL     1      52.069  33.377  84.427  1.00  0.00     0.000 C 
BRANCH   8   9
ATOM      9  C   UNL     1      52.314  33.898  83.003  1.00  0.00     0.000 C 
BRANCH   9  10
ATOM     10  C   UNL     1      51.010  34.251  82.269  1.00  0.00     0.000 C 
BRANCH  10  11
ATOM     11  C   UNL     1      49.775  34.159  83.180  1.00  0.00     0.000 C 
BRANCH  11  12
ATOM     12  C   UNL     1      48.921  32.914  82.902  1.00  0.00     0.006 C 
BRANCH  12  13
ATOM     13  C   UNL     1      49.059  32.474  81.443  1.00  0.00     0.053 C 
BRANCH  13  14
ATOM     14  C   UNL     1      47.851  32.877  80.656  1.00  0.00     0.041 C 
ATOM     15  O   UNL     1      47.951  33.712  79.719  1.00  0.00    -0.550 OA
ATOM     16  O   UNL     1      46.619  32.299  80.935  1.00  0.00    -0.550 OA
ENDBRANCH  13  14
ENDBRANCH  12  13
ENDBRANCH  11  12
ENDBRANCH  10  11
ENDBRANCH   9  10
ENDBRANCH   8   9
ENDBRANCH   7   8
ENDBRANCH   6   7
ENDBRANCH   5   6
ENDBRANCH   4   5
ENDBRANCH   3   4
ENDBRANCH   2   3
ENDBRANCH   1   2
BRANCH   1  17
ATOM     17  C   UNL     1      48.874  30.592  86.874  1.00  0.00     0.000 C 
BRANCH  17  18
ATOM     18  C   UNL     1      50.016  30.770  85.861  1.00  0.00     0.000 C 
BRANCH  18  19
ATOM     19  C   UNL     1      51.369  30.420  86.488  1.00  0.00     0.000 C 
BRANCH  19  20
ATOM     20  C   UNL     1      51.534  31.098  87.858  1.00  0.00     0.000 C 
BRANCH  20  21
ATOM     21  C   UNL     1      53.002  31.427  88.177  1.00  0.00     0.000 C 
BRANCH  21  22
ATOM     22  C   UNL     1      53.142  32.285  89.446  1.00  0.00    -0.000 C 
BRANCH  22  23
ATOM     23  C   UNL     1      51.842  32.360  90.268  1.00  0.00    -0.000 C 
BRANCH  23  24
ATOM     24  C   UNL     1      51.987  31.970  91.749  1.00  0.00    -0.000 C 
BRANCH  24  25
ATOM     25  C   UNL     1      50.869  31.030  92.236  1.00  0.00    -0.000 C 
BRANCH  25  26
ATOM     26  C   UNL     1      50.659  29.821  91.299  1.00  0.00    -0.000 C 
BRANCH  26  27
ATOM     27  C   UNL     1      49.216  29.678  90.776  1.00  0.00    -0.000 C 
BRANCH  27  28
ATOM     28  C   UNL     1      48.410  30.988  90.703  1.00  0.00    -0.000 C 
BRANCH  28  29
ATOM     29  C   UNL     1      46.900  30.836  90.958  1.00  0.00    -0.003 C 
ATOM     30  C   UNL     1      46.043  31.593  89.945  1.00  0.00     0.004 C 
ENDBRANCH  28  29
ENDBRANCH  27  28
ENDBRANCH  26  27
ENDBRANCH  25  26
ENDBRANCH  24  25
ENDBRANCH  23  24
ENDBRANCH  22  23
ENDBRANCH  21  22
ENDBRANCH  20  21
ENDBRANCH  19  20
ENDBRANCH  18  19
ENDBRANCH  17  18
ENDBRANCH   1  17
TORSDOF 26
ENDMDL
MODEL 6
REMARK VINA RESULT:    -3.286      1.714      5.222
REMARK INTER + INTRA:         -13.313
REMARK INTER:                  -8.629
REMARK INTRA:                  -4.684
REMARK UNBOUND:                -5.031
REMARK SMILES CCCCCCCCCCCCCCCCCCCCCCCCCCCC(=O)[O-]
REMARK SMILES IDX 15 1 16 2 17 3 18 4 19 5 20 6 21 7 22 8 23 9 24 10 25 11
REMARK SMILES IDX 26 12 27 13 28 14 29 15 30 16 14 17 13 18 12 19 11 20 10 21
REMARK SMILES IDX 9 22 8 23 7 24 6 25 5 26 4 27 3 28 2 29 1 30
REMARK H PARENT
REMARK Flexibility Score: inf
ROOT
ATOM      1  C   UNL     1      48.304  33.208  86.813  1.00  0.00     0.000 C 
ENDROOT
BRANCH   1   2
ATOM      2  C   UNL     1      48.671  31.855  86.183  1.00  0.00     0.000 C 
BRANCH   2   3
ATOM      3  C   UNL     1      50.115  31.815  85.650  1.00  0.00     0.000 C 
BRANCH   3   4
ATOM      4  C   UNL     1      50.949  30.633  86.186  1.00  0.00     0.000 C 
BRANCH   4   5
ATOM      5  C   UNL     1      50.423  30.111  87.535  1.00  0.00     0.000 C 
BRANCH   5   6
ATOM      6  C   UNL     1      51.239  30.624  88.735  1.00  0.00     0.000 C 
BRANCH   6   7
ATOM      7  C   UNL     1      50.405  31.467  89.725  1.00  0.00     0.000 C 
BRANCH   7   8
ATOM      8  C   UNL     1      49.822  30.616  90.867  1.00  0.00     0.000 C 
BRANCH   8   9
ATOM      9  C   UNL     1      48.312  30.827  91.052  1.00  0.00     0.000 C 
BRANCH   9  10
ATOM     10  C   UNL     1      47.608  31.235  89.748  1.00  0.00     0.000 C 
BRANCH  10  11
ATOM     11  C   UNL     1      46.126  31.587  89.961  1.00  0.00     0.000 C 
BRANCH  11  12
ATOM     12  C   UNL     1      45.640  31.280  91.385  1.00  0.00     0.006 C 
BRANCH  12  13
ATOM     13  C   UNL     1      44.401  30.381  91.354  1.00  0.00     0.053 C 
BRANCH  13  14
ATOM     14  C   UNL     1      44.166  29.763  92.697  1.00  0.00     0.041 C 
ATOM     15  O   UNL     1      43.273  30.218  93.459  1.00  0.00    -0.550 OA
ATOM     16  O   UNL     1      44.911  28.659  93.090  1.00  0.00    -0.550 OA
ENDBRANCH  13  14
ENDBRANCH  12  13
ENDBRANCH  11  12
ENDBRANCH  10  11
ENDBRANCH   9  10
ENDBRANCH   8   9
ENDBRANCH   7   8
ENDBRANCH   6   7
ENDBRANCH   5   6
ENDBRANCH   4   5
ENDBRANCH   3   4
ENDBRANCH   2   3
ENDBRANCH   1   2
BRANCH   1  17
ATOM     17  C   UNL     1      49.375  34.283  86.564  1.00  0.00     0.000 C 
BRANCH  17  18
ATOM     18  C   UNL     1      49.891  34.914  87.867  1.00  0.00     0.000 C 
BRANCH  18  19
ATOM     19  C   UNL     1      51.383  35.244  87.766  1.00  0.00     0.000 C 
BRANCH  19  20
ATOM     20  C   UNL     1      52.243  34.071  88.263  1.00  0.00     0.000 C 
BRANCH  20  21
ATOM     21  C   UNL     1      53.156  33.505  87.163  1.00  0.00     0.000 C 
BRANCH  21  22
ATOM     22  C   UNL     1      53.071  34.318  85.860  1.00  0.00    -0.000 C 
BRANCH  22  23
ATOM     23  C   UNL     1      53.167  33.442  84.598  1.00  0.00    -0.000 C 
BRANCH  23  24
ATOM     24  C   UNL     1      52.683  34.115  83.301  1.00  0.00    -0.000 C 
BRANCH  24  25
ATOM     25  C   UNL     1      51.650  33.269  82.534  1.00  0.00    -0.000 C 
BRANCH  25  26
ATOM     26  C   UNL     1      50.955  34.060  81.405  1.00  0.00    -0.000 C 
BRANCH  26  27
ATOM     27  C   UNL     1      49.589  34.651  81.804  1.00  0.00    -0.000 C 
BRANCH  27  28
ATOM     28  C   UNL     1      48.850  33.897  82.925  1.00  0.00    -0.000 C 
BRANCH  28  29
ATOM     29  C   UNL     1      48.167  32.589  82.487  1.00  0.00    -0.003 C 
ATOM     30  C   UNL     1      46.692  32.525  82.877  1.00  0.00     0.004 C 
ENDBRANCH  28  29
ENDBRANCH  27  28
ENDBRANCH  26  27
ENDBRANCH  25  26
ENDBRANCH  24  25
ENDBRANCH  23  24
ENDBRANCH  22  23
ENDBRANCH  21  22
ENDBRANCH  20  21
ENDBRANCH  19  20
ENDBRANCH  18  19
ENDBRANCH  17  18
ENDBRANCH   1  17
TORSDOF 26
ENDMDL
MODEL 7
REMARK VINA RESULT:    -3.283      3.153      6.873
REMARK INTER + INTRA:         -13.305
REMARK INTER:                  -8.696
REMARK INTRA:                  -4.609
REMARK UNBOUND:                -5.031
REMARK SMILES CCCCCCCCCCCCCCCCCCCCCCCCCCCC(=O)[O-]
REMARK SMILES IDX 15 1 16 2 17 3 18 4 19 5 20 6 21 7 22 8 23 9 24 10 25 11
REMARK SMILES IDX 26 12 27 13 28 14 29 15 30 16 14 17 13 18 12 19 11 20 10 21
REMARK SMILES IDX 9 22 8 23 7 24 6 25 5 26 4 27 3 28 2 29 1 30
REMARK H PARENT
REMARK Flexibility Score: inf
ROOT
ATOM      1  C   UNL     1      48.939  30.719  87.164  1.00  0.00     0.000 C 
ENDROOT
BRANCH   1   2
ATOM      2  C   UNL     1      48.286  32.049  86.753  1.00  0.00     0.000 C 
BRANCH   2   3
ATOM      3  C   UNL     1      48.165  33.042  87.923  1.00  0.00     0.000 C 
BRANCH   3   4
ATOM      4  C   UNL     1      48.989  34.333  87.738  1.00  0.00     0.000 C 
BRANCH   4   5
ATOM      5  C   UNL     1      50.477  34.129  88.074  1.00  0.00     0.000 C 
BRANCH   5   6
ATOM      6  C   UNL     1      51.336  35.370  87.768  1.00  0.00     0.000 C 
BRANCH   6   7
ATOM      7  C   UNL     1      52.764  35.022  87.293  1.00  0.00     0.000 C 
BRANCH   7   8
ATOM      8  C   UNL     1      52.995  33.503  87.209  1.00  0.00     0.000 C 
BRANCH   8   9
ATOM      9  C   UNL     1      53.089  32.997  85.762  1.00  0.00     0.000 C 
BRANCH   9  10
ATOM     10  C   UNL     1      52.989  34.133  84.730  1.00  0.00     0.000 C 
BRANCH  10  11
ATOM     11  C   UNL     1      51.856  33.911  83.714  1.00  0.00     0.000 C 
BRANCH  11  12
ATOM     12  C   UNL     1      50.502  33.634  84.382  1.00  0.00     0.006 C 
BRANCH  12  13
ATOM     13  C   UNL     1      49.418  34.555  83.818  1.00  0.00     0.053 C 
BRANCH  13  14
ATOM     14  C   UNL     1      48.575  33.826  82.818  1.00  0.00     0.041 C 
ATOM     15  O   UNL     1      47.584  33.148  83.196  1.00  0.00    -0.550 OA
ATOM     16  O   UNL     1      48.865  33.927  81.464  1.00  0.00    -0.550 OA
ENDBRANCH  13  14
ENDBRANCH  12  13
ENDBRANCH  11  12
ENDBRANCH  10  11
ENDBRANCH   9  10
ENDBRANCH   8   9
ENDBRANCH   7   8
ENDBRANCH   6   7
ENDBRANCH   5   6
ENDBRANCH   4   5
ENDBRANCH   3   4
ENDBRANCH   2   3
ENDBRANCH   1   2
BRANCH   1  17
ATOM     17  C   UNL     1      50.424  30.646  86.771  1.00  0.00     0.000 C 
BRANCH  17  18
ATOM     18  C   UNL     1      51.290  30.000  87.863  1.00  0.00     0.000 C 
BRANCH  18  19
ATOM     19  C   UNL     1      51.393  30.908  89.093  1.00  0.00     0.000 C 
BRANCH  19  20
ATOM     20  C   UNL     1      51.240  30.099  90.391  1.00  0.00     0.000 C 
BRANCH  20  21
ATOM     21  C   UNL     1      50.098  29.072  90.311  1.00  0.00     0.000 C 
BRANCH  21  22
ATOM     22  C   UNL     1      48.929  29.429  91.245  1.00  0.00    -0.000 C 
BRANCH  22  23
ATOM     23  C   UNL     1      48.161  30.685  90.792  1.00  0.00    -0.000 C 
BRANCH  23  24
ATOM     24  C   UNL     1      46.663  30.467  90.518  1.00  0.00    -0.000 C 
BRANCH  24  25
ATOM     25  C   UNL     1      45.756  31.331  91.414  1.00  0.00    -0.000 C 
BRANCH  25  26
ATOM     26  C   UNL     1      44.255  31.048  91.189  1.00  0.00    -0.000 C 
BRANCH  26  27
ATOM     27  C   UNL     1      43.520  30.540  92.444  1.00  0.00    -0.000 C 
BRANCH  27  28
ATOM     28  C   UNL     1      44.324  29.570  93.330  1.00  0.00    -0.000 C 
BRANCH  28  29
ATOM     29  C   UNL     1      44.424  28.131  92.791  1.00  0.00    -0.003 C 
ATOM     30  C   UNL     1      45.865  27.665  92.595  1.00  0.00     0.004 C 
ENDBRANCH  28  29
ENDBRANCH  27  28
ENDBRANCH  26  27
ENDBRANCH  25  26
ENDBRANCH  24  25
ENDBRANCH  23  24
ENDBRANCH  22  23
ENDBRANCH  21  22
ENDBRANCH  20  21
ENDBRANCH  19  20
ENDBRANCH  18  19
ENDBRANCH  17  18
ENDBRANCH   1  17
TORSDOF 26
ENDMDL
MODEL 8
REMARK VINA RESULT:    -3.234      3.315      6.119
REMARK INTER + INTRA:         -13.180
REMARK INTER:                  -8.348
REMARK INTRA:                  -4.831
REMARK UNBOUND:                -5.031
REMARK SMILES CCCCCCCCCCCCCCCCCCCCCCCCCCCC(=O)[O-]
REMARK SMILES IDX 15 1 16 2 17 3 18 4 19 5 20 6 21 7 22 8 23 9 24 10 25 11
REMARK SMILES IDX 26 12 27 13 28 14 29 15 30 16 14 17 13 18 12 19 11 20 10 21
REMARK SMILES IDX 9 22 8 23 7 24 6 25 5 26 4 27 3 28 2 29 1 30
REMARK H PARENT
REMARK Flexibility Score: inf
ROOT
ATOM      1  C   UNL     1      52.025  32.264  87.753  1.00  0.00     0.000 C 
ENDROOT
BRANCH   1   2
ATOM      2  C   UNL     1      52.577  33.190  86.657  1.00  0.00     0.000 C 
BRANCH   2   3
ATOM      3  C   UNL     1      52.020  34.623  86.749  1.00  0.00     0.000 C 
BRANCH   3   4
ATOM      4  C   UNL     1      51.244  34.912  88.050  1.00  0.00     0.000 C 
BRANCH   4   5
ATOM      5  C   UNL     1      49.847  35.500  87.780  1.00  0.00     0.000 C 
BRANCH   5   6
ATOM      6  C   UNL     1      48.917  34.519  87.044  1.00  0.00     0.000 C 
BRANCH   6   7
ATOM      7  C   UNL     1      48.463  33.333  87.921  1.00  0.00     0.000 C 
BRANCH   7   8
ATOM      8  C   UNL     1      47.937  32.155  87.081  1.00  0.00     0.000 C 
BRANCH   8   9
ATOM      9  C   UNL     1      48.240  32.314  85.584  1.00  0.00     0.000 C 
BRANCH   9  10
ATOM     10  C   UNL     1      49.495  31.540  85.149  1.00  0.00     0.000 C 
BRANCH  10  11
ATOM     11  C   UNL     1      49.704  31.560  83.626  1.00  0.00     0.000 C 
BRANCH  11  12
ATOM     12  C   UNL     1      51.010  32.255  83.213  1.00  0.00     0.006 C 
BRANCH  12  13
ATOM     13  C   UNL     1      50.948  33.754  83.517  1.00  0.00     0.053 C 
BRANCH  13  14
ATOM     14  C   UNL     1      49.779  34.384  82.826  1.00  0.00     0.041 C 
ATOM     15  O   UNL     1      48.829  34.867  83.496  1.00  0.00    -0.550 OA
ATOM     16  O   UNL     1      49.757  34.469  81.440  1.00  0.00    -0.550 OA
ENDBRANCH  13  14
ENDBRANCH  12  13
ENDBRANCH  11  12
ENDBRANCH  10  11
ENDBRANCH   9  10
ENDBRANCH   8   9
ENDBRANCH   7   8
ENDBRANCH   6   7
ENDBRANCH   5   6
ENDBRANCH   4   5
ENDBRANCH   3   4
ENDBRANCH   2   3
ENDBRANCH   1   2
BRANCH   1  17
ATOM     17  C   UNL     1      53.127  31.433  88.432  1.00  0.00     0.000 C 
BRANCH  17  18
ATOM     18  C   UNL     1      53.394  31.880  89.877  1.00  0.00     0.000 C 
BRANCH  18  19
ATOM     19  C   UNL     1      52.153  32.540  90.488  1.00  0.00     0.000 C 
BRANCH  19  20
ATOM     20  C   UNL     1      51.903  32.030  91.916  1.00  0.00     0.000 C 
BRANCH  20  21
ATOM     21  C   UNL     1      50.599  31.221  92.030  1.00  0.00     0.000 C 
BRANCH  21  22
ATOM     22  C   UNL     1      50.838  29.709  91.888  1.00  0.00    -0.000 C 
BRANCH  22  23
ATOM     23  C   UNL     1      50.638  29.202  90.449  1.00  0.00    -0.000 C 
BRANCH  23  24
ATOM     24  C   UNL     1      49.653  30.024  89.601  1.00  0.00    -0.000 C 
BRANCH  24  25
ATOM     25  C   UNL     1      48.331  29.284  89.327  1.00  0.00    -0.000 C 
BRANCH  25  26
ATOM     26  C   UNL     1      47.448  29.158  90.587  1.00  0.00    -0.000 C 
BRANCH  26  27
ATOM     27  C   UNL     1      46.979  30.509  91.160  1.00  0.00    -0.000 C 
BRANCH  27  28
ATOM     28  C   UNL     1      46.183  31.396  90.185  1.00  0.00    -0.000 C 
BRANCH  28  29
ATOM     29  C   UNL     1      44.654  31.245  90.272  1.00  0.00    -0.003 C 
ATOM     30  C   UNL     1      44.163  30.924  91.682  1.00  0.00     0.004 C 
ENDBRANCH  28  29
ENDBRANCH  27  28
ENDBRANCH  26  27
ENDBRANCH  25  26
ENDBRANCH  24  25
ENDBRANCH  23  24
ENDBRANCH  22  23
ENDBRANCH  21  22
ENDBRANCH  20  21
ENDBRANCH  19  20
ENDBRANCH  18  19
ENDBRANCH  17  18
ENDBRANCH   1  17
TORSDOF 26
ENDMDL
MODEL 9
REMARK VINA RESULT:    -3.220      2.803      6.587
REMARK INTER + INTRA:         -13.145
REMARK INTER:                  -8.308
REMARK INTRA:                  -4.837
REMARK UNBOUND:                -5.031
REMARK SMILES CCCCCCCCCCCCCCCCCCCCCCCCCCCC(=O)[O-]
REMARK SMILES IDX 15 1 16 2 17 3 18 4 19 5 20 6 21 7 22 8 23 9 24 10 25 11
REMARK SMILES IDX 26 12 27 13 28 14 29 15 30 16 14 17 13 18 12 19 11 20 10 21
REMARK SMILES IDX 9 22 8 23 7 24 6 25 5 26 4 27 3 28 2 29 1 30
REMARK H PARENT
REMARK Flexibility Score: inf
ROOT
ATOM      1  C   UNL     1      46.699  31.121  88.468  1.00  0.00     0.000 C 
ENDROOT
BRANCH   1   2
ATOM      2  C   UNL     1      46.389  31.642  89.881  1.00  0.00     0.000 C 
BRANCH   2   3
ATOM      3  C   UNL     1      44.960  31.301  90.343  1.00  0.00     0.000 C 
BRANCH   3   4
ATOM      4  C   UNL     1      44.848  30.982  91.848  1.00  0.00     0.000 C 
BRANCH   4   5
ATOM      5  C   UNL     1      44.461  29.515  92.108  1.00  0.00     0.000 C 
BRANCH   5   6
ATOM      6  C   UNL     1      45.683  28.588  92.243  1.00  0.00     0.000 C 
BRANCH   6   7
ATOM      7  C   UNL     1      46.007  27.813  90.947  1.00  0.00     0.000 C 
BRANCH   7   8
ATOM      8  C   UNL     1      47.406  28.151  90.401  1.00  0.00     0.000 C 
BRANCH   8   9
ATOM      9  C   UNL     1      48.340  28.723  91.478  1.00  0.00     0.000 C 
BRANCH   9  10
ATOM     10  C   UNL     1      49.458  29.597  90.887  1.00  0.00     0.000 C 
BRANCH  10  11
ATOM     11  C   UNL     1      49.572  30.963  91.583  1.00  0.00     0.000 C 
BRANCH  11  12
ATOM     12  C   UNL     1      50.820  31.079  92.470  1.00  0.00     0.006 C 
BRANCH  12  13
ATOM     13  C   UNL     1      51.805  32.098  91.892  1.00  0.00     0.053 C 
BRANCH  13  14
ATOM     14  C   UNL     1      53.044  31.414  91.404  1.00  0.00     0.041 C 
ATOM     15  O   UNL     1      54.163  31.984  91.494  1.00  0.00    -0.550 OA
ATOM     16  O   UNL     1      52.966  30.129  90.881  1.00  0.00    -0.550 OA
ENDBRANCH  13  14
ENDBRANCH  12  13
ENDBRANCH  11  12
ENDBRANCH  10  11
ENDBRANCH   9  10
ENDBRANCH   8   9
ENDBRANCH   7   8
ENDBRANCH   6   7
ENDBRANCH   5   6
ENDBRANCH   4   5
ENDBRANCH   3   4
ENDBRANCH   2   3
ENDBRANCH   1   2
BRANCH   1  17
ATOM     17  C   UNL     1      48.135  31.447  88.022  1.00  0.00     0.000 C 
BRANCH  17  18
ATOM     18  C   UNL     1      48.323  32.935  87.689  1.00  0.00     0.000 C 
BRANCH  18  19
ATOM     19  C   UNL     1      49.725  33.414  88.081  1.00  0.00     0.000 C 
BRANCH  19  20
ATOM     20  C   UNL     1      50.624  32.229  88.469  1.00  0.00     0.000 C 
BRANCH  20  21
ATOM     21  C   UNL     1      51.979  32.257  87.742  1.00  0.00     0.000 C 
BRANCH  21  22
ATOM     22  C   UNL     1      52.937  33.303  88.336  1.00  0.00    -0.000 C 
BRANCH  22  23
ATOM     23  C   UNL     1      53.590  34.196  87.266  1.00  0.00    -0.000 C 
BRANCH  23  24
ATOM     24  C   UNL     1      52.639  34.688  86.161  1.00  0.00    -0.000 C 
BRANCH  24  25
ATOM     25  C   UNL     1      53.064  34.229  84.753  1.00  0.00    -0.000 C 
BRANCH  25  26
ATOM     26  C   UNL     1      51.858  33.922  83.839  1.00  0.00    -0.000 C 
BRANCH  26  27
ATOM     27  C   UNL     1      50.528  33.748  84.596  1.00  0.00    -0.000 C 
BRANCH  27  28
ATOM     28  C   UNL     1      49.355  33.217  83.750  1.00  0.00    -0.000 C 
BRANCH  28  29
ATOM     29  C   UNL     1      49.205  31.685  83.740  1.00  0.00    -0.003 C 
ATOM     30  C   UNL     1      49.945  31.003  84.889  1.00  0.00     0.004 C 
ENDBRANCH  28  29
ENDBRANCH  27  28
ENDBRANCH  26  27
ENDBRANCH  25  26
ENDBRANCH  24  25
ENDBRANCH  23  24
ENDBRANCH  22  23
ENDBRANCH  21  22
ENDBRANCH  20  21
ENDBRANCH  19  20
ENDBRANCH  18  19
ENDBRANCH  17  18
ENDBRANCH   1  17
TORSDOF 26
ENDMDL
