MODEL 1
REMARK VINA RESULT:     4.743      0.000      0.000
REMARK INTER + INTRA:           5.342
REMARK INTER:                   5.159
REMARK INTRA:                   0.183
REMARK UNBOUND:                 0.183
REMARK SMILES C[C@@H]1[C@H]2C3=CC[C@@H]4[C@]5(C)CC[C@@H](O)C(C)(C)[C@@H]5CC[C@]4(C)[C@]3(C)CC[C@@]2(C(=O)[O-])CC[C@@H]1C
REMARK SMILES IDX 26 1 30 2 25 3 3 4 31 5 24 6 4 7 2 8 32 9 22 10 5 11 1 12
REMARK SMILES IDX 33 13 23 14 20 15 6 16 7 17 19 18 21 19 8 20 18 21 17 22
REMARK SMILES IDX 10 23 9 24 14 25 11 26 12 27 15 28 16 29 27 30 28 31 29 32
REMARK SMILES IDX 13 33
REMARK H PARENT 13 34
REMARK Flexibility Score: inf
ROOT
ATOM      1  C   UNL     1     101.056 115.262 117.617  1.00  0.00     0.017 C 
ATOM      2  C   UNL     1     101.472 114.869 116.169  1.00  0.00     0.014 C 
ATOM      3  C   UNL     1     102.287 115.173 118.571  1.00  0.00     0.014 C 
ATOM      4  C   UNL     1      99.891 114.348 118.149  1.00  0.00     0.030 C 
ATOM      5  C   UNL     1     101.638 113.361 115.946  1.00  0.00     0.004 C 
ATOM      6  C   UNL     1     101.961 115.467 120.066  1.00  0.00     0.013 C 
ATOM      7  C   UNL     1      99.652 114.681 119.635  1.00  0.00    -0.063 C 
ATOM      8  C   UNL     1     100.033 112.829 117.824  1.00  0.00    -0.003 C 
ATOM      9  C   UNL     1     100.375 112.573 116.332  1.00  0.00    -0.011 C 
ATOM     10  C   UNL     1     100.806 114.591 120.669  1.00  0.00    -0.006 C 
ATOM     11  C   UNL     1      98.675 115.587 119.832  1.00  0.00    -0.027 C 
ATOM     12  C   UNL     1      98.787 112.042 118.270  1.00  0.00     0.008 C 
ATOM     13  C   UNL     1      99.214 112.840 115.352  1.00  0.00     0.008 C 
ATOM     14  C   UNL     1     101.379 113.135 120.767  1.00  0.00     0.017 C 
ATOM     15  C   UNL     1     100.312 115.051 122.175  1.00  0.00    -0.020 C 
ATOM     16  C   UNL     1      98.866 116.716 120.789  1.00  0.00     0.032 C 
ATOM     17  C   UNL     1      99.170 116.182 122.191  1.00  0.00     0.006 C 
ATOM     18  C   UNL     1     101.553 115.486 123.012  1.00  0.00     0.008 C 
ATOM     19  C   UNL     1      99.675 113.812 122.905  1.00  0.00     0.012 C 
ATOM     20  C   UNL     1      99.127 117.283 123.389  1.00  0.00    -0.025 C 
ATOM     21  C   UNL     1     101.219 116.097 124.358  1.00  0.00     0.005 C 
ATOM     22  C   UNL     1     100.469 117.434 124.226  1.00  0.00     0.003 C 
ATOM     23  C   UNL     1      98.674 118.698 122.870  1.00  0.00     0.010 C 
ATOM     24  C   UNL     1      98.016 116.827 124.395  1.00  0.00     0.012 C 
ATOM     25  C   UNL     1     101.335 118.732 123.922  1.00  0.00    -0.006 C 
ATOM     26  C   UNL     1      98.943 119.830 123.861  1.00  0.00     0.033 C 
ATOM     27  C   UNL     1     100.439 120.008 124.202  1.00  0.00     0.120 C 
ATOM     28  C   UNL     1     102.579 118.797 124.856  1.00  0.00     0.014 C 
ATOM     29  C   UNL     1     101.886 118.781 122.465  1.00  0.00     0.014 C 
ENDROOT
BRANCH   1  30
ATOM     30  C   UNL     1     100.588 116.717 117.538  1.00  0.00     0.048 C 
ATOM     31  O   UNL     1      99.372 116.984 117.339  1.00  0.00    -0.550 OA
ATOM     32  O   UNL     1     101.499 117.768 117.579  1.00  0.00    -0.550 OA
ENDBRANCH   1  30
BRANCH  27  33
ATOM     33  O   UNL     1     100.508 120.386 125.559  1.00  0.00    -0.393 OA
ATOM     34  H   UNL     1     101.458 120.336 125.842  1.00  0.00     0.210 HD
ENDBRANCH  27  33
TORSDOF 2
ENDMDL
