MODEL 1
REMARK VINA RESULT:    -3.922      0.000      0.000
REMARK INTER + INTRA:         -14.601
REMARK INTER:                  -9.883
REMARK INTRA:                  -4.718
REMARK UNBOUND:                -4.718
REMARK SMILES CCCCCCCCCCCCCCCCCCCCCCCCCCCC(=O)[O-]
REMARK SMILES IDX 15 1 16 2 17 3 18 4 19 5 20 6 21 7 22 8 23 9 24 10 25 11
REMARK SMILES IDX 26 12 27 13 28 14 29 15 30 16 14 17 13 18 12 19 11 20 10 21
REMARK SMILES IDX 9 22 8 23 7 24 6 25 5 26 4 27 3 28 2 29 1 30
REMARK H PARENT
REMARK Flexibility Score: inf
ROOT
ATOM      1  C   UNL     1      -6.199  29.599  -8.903  1.00  0.00     0.000 C 
ENDROOT
BRANCH   1   2
ATOM      2  C   UNL     1      -7.599  30.122  -9.262  1.00  0.00     0.000 C 
BRANCH   2   3
ATOM      3  C   UNL     1      -8.648  29.032  -9.550  1.00  0.00     0.000 C 
BRANCH   3   4
ATOM      4  C   UNL     1      -8.212  28.008 -10.619  1.00  0.00     0.000 C 
BRANCH   4   5
ATOM      5  C   UNL     1      -8.894  26.639 -10.447  1.00  0.00     0.000 C 
BRANCH   5   6
ATOM      6  C   UNL     1      -7.916  25.541  -9.989  1.00  0.00     0.000 C 
BRANCH   6   7
ATOM      7  C   UNL     1      -6.457  26.002  -9.811  1.00  0.00     0.000 C 
BRANCH   7   8
ATOM      8  C   UNL     1      -5.390  24.945 -10.162  1.00  0.00     0.000 C 
BRANCH   8   9
ATOM      9  C   UNL     1      -4.884  24.990 -11.615  1.00  0.00     0.000 C 
BRANCH   9  10
ATOM     10  C   UNL     1      -5.130  26.323 -12.349  1.00  0.00     0.000 C 
BRANCH  10  11
ATOM     11  C   UNL     1      -5.756  26.159 -13.751  1.00  0.00     0.000 C 
BRANCH  11  12
ATOM     12  C   UNL     1      -7.236  25.744 -13.691  1.00  0.00     0.006 C 
BRANCH  12  13
ATOM     13  C   UNL     1      -8.174  26.870 -14.145  1.00  0.00     0.053 C 
BRANCH  13  14
ATOM     14  C   UNL     1      -9.337  26.347 -14.931  1.00  0.00     0.041 C 
ATOM     15  O   UNL     1      -9.324  26.392 -16.190  1.00  0.00    -0.550 OA
ATOM     16  O   UNL     1     -10.446  25.834 -14.270  1.00  0.00    -0.550 OA
ENDBRANCH  13  14
ENDBRANCH  12  13
ENDBRANCH  11  12
ENDBRANCH  10  11
ENDBRANCH   9  10
ENDBRANCH   8   9
ENDBRANCH   7   8
ENDBRANCH   6   7
ENDBRANCH   5   6
ENDBRANCH   4   5
ENDBRANCH   3   4
ENDBRANCH   2   3
ENDBRANCH   1   2
BRANCH   1  17
ATOM     17  C   UNL     1      -5.136  30.708  -8.887  1.00  0.00     0.000 C 
BRANCH  17  18
ATOM     18  C   UNL     1      -4.640  30.978  -7.457  1.00  0.00     0.000 C 
BRANCH  18  19
ATOM     19  C   UNL     1      -5.493  32.020  -6.715  1.00  0.00     0.000 C 
BRANCH  19  20
ATOM     20  C   UNL     1      -6.169  31.517  -5.424  1.00  0.00     0.000 C 
BRANCH  20  21
ATOM     21  C   UNL     1      -7.561  30.887  -5.642  1.00  0.00     0.000 C 
BRANCH  21  22
ATOM     22  C   UNL     1      -7.613  29.408  -5.217  1.00  0.00    -0.000 C 
BRANCH  22  23
ATOM     23  C   UNL     1      -6.228  28.835  -4.866  1.00  0.00    -0.000 C 
BRANCH  23  24
ATOM     24  C   UNL     1      -5.674  27.832  -5.896  1.00  0.00    -0.000 C 
BRANCH  24  25
ATOM     25  C   UNL     1      -6.709  26.767  -6.302  1.00  0.00    -0.000 C 
BRANCH  25  26
ATOM     26  C   UNL     1      -6.165  25.330  -6.150  1.00  0.00    -0.000 C 
BRANCH  26  27
ATOM     27  C   UNL     1      -6.090  24.849  -4.688  1.00  0.00    -0.000 C 
BRANCH  27  28
ATOM     28  C   UNL     1      -4.668  24.782  -4.096  1.00  0.00    -0.000 C 
BRANCH  28  29
ATOM     29  C   UNL     1      -4.367  25.843  -3.021  1.00  0.00    -0.003 C 
ATOM     30  C   UNL     1      -5.622  26.322  -2.289  1.00  0.00     0.004 C 
ENDBRANCH  28  29
ENDBRANCH  27  28
ENDBRANCH  26  27
ENDBRANCH  25  26
ENDBRANCH  24  25
ENDBRANCH  23  24
ENDBRANCH  22  23
ENDBRANCH  21  22
ENDBRANCH  20  21
ENDBRANCH  19  20
ENDBRANCH  18  19
ENDBRANCH  17  18
ENDBRANCH   1  17
TORSDOF 26
ENDMDL
MODEL 2
REMARK VINA RESULT:    -3.916      4.747      8.374
REMARK INTER + INTRA:         -14.586
REMARK INTER:                 -10.756
REMARK INTRA:                  -3.831
REMARK UNBOUND:                -4.718
REMARK SMILES CCCCCCCCCCCCCCCCCCCCCCCCCCCC(=O)[O-]
REMARK SMILES IDX 15 1 16 2 17 3 18 4 19 5 20 6 21 7 22 8 23 9 24 10 25 11
REMARK SMILES IDX 26 12 27 13 28 14 29 15 30 16 14 17 13 18 12 19 11 20 10 21
REMARK SMILES IDX 9 22 8 23 7 24 6 25 5 26 4 27 3 28 2 29 1 30
REMARK H PARENT
REMARK Flexibility Score: inf
ROOT
ATOM      1  C   UNL     1     -10.297  31.055  -8.844  1.00  0.00     0.000 C 
ENDROOT
BRANCH   1   2
ATOM      2  C   UNL     1     -10.001  29.747  -9.595  1.00  0.00     0.000 C 
BRANCH   2   3
ATOM      3  C   UNL     1      -8.991  28.813  -8.901  1.00  0.00     0.000 C 
BRANCH   3   4
ATOM      4  C   UNL     1      -7.841  28.341  -9.817  1.00  0.00     0.000 C 
BRANCH   4   5
ATOM      5  C   UNL     1      -6.455  28.771  -9.302  1.00  0.00     0.000 C 
BRANCH   5   6
ATOM      6  C   UNL     1      -6.303  30.300  -9.212  1.00  0.00     0.000 C 
BRANCH   6   7
ATOM      7  C   UNL     1      -4.918  30.791  -8.749  1.00  0.00     0.000 C 
BRANCH   7   8
ATOM      8  C   UNL     1      -4.860  31.312  -7.299  1.00  0.00     0.000 C 
BRANCH   8   9
ATOM      9  C   UNL     1      -4.823  30.217  -6.217  1.00  0.00     0.000 C 
BRANCH   9  10
ATOM     10  C   UNL     1      -6.185  29.889  -5.576  1.00  0.00     0.000 C 
BRANCH  10  11
ATOM     11  C   UNL     1      -6.339  28.411  -5.155  1.00  0.00     0.000 C 
BRANCH  11  12
ATOM     12  C   UNL     1      -5.403  27.475  -5.938  1.00  0.00     0.006 C 
BRANCH  12  13
ATOM     13  C   UNL     1      -6.051  26.114  -6.227  1.00  0.00     0.053 C 
BRANCH  13  14
ATOM     14  C   UNL     1      -5.430  25.016  -5.419  1.00  0.00     0.041 C 
ATOM     15  O   UNL     1      -5.537  23.816  -5.790  1.00  0.00    -0.550 OA
ATOM     16  O   UNL     1      -4.756  25.317  -4.243  1.00  0.00    -0.550 OA
ENDBRANCH  13  14
ENDBRANCH  12  13
ENDBRANCH  11  12
ENDBRANCH  10  11
ENDBRANCH   9  10
ENDBRANCH   8   9
ENDBRANCH   7   8
ENDBRANCH   6   7
ENDBRANCH   5   6
ENDBRANCH   4   5
ENDBRANCH   3   4
ENDBRANCH   2   3
ENDBRANCH   1   2
BRANCH   1  17
ATOM     17  C   UNL     1     -11.791  31.416  -8.847  1.00  0.00     0.000 C 
BRANCH  17  18
ATOM     18  C   UNL     1     -12.082  32.573  -7.878  1.00  0.00     0.000 C 
BRANCH  18  19
ATOM     19  C   UNL     1     -12.701  32.102  -6.552  1.00  0.00     0.000 C 
BRANCH  19  20
ATOM     20  C   UNL     1     -13.155  30.629  -6.524  1.00  0.00     0.000 C 
BRANCH  20  21
ATOM     21  C   UNL     1     -12.279  29.713  -5.643  1.00  0.00     0.000 C 
BRANCH  21  22
ATOM     22  C   UNL     1     -11.783  28.466  -6.398  1.00  0.00    -0.000 C 
BRANCH  22  23
ATOM     23  C   UNL     1     -12.698  28.072  -7.572  1.00  0.00    -0.000 C 
BRANCH  23  24
ATOM     24  C   UNL     1     -12.155  26.924  -8.444  1.00  0.00    -0.000 C 
BRANCH  24  25
ATOM     25  C   UNL     1     -12.564  27.056  -9.922  1.00  0.00    -0.000 C 
BRANCH  25  26
ATOM     26  C   UNL     1     -13.510  28.251 -10.167  1.00  0.00    -0.000 C 
BRANCH  26  27
ATOM     27  C   UNL     1     -14.230  28.199 -11.528  1.00  0.00    -0.000 C 
BRANCH  27  28
ATOM     28  C   UNL     1     -15.637  27.570 -11.498  1.00  0.00    -0.000 C 
BRANCH  28  29
ATOM     29  C   UNL     1     -16.727  28.394 -12.209  1.00  0.00    -0.003 C 
ATOM     30  C   UNL     1     -16.154  29.406 -13.203  1.00  0.00     0.004 C 
ENDBRANCH  28  29
ENDBRANCH  27  28
ENDBRANCH  26  27
ENDBRANCH  25  26
ENDBRANCH  24  25
ENDBRANCH  23  24
ENDBRANCH  22  23
ENDBRANCH  21  22
ENDBRANCH  20  21
ENDBRANCH  19  20
ENDBRANCH  18  19
ENDBRANCH  17  18
ENDBRANCH   1  17
TORSDOF 26
ENDMDL
MODEL 3
REMARK VINA RESULT:    -3.914      4.196      7.502
REMARK INTER + INTRA:         -14.581
REMARK INTER:                 -10.906
REMARK INTRA:                  -3.675
REMARK UNBOUND:                -4.718
REMARK SMILES CCCCCCCCCCCCCCCCCCCCCCCCCCCC(=O)[O-]
REMARK SMILES IDX 15 1 16 2 17 3 18 4 19 5 20 6 21 7 22 8 23 9 24 10 25 11
REMARK SMILES IDX 26 12 27 13 28 14 29 15 30 16 14 17 13 18 12 19 11 20 10 21
REMARK SMILES IDX 9 22 8 23 7 24 6 25 5 26 4 27 3 28 2 29 1 30
REMARK H PARENT
REMARK Flexibility Score: inf
ROOT
ATOM      1  C   UNL     1      -4.987  24.499 -12.658  1.00  0.00     0.000 C 
ENDROOT
BRANCH   1   2
ATOM      2  C   UNL     1      -4.598  24.471 -11.171  1.00  0.00     0.000 C 
BRANCH   2   3
ATOM      3  C   UNL     1      -5.705  23.982 -10.218  1.00  0.00     0.000 C 
BRANCH   3   4
ATOM      4  C   UNL     1      -6.897  24.955 -10.088  1.00  0.00     0.000 C 
BRANCH   4   5
ATOM      5  C   UNL     1      -6.612  26.121  -9.125  1.00  0.00     0.000 C 
BRANCH   5   6
ATOM      6  C   UNL     1      -7.592  27.294  -9.307  1.00  0.00     0.000 C 
BRANCH   6   7
ATOM      7  C   UNL     1      -9.045  27.000  -8.890  1.00  0.00     0.000 C 
BRANCH   7   8
ATOM      8  C   UNL     1     -10.088  27.126 -10.018  1.00  0.00     0.000 C 
BRANCH   8   9
ATOM      9  C   UNL     1     -11.231  26.094  -9.964  1.00  0.00     0.000 C 
BRANCH   9  10
ATOM     10  C   UNL     1     -12.385  26.350 -10.953  1.00  0.00     0.000 C 
BRANCH  10  11
ATOM     11  C   UNL     1     -13.607  27.052 -10.321  1.00  0.00     0.000 C 
BRANCH  11  12
ATOM     12  C   UNL     1     -14.321  27.993 -11.305  1.00  0.00     0.006 C 
BRANCH  12  13
ATOM     13  C   UNL     1     -15.848  27.860 -11.232  1.00  0.00     0.053 C 
BRANCH  13  14
ATOM     14  C   UNL     1     -16.499  28.162 -12.547  1.00  0.00     0.041 C 
ATOM     15  O   UNL     1     -17.066  27.245 -13.200  1.00  0.00    -0.550 OA
ATOM     16  O   UNL     1     -16.456  29.450 -13.063  1.00  0.00    -0.550 OA
ENDBRANCH  13  14
ENDBRANCH  12  13
ENDBRANCH  11  12
ENDBRANCH  10  11
ENDBRANCH   9  10
ENDBRANCH   8   9
ENDBRANCH   7   8
ENDBRANCH   6   7
ENDBRANCH   5   6
ENDBRANCH   4   5
ENDBRANCH   3   4
ENDBRANCH   2   3
ENDBRANCH   1   2
BRANCH   1  17
ATOM     17  C   UNL     1      -4.568  25.802 -13.357  1.00  0.00     0.000 C 
BRANCH  17  18
ATOM     18  C   UNL     1      -5.661  26.875 -13.229  1.00  0.00     0.000 C 
BRANCH  18  19
ATOM     19  C   UNL     1      -6.994  26.452 -13.869  1.00  0.00     0.000 C 
BRANCH  19  20
ATOM     20  C   UNL     1      -8.213  26.475 -12.927  1.00  0.00     0.000 C 
BRANCH  20  21
ATOM     21  C   UNL     1      -9.371  25.555 -13.366  1.00  0.00     0.000 C 
BRANCH  21  22
ATOM     22  C   UNL     1      -9.266  24.143 -12.761  1.00  0.00    -0.000 C 
BRANCH  22  23
ATOM     23  C   UNL     1      -8.585  23.134 -13.705  1.00  0.00    -0.000 C 
BRANCH  23  24
ATOM     24  C   UNL     1      -7.679  22.111 -12.996  1.00  0.00    -0.000 C 
BRANCH  24  25
ATOM     25  C   UNL     1      -8.131  21.815 -11.555  1.00  0.00    -0.000 C 
BRANCH  25  26
ATOM     26  C   UNL     1      -7.811  20.368 -11.122  1.00  0.00    -0.000 C 
BRANCH  26  27
ATOM     27  C   UNL     1      -7.205  20.266  -9.709  1.00  0.00    -0.000 C 
BRANCH  27  28
ATOM     28  C   UNL     1      -6.727  18.858  -9.303  1.00  0.00    -0.000 C 
BRANCH  28  29
ATOM     29  C   UNL     1      -6.786  18.569  -7.792  1.00  0.00    -0.003 C 
ATOM     30  C   UNL     1      -7.933  19.298  -7.090  1.00  0.00     0.004 C 
ENDBRANCH  28  29
ENDBRANCH  27  28
ENDBRANCH  26  27
ENDBRANCH  25  26
ENDBRANCH  24  25
ENDBRANCH  23  24
ENDBRANCH  22  23
ENDBRANCH  21  22
ENDBRANCH  20  21
ENDBRANCH  19  20
ENDBRANCH  18  19
ENDBRANCH  17  18
ENDBRANCH   1  17
TORSDOF 26
ENDMDL
MODEL 4
REMARK VINA RESULT:    -3.890      3.722      7.488
REMARK INTER + INTRA:         -14.521
REMARK INTER:                 -10.678
REMARK INTRA:                  -3.842
REMARK UNBOUND:                -4.718
REMARK SMILES CCCCCCCCCCCCCCCCCCCCCCCCCCCC(=O)[O-]
REMARK SMILES IDX 15 1 16 2 17 3 18 4 19 5 20 6 21 7 22 8 23 9 24 10 25 11
REMARK SMILES IDX 26 12 27 13 28 14 29 15 30 16 14 17 13 18 12 19 11 20 10 21
REMARK SMILES IDX 9 22 8 23 7 24 6 25 5 26 4 27 3 28 2 29 1 30
REMARK H PARENT
REMARK Flexibility Score: inf
ROOT
ATOM      1  C   UNL     1      -9.969  26.137 -11.021  1.00  0.00     0.000 C 
ENDROOT
BRANCH   1   2
ATOM      2  C   UNL     1     -11.294  26.055 -10.248  1.00  0.00     0.000 C 
BRANCH   2   3
ATOM      3  C   UNL     1     -12.561  26.235 -11.107  1.00  0.00     0.000 C 
BRANCH   3   4
ATOM      4  C   UNL     1     -13.425  27.449 -10.704  1.00  0.00     0.000 C 
BRANCH   4   5
ATOM      5  C   UNL     1     -13.151  27.926  -9.267  1.00  0.00     0.000 C 
BRANCH   5   6
ATOM      6  C   UNL     1     -12.570  29.350  -9.215  1.00  0.00     0.000 C 
BRANCH   6   7
ATOM      7  C   UNL     1     -11.194  29.468  -8.533  1.00  0.00     0.000 C 
BRANCH   7   8
ATOM      8  C   UNL     1     -10.162  30.332  -9.286  1.00  0.00     0.000 C 
BRANCH   8   9
ATOM      9  C   UNL     1      -8.981  29.551  -9.893  1.00  0.00     0.000 C 
BRANCH   9  10
ATOM     10  C   UNL     1      -7.586  30.031  -9.447  1.00  0.00     0.000 C 
BRANCH  10  11
ATOM     11  C   UNL     1      -6.718  28.924  -8.810  1.00  0.00     0.000 C 
BRANCH  11  12
ATOM     12  C   UNL     1      -7.461  28.156  -7.704  1.00  0.00     0.006 C 
BRANCH  12  13
ATOM     13  C   UNL     1      -6.574  27.897  -6.479  1.00  0.00     0.053 C 
BRANCH  13  14
ATOM     14  C   UNL     1      -6.090  26.481  -6.427  1.00  0.00     0.041 C 
ATOM     15  O   UNL     1      -5.349  26.097  -5.483  1.00  0.00    -0.550 OA
ATOM     16  O   UNL     1      -6.436  25.592  -7.437  1.00  0.00    -0.550 OA
ENDBRANCH  13  14
ENDBRANCH  12  13
ENDBRANCH  11  12
ENDBRANCH  10  11
ENDBRANCH   9  10
ENDBRANCH   8   9
ENDBRANCH   7   8
ENDBRANCH   6   7
ENDBRANCH   5   6
ENDBRANCH   4   5
ENDBRANCH   3   4
ENDBRANCH   2   3
ENDBRANCH   1   2
BRANCH   1  17
ATOM     17  C   UNL     1      -8.757  25.734 -10.166  1.00  0.00     0.000 C 
BRANCH  17  18
ATOM     18  C   UNL     1      -7.439  26.116 -10.858  1.00  0.00     0.000 C 
BRANCH  18  19
ATOM     19  C   UNL     1      -7.650  26.717 -12.258  1.00  0.00     0.000 C 
BRANCH  19  20
ATOM     20  C   UNL     1      -6.526  26.431 -13.272  1.00  0.00     0.000 C 
BRANCH  20  21
ATOM     21  C   UNL     1      -5.101  26.591 -12.701  1.00  0.00     0.000 C 
BRANCH  21  22
ATOM     22  C   UNL     1      -4.245  25.325 -12.884  1.00  0.00    -0.000 C 
BRANCH  22  23
ATOM     23  C   UNL     1      -4.997  24.191 -13.607  1.00  0.00    -0.000 C 
BRANCH  23  24
ATOM     24  C   UNL     1      -4.990  22.845 -12.860  1.00  0.00    -0.000 C 
BRANCH  24  25
ATOM     25  C   UNL     1      -5.662  22.930 -11.478  1.00  0.00    -0.000 C 
BRANCH  25  26
ATOM     26  C   UNL     1      -7.148  22.514 -11.518  1.00  0.00    -0.000 C 
BRANCH  26  27
ATOM     27  C   UNL     1      -7.409  21.100 -10.965  1.00  0.00    -0.000 C 
BRANCH  27  28
ATOM     28  C   UNL     1      -6.695  20.776  -9.638  1.00  0.00    -0.000 C 
BRANCH  28  29
ATOM     29  C   UNL     1      -6.091  19.361  -9.562  1.00  0.00    -0.003 C 
ATOM     30  C   UNL     1      -6.486  18.613  -8.288  1.00  0.00     0.004 C 
ENDBRANCH  28  29
ENDBRANCH  27  28
ENDBRANCH  26  27
ENDBRANCH  25  26
ENDBRANCH  24  25
ENDBRANCH  23  24
ENDBRANCH  22  23
ENDBRANCH  21  22
ENDBRANCH  20  21
ENDBRANCH  19  20
ENDBRANCH  18  19
ENDBRANCH  17  18
ENDBRANCH   1  17
TORSDOF 26
ENDMDL
MODEL 5
REMARK VINA RESULT:    -3.880      3.941      7.575
REMARK INTER + INTRA:         -14.496
REMARK INTER:                 -10.519
REMARK INTRA:                  -3.977
REMARK UNBOUND:                -4.718
REMARK SMILES CCCCCCCCCCCCCCCCCCCCCCCCCCCC(=O)[O-]
REMARK SMILES IDX 15 1 16 2 17 3 18 4 19 5 20 6 21 7 22 8 23 9 24 10 25 11
REMARK SMILES IDX 26 12 27 13 28 14 29 15 30 16 14 17 13 18 12 19 11 20 10 21
REMARK SMILES IDX 9 22 8 23 7 24 6 25 5 26 4 27 3 28 2 29 1 30
REMARK H PARENT
REMARK Flexibility Score: inf
ROOT
ATOM      1  C   UNL     1      -6.996  25.795  -9.350  1.00  0.00     0.000 C 
ENDROOT
BRANCH   1   2
ATOM      2  C   UNL     1      -6.412  26.226  -7.996  1.00  0.00     0.000 C 
BRANCH   2   3
ATOM      3  C   UNL     1      -7.197  27.336  -7.272  1.00  0.00     0.000 C 
BRANCH   3   4
ATOM      4  C   UNL     1      -6.428  28.669  -7.146  1.00  0.00     0.000 C 
BRANCH   4   5
ATOM      5  C   UNL     1      -6.487  29.514  -8.430  1.00  0.00     0.000 C 
BRANCH   5   6
ATOM      6  C   UNL     1      -7.865  30.162  -8.652  1.00  0.00     0.000 C 
BRANCH   6   7
ATOM      7  C   UNL     1      -8.588  29.732  -9.943  1.00  0.00     0.000 C 
BRANCH   7   8
ATOM      8  C   UNL     1     -10.023  29.204  -9.745  1.00  0.00     0.000 C 
BRANCH   8   9
ATOM      9  C   UNL     1     -10.118  27.737  -9.286  1.00  0.00     0.000 C 
BRANCH   9  10
ATOM     10  C   UNL     1     -11.132  27.473  -8.156  1.00  0.00     0.000 C 
BRANCH  10  11
ATOM     11  C   UNL     1     -12.482  28.200  -8.344  1.00  0.00     0.000 C 
BRANCH  11  12
ATOM     12  C   UNL     1     -12.763  29.219  -7.227  1.00  0.00     0.006 C 
BRANCH  12  13
ATOM     13  C   UNL     1     -12.388  30.650  -7.639  1.00  0.00     0.053 C 
BRANCH  13  14
ATOM     14  C   UNL     1     -11.193  31.152  -6.889  1.00  0.00     0.041 C 
ATOM     15  O   UNL     1     -10.709  32.286  -7.150  1.00  0.00    -0.550 OA
ATOM     16  O   UNL     1     -10.597  30.356  -5.919  1.00  0.00    -0.550 OA
ENDBRANCH  13  14
ENDBRANCH  12  13
ENDBRANCH  11  12
ENDBRANCH  10  11
ENDBRANCH   9  10
ENDBRANCH   8   9
ENDBRANCH   7   8
ENDBRANCH   6   7
ENDBRANCH   5   6
ENDBRANCH   4   5
ENDBRANCH   3   4
ENDBRANCH   2   3
ENDBRANCH   1   2
BRANCH   1  17
ATOM     17  C   UNL     1      -6.508  26.672 -10.514  1.00  0.00     0.000 C 
BRANCH  17  18
ATOM     18  C   UNL     1      -7.509  26.654 -11.680  1.00  0.00     0.000 C 
BRANCH  18  19
ATOM     19  C   UNL     1      -6.874  26.213 -13.008  1.00  0.00     0.000 C 
BRANCH  19  20
ATOM     20  C   UNL     1      -5.370  26.518 -13.151  1.00  0.00     0.000 C 
BRANCH  20  21
ATOM     21  C   UNL     1      -4.551  25.380 -13.797  1.00  0.00     0.000 C 
BRANCH  21  22
ATOM     22  C   UNL     1      -5.146  23.989 -13.511  1.00  0.00    -0.000 C 
BRANCH  22  23
ATOM     23  C   UNL     1      -4.414  23.244 -12.379  1.00  0.00    -0.000 C 
BRANCH  23  24
ATOM     24  C   UNL     1      -5.262  23.022 -11.112  1.00  0.00    -0.000 C 
BRANCH  24  25
ATOM     25  C   UNL     1      -6.720  22.645 -11.432  1.00  0.00    -0.000 C 
BRANCH  25  26
ATOM     26  C   UNL     1      -7.064  21.203 -11.003  1.00  0.00    -0.000 C 
BRANCH  26  27
ATOM     27  C   UNL     1      -6.593  20.853  -9.579  1.00  0.00    -0.000 C 
BRANCH  27  28
ATOM     28  C   UNL     1      -6.099  19.405  -9.392  1.00  0.00    -0.000 C 
BRANCH  28  29
ATOM     29  C   UNL     1      -6.973  18.541  -8.463  1.00  0.00    -0.003 C 
ATOM     30  C   UNL     1      -7.687  19.360  -7.386  1.00  0.00     0.004 C 
ENDBRANCH  28  29
ENDBRANCH  27  28
ENDBRANCH  26  27
ENDBRANCH  25  26
ENDBRANCH  24  25
ENDBRANCH  23  24
ENDBRANCH  22  23
ENDBRANCH  21  22
ENDBRANCH  20  21
ENDBRANCH  19  20
ENDBRANCH  18  19
ENDBRANCH  17  18
ENDBRANCH   1  17
TORSDOF 26
ENDMDL
MODEL 6
REMARK VINA RESULT:    -3.875      2.835      6.983
REMARK INTER + INTRA:         -14.483
REMARK INTER:                 -10.348
REMARK INTRA:                  -4.135
REMARK UNBOUND:                -4.718
REMARK SMILES CCCCCCCCCCCCCCCCCCCCCCCCCCCC(=O)[O-]
REMARK SMILES IDX 15 1 16 2 17 3 18 4 19 5 20 6 21 7 22 8 23 9 24 10 25 11
REMARK SMILES IDX 26 12 27 13 28 14 29 15 30 16 14 17 13 18 12 19 11 20 10 21
REMARK SMILES IDX 9 22 8 23 7 24 6 25 5 26 4 27 3 28 2 29 1 30
REMARK H PARENT
REMARK Flexibility Score: inf
ROOT
ATOM      1  C   UNL     1      -7.845  26.071  -9.200  1.00  0.00     0.000 C 
ENDROOT
BRANCH   1   2
ATOM      2  C   UNL     1      -6.347  25.895  -8.903  1.00  0.00     0.000 C 
BRANCH   2   3
ATOM      3  C   UNL     1      -5.990  25.761  -7.411  1.00  0.00     0.000 C 
BRANCH   3   4
ATOM      4  C   UNL     1      -6.701  26.786  -6.501  1.00  0.00     0.000 C 
BRANCH   4   5
ATOM      5  C   UNL     1      -6.055  26.896  -5.108  1.00  0.00     0.000 C 
BRANCH   5   6
ATOM      6  C   UNL     1      -4.998  28.011  -5.030  1.00  0.00     0.000 C 
BRANCH   6   7
ATOM      7  C   UNL     1      -5.487  29.405  -5.469  1.00  0.00     0.000 C 
BRANCH   7   8
ATOM      8  C   UNL     1      -4.512  30.186  -6.373  1.00  0.00     0.000 C 
BRANCH   8   9
ATOM      9  C   UNL     1      -5.181  31.026  -7.477  1.00  0.00     0.000 C 
BRANCH   9  10
ATOM     10  C   UNL     1      -5.065  30.443  -8.899  1.00  0.00     0.000 C 
BRANCH  10  11
ATOM     11  C   UNL     1      -6.250  29.537  -9.302  1.00  0.00     0.000 C 
BRANCH  11  12
ATOM     12  C   UNL     1      -7.559  29.933  -8.599  1.00  0.00     0.006 C 
BRANCH  12  13
ATOM     13  C   UNL     1      -8.750  29.969  -9.567  1.00  0.00     0.053 C 
BRANCH  13  14
ATOM     14  C   UNL     1      -9.984  29.379  -8.957  1.00  0.00     0.041 C 
ATOM     15  O   UNL     1      -9.918  28.760  -7.861  1.00  0.00    -0.550 OA
ATOM     16  O   UNL     1     -11.204  29.491  -9.612  1.00  0.00    -0.550 OA
ENDBRANCH  13  14
ENDBRANCH  12  13
ENDBRANCH  11  12
ENDBRANCH  10  11
ENDBRANCH   9  10
ENDBRANCH   8   9
ENDBRANCH   7   8
ENDBRANCH   6   7
ENDBRANCH   5   6
ENDBRANCH   4   5
ENDBRANCH   3   4
ENDBRANCH   2   3
ENDBRANCH   1   2
BRANCH   1  17
ATOM     17  C   UNL     1      -8.113  26.562 -10.631  1.00  0.00     0.000 C 
BRANCH  17  18
ATOM     18  C   UNL     1      -8.768  25.462 -11.480  1.00  0.00     0.000 C 
BRANCH  18  19
ATOM     19  C   UNL     1      -8.425  25.575 -12.975  1.00  0.00     0.000 C 
BRANCH  19  20
ATOM     20  C   UNL     1      -7.365  26.637 -13.328  1.00  0.00     0.000 C 
BRANCH  20  21
ATOM     21  C   UNL     1      -5.989  26.055 -13.714  1.00  0.00     0.000 C 
BRANCH  21  22
ATOM     22  C   UNL     1      -4.983  26.093 -12.549  1.00  0.00    -0.000 C 
BRANCH  22  23
ATOM     23  C   UNL     1      -4.227  24.764 -12.366  1.00  0.00    -0.000 C 
BRANCH  23  24
ATOM     24  C   UNL     1      -4.811  23.844 -11.278  1.00  0.00    -0.000 C 
BRANCH  24  25
ATOM     25  C   UNL     1      -5.842  22.846 -11.836  1.00  0.00    -0.000 C 
BRANCH  25  26
ATOM     26  C   UNL     1      -6.922  22.472 -10.798  1.00  0.00    -0.000 C 
BRANCH  26  27
ATOM     27  C   UNL     1      -7.036  20.957 -10.545  1.00  0.00    -0.000 C 
BRANCH  27  28
ATOM     28  C   UNL     1      -6.572  20.490  -9.151  1.00  0.00    -0.000 C 
BRANCH  28  29
ATOM     29  C   UNL     1      -7.278  19.226  -8.627  1.00  0.00    -0.003 C 
ATOM     30  C   UNL     1      -7.770  19.373  -7.186  1.00  0.00     0.004 C 
ENDBRANCH  28  29
ENDBRANCH  27  28
ENDBRANCH  26  27
ENDBRANCH  25  26
ENDBRANCH  24  25
ENDBRANCH  23  24
ENDBRANCH  22  23
ENDBRANCH  21  22
ENDBRANCH  20  21
ENDBRANCH  19  20
ENDBRANCH  18  19
ENDBRANCH  17  18
ENDBRANCH   1  17
TORSDOF 26
ENDMDL
MODEL 7
REMARK VINA RESULT:    -3.870      4.257      7.860
REMARK INTER + INTRA:         -14.470
REMARK INTER:                  -9.417
REMARK INTRA:                  -5.052
REMARK UNBOUND:                -4.718
REMARK SMILES CCCCCCCCCCCCCCCCCCCCCCCCCCCC(=O)[O-]
REMARK SMILES IDX 15 1 16 2 17 3 18 4 19 5 20 6 21 7 22 8 23 9 24 10 25 11
REMARK SMILES IDX 26 12 27 13 28 14 29 15 30 16 14 17 13 18 12 19 11 20 10 21
REMARK SMILES IDX 9 22 8 23 7 24 6 25 5 26 4 27 3 28 2 29 1 30
REMARK H PARENT
REMARK Flexibility Score: inf
ROOT
ATOM      1  C   UNL     1      -9.817  29.744  -9.568  1.00  0.00     0.000 C 
ENDROOT
BRANCH   1   2
ATOM      2  C   UNL     1      -8.364  29.245  -9.567  1.00  0.00     0.000 C 
BRANCH   2   3
ATOM      3  C   UNL     1      -7.305  30.323  -9.266  1.00  0.00     0.000 C 
BRANCH   3   4
ATOM      4  C   UNL     1      -5.918  29.755  -8.895  1.00  0.00     0.000 C 
BRANCH   4   5
ATOM      5  C   UNL     1      -5.160  30.642  -7.892  1.00  0.00     0.000 C 
BRANCH   5   6
ATOM      6  C   UNL     1      -6.092  31.581  -7.106  1.00  0.00     0.000 C 
BRANCH   6   7
ATOM      7  C   UNL     1      -6.031  31.428  -5.574  1.00  0.00     0.000 C 
BRANCH   7   8
ATOM      8  C   UNL     1      -7.400  31.351  -4.869  1.00  0.00     0.000 C 
BRANCH   8   9
ATOM      9  C   UNL     1      -8.545  30.789  -5.733  1.00  0.00     0.000 C 
BRANCH   9  10
ATOM     10  C   UNL     1      -8.901  29.314  -5.463  1.00  0.00     0.000 C 
BRANCH  10  11
ATOM     11  C   UNL     1      -7.971  28.306  -6.175  1.00  0.00     0.000 C 
BRANCH  11  12
ATOM     12  C   UNL     1      -6.933  27.689  -5.223  1.00  0.00     0.006 C 
BRANCH  12  13
ATOM     13  C   UNL     1      -5.734  27.098  -5.975  1.00  0.00     0.053 C 
BRANCH  13  14
ATOM     14  C   UNL     1      -5.815  25.605  -6.073  1.00  0.00     0.041 C 
ATOM     15  O   UNL     1      -5.482  25.020  -7.138  1.00  0.00    -0.550 OA
ATOM     16  O   UNL     1      -6.283  24.864  -4.996  1.00  0.00    -0.550 OA
ENDBRANCH  13  14
ENDBRANCH  12  13
ENDBRANCH  11  12
ENDBRANCH  10  11
ENDBRANCH   9  10
ENDBRANCH   8   9
ENDBRANCH   7   8
ENDBRANCH   6   7
ENDBRANCH   5   6
ENDBRANCH   4   5
ENDBRANCH   3   4
ENDBRANCH   2   3
ENDBRANCH   1   2
BRANCH   1  17
ATOM     17  C   UNL     1      -9.936  31.230  -9.192  1.00  0.00     0.000 C 
BRANCH  17  18
ATOM     18  C   UNL     1     -11.388  31.602  -8.856  1.00  0.00     0.000 C 
BRANCH  18  19
ATOM     19  C   UNL     1     -11.536  33.049  -8.359  1.00  0.00     0.000 C 
BRANCH  19  20
ATOM     20  C   UNL     1     -12.406  33.226  -7.099  1.00  0.00     0.000 C 
BRANCH  20  21
ATOM     21  C   UNL     1     -11.661  32.966  -5.773  1.00  0.00     0.000 C 
BRANCH  21  22
ATOM     22  C   UNL     1     -12.028  31.608  -5.146  1.00  0.00    -0.000 C 
BRANCH  22  23
ATOM     23  C   UNL     1     -13.488  31.198  -5.414  1.00  0.00    -0.000 C 
BRANCH  23  24
ATOM     24  C   UNL     1     -13.645  29.925  -6.266  1.00  0.00    -0.000 C 
BRANCH  24  25
ATOM     25  C   UNL     1     -12.352  29.092  -6.332  1.00  0.00    -0.000 C 
BRANCH  25  26
ATOM     26  C   UNL     1     -12.325  28.143  -7.550  1.00  0.00    -0.000 C 
BRANCH  26  27
ATOM     27  C   UNL     1     -13.221  28.605  -8.714  1.00  0.00    -0.000 C 
BRANCH  27  28
ATOM     28  C   UNL     1     -13.357  27.598  -9.873  1.00  0.00    -0.000 C 
BRANCH  28  29
ATOM     29  C   UNL     1     -14.068  28.149 -11.124  1.00  0.00    -0.003 C 
ATOM     30  C   UNL     1     -15.520  27.679 -11.238  1.00  0.00     0.004 C 
ENDBRANCH  28  29
ENDBRANCH  27  28
ENDBRANCH  26  27
ENDBRANCH  25  26
ENDBRANCH  24  25
ENDBRANCH  23  24
ENDBRANCH  22  23
ENDBRANCH  21  22
ENDBRANCH  20  21
ENDBRANCH  19  20
ENDBRANCH  18  19
ENDBRANCH  17  18
ENDBRANCH   1  17
TORSDOF 26
ENDMDL
MODEL 8
REMARK VINA RESULT:    -3.870      3.844      7.598
REMARK INTER + INTRA:         -14.470
REMARK INTER:                 -10.602
REMARK INTRA:                  -3.868
REMARK UNBOUND:                -4.718
REMARK SMILES CCCCCCCCCCCCCCCCCCCCCCCCCCCC(=O)[O-]
REMARK SMILES IDX 15 1 16 2 17 3 18 4 19 5 20 6 21 7 22 8 23 9 24 10 25 11
REMARK SMILES IDX 26 12 27 13 28 14 29 15 30 16 14 17 13 18 12 19 11 20 10 21
REMARK SMILES IDX 9 22 8 23 7 24 6 25 5 26 4 27 3 28 2 29 1 30
REMARK H PARENT
REMARK Flexibility Score: inf
ROOT
ATOM      1  C   UNL     1     -10.215  25.385 -12.225  1.00  0.00     0.000 C 
ENDROOT
BRANCH   1   2
ATOM      2  C   UNL     1     -10.811  25.306 -10.811  1.00  0.00     0.000 C 
BRANCH   2   3
ATOM      3  C   UNL     1     -12.040  26.203 -10.571  1.00  0.00     0.000 C 
BRANCH   3   4
ATOM      4  C   UNL     1     -11.920  27.113  -9.330  1.00  0.00     0.000 C 
BRANCH   4   5
ATOM      5  C   UNL     1     -10.461  27.456  -8.981  1.00  0.00     0.000 C 
BRANCH   5   6
ATOM      6  C   UNL     1     -10.055  28.867  -9.444  1.00  0.00     0.000 C 
BRANCH   6   7
ATOM      7  C   UNL     1      -8.778  28.929 -10.303  1.00  0.00     0.000 C 
BRANCH   7   8
ATOM      8  C   UNL     1      -7.456  28.773  -9.524  1.00  0.00     0.000 C 
BRANCH   8   9
ATOM      9  C   UNL     1      -6.595  27.566  -9.941  1.00  0.00     0.000 C 
BRANCH   9  10
ATOM     10  C   UNL     1      -6.545  26.417  -8.915  1.00  0.00     0.000 C 
BRANCH  10  11
ATOM     11  C   UNL     1      -7.206  26.758  -7.561  1.00  0.00     0.000 C 
BRANCH  11  12
ATOM     12  C   UNL     1      -6.184  26.862  -6.416  1.00  0.00     0.006 C 
BRANCH  12  13
ATOM     13  C   UNL     1      -6.448  25.834  -5.307  1.00  0.00     0.053 C 
BRANCH  13  14
ATOM     14  C   UNL     1      -5.568  24.629  -5.440  1.00  0.00     0.041 C 
ATOM     15  O   UNL     1      -5.460  24.041  -6.550  1.00  0.00    -0.550 OA
ATOM     16  O   UNL     1      -4.889  24.141  -4.332  1.00  0.00    -0.550 OA
ENDBRANCH  13  14
ENDBRANCH  12  13
ENDBRANCH  11  12
ENDBRANCH  10  11
ENDBRANCH   9  10
ENDBRANCH   8   9
ENDBRANCH   7   8
ENDBRANCH   6   7
ENDBRANCH   5   6
ENDBRANCH   4   5
ENDBRANCH   3   4
ENDBRANCH   2   3
ENDBRANCH   1   2
BRANCH   1  17
ATOM     17  C   UNL     1      -8.715  25.718 -12.220  1.00  0.00     0.000 C 
BRANCH  17  18
ATOM     18  C   UNL     1      -8.397  26.857 -13.201  1.00  0.00     0.000 C 
BRANCH  18  19
ATOM     19  C   UNL     1      -6.999  26.735 -13.828  1.00  0.00     0.000 C 
BRANCH  19  20
ATOM     20  C   UNL     1      -6.699  25.385 -14.509  1.00  0.00     0.000 C 
BRANCH  20  21
ATOM     21  C   UNL     1      -5.398  24.708 -14.027  1.00  0.00     0.000 C 
BRANCH  21  22
ATOM     22  C   UNL     1      -4.720  25.480 -12.881  1.00  0.00    -0.000 C 
BRANCH  22  23
ATOM     23  C   UNL     1      -4.397  24.590 -11.666  1.00  0.00    -0.000 C 
BRANCH  23  24
ATOM     24  C   UNL     1      -5.515  23.603 -11.285  1.00  0.00    -0.000 C 
BRANCH  24  25
ATOM     25  C   UNL     1      -5.082  22.132 -11.425  1.00  0.00    -0.000 C 
BRANCH  25  26
ATOM     26  C   UNL     1      -6.282  21.179 -11.612  1.00  0.00    -0.000 C 
BRANCH  26  27
ATOM     27  C   UNL     1      -7.029  20.862 -10.303  1.00  0.00    -0.000 C 
BRANCH  27  28
ATOM     28  C   UNL     1      -6.205  20.096  -9.250  1.00  0.00    -0.000 C 
BRANCH  28  29
ATOM     29  C   UNL     1      -6.738  18.691  -8.912  1.00  0.00    -0.003 C 
ATOM     30  C   UNL     1      -7.296  18.592  -7.491  1.00  0.00     0.004 C 
ENDBRANCH  28  29
ENDBRANCH  27  28
ENDBRANCH  26  27
ENDBRANCH  25  26
ENDBRANCH  24  25
ENDBRANCH  23  24
ENDBRANCH  22  23
ENDBRANCH  21  22
ENDBRANCH  20  21
ENDBRANCH  19  20
ENDBRANCH  18  19
ENDBRANCH  17  18
ENDBRANCH   1  17
TORSDOF 26
ENDMDL
MODEL 9
REMARK VINA RESULT:    -3.868      3.478      7.471
REMARK INTER + INTRA:         -14.466
REMARK INTER:                  -9.100
REMARK INTRA:                  -5.365
REMARK UNBOUND:                -4.718
REMARK SMILES CCCCCCCCCCCCCCCCCCCCCCCCCCCC(=O)[O-]
REMARK SMILES IDX 15 1 16 2 17 3 18 4 19 5 20 6 21 7 22 8 23 9 24 10 25 11
REMARK SMILES IDX 26 12 27 13 28 14 29 15 30 16 14 17 13 18 12 19 11 20 10 21
REMARK SMILES IDX 9 22 8 23 7 24 6 25 5 26 4 27 3 28 2 29 1 30
REMARK H PARENT
REMARK Flexibility Score: inf
ROOT
ATOM      1  C   UNL     1      -7.789  26.723  -9.046  1.00  0.00     0.000 C 
ENDROOT
BRANCH   1   2
ATOM      2  C   UNL     1      -7.049  27.920  -9.664  1.00  0.00     0.000 C 
BRANCH   2   3
ATOM      3  C   UNL     1      -7.590  29.303  -9.253  1.00  0.00     0.000 C 
BRANCH   3   4
ATOM      4  C   UNL     1      -8.735  29.821 -10.149  1.00  0.00     0.000 C 
BRANCH   4   5
ATOM      5  C   UNL     1      -9.915  30.388  -9.340  1.00  0.00     0.000 C 
BRANCH   5   6
ATOM      6  C   UNL     1      -9.662  30.362  -7.823  1.00  0.00     0.000 C 
BRANCH   6   7
ATOM      7  C   UNL     1     -10.886  29.991  -6.964  1.00  0.00     0.000 C 
BRANCH   7   8
ATOM      8  C   UNL     1     -12.247  30.111  -7.678  1.00  0.00     0.000 C 
BRANCH   8   9
ATOM      9  C   UNL     1     -12.952  28.772  -7.962  1.00  0.00     0.000 C 
BRANCH   9  10
ATOM     10  C   UNL     1     -12.138  27.517  -7.590  1.00  0.00     0.000 C 
BRANCH  10  11
ATOM     11  C   UNL     1     -11.407  26.868  -8.786  1.00  0.00     0.000 C 
BRANCH  11  12
ATOM     12  C   UNL     1     -11.938  27.364 -10.141  1.00  0.00     0.006 C 
BRANCH  12  13
ATOM     13  C   UNL     1     -12.956  26.394 -10.757  1.00  0.00     0.053 C 
BRANCH  13  14
ATOM     14  C   UNL     1     -14.034  27.116 -11.505  1.00  0.00     0.041 C 
ATOM     15  O   UNL     1     -13.966  27.238 -12.757  1.00  0.00    -0.550 OA
ATOM     16  O   UNL     1     -15.101  27.676 -10.815  1.00  0.00    -0.550 OA
ENDBRANCH  13  14
ENDBRANCH  12  13
ENDBRANCH  11  12
ENDBRANCH  10  11
ENDBRANCH   9  10
ENDBRANCH   8   9
ENDBRANCH   7   8
ENDBRANCH   6   7
ENDBRANCH   5   6
ENDBRANCH   4   5
ENDBRANCH   3   4
ENDBRANCH   2   3
ENDBRANCH   1   2
BRANCH   1  17
ATOM     17  C   UNL     1      -7.282  25.373  -9.576  1.00  0.00     0.000 C 
BRANCH  17  18
ATOM     18  C   UNL     1      -5.746  25.341  -9.632  1.00  0.00     0.000 C 
BRANCH  18  19
ATOM     19  C   UNL     1      -5.206  24.482 -10.787  1.00  0.00     0.000 C 
BRANCH  19  20
ATOM     20  C   UNL     1      -4.645  25.271 -11.986  1.00  0.00     0.000 C 
BRANCH  20  21
ATOM     21  C   UNL     1      -5.593  25.333 -13.202  1.00  0.00     0.000 C 
BRANCH  21  22
ATOM     22  C   UNL     1      -6.235  26.721 -13.380  1.00  0.00    -0.000 C 
BRANCH  22  23
ATOM     23  C   UNL     1      -7.721  26.649 -13.776  1.00  0.00    -0.000 C 
BRANCH  23  24
ATOM     24  C   UNL     1      -8.691  26.519 -12.587  1.00  0.00    -0.000 C 
BRANCH  24  25
ATOM     25  C   UNL     1      -9.879  25.587 -12.889  1.00  0.00    -0.000 C 
BRANCH  25  26
ATOM     26  C   UNL     1     -10.074  24.509 -11.802  1.00  0.00    -0.000 C 
BRANCH  26  27
ATOM     27  C   UNL     1      -9.654  23.097 -12.250  1.00  0.00    -0.000 C 
BRANCH  27  28
ATOM     28  C   UNL     1      -8.204  22.705 -11.903  1.00  0.00    -0.000 C 
BRANCH  28  29
ATOM     29  C   UNL     1      -7.358  22.238 -13.103  1.00  0.00    -0.003 C 
ATOM     30  C   UNL     1      -7.930  22.692 -14.447  1.00  0.00     0.004 C 
ENDBRANCH  28  29
ENDBRANCH  27  28
ENDBRANCH  26  27
ENDBRANCH  25  26
ENDBRANCH  24  25
ENDBRANCH  23  24
ENDBRANCH  22  23
ENDBRANCH  21  22
ENDBRANCH  20  21
ENDBRANCH  19  20
ENDBRANCH  18  19
ENDBRANCH  17  18
ENDBRANCH   1  17
TORSDOF 26
ENDMDL
