MODEL 1
REMARK VINA RESULT:    -4.653      0.000      0.000
REMARK INTER + INTRA:          -5.654
REMARK INTER:                  -5.470
REMARK INTRA:                  -0.185
REMARK UNBOUND:                -0.185
REMARK SMILES O=c1c(O)c(-c2ccc(O)cc2)oc2cc(O)cc(O)c12
REMARK SMILES IDX 5 1 3 2 2 3 1 4 21 5 19 6 18 7 16 8 15 9 14 10 13 11 6 12
REMARK SMILES IDX 7 13 8 14 9 15 12 16 11 17 10 18 4 20 20 22 17 24
REMARK H PARENT 10 19 4 21 20 23 17 25
REMARK Flexibility Score: inf
ROOT
ATOM      1  C   UNL     1       4.316  -3.825  -6.408  1.00  0.00     0.180 A 
ATOM      2  C   UNL     1       3.706  -4.767  -7.253  1.00  0.00     0.208 A 
ATOM      3  C   UNL     1       2.818  -4.319  -8.245  1.00  0.00     0.238 A 
ATOM      4  O   UNL     1       2.317  -5.162  -9.033  1.00  0.00    -0.285 OA
ATOM      5  C   UNL     1       2.539  -2.937  -8.368  1.00  0.00     0.111 A 
ATOM      6  C   UNL     1       1.626  -2.375  -9.310  1.00  0.00     0.134 A 
ATOM      7  C   UNL     1       1.526  -0.983  -9.430  1.00  0.00     0.093 A 
ATOM      8  C   UNL     1       2.257  -0.134  -8.600  1.00  0.00     0.123 A 
ATOM      9  C   UNL     1       3.108  -0.673  -7.634  1.00  0.00     0.094 A 
ATOM     10  C   UNL     1       3.256  -2.057  -7.515  1.00  0.00     0.146 A 
ATOM     11  O   UNL     1       4.084  -2.530  -6.591  1.00  0.00    -0.452 OA
ENDROOT
BRANCH   1  12
ATOM     12  C   UNL     1       5.243  -4.221  -5.324  1.00  0.00     0.021 A 
ATOM     13  C   UNL     1       6.625  -3.975  -5.415  1.00  0.00     0.016 A 
ATOM     14  C   UNL     1       7.484  -4.381  -4.389  1.00  0.00     0.047 A 
ATOM     15  C   UNL     1       6.976  -5.048  -3.267  1.00  0.00     0.115 A 
ATOM     16  C   UNL     1       4.744  -4.910  -4.204  1.00  0.00     0.016 A 
ATOM     17  C   UNL     1       5.606  -5.314  -3.180  1.00  0.00     0.047 A 
BRANCH  15  18
ATOM     18  O   UNL     1       7.823  -5.455  -2.238  1.00  0.00    -0.508 OA
ATOM     19  H   UNL     1       8.351  -6.318  -2.296  1.00  0.00     0.293 HD
ENDBRANCH  15  18
ENDBRANCH   1  12
BRANCH   2  20
ATOM     20  O   UNL     1       4.012  -6.125  -7.128  1.00  0.00    -0.502 OA
ATOM     21  H   UNL     1       4.355  -6.678  -7.905  1.00  0.00     0.293 HD
ENDBRANCH   2  20
BRANCH   6  22
ATOM     22  O   UNL     1       0.780  -3.134 -10.125  1.00  0.00    -0.507 OA
ATOM     23  H   UNL     1       0.098  -3.795  -9.787  1.00  0.00     0.293 HD
ENDBRANCH   6  22
BRANCH   8  24
ATOM     24  O   UNL     1       2.121   1.245  -8.737  1.00  0.00    -0.508 OA
ATOM     25  H   UNL     1       2.861   1.880  -8.461  1.00  0.00     0.293 HD
ENDBRANCH   8  24
TORSDOF 5
ENDMDL
MODEL 2
REMARK VINA RESULT:    -4.281      2.406      6.705
REMARK INTER + INTRA:          -5.217
REMARK INTER:                  -4.930
REMARK INTRA:                  -0.287
REMARK UNBOUND:                -0.185
REMARK SMILES O=c1c(O)c(-c2ccc(O)cc2)oc2cc(O)cc(O)c12
REMARK SMILES IDX 5 1 3 2 2 3 1 4 21 5 19 6 18 7 16 8 15 9 14 10 13 11 6 12
REMARK SMILES IDX 7 13 8 14 9 15 12 16 11 17 10 18 4 20 20 22 17 24
REMARK H PARENT 10 19 4 21 20 23 17 25
REMARK Flexibility Score: inf
ROOT
ATOM      1  C   UNL     1       2.848  -4.911  -7.895  1.00  0.00     0.180 A 
ATOM      2  C   UNL     1       3.772  -5.413  -8.828  1.00  0.00     0.208 A 
ATOM      3  C   UNL     1       5.101  -5.624  -8.426  1.00  0.00     0.238 A 
ATOM      4  O   UNL     1       5.910  -6.123  -9.250  1.00  0.00    -0.285 OA
ATOM      5  C   UNL     1       5.493  -5.315  -7.101  1.00  0.00     0.111 A 
ATOM      6  C   UNL     1       6.821  -5.451  -6.596  1.00  0.00     0.134 A 
ATOM      7  C   UNL     1       7.067  -5.240  -5.234  1.00  0.00     0.093 A 
ATOM      8  C   UNL     1       6.049  -4.837  -4.372  1.00  0.00     0.123 A 
ATOM      9  C   UNL     1       4.758  -4.642  -4.866  1.00  0.00     0.094 A 
ATOM     10  C   UNL     1       4.474  -4.880  -6.213  1.00  0.00     0.146 A 
ATOM     11  O   UNL     1       3.231  -4.694  -6.643  1.00  0.00    -0.452 OA
ENDROOT
BRANCH   1  12
ATOM     12  C   UNL     1       1.438  -4.639  -8.251  1.00  0.00     0.021 A 
ATOM     13  C   UNL     1       0.456  -5.645  -8.176  1.00  0.00     0.016 A 
ATOM     14  C   UNL     1      -0.866  -5.371  -8.541  1.00  0.00     0.047 A 
ATOM     15  C   UNL     1      -1.221  -4.094  -8.997  1.00  0.00     0.115 A 
ATOM     16  C   UNL     1       1.077  -3.368  -8.729  1.00  0.00     0.016 A 
ATOM     17  C   UNL     1      -0.246  -3.096  -9.092  1.00  0.00     0.047 A 
BRANCH  15  18
ATOM     18  O   UNL     1      -2.535  -3.810  -9.360  1.00  0.00    -0.508 OA
ATOM     19  H   UNL     1      -2.981  -2.938  -9.099  1.00  0.00     0.293 HD
ENDBRANCH  15  18
ENDBRANCH   1  12
BRANCH   2  20
ATOM     20  O   UNL     1       3.359  -5.731 -10.125  1.00  0.00    -0.502 OA
ATOM     21  H   UNL     1       3.574  -5.145 -10.923  1.00  0.00     0.293 HD
ENDBRANCH   2  20
BRANCH   6  22
ATOM     22  O   UNL     1       7.930  -5.761  -7.390  1.00  0.00    -0.507 OA
ATOM     23  H   UNL     1       7.888  -6.257  -8.267  1.00  0.00     0.293 HD
ENDBRANCH   6  22
BRANCH   8  24
ATOM     24  O   UNL     1       6.333  -4.621  -3.026  1.00  0.00    -0.508 OA
ATOM     25  H   UNL     1       6.950  -3.875  -2.727  1.00  0.00     0.293 HD
ENDBRANCH   8  24
TORSDOF 5
ENDMDL
MODEL 3
REMARK VINA RESULT:    -4.239      2.810      6.774
REMARK INTER + INTRA:          -5.167
REMARK INTER:                  -4.884
REMARK INTRA:                  -0.283
REMARK UNBOUND:                -0.185
REMARK SMILES O=c1c(O)c(-c2ccc(O)cc2)oc2cc(O)cc(O)c12
REMARK SMILES IDX 5 1 3 2 2 3 1 4 21 5 19 6 18 7 16 8 15 9 14 10 13 11 6 12
REMARK SMILES IDX 7 13 8 14 9 15 12 16 11 17 10 18 4 20 20 22 17 24
REMARK H PARENT 10 19 4 21 20 23 17 25
REMARK Flexibility Score: inf
ROOT
ATOM      1  C   UNL     1       2.586  -1.375  -8.158  1.00  0.00     0.180 A 
ATOM      2  C   UNL     1       3.114  -0.332  -8.938  1.00  0.00     0.208 A 
ATOM      3  C   UNL     1       4.350   0.230  -8.578  1.00  0.00     0.238 A 
ATOM      4  O   UNL     1       4.843   1.126  -9.310  1.00  0.00    -0.285 OA
ATOM      5  C   UNL     1       5.034  -0.247  -7.434  1.00  0.00     0.111 A 
ATOM      6  C   UNL     1       6.273   0.274  -6.954  1.00  0.00     0.134 A 
ATOM      7  C   UNL     1       6.924  -0.361  -5.889  1.00  0.00     0.093 A 
ATOM      8  C   UNL     1       6.352  -1.458  -5.247  1.00  0.00     0.123 A 
ATOM      9  C   UNL     1       5.112  -1.940  -5.669  1.00  0.00     0.094 A 
ATOM     10  C   UNL     1       4.456  -1.350  -6.752  1.00  0.00     0.146 A 
ATOM     11  O   UNL     1       3.283  -1.845  -7.130  1.00  0.00    -0.452 OA
ENDROOT
BRANCH   1  12
ATOM     12  C   UNL     1       1.279  -2.000  -8.459  1.00  0.00     0.021 A 
ATOM     13  C   UNL     1       1.185  -3.153  -9.260  1.00  0.00     0.016 A 
ATOM     14  C   UNL     1      -0.064  -3.712  -9.551  1.00  0.00     0.047 A 
ATOM     15  C   UNL     1      -1.233  -3.119  -9.057  1.00  0.00     0.115 A 
ATOM     16  C   UNL     1       0.099  -1.400  -7.985  1.00  0.00     0.016 A 
ATOM     17  C   UNL     1      -1.148  -1.962  -8.277  1.00  0.00     0.047 A 
BRANCH  15  18
ATOM     18  O   UNL     1      -2.482  -3.668  -9.339  1.00  0.00    -0.508 OA
ATOM     19  H   UNL     1      -2.971  -3.459 -10.201  1.00  0.00     0.293 HD
ENDBRANCH  15  18
ENDBRANCH   1  12
BRANCH   2  20
ATOM     20  O   UNL     1       2.432   0.110 -10.075  1.00  0.00    -0.502 OA
ATOM     21  H   UNL     1       1.485   0.464 -10.037  1.00  0.00     0.293 HD
ENDBRANCH   2  20
BRANCH   6  22
ATOM     22  O   UNL     1       6.887   1.422  -7.465  1.00  0.00    -0.507 OA
ATOM     23  H   UNL     1       6.692   2.363  -7.159  1.00  0.00     0.293 HD
ENDBRANCH   6  22
BRANCH   8  24
ATOM     24  O   UNL     1       7.020  -2.055  -4.181  1.00  0.00    -0.508 OA
ATOM     25  H   UNL     1       7.520  -1.505  -3.493  1.00  0.00     0.293 HD
ENDBRANCH   8  24
TORSDOF 5
ENDMDL
MODEL 4
REMARK VINA RESULT:    -4.224      4.856      7.655
REMARK INTER + INTRA:          -5.150
REMARK INTER:                  -4.860
REMARK INTRA:                  -0.290
REMARK UNBOUND:                -0.185
REMARK SMILES O=c1c(O)c(-c2ccc(O)cc2)oc2cc(O)cc(O)c12
REMARK SMILES IDX 5 1 3 2 2 3 1 4 21 5 19 6 18 7 16 8 15 9 14 10 13 11 6 12
REMARK SMILES IDX 7 13 8 14 9 15 12 16 11 17 10 18 4 20 20 22 17 24
REMARK H PARENT 10 19 4 21 20 23 17 25
REMARK Flexibility Score: inf
ROOT
ATOM      1  C   UNL     1       2.933   1.694  -9.008  1.00  0.00     0.180 A 
ATOM      2  C   UNL     1       4.274   1.939  -8.669  1.00  0.00     0.208 A 
ATOM      3  C   UNL     1       4.756   3.259  -8.707  1.00  0.00     0.238 A 
ATOM      4  O   UNL     1       5.942   3.479  -8.351  1.00  0.00    -0.285 OA
ATOM      5  C   UNL     1       3.895   4.312  -9.101  1.00  0.00     0.111 A 
ATOM      6  C   UNL     1       4.287   5.679  -9.214  1.00  0.00     0.134 A 
ATOM      7  C   UNL     1       3.320   6.655  -9.485  1.00  0.00     0.093 A 
ATOM      8  C   UNL     1       1.989   6.307  -9.710  1.00  0.00     0.123 A 
ATOM      9  C   UNL     1       1.605   4.965  -9.661  1.00  0.00     0.094 A 
ATOM     10  C   UNL     1       2.541   3.973  -9.357  1.00  0.00     0.146 A 
ATOM     11  O   UNL     1       2.134   2.710  -9.309  1.00  0.00    -0.452 OA
ENDROOT
BRANCH   1  12
ATOM     12  C   UNL     1       2.359   0.329  -9.016  1.00  0.00     0.021 A 
ATOM     13  C   UNL     1       2.511  -0.524 -10.125  1.00  0.00     0.016 A 
ATOM     14  C   UNL     1       1.939  -1.800 -10.118  1.00  0.00     0.047 A 
ATOM     15  C   UNL     1       1.199  -2.235  -9.011  1.00  0.00     0.115 A 
ATOM     16  C   UNL     1       1.598  -0.108  -7.918  1.00  0.00     0.016 A 
ATOM     17  C   UNL     1       1.028  -1.385  -7.914  1.00  0.00     0.047 A 
BRANCH  15  18
ATOM     18  O   UNL     1       0.627  -3.505  -8.993  1.00  0.00    -0.508 OA
ATOM     19  H   UNL     1      -0.067  -3.783  -9.676  1.00  0.00     0.293 HD
ENDBRANCH  15  18
ENDBRANCH   1  12
BRANCH   2  20
ATOM     20  O   UNL     1       5.101   0.888  -8.263  1.00  0.00    -0.502 OA
ATOM     21  H   UNL     1       5.064  -0.029  -8.691  1.00  0.00     0.293 HD
ENDBRANCH   2  20
BRANCH   6  22
ATOM     22  O   UNL     1       5.608   6.125  -9.099  1.00  0.00    -0.507 OA
ATOM     23  H   UNL     1       6.064   6.351  -8.228  1.00  0.00     0.293 HD
ENDBRANCH   6  22
BRANCH   8  24
ATOM     24  O   UNL     1       1.057   7.302  -9.993  1.00  0.00    -0.508 OA
ATOM     25  H   UNL     1       0.200   7.099 -10.494  1.00  0.00     0.293 HD
ENDBRANCH   8  24
TORSDOF 5
ENDMDL
MODEL 5
REMARK VINA RESULT:    -4.196      3.430      4.869
REMARK INTER + INTRA:          -5.116
REMARK INTER:                  -4.874
REMARK INTRA:                  -0.242
REMARK UNBOUND:                -0.185
REMARK SMILES O=c1c(O)c(-c2ccc(O)cc2)oc2cc(O)cc(O)c12
REMARK SMILES IDX 5 1 3 2 2 3 1 4 21 5 19 6 18 7 16 8 15 9 14 10 13 11 6 12
REMARK SMILES IDX 7 13 8 14 9 15 12 16 11 17 10 18 4 20 20 22 17 24
REMARK H PARENT 10 19 4 21 20 23 17 25
REMARK Flexibility Score: inf
ROOT
ATOM      1  C   UNL     1       2.641  -2.419  -8.445  1.00  0.00     0.180 A 
ATOM      2  C   UNL     1       2.780  -3.795  -8.197  1.00  0.00     0.208 A 
ATOM      3  C   UNL     1       1.645  -4.618  -8.271  1.00  0.00     0.238 A 
ATOM      4  O   UNL     1       1.785  -5.857  -8.100  1.00  0.00    -0.285 OA
ATOM      5  C   UNL     1       0.383  -4.053  -8.574  1.00  0.00     0.111 A 
ATOM      6  C   UNL     1      -0.840  -4.786  -8.636  1.00  0.00     0.134 A 
ATOM      7  C   UNL     1      -2.007  -4.148  -9.073  1.00  0.00     0.093 A 
ATOM      8  C   UNL     1      -2.010  -2.790  -9.390  1.00  0.00     0.123 A 
ATOM      9  C   UNL     1      -0.832  -2.049  -9.277  1.00  0.00     0.094 A 
ATOM     10  C   UNL     1       0.355  -2.667  -8.877  1.00  0.00     0.146 A 
ATOM     11  O   UNL     1       1.457  -1.929  -8.792  1.00  0.00    -0.452 OA
ENDROOT
BRANCH   1  12
ATOM     12  C   UNL     1       3.786  -1.483  -8.362  1.00  0.00     0.021 A 
ATOM     13  C   UNL     1       4.322  -1.089  -7.122  1.00  0.00     0.016 A 
ATOM     14  C   UNL     1       5.388  -0.186  -7.068  1.00  0.00     0.047 A 
ATOM     15  C   UNL     1       5.922   0.345  -8.250  1.00  0.00     0.115 A 
ATOM     16  C   UNL     1       4.314  -0.930  -9.541  1.00  0.00     0.016 A 
ATOM     17  C   UNL     1       5.381  -0.027  -9.484  1.00  0.00     0.047 A 
BRANCH  15  18
ATOM     18  O   UNL     1       6.985   1.244  -8.208  1.00  0.00    -0.508 OA
ATOM     19  H   UNL     1       7.780   1.098  -7.597  1.00  0.00     0.293 HD
ENDBRANCH  15  18
ENDBRANCH   1  12
BRANCH   2  20
ATOM     20  O   UNL     1       4.039  -4.335  -7.920  1.00  0.00    -0.502 OA
ATOM     21  H   UNL     1       4.899  -3.892  -8.220  1.00  0.00     0.293 HD
ENDBRANCH   2  20
BRANCH   6  22
ATOM     22  O   UNL     1      -0.967  -6.125  -8.253  1.00  0.00    -0.507 OA
ATOM     23  H   UNL     1      -1.842  -6.583  -8.046  1.00  0.00     0.293 HD
ENDBRANCH   6  22
BRANCH   8  24
ATOM     24  O   UNL     1      -3.192  -2.184  -9.807  1.00  0.00    -0.508 OA
ATOM     25  H   UNL     1      -3.899  -1.888  -9.145  1.00  0.00     0.293 HD
ENDBRANCH   8  24
TORSDOF 5
ENDMDL
MODEL 6
REMARK VINA RESULT:    -4.143      1.585      2.189
REMARK INTER + INTRA:          -5.054
REMARK INTER:                  -5.108
REMARK INTRA:                   0.054
REMARK UNBOUND:                -0.185
REMARK SMILES O=c1c(O)c(-c2ccc(O)cc2)oc2cc(O)cc(O)c12
REMARK SMILES IDX 5 1 3 2 2 3 1 4 21 5 19 6 18 7 16 8 15 9 14 10 13 11 6 12
REMARK SMILES IDX 7 13 8 14 9 15 12 16 11 17 10 18 4 20 20 22 17 24
REMARK H PARENT 10 19 4 21 20 23 17 25
REMARK Flexibility Score: inf
ROOT
ATOM      1  C   UNL     1       4.919  -3.006  -6.188  1.00  0.00     0.180 A 
ATOM      2  C   UNL     1       3.804  -3.468  -6.909  1.00  0.00     0.208 A 
ATOM      3  C   UNL     1       3.191  -2.611  -7.838  1.00  0.00     0.238 A 
ATOM      4  O   UNL     1       2.227  -3.047  -8.518  1.00  0.00    -0.285 OA
ATOM      5  C   UNL     1       3.691  -1.299  -8.023  1.00  0.00     0.111 A 
ATOM      6  C   UNL     1       3.124  -0.333  -8.907  1.00  0.00     0.134 A 
ATOM      7  C   UNL     1       3.779   0.889  -9.107  1.00  0.00     0.093 A 
ATOM      8  C   UNL     1       4.942   1.205  -8.408  1.00  0.00     0.123 A 
ATOM      9  C   UNL     1       5.473   0.292  -7.495  1.00  0.00     0.094 A 
ATOM     10  C   UNL     1       4.862  -0.949  -7.301  1.00  0.00     0.146 A 
ATOM     11  O   UNL     1       5.404  -1.795  -6.432  1.00  0.00    -0.452 OA
ENDROOT
BRANCH   1  12
ATOM     12  C   UNL     1       5.603  -3.841  -5.175  1.00  0.00     0.021 A 
ATOM     13  C   UNL     1       4.878  -4.552  -4.201  1.00  0.00     0.016 A 
ATOM     14  C   UNL     1       5.547  -5.315  -3.239  1.00  0.00     0.047 A 
ATOM     15  C   UNL     1       6.947  -5.366  -3.229  1.00  0.00     0.115 A 
ATOM     16  C   UNL     1       7.007  -3.882  -5.145  1.00  0.00     0.016 A 
ATOM     17  C   UNL     1       7.674  -4.646  -4.182  1.00  0.00     0.047 A 
BRANCH  15  18
ATOM     18  O   UNL     1       7.623  -6.125  -2.276  1.00  0.00    -0.508 OA
ATOM     19  H   UNL     1       8.225  -6.896  -2.542  1.00  0.00     0.293 HD
ENDBRANCH  15  18
ENDBRANCH   1  12
BRANCH   2  20
ATOM     20  O   UNL     1       3.340  -4.773  -6.726  1.00  0.00    -0.502 OA
ATOM     21  H   UNL     1       3.949  -5.531  -6.441  1.00  0.00     0.293 HD
ENDBRANCH   2  20
BRANCH   6  22
ATOM     22  O   UNL     1       1.915  -0.511  -9.586  1.00  0.00    -0.507 OA
ATOM     23  H   UNL     1       1.007  -0.276  -9.215  1.00  0.00     0.293 HD
ENDBRANCH   6  22
BRANCH   8  24
ATOM     24  O   UNL     1       5.559   2.436  -8.619  1.00  0.00    -0.508 OA
ATOM     25  H   UNL     1       5.818   2.747  -9.548  1.00  0.00     0.293 HD
ENDBRANCH   8  24
TORSDOF 5
ENDMDL
MODEL 7
REMARK VINA RESULT:    -4.122      3.112      4.220
REMARK INTER + INTRA:          -5.029
REMARK INTER:                  -4.763
REMARK INTRA:                  -0.266
REMARK UNBOUND:                -0.185
REMARK SMILES O=c1c(O)c(-c2ccc(O)cc2)oc2cc(O)cc(O)c12
REMARK SMILES IDX 5 1 3 2 2 3 1 4 21 5 19 6 18 7 16 8 15 9 14 10 13 11 6 12
REMARK SMILES IDX 7 13 8 14 9 15 12 16 11 17 10 18 4 20 20 22 17 24
REMARK H PARENT 10 19 4 21 20 23 17 25
REMARK Flexibility Score: inf
ROOT
ATOM      1  C   UNL     1       3.759  -1.738  -7.731  1.00  0.00     0.180 A 
ATOM      2  C   UNL     1       4.094  -3.045  -8.124  1.00  0.00     0.208 A 
ATOM      3  C   UNL     1       3.078  -3.900  -8.582  1.00  0.00     0.238 A 
ATOM      4  O   UNL     1       3.391  -5.051  -8.982  1.00  0.00    -0.285 OA
ATOM      5  C   UNL     1       1.739  -3.443  -8.626  1.00  0.00     0.111 A 
ATOM      6  C   UNL     1       0.624  -4.235  -9.035  1.00  0.00     0.134 A 
ATOM      7  C   UNL     1      -0.636  -3.641  -9.164  1.00  0.00     0.093 A 
ATOM      8  C   UNL     1      -0.837  -2.300  -8.838  1.00  0.00     0.123 A 
ATOM      9  C   UNL     1       0.233  -1.530  -8.380  1.00  0.00     0.094 A 
ATOM     10  C   UNL     1       1.510  -2.086  -8.276  1.00  0.00     0.146 A 
ATOM     11  O   UNL     1       2.504  -1.317  -7.847  1.00  0.00    -0.452 OA
ENDROOT
BRANCH   1  12
ATOM     12  C   UNL     1       4.769  -0.787  -7.215  1.00  0.00     0.021 A 
ATOM     13  C   UNL     1       5.236  -0.863  -5.889  1.00  0.00     0.016 A 
ATOM     14  C   UNL     1       6.173   0.062  -5.416  1.00  0.00     0.047 A 
ATOM     15  C   UNL     1       6.644   1.080  -6.256  1.00  0.00     0.115 A 
ATOM     16  C   UNL     1       5.231   0.250  -8.043  1.00  0.00     0.016 A 
ATOM     17  C   UNL     1       6.168   1.173  -7.567  1.00  0.00     0.047 A 
BRANCH  15  18
ATOM     18  O   UNL     1       7.578   2.005  -5.796  1.00  0.00    -0.508 OA
ATOM     19  H   UNL     1       8.155   2.539  -6.435  1.00  0.00     0.293 HD
ENDBRANCH  15  18
ENDBRANCH   1  12
BRANCH   2  20
ATOM     20  O   UNL     1       5.425  -3.469  -8.093  1.00  0.00    -0.502 OA
ATOM     21  H   UNL     1       5.799  -4.132  -8.760  1.00  0.00     0.293 HD
ENDBRANCH   2  20
BRANCH   6  22
ATOM     22  O   UNL     1       0.697  -5.607  -9.295  1.00  0.00    -0.507 OA
ATOM     23  H   UNL     1       0.959  -6.011 -10.181  1.00  0.00     0.293 HD
ENDBRANCH   6  22
BRANCH   8  24
ATOM     24  O   UNL     1      -2.108  -1.745  -8.964  1.00  0.00    -0.508 OA
ATOM     25  H   UNL     1      -2.240  -0.754  -9.132  1.00  0.00     0.293 HD
ENDBRANCH   8  24
TORSDOF 5
ENDMDL
MODEL 8
REMARK VINA RESULT:    -4.053      3.770      6.497
REMARK INTER + INTRA:          -4.948
REMARK INTER:                  -4.662
REMARK INTRA:                  -0.286
REMARK UNBOUND:                -0.185
REMARK SMILES O=c1c(O)c(-c2ccc(O)cc2)oc2cc(O)cc(O)c12
REMARK SMILES IDX 5 1 3 2 2 3 1 4 21 5 19 6 18 7 16 8 15 9 14 10 13 11 6 12
REMARK SMILES IDX 7 13 8 14 9 15 12 16 11 17 10 18 4 20 20 22 17 24
REMARK H PARENT 10 19 4 21 20 23 17 25
REMARK Flexibility Score: inf
ROOT
ATOM      1  C   UNL     1       2.373  -0.939  -8.543  1.00  0.00     0.180 A 
ATOM      2  C   UNL     1       3.433  -1.448  -7.773  1.00  0.00     0.208 A 
ATOM      3  C   UNL     1       4.610  -0.692  -7.650  1.00  0.00     0.238 A 
ATOM      4  O   UNL     1       5.535  -1.127  -6.917  1.00  0.00    -0.285 OA
ATOM      5  C   UNL     1       4.719   0.555  -8.313  1.00  0.00     0.111 A 
ATOM      6  C   UNL     1       5.879   1.386  -8.291  1.00  0.00     0.134 A 
ATOM      7  C   UNL     1       5.828   2.658  -8.874  1.00  0.00     0.093 A 
ATOM      8  C   UNL     1       4.683   3.104  -9.532  1.00  0.00     0.123 A 
ATOM      9  C   UNL     1       3.562   2.276  -9.612  1.00  0.00     0.094 A 
ATOM     10  C   UNL     1       3.570   1.016  -9.009  1.00  0.00     0.146 A 
ATOM     11  O   UNL     1       2.480   0.262  -9.097  1.00  0.00    -0.452 OA
ENDROOT
BRANCH   1  12
ATOM     12  C   UNL     1       1.111  -1.688  -8.739  1.00  0.00     0.021 A 
ATOM     13  C   UNL     1       1.001  -2.696  -9.715  1.00  0.00     0.016 A 
ATOM     14  C   UNL     1      -0.208  -3.373  -9.898  1.00  0.00     0.047 A 
ATOM     15  C   UNL     1      -1.326  -3.044  -9.119  1.00  0.00     0.115 A 
ATOM     16  C   UNL     1      -0.020  -1.351  -7.976  1.00  0.00     0.016 A 
ATOM     17  C   UNL     1      -1.228  -2.030  -8.161  1.00  0.00     0.047 A 
BRANCH  15  18
ATOM     18  O   UNL     1      -2.535  -3.714  -9.292  1.00  0.00    -0.508 OA
ATOM     19  H   UNL     1      -2.622  -4.706  -9.107  1.00  0.00     0.293 HD
ENDBRANCH  15  18
ENDBRANCH   1  12
BRANCH   2  20
ATOM     20  O   UNL     1       3.296  -2.671  -7.110  1.00  0.00    -0.502 OA
ATOM     21  H   UNL     1       2.453  -2.927  -6.611  1.00  0.00     0.293 HD
ENDBRANCH   2  20
BRANCH   6  22
ATOM     22  O   UNL     1       7.105   1.000  -7.740  1.00  0.00    -0.507 OA
ATOM     23  H   UNL     1       7.318   1.003  -6.755  1.00  0.00     0.293 HD
ENDBRANCH   6  22
BRANCH   8  24
ATOM     24  O   UNL     1       4.673   4.369 -10.114  1.00  0.00    -0.508 OA
ATOM     25  H   UNL     1       3.970   4.635 -10.794  1.00  0.00     0.293 HD
ENDBRANCH   8  24
TORSDOF 5
ENDMDL
