MODEL 1
REMARK VINA RESULT:    -3.087      0.000      0.000
REMARK INTER + INTRA:          -6.216
REMARK INTER:                  -4.891
REMARK INTRA:                  -1.325
REMARK UNBOUND:                -1.325
REMARK SMILES CCCCCCCCCCCC(=O)[O-]
REMARK SMILES IDX 7 1 8 2 9 3 10 4 11 5 12 6 13 7 14 8 6 9 5 10 4 11 3 12 2 13
REMARK SMILES IDX 1 14
REMARK H PARENT
REMARK Flexibility Score: inf
ROOT
ATOM      1  C   UNL     1      16.474  20.229  49.632  1.00  0.00     0.000 C 
ENDROOT
BRANCH   1   2
ATOM      2  C   UNL     1      17.482  19.690  48.603  1.00  0.00     0.000 C 
BRANCH   2   3
ATOM      3  C   UNL     1      17.265  18.199  48.286  1.00  0.00     0.000 C 
BRANCH   3   4
ATOM      4  C   UNL     1      17.318  17.902  46.779  1.00  0.00     0.006 C 
BRANCH   4   5
ATOM      5  C   UNL     1      16.150  18.533  46.009  1.00  0.00     0.053 C 
BRANCH   5   6
ATOM      6  C   UNL     1      14.900  17.736  46.216  1.00  0.00     0.041 C 
ATOM      7  O   UNL     1      14.824  16.555  45.785  1.00  0.00    -0.550 OA
ATOM      8  O   UNL     1      13.838  18.282  46.925  1.00  0.00    -0.550 OA
ENDBRANCH   5   6
ENDBRANCH   4   5
ENDBRANCH   3   4
ENDBRANCH   2   3
ENDBRANCH   1   2
BRANCH   1   9
ATOM      9  C   UNL     1      15.338  19.232  49.924  1.00  0.00     0.000 C 
BRANCH   9  10
ATOM     10  C   UNL     1      15.327  18.763  51.389  1.00  0.00    -0.000 C 
BRANCH  10  11
ATOM     11  C   UNL     1      15.751  17.292  51.542  1.00  0.00    -0.000 C 
BRANCH  11  12
ATOM     12  C   UNL     1      16.951  17.120  52.488  1.00  0.00    -0.000 C 
BRANCH  12  13
ATOM     13  C   UNL     1      18.193  17.891  52.016  1.00  0.00    -0.003 C 
ATOM     14  C   UNL     1      19.124  16.991  51.209  1.00  0.00     0.004 C 
ENDBRANCH  12  13
ENDBRANCH  11  12
ENDBRANCH  10  11
ENDBRANCH   9  10
ENDBRANCH   1   9
TORSDOF 10
ENDMDL
MODEL 2
REMARK VINA RESULT:    -3.011      3.128      5.378
REMARK INTER + INTRA:          -6.096
REMARK INTER:                  -4.895
REMARK INTRA:                  -1.202
REMARK UNBOUND:                -1.325
REMARK SMILES CCCCCCCCCCCC(=O)[O-]
REMARK SMILES IDX 7 1 8 2 9 3 10 4 11 5 12 6 13 7 14 8 6 9 5 10 4 11 3 12 2 13
REMARK SMILES IDX 1 14
REMARK H PARENT
REMARK Flexibility Score: inf
ROOT
ATOM      1  C   UNL     1      16.011  19.637  49.354  1.00  0.00     0.000 C 
ENDROOT
BRANCH   1   2
ATOM      2  C   UNL     1      17.508  19.299  49.460  1.00  0.00     0.000 C 
BRANCH   2   3
ATOM      3  C   UNL     1      17.761  17.793  49.650  1.00  0.00     0.000 C 
BRANCH   3   4
ATOM      4  C   UNL     1      18.109  17.431  51.103  1.00  0.00     0.006 C 
BRANCH   4   5
ATOM      5  C   UNL     1      16.867  17.120  51.949  1.00  0.00     0.053 C 
BRANCH   5   6
ATOM      6  C   UNL     1      16.894  17.906  53.222  1.00  0.00     0.041 C 
ATOM      7  O   UNL     1      17.992  18.278  53.713  1.00  0.00    -0.550 OA
ATOM      8  O   UNL     1      15.705  18.269  53.840  1.00  0.00    -0.550 OA
ENDBRANCH   5   6
ENDBRANCH   4   5
ENDBRANCH   3   4
ENDBRANCH   2   3
ENDBRANCH   1   2
BRANCH   1   9
ATOM      9  C   UNL     1      15.172  18.451  48.847  1.00  0.00     0.000 C 
BRANCH   9  10
ATOM     10  C   UNL     1      14.258  18.835  47.671  1.00  0.00    -0.000 C 
BRANCH  10  11
ATOM     11  C   UNL     1      14.435  17.906  46.457  1.00  0.00    -0.000 C 
BRANCH  11  12
ATOM     12  C   UNL     1      15.902  17.504  46.233  1.00  0.00    -0.000 C 
BRANCH  12  13
ATOM     13  C   UNL     1      16.680  18.535  45.401  1.00  0.00    -0.003 C 
ATOM     14  C   UNL     1      18.103  18.703  45.926  1.00  0.00     0.004 C 
ENDBRANCH  12  13
ENDBRANCH  11  12
ENDBRANCH  10  11
ENDBRANCH   9  10
ENDBRANCH   1   9
TORSDOF 10
ENDMDL
MODEL 3
REMARK VINA RESULT:    -2.995      2.788      5.615
REMARK INTER + INTRA:          -6.071
REMARK INTER:                  -4.685
REMARK INTRA:                  -1.386
REMARK UNBOUND:                -1.325
REMARK SMILES CCCCCCCCCCCC(=O)[O-]
REMARK SMILES IDX 7 1 8 2 9 3 10 4 11 5 12 6 13 7 14 8 6 9 5 10 4 11 3 12 2 13
REMARK SMILES IDX 1 14
REMARK H PARENT
REMARK Flexibility Score: inf
ROOT
ATOM      1  C   UNL     1      17.256  19.804  48.979  1.00  0.00     0.000 C 
ENDROOT
BRANCH   1   2
ATOM      2  C   UNL     1      15.763  19.874  49.340  1.00  0.00     0.000 C 
BRANCH   2   3
ATOM      3  C   UNL     1      15.226  18.543  49.896  1.00  0.00     0.000 C 
BRANCH   3   4
ATOM      4  C   UNL     1      15.527  18.364  51.393  1.00  0.00     0.006 C 
BRANCH   4   5
ATOM      5  C   UNL     1      16.311  17.078  51.690  1.00  0.00     0.053 C 
BRANCH   5   6
ATOM      6  C   UNL     1      17.735  17.401  52.018  1.00  0.00     0.041 C 
ATOM      7  O   UNL     1      18.013  18.057  53.056  1.00  0.00    -0.550 OA
ATOM      8  O   UNL     1      18.759  16.936  51.202  1.00  0.00    -0.550 OA
ENDBRANCH   5   6
ENDBRANCH   4   5
ENDBRANCH   3   4
ENDBRANCH   2   3
ENDBRANCH   1   2
BRANCH   1   9
ATOM      9  C   UNL     1      17.610  18.545  48.169  1.00  0.00     0.000 C 
BRANCH   9  10
ATOM     10  C   UNL     1      17.984  18.866  46.711  1.00  0.00    -0.000 C 
BRANCH  10  11
ATOM     11  C   UNL     1      16.940  18.350  45.706  1.00  0.00    -0.000 C 
BRANCH  11  12
ATOM     12  C   UNL     1      15.870  17.468  46.368  1.00  0.00    -0.000 C 
BRANCH  12  13
ATOM     13  C   UNL     1      14.440  17.920  46.036  1.00  0.00    -0.003 C 
ATOM     14  C   UNL     1      14.347  19.441  45.968  1.00  0.00     0.004 C 
ENDBRANCH  12  13
ENDBRANCH  11  12
ENDBRANCH  10  11
ENDBRANCH   9  10
ENDBRANCH   1   9
TORSDOF 10
ENDMDL
MODEL 4
REMARK VINA RESULT:    -2.989      2.450      3.421
REMARK INTER + INTRA:          -6.061
REMARK INTER:                  -5.074
REMARK INTRA:                  -0.987
REMARK UNBOUND:                -1.325
REMARK SMILES CCCCCCCCCCCC(=O)[O-]
REMARK SMILES IDX 7 1 8 2 9 3 10 4 11 5 12 6 13 7 14 8 6 9 5 10 4 11 3 12 2 13
REMARK SMILES IDX 1 14
REMARK H PARENT
REMARK Flexibility Score: inf
ROOT
ATOM      1  C   UNL     1      14.425  18.853  47.471  1.00  0.00     0.000 C 
ENDROOT
BRANCH   1   2
ATOM      2  C   UNL     1      14.423  17.754  46.395  1.00  0.00     0.000 C 
BRANCH   2   3
ATOM      3  C   UNL     1      15.833  17.455  45.853  1.00  0.00     0.000 C 
BRANCH   3   4
ATOM      4  C   UNL     1      16.591  18.729  45.447  1.00  0.00     0.006 C 
BRANCH   4   5
ATOM      5  C   UNL     1      18.106  18.611  45.664  1.00  0.00     0.053 C 
BRANCH   5   6
ATOM      6  C   UNL     1      18.840  18.949  44.405  1.00  0.00     0.041 C 
ATOM      7  O   UNL     1      20.085  18.772  44.331  1.00  0.00    -0.550 OA
ATOM      8  O   UNL     1      18.144  19.413  43.297  1.00  0.00    -0.550 OA
ENDBRANCH   5   6
ENDBRANCH   4   5
ENDBRANCH   3   4
ENDBRANCH   2   3
ENDBRANCH   1   2
BRANCH   1   9
ATOM      9  C   UNL     1      15.020  18.371  48.806  1.00  0.00     0.000 C 
BRANCH   9  10
ATOM     10  C   UNL     1      16.291  19.144  49.197  1.00  0.00    -0.000 C 
BRANCH  10  11
ATOM     11  C   UNL     1      17.531  18.237  49.285  1.00  0.00    -0.000 C 
BRANCH  11  12
ATOM     12  C   UNL     1      18.237  18.336  50.647  1.00  0.00    -0.000 C 
BRANCH  12  13
ATOM     13  C   UNL     1      18.006  17.098  51.527  1.00  0.00    -0.003 C 
ATOM     14  C   UNL     1      16.717  17.230  52.333  1.00  0.00     0.004 C 
ENDBRANCH  12  13
ENDBRANCH  11  12
ENDBRANCH  10  11
ENDBRANCH   9  10
ENDBRANCH   1   9
TORSDOF 10
ENDMDL
MODEL 5
REMARK VINA RESULT:    -2.960     11.745     13.219
REMARK INTER + INTRA:          -6.015
REMARK INTER:                  -4.625
REMARK INTRA:                  -1.390
REMARK UNBOUND:                -1.325
REMARK SMILES CCCCCCCCCCCC(=O)[O-]
REMARK SMILES IDX 7 1 8 2 9 3 10 4 11 5 12 6 13 7 14 8 6 9 5 10 4 11 3 12 2 13
REMARK SMILES IDX 1 14
REMARK H PARENT
REMARK Flexibility Score: inf
ROOT
ATOM      1  C   UNL     1      19.288  27.507  55.623  1.00  0.00     0.000 C 
ENDROOT
BRANCH   1   2
ATOM      2  C   UNL     1      19.592  28.427  54.428  1.00  0.00     0.000 C 
BRANCH   2   3
ATOM      3  C   UNL     1      19.051  29.854  54.628  1.00  0.00     0.000 C 
BRANCH   3   4
ATOM      4  C   UNL     1      17.793  30.130  53.789  1.00  0.00     0.006 C 
BRANCH   4   5
ATOM      5  C   UNL     1      16.495  29.859  54.563  1.00  0.00     0.053 C 
BRANCH   5   6
ATOM      6  C   UNL     1      15.835  28.617  54.053  1.00  0.00     0.041 C 
ATOM      7  O   UNL     1      15.590  27.663  54.837  1.00  0.00    -0.550 OA
ATOM      8  O   UNL     1      15.447  28.531  52.722  1.00  0.00    -0.550 OA
ENDBRANCH   5   6
ENDBRANCH   4   5
ENDBRANCH   3   4
ENDBRANCH   2   3
ENDBRANCH   1   2
BRANCH   1   9
ATOM      9  C   UNL     1      18.999  28.293  56.914  1.00  0.00     0.000 C 
BRANCH   9  10
ATOM     10  C   UNL     1      20.183  28.268  57.897  1.00  0.00    -0.000 C 
BRANCH  10  11
ATOM     11  C   UNL     1      20.500  29.658  58.475  1.00  0.00    -0.000 C 
BRANCH  11  12
ATOM     12  C   UNL     1      21.529  30.427  57.629  1.00  0.00    -0.000 C 
BRANCH  12  13
ATOM     13  C   UNL     1      22.428  29.499  56.801  1.00  0.00    -0.003 C 
ATOM     14  C   UNL     1      22.745  30.112  55.440  1.00  0.00     0.004 C 
ENDBRANCH  12  13
ENDBRANCH  11  12
ENDBRANCH  10  11
ENDBRANCH   9  10
ENDBRANCH   1   9
TORSDOF 10
ENDMDL
MODEL 6
REMARK VINA RESULT:    -2.916     11.934     13.469
REMARK INTER + INTRA:          -5.946
REMARK INTER:                  -4.860
REMARK INTRA:                  -1.085
REMARK UNBOUND:                -1.325
REMARK SMILES CCCCCCCCCCCC(=O)[O-]
REMARK SMILES IDX 7 1 8 2 9 3 10 4 11 5 12 6 13 7 14 8 6 9 5 10 4 11 3 12 2 13
REMARK SMILES IDX 1 14
REMARK H PARENT
REMARK Flexibility Score: inf
ROOT
ATOM      1  C   UNL     1      20.314  29.003  54.093  1.00  0.00     0.000 C 
ENDROOT
BRANCH   1   2
ATOM      2  C   UNL     1      19.214  29.660  54.944  1.00  0.00     0.000 C 
BRANCH   2   3
ATOM      3  C   UNL     1      18.331  28.628  55.668  1.00  0.00     0.000 C 
BRANCH   3   4
ATOM      4  C   UNL     1      16.842  29.010  55.650  1.00  0.00     0.006 C 
BRANCH   4   5
ATOM      5  C   UNL     1      16.448  29.796  54.391  1.00  0.00     0.053 C 
BRANCH   5   6
ATOM      6  C   UNL     1      15.895  28.871  53.352  1.00  0.00     0.041 C 
ATOM      7  O   UNL     1      16.616  28.499  52.389  1.00  0.00    -0.550 OA
ATOM      8  O   UNL     1      14.601  28.384  53.473  1.00  0.00    -0.550 OA
ENDBRANCH   5   6
ENDBRANCH   4   5
ENDBRANCH   3   4
ENDBRANCH   2   3
ENDBRANCH   1   2
BRANCH   1   9
ATOM      9  C   UNL     1      21.608  28.755  54.888  1.00  0.00     0.000 C 
BRANCH   9  10
ATOM     10  C   UNL     1      22.285  30.063  55.336  1.00  0.00    -0.000 C 
BRANCH  10  11
ATOM     11  C   UNL     1      22.457  30.146  56.863  1.00  0.00    -0.000 C 
BRANCH  11  12
ATOM     12  C   UNL     1      21.849  28.937  57.591  1.00  0.00    -0.000 C 
BRANCH  12  13
ATOM     13  C   UNL     1      20.800  29.340  58.638  1.00  0.00    -0.003 C 
ATOM     14  C   UNL     1      20.888  30.830  58.956  1.00  0.00     0.004 C 
ENDBRANCH  12  13
ENDBRANCH  11  12
ENDBRANCH  10  11
ENDBRANCH   9  10
ENDBRANCH   1   9
TORSDOF 10
ENDMDL
MODEL 7
REMARK VINA RESULT:    -2.903     12.398     14.329
REMARK INTER + INTRA:          -5.924
REMARK INTER:                  -4.888
REMARK INTRA:                  -1.037
REMARK UNBOUND:                -1.325
REMARK SMILES CCCCCCCCCCCC(=O)[O-]
REMARK SMILES IDX 7 1 8 2 9 3 10 4 11 5 12 6 13 7 14 8 6 9 5 10 4 11 3 12 2 13
REMARK SMILES IDX 1 14
REMARK H PARENT
REMARK Flexibility Score: inf
ROOT
ATOM      1  C   UNL     1      19.267  27.793  55.549  1.00  0.00     0.000 C 
ENDROOT
BRANCH   1   2
ATOM      2  C   UNL     1      19.009  28.668  56.787  1.00  0.00     0.000 C 
BRANCH   2   3
ATOM      3  C   UNL     1      19.831  28.221  58.009  1.00  0.00     0.000 C 
BRANCH   3   4
ATOM      4  C   UNL     1      20.876  29.267  58.431  1.00  0.00     0.006 C 
BRANCH   4   5
ATOM      5  C   UNL     1      21.298  30.183  57.274  1.00  0.00     0.053 C 
BRANCH   5   6
ATOM      6  C   UNL     1      22.641  29.778  56.752  1.00  0.00     0.041 C 
ATOM      7  O   UNL     1      23.044  28.593  56.895  1.00  0.00    -0.550 OA
ATOM      8  O   UNL     1      23.426  30.695  56.066  1.00  0.00    -0.550 OA
ENDBRANCH   5   6
ENDBRANCH   4   5
ENDBRANCH   3   4
ENDBRANCH   2   3
ENDBRANCH   1   2
BRANCH   1   9
ATOM      9  C   UNL     1      19.491  28.625  54.274  1.00  0.00     0.000 C 
BRANCH   9  10
ATOM     10  C   UNL     1      18.894  30.039  54.379  1.00  0.00    -0.000 C 
BRANCH  10  11
ATOM     11  C   UNL     1      17.550  30.169  53.640  1.00  0.00    -0.000 C 
BRANCH  11  12
ATOM     12  C   UNL     1      16.355  29.755  54.514  1.00  0.00    -0.000 C 
BRANCH  12  13
ATOM     13  C   UNL     1      15.403  28.787  53.797  1.00  0.00    -0.003 C 
ATOM     14  C   UNL     1      16.100  28.096  52.628  1.00  0.00     0.004 C 
ENDBRANCH  12  13
ENDBRANCH  11  12
ENDBRANCH  10  11
ENDBRANCH   9  10
ENDBRANCH   1   9
TORSDOF 10
ENDMDL
MODEL 8
REMARK VINA RESULT:    -2.873     12.270     13.776
REMARK INTER + INTRA:          -5.877
REMARK INTER:                  -4.322
REMARK INTRA:                  -1.555
REMARK UNBOUND:                -1.325
REMARK SMILES CCCCCCCCCCCC(=O)[O-]
REMARK SMILES IDX 7 1 8 2 9 3 10 4 11 5 12 6 13 7 14 8 6 9 5 10 4 11 3 12 2 13
REMARK SMILES IDX 1 14
REMARK H PARENT
REMARK Flexibility Score: inf
ROOT
ATOM      1  C   UNL     1      19.773  28.362  58.124  1.00  0.00     0.000 C 
ENDROOT
BRANCH   1   2
ATOM      2  C   UNL     1      18.996  28.753  56.856  1.00  0.00     0.000 C 
BRANCH   2   3
ATOM      3  C   UNL     1      19.077  27.678  55.757  1.00  0.00     0.000 C 
BRANCH   3   4
ATOM      4  C   UNL     1      18.913  28.264  54.345  1.00  0.00     0.006 C 
BRANCH   4   5
ATOM      5  C   UNL     1      18.870  29.798  54.342  1.00  0.00     0.053 C 
BRANCH   5   6
ATOM      6  C   UNL     1      17.625  30.283  53.668  1.00  0.00     0.041 C 
ATOM      7  O   UNL     1      17.697  31.140  52.748  1.00  0.00    -0.550 OA
ATOM      8  O   UNL     1      16.391  29.753  54.022  1.00  0.00    -0.550 OA
ENDBRANCH   5   6
ENDBRANCH   4   5
ENDBRANCH   3   4
ENDBRANCH   2   3
ENDBRANCH   1   2
BRANCH   1   9
ATOM      9  C   UNL     1      20.915  29.343  58.444  1.00  0.00     0.000 C 
BRANCH   9  10
ATOM     10  C   UNL     1      21.158  30.355  57.310  1.00  0.00    -0.000 C 
BRANCH  10  11
ATOM     11  C   UNL     1      22.612  30.342  56.808  1.00  0.00    -0.000 C 
BRANCH  11  12
ATOM     12  C   UNL     1      22.717  29.997  55.314  1.00  0.00    -0.000 C 
BRANCH  12  13
ATOM     13  C   UNL     1      22.544  28.496  55.038  1.00  0.00    -0.003 C 
ATOM     14  C   UNL     1      23.349  27.659  56.029  1.00  0.00     0.004 C 
ENDBRANCH  12  13
ENDBRANCH  11  12
ENDBRANCH  10  11
ENDBRANCH   9  10
ENDBRANCH   1   9
TORSDOF 10
ENDMDL
MODEL 9
REMARK VINA RESULT:    -2.808     11.965     13.678
REMARK INTER + INTRA:          -5.774
REMARK INTER:                  -4.200
REMARK INTRA:                  -1.574
REMARK UNBOUND:                -1.325
REMARK SMILES CCCCCCCCCCCC(=O)[O-]
REMARK SMILES IDX 7 1 8 2 9 3 10 4 11 5 12 6 13 7 14 8 6 9 5 10 4 11 3 12 2 13
REMARK SMILES IDX 1 14
REMARK H PARENT
REMARK Flexibility Score: inf
ROOT
ATOM      1  C   UNL     1      18.373  26.588  55.194  1.00  0.00     0.000 C 
ENDROOT
BRANCH   1   2
ATOM      2  C   UNL     1      19.628  26.939  54.377  1.00  0.00     0.000 C 
BRANCH   2   3
ATOM      3  C   UNL     1      20.675  27.709  55.201  1.00  0.00     0.000 C 
BRANCH   3   4
ATOM      4  C   UNL     1      21.015  29.079  54.591  1.00  0.00     0.006 C 
BRANCH   4   5
ATOM      5  C   UNL     1      20.758  30.240  55.561  1.00  0.00     0.053 C 
BRANCH   5   6
ATOM      6  C   UNL     1      21.819  30.283  56.615  1.00  0.00     0.041 C 
ATOM      7  O   UNL     1      23.030  30.137  56.300  1.00  0.00    -0.550 OA
ATOM      8  O   UNL     1      21.476  30.530  57.937  1.00  0.00    -0.550 OA
ENDBRANCH   5   6
ENDBRANCH   4   5
ENDBRANCH   3   4
ENDBRANCH   2   3
ENDBRANCH   1   2
BRANCH   1   9
ATOM      9  C   UNL     1      18.168  27.530  56.394  1.00  0.00     0.000 C 
BRANCH   9  10
ATOM     10  C   UNL     1      17.323  28.765  56.035  1.00  0.00    -0.000 C 
BRANCH  10  11
ATOM     11  C   UNL     1      16.217  28.449  55.014  1.00  0.00    -0.000 C 
BRANCH  11  12
ATOM     12  C   UNL     1      16.138  29.494  53.889  1.00  0.00    -0.000 C 
BRANCH  12  13
ATOM     13  C   UNL     1      17.503  30.117  53.561  1.00  0.00    -0.003 C 
ATOM     14  C   UNL     1      18.058  29.563  52.252  1.00  0.00     0.004 C 
ENDBRANCH  12  13
ENDBRANCH  11  12
ENDBRANCH  10  11
ENDBRANCH   9  10
ENDBRANCH   1   9
TORSDOF 10
ENDMDL
