MODEL 1
REMARK VINA RESULT:    -7.368      0.000      0.000
REMARK INTER + INTRA:          -9.161
REMARK INTER:                  -8.876
REMARK INTRA:                  -0.285
REMARK UNBOUND:                -0.285
REMARK SMILES O=c1c(O)c(-c2ccc(O)c(O)c2)oc2cc(O)cc(O)c12
REMARK SMILES IDX 5 1 3 2 2 3 1 4 22 5 20 6 19 7 17 8 16 9 15 10 14 11 6 12
REMARK SMILES IDX 7 13 8 14 9 15 13 16 11 17 10 18 12 20 4 22 21 24 18 26
REMARK H PARENT 10 19 12 21 4 23 21 25 18 27
REMARK Flexibility Score: inf
ROOT
ATOM      1  C   UNL     1     -32.927  95.818   7.487  1.00  0.00     0.180 A 
ATOM      2  C   UNL     1     -34.181  95.195   7.336  1.00  0.00     0.208 A 
ATOM      3  C   UNL     1     -34.230  93.805   7.146  1.00  0.00     0.238 A 
ATOM      4  O   UNL     1     -35.347  93.234   7.019  1.00  0.00    -0.285 OA
ATOM      5  C   UNL     1     -33.029  93.066   7.092  1.00  0.00     0.111 A 
ATOM      6  C   UNL     1     -32.991  91.664   6.900  1.00  0.00     0.134 A 
ATOM      7  C   UNL     1     -31.755  91.003   6.847  1.00  0.00     0.093 A 
ATOM      8  C   UNL     1     -30.559  91.716   6.983  1.00  0.00     0.123 A 
ATOM      9  C   UNL     1     -30.592  93.099   7.173  1.00  0.00     0.094 A 
ATOM     10  C   UNL     1     -31.813  93.776   7.229  1.00  0.00     0.146 A 
ATOM     11  O   UNL     1     -31.816  95.091   7.416  1.00  0.00    -0.452 OA
ENDROOT
BRANCH   1  12
ATOM     12  C   UNL     1     -32.794  97.276   7.710  1.00  0.00     0.025 A 
ATOM     13  C   UNL     1     -32.937  98.193   6.655  1.00  0.00     0.016 A 
ATOM     14  C   UNL     1     -32.830  99.566   6.894  1.00  0.00     0.051 A 
ATOM     15  C   UNL     1     -32.594 100.043   8.187  1.00  0.00     0.157 A 
ATOM     16  C   UNL     1     -32.578  97.758   9.011  1.00  0.00     0.062 A 
ATOM     17  C   UNL     1     -32.470  99.136   9.252  1.00  0.00     0.158 A 
BRANCH  15  18
ATOM     18  O   UNL     1     -32.490 101.418   8.393  1.00  0.00    -0.504 OA
ATOM     19  H   UNL     1     -33.171 102.070   8.023  1.00  0.00     0.293 HD
ENDBRANCH  15  18
BRANCH  17  20
ATOM     20  O   UNL     1     -32.241  99.605  10.545  1.00  0.00    -0.504 OA
ATOM     21  H   UNL     1     -31.733  99.054  11.227  1.00  0.00     0.293 HD
ENDBRANCH  17  20
ENDBRANCH   1  12
BRANCH   2  22
ATOM     22  O   UNL     1     -35.353  95.955   7.344  1.00  0.00    -0.502 OA
ATOM     23  H   UNL     1     -35.356  96.950   7.154  1.00  0.00     0.293 HD
ENDBRANCH   2  22
BRANCH   6  24
ATOM     24  O   UNL     1     -34.167  90.925   6.761  1.00  0.00    -0.507 OA
ATOM     25  H   UNL     1     -34.326  90.322   5.962  1.00  0.00     0.293 HD
ENDBRANCH   6  24
BRANCH   8  26
ATOM     26  O   UNL     1     -29.331  91.060   6.931  1.00  0.00    -0.508 OA
ATOM     27  H   UNL     1     -29.259  90.059   7.071  1.00  0.00     0.293 HD
ENDBRANCH   8  26
TORSDOF 6
ENDMDL
MODEL 2
REMARK VINA RESULT:    -7.141      4.118      7.514
REMARK INTER + INTRA:          -8.886
REMARK INTER:                  -8.654
REMARK INTRA:                  -0.233
REMARK UNBOUND:                -0.285
REMARK SMILES O=c1c(O)c(-c2ccc(O)c(O)c2)oc2cc(O)cc(O)c12
REMARK SMILES IDX 5 1 3 2 2 3 1 4 22 5 20 6 19 7 17 8 16 9 15 10 14 11 6 12
REMARK SMILES IDX 7 13 8 14 9 15 13 16 11 17 10 18 12 20 4 22 21 24 18 26
REMARK H PARENT 10 19 12 21 4 23 21 25 18 27
REMARK Flexibility Score: inf
ROOT
ATOM      1  C   UNL     1     -30.276  91.153   7.572  1.00  0.00     0.180 A 
ATOM      2  C   UNL     1     -30.406  91.093   6.171  1.00  0.00     0.208 A 
ATOM      3  C   UNL     1     -31.552  91.638   5.571  1.00  0.00     0.238 A 
ATOM      4  O   UNL     1     -31.675  91.599   4.317  1.00  0.00    -0.285 OA
ATOM      5  C   UNL     1     -32.554  92.216   6.379  1.00  0.00     0.111 A 
ATOM      6  C   UNL     1     -33.740  92.783   5.855  1.00  0.00     0.134 A 
ATOM      7  C   UNL     1     -34.694  93.329   6.726  1.00  0.00     0.093 A 
ATOM      8  C   UNL     1     -34.484  93.318   8.110  1.00  0.00     0.123 A 
ATOM      9  C   UNL     1     -33.315  92.760   8.631  1.00  0.00     0.094 A 
ATOM     10  C   UNL     1     -32.352  92.212   7.780  1.00  0.00     0.146 A 
ATOM     11  O   UNL     1     -31.248  91.693   8.302  1.00  0.00    -0.452 OA
ENDROOT
BRANCH   1  12
ATOM     12  C   UNL     1     -29.088  90.618   8.276  1.00  0.00     0.025 A 
ATOM     13  C   UNL     1     -27.829  91.229   8.155  1.00  0.00     0.016 A 
ATOM     14  C   UNL     1     -26.727  90.720   8.847  1.00  0.00     0.051 A 
ATOM     15  C   UNL     1     -26.868  89.605   9.680  1.00  0.00     0.157 A 
ATOM     16  C   UNL     1     -29.232  89.512   9.129  1.00  0.00     0.062 A 
ATOM     17  C   UNL     1     -28.127  88.999   9.824  1.00  0.00     0.158 A 
BRANCH  15  18
ATOM     18  O   UNL     1     -25.751  89.118  10.356  1.00  0.00    -0.504 OA
ATOM     19  H   UNL     1     -25.803  88.783  11.311  1.00  0.00     0.293 HD
ENDBRANCH  15  18
BRANCH  17  20
ATOM     20  O   UNL     1     -28.277  87.891  10.657  1.00  0.00    -0.504 OA
ATOM     21  H   UNL     1     -27.541  87.202  10.762  1.00  0.00     0.293 HD
ENDBRANCH  17  20
ENDBRANCH   1  12
BRANCH   2  22
ATOM     22  O   UNL     1     -29.423  90.472   5.397  1.00  0.00    -0.502 OA
ATOM     23  H   UNL     1     -28.555  90.131   5.792  1.00  0.00     0.293 HD
ENDBRANCH   2  22
BRANCH   6  24
ATOM     24  O   UNL     1     -33.978  92.807   4.479  1.00  0.00    -0.507 OA
ATOM     25  H   UNL     1     -34.750  93.329   4.081  1.00  0.00     0.293 HD
ENDBRANCH   6  24
BRANCH   8  26
ATOM     26  O   UNL     1     -35.431  93.861   8.976  1.00  0.00    -0.508 OA
ATOM     27  H   UNL     1     -35.813  93.326   9.746  1.00  0.00     0.293 HD
ENDBRANCH   8  26
TORSDOF 6
ENDMDL
MODEL 3
REMARK VINA RESULT:    -6.939      0.996      1.687
REMARK INTER + INTRA:          -8.644
REMARK INTER:                  -8.396
REMARK INTRA:                  -0.247
REMARK UNBOUND:                -0.285
REMARK SMILES O=c1c(O)c(-c2ccc(O)c(O)c2)oc2cc(O)cc(O)c12
REMARK SMILES IDX 5 1 3 2 2 3 1 4 22 5 20 6 19 7 17 8 16 9 15 10 14 11 6 12
REMARK SMILES IDX 7 13 8 14 9 15 13 16 11 17 10 18 12 20 4 22 21 24 18 26
REMARK H PARENT 10 19 12 21 4 23 21 25 18 27
REMARK Flexibility Score: inf
ROOT
ATOM      1  C   UNL     1     -32.676  95.609   7.535  1.00  0.00     0.180 A 
ATOM      2  C   UNL     1     -33.781  94.750   7.373  1.00  0.00     0.208 A 
ATOM      3  C   UNL     1     -33.554  93.374   7.219  1.00  0.00     0.238 A 
ATOM      4  O   UNL     1     -34.535  92.594   7.084  1.00  0.00    -0.285 OA
ATOM      5  C   UNL     1     -32.231  92.882   7.211  1.00  0.00     0.111 A 
ATOM      6  C   UNL     1     -31.916  91.510   7.057  1.00  0.00     0.134 A 
ATOM      7  C   UNL     1     -30.575  91.101   7.048  1.00  0.00     0.093 A 
ATOM      8  C   UNL     1     -29.544  92.037   7.191  1.00  0.00     0.123 A 
ATOM      9  C   UNL     1     -29.850  93.391   7.344  1.00  0.00     0.094 A 
ATOM     10  C   UNL     1     -31.180  93.818   7.355  1.00  0.00     0.146 A 
ATOM     11  O   UNL     1     -31.443  95.111   7.507  1.00  0.00    -0.452 OA
ENDROOT
BRANCH   1  12
ATOM     12  C   UNL     1     -32.835  97.069   7.723  1.00  0.00     0.025 A 
ATOM     13  C   UNL     1     -32.592  97.678   8.966  1.00  0.00     0.016 A 
ATOM     14  C   UNL     1     -32.726  99.061   9.113  1.00  0.00     0.051 A 
ATOM     15  C   UNL     1     -33.090  99.857   8.022  1.00  0.00     0.157 A 
ATOM     16  C   UNL     1     -33.180  97.873   6.624  1.00  0.00     0.062 A 
ATOM     17  C   UNL     1     -33.315  99.261   6.771  1.00  0.00     0.158 A 
BRANCH  15  18
ATOM     18  O   UNL     1     -33.217 101.233   8.201  1.00  0.00    -0.504 OA
ATOM     19  H   UNL     1     -34.057 101.735   7.937  1.00  0.00     0.293 HD
ENDBRANCH  15  18
BRANCH  17  20
ATOM     20  O   UNL     1     -33.672 100.049   5.677  1.00  0.00    -0.504 OA
ATOM     21  H   UNL     1     -34.569  99.945   5.218  1.00  0.00     0.293 HD
ENDBRANCH  17  20
ENDBRANCH   1  12
BRANCH   2  22
ATOM     22  O   UNL     1     -35.078  95.268   7.336  1.00  0.00    -0.502 OA
ATOM     23  H   UNL     1     -35.569  95.562   8.172  1.00  0.00     0.293 HD
ENDBRANCH   2  22
BRANCH   6  24
ATOM     24  O   UNL     1     -32.923  90.554   6.911  1.00  0.00    -0.507 OA
ATOM     25  H   UNL     1     -32.737  89.642   6.509  1.00  0.00     0.293 HD
ENDBRANCH   6  24
BRANCH   8  26
ATOM     26  O   UNL     1     -28.211  91.632   7.182  1.00  0.00    -0.508 OA
ATOM     27  H   UNL     1     -27.474  92.240   6.848  1.00  0.00     0.293 HD
ENDBRANCH   8  26
TORSDOF 6
ENDMDL
MODEL 4
REMARK VINA RESULT:    -6.815      1.341      3.188
REMARK INTER + INTRA:          -8.494
REMARK INTER:                  -8.293
REMARK INTRA:                  -0.201
REMARK UNBOUND:                -0.285
REMARK SMILES O=c1c(O)c(-c2ccc(O)c(O)c2)oc2cc(O)cc(O)c12
REMARK SMILES IDX 5 1 3 2 2 3 1 4 22 5 20 6 19 7 17 8 16 9 15 10 14 11 6 12
REMARK SMILES IDX 7 13 8 14 9 15 13 16 11 17 10 18 12 20 4 22 21 24 18 26
REMARK H PARENT 10 19 12 21 4 23 21 25 18 27
REMARK Flexibility Score: inf
ROOT
ATOM      1  C   UNL     1     -32.515  95.512   7.459  1.00  0.00     0.180 A 
ATOM      2  C   UNL     1     -31.224  94.952   7.509  1.00  0.00     0.208 A 
ATOM      3  C   UNL     1     -31.071  93.577   7.273  1.00  0.00     0.238 A 
ATOM      4  O   UNL     1     -29.919  93.065   7.305  1.00  0.00    -0.285 OA
ATOM      5  C   UNL     1     -32.208  92.784   7.010  1.00  0.00     0.111 A 
ATOM      6  C   UNL     1     -32.141  91.391   6.765  1.00  0.00     0.134 A 
ATOM      7  C   UNL     1     -33.320  90.670   6.521  1.00  0.00     0.093 A 
ATOM      8  C   UNL     1     -34.561  91.315   6.518  1.00  0.00     0.123 A 
ATOM      9  C   UNL     1     -34.632  92.689   6.758  1.00  0.00     0.094 A 
ATOM     10  C   UNL     1     -33.469  93.425   7.002  1.00  0.00     0.146 A 
ATOM     11  O   UNL     1     -33.565  94.731   7.222  1.00  0.00    -0.452 OA
ENDROOT
BRANCH   1  12
ATOM     12  C   UNL     1     -32.755  96.957   7.678  1.00  0.00     0.025 A 
ATOM     13  C   UNL     1     -32.558  97.549   8.937  1.00  0.00     0.016 A 
ATOM     14  C   UNL     1     -32.769  98.919   9.114  1.00  0.00     0.051 A 
ATOM     15  C   UNL     1     -33.165  99.718   8.038  1.00  0.00     0.157 A 
ATOM     16  C   UNL     1     -33.133  97.766   6.594  1.00  0.00     0.062 A 
ATOM     17  C   UNL     1     -33.346  99.141   6.771  1.00  0.00     0.158 A 
BRANCH  15  18
ATOM     18  O   UNL     1     -33.370 101.082   8.246  1.00  0.00    -0.504 OA
ATOM     19  H   UNL     1     -33.173 101.771   7.531  1.00  0.00     0.293 HD
ENDBRANCH  15  18
BRANCH  17  20
ATOM     20  O   UNL     1     -33.735  99.934   5.691  1.00  0.00    -0.504 OA
ATOM     21  H   UNL     1     -34.682  99.914   5.332  1.00  0.00     0.293 HD
ENDBRANCH  17  20
ENDBRANCH   1  12
BRANCH   2  22
ATOM     22  O   UNL     1     -30.120  95.749   7.820  1.00  0.00    -0.502 OA
ATOM     23  H   UNL     1     -29.186  95.536   7.490  1.00  0.00     0.293 HD
ENDBRANCH   2  22
BRANCH   6  24
ATOM     24  O   UNL     1     -30.917  90.720   6.764  1.00  0.00    -0.507 OA
ATOM     25  H   UNL     1     -30.505  90.364   5.909  1.00  0.00     0.293 HD
ENDBRANCH   6  24
BRANCH   8  26
ATOM     26  O   UNL     1     -35.732  90.600   6.276  1.00  0.00    -0.508 OA
ATOM     27  H   UNL     1     -36.129  89.981   6.973  1.00  0.00     0.293 HD
ENDBRANCH   8  26
TORSDOF 6
ENDMDL
MODEL 5
REMARK VINA RESULT:    -6.811     16.899     18.431
REMARK INTER + INTRA:          -8.489
REMARK INTER:                  -8.180
REMARK INTRA:                  -0.309
REMARK UNBOUND:                -0.285
REMARK SMILES O=c1c(O)c(-c2ccc(O)c(O)c2)oc2cc(O)cc(O)c12
REMARK SMILES IDX 5 1 3 2 2 3 1 4 22 5 20 6 19 7 17 8 16 9 15 10 14 11 6 12
REMARK SMILES IDX 7 13 8 14 9 15 13 16 11 17 10 18 12 20 4 22 21 24 18 26
REMARK H PARENT 10 19 12 21 4 23 21 25 18 27
REMARK Flexibility Score: inf
ROOT
ATOM      1  C   UNL     1     -20.269  97.461  -5.456  1.00  0.00     0.180 A 
ATOM      2  C   UNL     1     -18.868  97.568  -5.374  1.00  0.00     0.208 A 
ATOM      3  C   UNL     1     -18.128  96.465  -4.920  1.00  0.00     0.238 A 
ATOM      4  O   UNL     1     -16.871  96.546  -4.852  1.00  0.00    -0.285 OA
ATOM      5  C   UNL     1     -18.799  95.283  -4.541  1.00  0.00     0.111 A 
ATOM      6  C   UNL     1     -18.128  94.129  -4.071  1.00  0.00     0.134 A 
ATOM      7  C   UNL     1     -18.869  92.996  -3.702  1.00  0.00     0.093 A 
ATOM      8  C   UNL     1     -20.265  92.996  -3.796  1.00  0.00     0.123 A 
ATOM      9  C   UNL     1     -20.930  94.133  -4.261  1.00  0.00     0.094 A 
ATOM     10  C   UNL     1     -20.211  95.271  -4.633  1.00  0.00     0.146 A 
ATOM     11  O   UNL     1     -20.869  96.336  -5.076  1.00  0.00    -0.452 OA
ENDROOT
BRANCH   1  12
ATOM     12  C   UNL     1     -21.117  98.573  -5.943  1.00  0.00     0.025 A 
ATOM     13  C   UNL     1     -21.505  99.623  -5.093  1.00  0.00     0.016 A 
ATOM     14  C   UNL     1     -22.286 100.674  -5.580  1.00  0.00     0.051 A 
ATOM     15  C   UNL     1     -22.680 100.700  -6.921  1.00  0.00     0.157 A 
ATOM     16  C   UNL     1     -21.496  98.613  -7.294  1.00  0.00     0.062 A 
ATOM     17  C   UNL     1     -22.281  99.666  -7.784  1.00  0.00     0.158 A 
BRANCH  15  18
ATOM     18  O   UNL     1     -23.460 101.761  -7.378  1.00  0.00    -0.504 OA
ATOM     19  H   UNL     1     -23.113 102.436  -8.049  1.00  0.00     0.293 HD
ENDBRANCH  15  18
BRANCH  17  20
ATOM     20  O   UNL     1     -22.664  99.690  -9.125  1.00  0.00    -0.504 OA
ATOM     21  H   UNL     1     -22.021  99.972  -9.855  1.00  0.00     0.293 HD
ENDBRANCH  17  20
ENDBRANCH   1  12
BRANCH   2  22
ATOM     22  O   UNL     1     -18.231  98.765  -5.708  1.00  0.00    -0.502 OA
ATOM     23  H   UNL     1     -17.880  99.408  -5.008  1.00  0.00     0.293 HD
ENDBRANCH   2  22
BRANCH   6  24
ATOM     24  O   UNL     1     -16.737  94.099  -3.964  1.00  0.00    -0.507 OA
ATOM     25  H   UNL     1     -16.255  93.353  -3.476  1.00  0.00     0.293 HD
ENDBRANCH   6  24
BRANCH   8  26
ATOM     26  O   UNL     1     -21.001  91.871  -3.431  1.00  0.00    -0.508 OA
ATOM     27  H   UNL     1     -21.999  91.922  -3.263  1.00  0.00     0.293 HD
ENDBRANCH   8  26
TORSDOF 6
ENDMDL
MODEL 6
REMARK VINA RESULT:    -6.622      1.795      7.127
REMARK INTER + INTRA:          -8.261
REMARK INTER:                  -7.929
REMARK INTRA:                  -0.332
REMARK UNBOUND:                -0.285
REMARK SMILES O=c1c(O)c(-c2ccc(O)c(O)c2)oc2cc(O)cc(O)c12
REMARK SMILES IDX 5 1 3 2 2 3 1 4 22 5 20 6 19 7 17 8 16 9 15 10 14 11 6 12
REMARK SMILES IDX 7 13 8 14 9 15 13 16 11 17 10 18 12 20 4 22 21 24 18 26
REMARK H PARENT 10 19 12 21 4 23 21 25 18 27
REMARK Flexibility Score: inf
ROOT
ATOM      1  C   UNL     1     -33.477  95.148   8.223  1.00  0.00     0.180 A 
ATOM      2  C   UNL     1     -32.737  95.207   9.419  1.00  0.00     0.208 A 
ATOM      3  C   UNL     1     -32.349  96.462   9.915  1.00  0.00     0.238 A 
ATOM      4  O   UNL     1     -31.694  96.529  10.991  1.00  0.00    -0.285 OA
ATOM      5  C   UNL     1     -32.690  97.630   9.201  1.00  0.00     0.111 A 
ATOM      6  C   UNL     1     -32.335  98.931   9.631  1.00  0.00     0.134 A 
ATOM      7  C   UNL     1     -32.702 100.043   8.859  1.00  0.00     0.093 A 
ATOM      8  C   UNL     1     -33.418  99.878   7.668  1.00  0.00     0.123 A 
ATOM      9  C   UNL     1     -33.771  98.596   7.241  1.00  0.00     0.094 A 
ATOM     10  C   UNL     1     -33.414  97.476   7.996  1.00  0.00     0.146 A 
ATOM     11  O   UNL     1     -33.768  96.269   7.569  1.00  0.00    -0.452 OA
ENDROOT
BRANCH   1  12
ATOM     12  C   UNL     1     -33.939  93.865   7.646  1.00  0.00     0.025 A 
ATOM     13  C   UNL     1     -35.182  93.310   7.996  1.00  0.00     0.016 A 
ATOM     14  C   UNL     1     -35.607  92.110   7.421  1.00  0.00     0.051 A 
ATOM     15  C   UNL     1     -34.807  91.453   6.481  1.00  0.00     0.157 A 
ATOM     16  C   UNL     1     -33.148  93.215   6.685  1.00  0.00     0.062 A 
ATOM     17  C   UNL     1     -33.573  92.009   6.108  1.00  0.00     0.158 A 
BRANCH  15  18
ATOM     18  O   UNL     1     -35.258  90.256   5.926  1.00  0.00    -0.504 OA
ATOM     19  H   UNL     1     -35.625  90.204   4.983  1.00  0.00     0.293 HD
ENDBRANCH  15  18
BRANCH  17  20
ATOM     20  O   UNL     1     -32.773  91.364   5.165  1.00  0.00    -0.504 OA
ATOM     21  H   UNL     1     -33.099  90.547   4.663  1.00  0.00     0.293 HD
ENDBRANCH  17  20
ENDBRANCH   1  12
BRANCH   2  22
ATOM     22  O   UNL     1     -32.369  94.034  10.081  1.00  0.00    -0.502 OA
ATOM     23  H   UNL     1     -32.149  94.014  11.069  1.00  0.00     0.293 HD
ENDBRANCH   2  22
BRANCH   6  24
ATOM     24  O   UNL     1     -31.620  99.127  10.814  1.00  0.00    -0.507 OA
ATOM     25  H   UNL     1     -30.620  99.292  10.812  1.00  0.00     0.293 HD
ENDBRANCH   6  24
BRANCH   8  26
ATOM     26  O   UNL     1     -33.783 100.982   6.900  1.00  0.00    -0.508 OA
ATOM     27  H   UNL     1     -33.540 101.925   7.179  1.00  0.00     0.293 HD
ENDBRANCH   8  26
TORSDOF 6
ENDMDL
MODEL 7
REMARK VINA RESULT:    -6.580      3.878      7.076
REMARK INTER + INTRA:          -8.211
REMARK INTER:                  -7.886
REMARK INTRA:                  -0.325
REMARK UNBOUND:                -0.285
REMARK SMILES O=c1c(O)c(-c2ccc(O)c(O)c2)oc2cc(O)cc(O)c12
REMARK SMILES IDX 5 1 3 2 2 3 1 4 22 5 20 6 19 7 17 8 16 9 15 10 14 11 6 12
REMARK SMILES IDX 7 13 8 14 9 15 13 16 11 17 10 18 12 20 4 22 21 24 18 26
REMARK H PARENT 10 19 12 21 4 23 21 25 18 27
REMARK Flexibility Score: inf
ROOT
ATOM      1  C   UNL     1     -30.704  91.811   8.801  1.00  0.00     0.180 A 
ATOM      2  C   UNL     1     -31.136  92.943   9.519  1.00  0.00     0.208 A 
ATOM      3  C   UNL     1     -32.451  93.398   9.341  1.00  0.00     0.238 A 
ATOM      4  O   UNL     1     -32.853  94.404   9.986  1.00  0.00    -0.285 OA
ATOM      5  C   UNL     1     -33.305  92.729   8.439  1.00  0.00     0.111 A 
ATOM      6  C   UNL     1     -34.643  93.125   8.199  1.00  0.00     0.134 A 
ATOM      7  C   UNL     1     -35.424  92.413   7.277  1.00  0.00     0.093 A 
ATOM      8  C   UNL     1     -34.894  91.314   6.592  1.00  0.00     0.123 A 
ATOM      9  C   UNL     1     -33.576  90.919   6.826  1.00  0.00     0.094 A 
ATOM     10  C   UNL     1     -32.781  91.615   7.741  1.00  0.00     0.146 A 
ATOM     11  O   UNL     1     -31.532  91.215   7.948  1.00  0.00    -0.452 OA
ENDROOT
BRANCH   1  12
ATOM     12  C   UNL     1     -29.338  91.259   8.949  1.00  0.00     0.025 A 
ATOM     13  C   UNL     1     -28.278  91.701   8.138  1.00  0.00     0.016 A 
ATOM     14  C   UNL     1     -26.992  91.183   8.312  1.00  0.00     0.051 A 
ATOM     15  C   UNL     1     -26.742  90.228   9.302  1.00  0.00     0.157 A 
ATOM     16  C   UNL     1     -29.079  90.316   9.956  1.00  0.00     0.062 A 
ATOM     17  C   UNL     1     -27.789  89.794  10.131  1.00  0.00     0.158 A 
BRANCH  15  18
ATOM     18  O   UNL     1     -25.449  89.728   9.450  1.00  0.00    -0.504 OA
ATOM     19  H   UNL     1     -24.629  90.296   9.276  1.00  0.00     0.293 HD
ENDBRANCH  15  18
BRANCH  17  20
ATOM     20  O   UNL     1     -27.546  88.846  11.125  1.00  0.00    -0.504 OA
ATOM     21  H   UNL     1     -26.615  88.695  11.497  1.00  0.00     0.293 HD
ENDBRANCH  17  20
ENDBRANCH   1  12
BRANCH   2  22
ATOM     22  O   UNL     1     -30.257  93.617  10.370  1.00  0.00    -0.502 OA
ATOM     23  H   UNL     1     -29.950  94.566  10.192  1.00  0.00     0.293 HD
ENDBRANCH   2  22
BRANCH   6  24
ATOM     24  O   UNL     1     -35.199  94.218   8.866  1.00  0.00    -0.507 OA
ATOM     25  H   UNL     1     -34.693  95.090   8.974  1.00  0.00     0.293 HD
ENDBRANCH   6  24
BRANCH   8  26
ATOM     26  O   UNL     1     -35.671  90.607   5.677  1.00  0.00    -0.508 OA
ATOM     27  H   UNL     1     -35.344  90.422   4.736  1.00  0.00     0.293 HD
ENDBRANCH   8  26
TORSDOF 6
ENDMDL
MODEL 8
REMARK VINA RESULT:    -6.303     16.534     18.819
REMARK INTER + INTRA:          -7.878
REMARK INTER:                  -7.989
REMARK INTRA:                   0.112
REMARK UNBOUND:                -0.285
REMARK SMILES O=c1c(O)c(-c2ccc(O)c(O)c2)oc2cc(O)cc(O)c12
REMARK SMILES IDX 5 1 3 2 2 3 1 4 22 5 20 6 19 7 17 8 16 9 15 10 14 11 6 12
REMARK SMILES IDX 7 13 8 14 9 15 13 16 11 17 10 18 12 20 4 22 21 24 18 26
REMARK H PARENT 10 19 12 21 4 23 21 25 18 27
REMARK Flexibility Score: inf
ROOT
ATOM      1  C   UNL     1     -21.130  93.075  -5.541  1.00  0.00     0.180 A 
ATOM      2  C   UNL     1     -22.126  94.066  -5.451  1.00  0.00     0.208 A 
ATOM      3  C   UNL     1     -21.738  95.407  -5.305  1.00  0.00     0.238 A 
ATOM      4  O   UNL     1     -22.620  96.306  -5.235  1.00  0.00    -0.285 OA
ATOM      5  C   UNL     1     -20.366  95.732  -5.232  1.00  0.00     0.111 A 
ATOM      6  C   UNL     1     -19.892  97.058  -5.082  1.00  0.00     0.134 A 
ATOM      7  C   UNL     1     -18.512  97.298  -5.007  1.00  0.00     0.093 A 
ATOM      8  C   UNL     1     -17.600  96.239  -5.080  1.00  0.00     0.123 A 
ATOM      9  C   UNL     1     -18.064  94.931  -5.229  1.00  0.00     0.094 A 
ATOM     10  C   UNL     1     -19.434  94.671  -5.306  1.00  0.00     0.146 A 
ATOM     11  O   UNL     1     -19.847  93.418  -5.453  1.00  0.00    -0.452 OA
ENDROOT
BRANCH   1  12
ATOM     12  C   UNL     1     -21.459  91.642  -5.715  1.00  0.00     0.025 A 
ATOM     13  C   UNL     1     -20.749  90.833  -6.619  1.00  0.00     0.016 A 
ATOM     14  C   UNL     1     -21.062  89.477  -6.750  1.00  0.00     0.051 A 
ATOM     15  C   UNL     1     -22.076  88.907  -5.973  1.00  0.00     0.157 A 
ATOM     16  C   UNL     1     -22.462  91.062  -4.922  1.00  0.00     0.062 A 
ATOM     17  C   UNL     1     -22.778  89.702  -5.052  1.00  0.00     0.158 A 
BRANCH  15  18
ATOM     18  O   UNL     1     -22.366  87.552  -6.127  1.00  0.00    -0.504 OA
ATOM     19  H   UNL     1     -22.474  87.125  -7.039  1.00  0.00     0.293 HD
ENDBRANCH  15  18
BRANCH  17  20
ATOM     20  O   UNL     1     -23.785  89.139  -4.269  1.00  0.00    -0.504 OA
ATOM     21  H   UNL     1     -24.554  88.625  -4.683  1.00  0.00     0.293 HD
ENDBRANCH  17  20
ENDBRANCH   1  12
BRANCH   2  22
ATOM     22  O   UNL     1     -23.477  93.714  -5.477  1.00  0.00    -0.502 OA
ATOM     23  H   UNL     1     -23.866  93.105  -6.187  1.00  0.00     0.293 HD
ENDBRANCH   2  22
BRANCH   6  24
ATOM     24  O   UNL     1     -20.778  98.134  -5.005  1.00  0.00    -0.507 OA
ATOM     25  H   UNL     1     -21.250  98.374  -4.142  1.00  0.00     0.293 HD
ENDBRANCH   6  24
BRANCH   8  26
ATOM     26  O   UNL     1     -16.229  96.477  -5.005  1.00  0.00    -0.508 OA
ATOM     27  H   UNL     1     -15.644  96.467  -5.832  1.00  0.00     0.293 HD
ENDBRANCH   8  26
TORSDOF 6
ENDMDL
MODEL 9
REMARK VINA RESULT:    -6.283     16.936     19.662
REMARK INTER + INTRA:          -7.853
REMARK INTER:                  -7.681
REMARK INTRA:                  -0.172
REMARK UNBOUND:                -0.285
REMARK SMILES O=c1c(O)c(-c2ccc(O)c(O)c2)oc2cc(O)cc(O)c12
REMARK SMILES IDX 5 1 3 2 2 3 1 4 22 5 20 6 19 7 17 8 16 9 15 10 14 11 6 12
REMARK SMILES IDX 7 13 8 14 9 15 13 16 11 17 10 18 12 20 4 22 21 24 18 26
REMARK H PARENT 10 19 12 21 4 23 21 25 18 27
REMARK Flexibility Score: inf
ROOT
ATOM      1  C   UNL     1     -19.812  93.290  -5.231  1.00  0.00     0.180 A 
ATOM      2  C   UNL     1     -18.418  93.239  -5.039  1.00  0.00     0.208 A 
ATOM      3  C   UNL     1     -17.693  94.440  -5.005  1.00  0.00     0.238 A 
ATOM      4  O   UNL     1     -16.445  94.408  -4.824  1.00  0.00    -0.285 OA
ATOM      5  C   UNL     1     -18.367  95.667  -5.181  1.00  0.00     0.111 A 
ATOM      6  C   UNL     1     -17.710  96.921  -5.164  1.00  0.00     0.134 A 
ATOM      7  C   UNL     1     -18.450  98.097  -5.357  1.00  0.00     0.093 A 
ATOM      8  C   UNL     1     -19.833  98.042  -5.566  1.00  0.00     0.123 A 
ATOM      9  C   UNL     1     -20.485  96.807  -5.583  1.00  0.00     0.094 A 
ATOM     10  C   UNL     1     -19.765  95.625  -5.392  1.00  0.00     0.146 A 
ATOM     11  O   UNL     1     -20.411  94.465  -5.408  1.00  0.00    -0.452 OA
ENDROOT
BRANCH   1  12
ATOM     12  C   UNL     1     -20.649  92.069  -5.259  1.00  0.00     0.025 A 
ATOM     13  C   UNL     1     -21.626  91.828  -4.279  1.00  0.00     0.016 A 
ATOM     14  C   UNL     1     -22.420  90.680  -4.339  1.00  0.00     0.051 A 
ATOM     15  C   UNL     1     -22.259  89.764  -5.383  1.00  0.00     0.157 A 
ATOM     16  C   UNL     1     -20.504  91.158  -6.318  1.00  0.00     0.062 A 
ATOM     17  C   UNL     1     -21.299  90.004  -6.379  1.00  0.00     0.158 A 
BRANCH  15  18
ATOM     18  O   UNL     1     -23.065  88.626  -5.416  1.00  0.00    -0.504 OA
ATOM     19  H   UNL     1     -23.487  88.289  -6.272  1.00  0.00     0.293 HD
ENDBRANCH  15  18
BRANCH  17  20
ATOM     20  O   UNL     1     -21.138  89.098  -7.427  1.00  0.00    -0.504 OA
ATOM     21  H   UNL     1     -20.637  88.226  -7.303  1.00  0.00     0.293 HD
ENDBRANCH  17  20
ENDBRANCH   1  12
BRANCH   2  22
ATOM     22  O   UNL     1     -17.767  92.009  -4.917  1.00  0.00    -0.502 OA
ATOM     23  H   UNL     1     -17.092  91.682  -5.597  1.00  0.00     0.293 HD
ENDBRANCH   2  22
BRANCH   6  24
ATOM     24  O   UNL     1     -16.332  97.008  -4.959  1.00  0.00    -0.507 OA
ATOM     25  H   UNL     1     -15.682  97.087  -5.732  1.00  0.00     0.293 HD
ENDBRANCH   6  24
BRANCH   8  26
ATOM     26  O   UNL     1     -20.569  99.209  -5.758  1.00  0.00    -0.508 OA
ATOM     27  H   UNL     1     -20.905  99.479  -6.675  1.00  0.00     0.293 HD
ENDBRANCH   8  26
TORSDOF 6
ENDMDL
