MODEL 1
REMARK VINA RESULT:    -4.284      0.000      0.000
REMARK INTER + INTRA:         -11.870
REMARK INTER:                  -9.794
REMARK INTRA:                  -2.076
REMARK UNBOUND:                -2.076
REMARK SMILES CCCCCCCCCCCCCCCCCCCCCCCC(=O)[O-]
REMARK SMILES IDX 13 1 14 2 15 3 16 4 17 5 18 6 19 7 20 8 21 9 22 10 23 11
REMARK SMILES IDX 24 12 25 13 26 14 12 15 11 16 10 17 9 18 8 19 7 20 6 21 5 22
REMARK SMILES IDX 4 23 3 24 2 25 1 26
REMARK H PARENT
REMARK Flexibility Score: inf
ROOT
ATOM      1  C   UNL     1      22.684 -19.480 -16.703  1.00  0.00     0.000 C 
ENDROOT
BRANCH   1   2
ATOM      2  C   UNL     1      23.699 -19.210 -17.833  1.00  0.00     0.000 C 
BRANCH   2   3
ATOM      3  C   UNL     1      24.796 -18.178 -17.497  1.00  0.00     0.000 C 
BRANCH   3   4
ATOM      4  C   UNL     1      24.438 -17.188 -16.373  1.00  0.00     0.000 C 
BRANCH   4   5
ATOM      5  C   UNL     1      24.586 -15.719 -16.805  1.00  0.00     0.000 C 
BRANCH   5   6
ATOM      6  C   UNL     1      23.235 -15.059 -17.124  1.00  0.00     0.000 C 
BRANCH   6   7
ATOM      7  C   UNL     1      22.066 -16.056 -17.106  1.00  0.00     0.000 C 
BRANCH   7   8
ATOM      8  C   UNL     1      20.939 -15.565 -16.187  1.00  0.00     0.000 C 
BRANCH   8   9
ATOM      9  C   UNL     1      19.723 -16.500 -16.263  1.00  0.00     0.000 C 
BRANCH   9  10
ATOM     10  C   UNL     1      18.727 -16.278 -15.109  1.00  0.00     0.006 C 
BRANCH  10  11
ATOM     11  C   UNL     1      17.264 -16.137 -15.558  1.00  0.00     0.053 C 
BRANCH  11  12
ATOM     12  C   UNL     1      17.013 -14.835 -16.253  1.00  0.00     0.041 C 
ATOM     13  O   UNL     1      17.618 -13.792 -15.885  1.00  0.00    -0.550 OA
ATOM     14  O   UNL     1      16.087 -14.764 -17.287  1.00  0.00    -0.550 OA
ENDBRANCH  11  12
ENDBRANCH  10  11
ENDBRANCH   9  10
ENDBRANCH   8   9
ENDBRANCH   7   8
ENDBRANCH   6   7
ENDBRANCH   5   6
ENDBRANCH   4   5
ENDBRANCH   3   4
ENDBRANCH   2   3
ENDBRANCH   1   2
BRANCH   1  15
ATOM     15  C   UNL     1      21.361 -20.119 -17.164  1.00  0.00     0.000 C 
BRANCH  15  16
ATOM     16  C   UNL     1      21.029 -19.805 -18.633  1.00  0.00     0.000 C 
BRANCH  16  17
ATOM     17  C   UNL     1      21.028 -21.059 -19.521  1.00  0.00     0.000 C 
BRANCH  17  18
ATOM     18  C   UNL     1      20.052 -20.941 -20.705  1.00  0.00    -0.000 C 
BRANCH  18  19
ATOM     19  C   UNL     1      18.793 -21.805 -20.523  1.00  0.00    -0.000 C 
BRANCH  19  20
ATOM     20  C   UNL     1      18.884 -22.727 -19.293  1.00  0.00    -0.000 C 
BRANCH  20  21
ATOM     21  C   UNL     1      18.574 -24.196 -19.633  1.00  0.00    -0.000 C 
BRANCH  21  22
ATOM     22  C   UNL     1      17.171 -24.625 -19.167  1.00  0.00    -0.000 C 
BRANCH  22  23
ATOM     23  C   UNL     1      16.556 -23.643 -18.157  1.00  0.00    -0.000 C 
BRANCH  23  24
ATOM     24  C   UNL     1      15.039 -23.839 -17.987  1.00  0.00    -0.000 C 
BRANCH  24  25
ATOM     25  C   UNL     1      14.230 -22.639 -18.504  1.00  0.00    -0.003 C 
ATOM     26  C   UNL     1      15.017 -21.774 -19.488  1.00  0.00     0.004 C 
ENDBRANCH  24  25
ENDBRANCH  23  24
ENDBRANCH  22  23
ENDBRANCH  21  22
ENDBRANCH  20  21
ENDBRANCH  19  20
ENDBRANCH  18  19
ENDBRANCH  17  18
ENDBRANCH  16  17
ENDBRANCH  15  16
ENDBRANCH   1  15
TORSDOF 22
ENDMDL
MODEL 2
REMARK VINA RESULT:    -3.875      2.258      8.058
REMARK INTER + INTRA:         -10.934
REMARK INTER:                  -8.940
REMARK INTRA:                  -1.994
REMARK UNBOUND:                -2.076
REMARK SMILES CCCCCCCCCCCCCCCCCCCCCCCC(=O)[O-]
REMARK SMILES IDX 13 1 14 2 15 3 16 4 17 5 18 6 19 7 20 8 21 9 22 10 23 11
REMARK SMILES IDX 24 12 25 13 26 14 12 15 11 16 10 17 9 18 8 19 7 20 6 21 5 22
REMARK SMILES IDX 4 23 3 24 2 25 1 26
REMARK H PARENT
REMARK Flexibility Score: inf
ROOT
ATOM      1  C   UNL     1      21.240 -19.928 -18.174  1.00  0.00     0.000 C 
ENDROOT
BRANCH   1   2
ATOM      2  C   UNL     1      20.703 -21.209 -18.845  1.00  0.00     0.000 C 
BRANCH   2   3
ATOM      3  C   UNL     1      19.751 -20.977 -20.037  1.00  0.00     0.000 C 
BRANCH   3   4
ATOM      4  C   UNL     1      18.724 -22.097 -20.281  1.00  0.00     0.000 C 
BRANCH   4   5
ATOM      5  C   UNL     1      18.641 -23.094 -19.113  1.00  0.00     0.000 C 
BRANCH   5   6
ATOM      6  C   UNL     1      17.278 -23.798 -19.032  1.00  0.00     0.000 C 
BRANCH   6   7
ATOM      7  C   UNL     1      16.637 -23.698 -17.639  1.00  0.00     0.000 C 
BRANCH   7   8
ATOM      8  C   UNL     1      15.123 -23.931 -17.712  1.00  0.00     0.000 C 
BRANCH   8   9
ATOM      9  C   UNL     1      14.693 -24.301 -19.139  1.00  0.00     0.000 C 
BRANCH   9  10
ATOM     10  C   UNL     1      13.640 -23.336 -19.714  1.00  0.00     0.006 C 
BRANCH  10  11
ATOM     11  C   UNL     1      13.777 -21.886 -19.221  1.00  0.00     0.053 C 
BRANCH  11  12
ATOM     12  C   UNL     1      14.292 -20.975 -20.291  1.00  0.00     0.041 C 
ATOM     13  O   UNL     1      15.366 -21.245 -20.892  1.00  0.00    -0.550 OA
ATOM     14  O   UNL     1      13.602 -19.810 -20.606  1.00  0.00    -0.550 OA
ENDBRANCH  11  12
ENDBRANCH  10  11
ENDBRANCH   9  10
ENDBRANCH   8   9
ENDBRANCH   7   8
ENDBRANCH   6   7
ENDBRANCH   5   6
ENDBRANCH   4   5
ENDBRANCH   3   4
ENDBRANCH   2   3
ENDBRANCH   1   2
BRANCH   1  15
ATOM     15  C   UNL     1      22.717 -19.613 -18.473  1.00  0.00     0.000 C 
BRANCH  15  16
ATOM     16  C   UNL     1      23.491 -19.154 -17.225  1.00  0.00     0.000 C 
BRANCH  16  17
ATOM     17  C   UNL     1      24.327 -17.890 -17.478  1.00  0.00     0.000 C 
BRANCH  17  18
ATOM     18  C   UNL     1      24.534 -17.056 -16.202  1.00  0.00    -0.000 C 
BRANCH  18  19
ATOM     19  C   UNL     1      24.035 -15.609 -16.354  1.00  0.00    -0.000 C 
BRANCH  19  20
ATOM     20  C   UNL     1      22.827 -15.498 -17.302  1.00  0.00    -0.000 C 
BRANCH  20  21
ATOM     21  C   UNL     1      21.490 -15.406 -16.546  1.00  0.00    -0.000 C 
BRANCH  21  22
ATOM     22  C   UNL     1      20.734 -16.747 -16.521  1.00  0.00    -0.000 C 
BRANCH  22  23
ATOM     23  C   UNL     1      19.232 -16.575 -16.244  1.00  0.00    -0.000 C 
BRANCH  23  24
ATOM     24  C   UNL     1      18.926 -15.342 -15.375  1.00  0.00    -0.000 C 
BRANCH  24  25
ATOM     25  C   UNL     1      17.419 -15.067 -15.254  1.00  0.00    -0.003 C 
ATOM     26  C   UNL     1      16.698 -15.116 -16.601  1.00  0.00     0.004 C 
ENDBRANCH  24  25
ENDBRANCH  23  24
ENDBRANCH  22  23
ENDBRANCH  21  22
ENDBRANCH  20  21
ENDBRANCH  19  20
ENDBRANCH  18  19
ENDBRANCH  17  18
ENDBRANCH  16  17
ENDBRANCH  15  16
ENDBRANCH   1  15
TORSDOF 22
ENDMDL
MODEL 3
REMARK VINA RESULT:    -3.682      2.954      8.122
REMARK INTER + INTRA:         -10.495
REMARK INTER:                  -8.653
REMARK INTRA:                  -1.842
REMARK UNBOUND:                -2.076
REMARK SMILES CCCCCCCCCCCCCCCCCCCCCCCC(=O)[O-]
REMARK SMILES IDX 13 1 14 2 15 3 16 4 17 5 18 6 19 7 20 8 21 9 22 10 23 11
REMARK SMILES IDX 24 12 25 13 26 14 12 15 11 16 10 17 9 18 8 19 7 20 6 21 5 22
REMARK SMILES IDX 4 23 3 24 2 25 1 26
REMARK H PARENT
REMARK Flexibility Score: inf
ROOT
ATOM      1  C   UNL     1      22.497 -19.250 -18.591  1.00  0.00     0.000 C 
ENDROOT
BRANCH   1   2
ATOM      2  C   UNL     1      21.594 -20.113 -17.686  1.00  0.00     0.000 C 
BRANCH   2   3
ATOM      3  C   UNL     1      20.650 -21.079 -18.430  1.00  0.00     0.000 C 
BRANCH   3   4
ATOM      4  C   UNL     1      20.704 -20.991 -19.966  1.00  0.00     0.000 C 
BRANCH   4   5
ATOM      5  C   UNL     1      20.953 -22.355 -20.632  1.00  0.00     0.000 C 
BRANCH   5   6
ATOM      6  C   UNL     1      20.323 -23.518 -19.849  1.00  0.00     0.000 C 
BRANCH   6   7
ATOM      7  C   UNL     1      19.196 -24.216 -20.626  1.00  0.00     0.000 C 
BRANCH   7   8
ATOM      8  C   UNL     1      18.152 -24.806 -19.668  1.00  0.00     0.000 C 
BRANCH   8   9
ATOM      9  C   UNL     1      17.576 -23.720 -18.748  1.00  0.00     0.000 C 
BRANCH   9  10
ATOM     10  C   UNL     1      16.119 -23.998 -18.336  1.00  0.00     0.006 C 
BRANCH  10  11
ATOM     11  C   UNL     1      15.301 -24.765 -19.389  1.00  0.00     0.053 C 
BRANCH  11  12
ATOM     12  C   UNL     1      13.972 -24.124 -19.643  1.00  0.00     0.041 C 
ATOM     13  O   UNL     1      13.902 -22.897 -19.924  1.00  0.00    -0.550 OA
ATOM     14  O   UNL     1      12.806 -24.873 -19.539  1.00  0.00    -0.550 OA
ENDBRANCH  11  12
ENDBRANCH  10  11
ENDBRANCH   9  10
ENDBRANCH   8   9
ENDBRANCH   7   8
ENDBRANCH   6   7
ENDBRANCH   5   6
ENDBRANCH   4   5
ENDBRANCH   3   4
ENDBRANCH   2   3
ENDBRANCH   1   2
BRANCH   1  15
ATOM     15  C   UNL     1      23.946 -19.751 -18.725  1.00  0.00     0.000 C 
BRANCH  15  16
ATOM     16  C   UNL     1      24.963 -18.603 -18.847  1.00  0.00     0.000 C 
BRANCH  16  17
ATOM     17  C   UNL     1      24.382 -17.247 -18.418  1.00  0.00     0.000 C 
BRANCH  17  18
ATOM     18  C   UNL     1      24.838 -16.830 -17.009  1.00  0.00    -0.000 C 
BRANCH  18  19
ATOM     19  C   UNL     1      23.845 -15.877 -16.323  1.00  0.00    -0.000 C 
BRANCH  19  20
ATOM     20  C   UNL     1      22.573 -15.649 -17.160  1.00  0.00    -0.000 C 
BRANCH  20  21
ATOM     21  C   UNL     1      21.382 -16.485 -16.662  1.00  0.00    -0.000 C 
BRANCH  21  22
ATOM     22  C   UNL     1      20.171 -15.617 -16.278  1.00  0.00    -0.000 C 
BRANCH  22  23
ATOM     23  C   UNL     1      19.006 -16.443 -15.710  1.00  0.00    -0.000 C 
BRANCH  23  24
ATOM     24  C   UNL     1      17.913 -15.567 -15.070  1.00  0.00    -0.000 C 
BRANCH  24  25
ATOM     25  C   UNL     1      17.427 -14.454 -16.012  1.00  0.00    -0.003 C 
ATOM     26  C   UNL     1      16.279 -14.901 -16.916  1.00  0.00     0.004 C 
ENDBRANCH  24  25
ENDBRANCH  23  24
ENDBRANCH  22  23
ENDBRANCH  21  22
ENDBRANCH  20  21
ENDBRANCH  19  20
ENDBRANCH  18  19
ENDBRANCH  17  18
ENDBRANCH  16  17
ENDBRANCH  15  16
ENDBRANCH   1  15
TORSDOF 22
ENDMDL
MODEL 4
REMARK VINA RESULT:    -3.596      1.415      3.967
REMARK INTER + INTRA:         -10.297
REMARK INTER:                  -8.172
REMARK INTRA:                  -2.125
REMARK UNBOUND:                -2.076
REMARK SMILES CCCCCCCCCCCCCCCCCCCCCCCC(=O)[O-]
REMARK SMILES IDX 13 1 14 2 15 3 16 4 17 5 18 6 19 7 20 8 21 9 22 10 23 11
REMARK SMILES IDX 24 12 25 13 26 14 12 15 11 16 10 17 9 18 8 19 7 20 6 21 5 22
REMARK SMILES IDX 4 23 3 24 2 25 1 26
REMARK H PARENT
REMARK Flexibility Score: inf
ROOT
ATOM      1  C   UNL     1      20.554 -22.392 -20.111  1.00  0.00     0.000 C 
ENDROOT
BRANCH   1   2
ATOM      2  C   UNL     1      21.106 -21.646 -18.879  1.00  0.00     0.000 C 
BRANCH   2   3
ATOM      3  C   UNL     1      20.622 -20.190 -18.722  1.00  0.00     0.000 C 
BRANCH   3   4
ATOM      4  C   UNL     1      21.738 -19.147 -18.534  1.00  0.00     0.000 C 
BRANCH   4   5
ATOM      5  C   UNL     1      23.104 -19.784 -18.229  1.00  0.00     0.000 C 
BRANCH   5   6
ATOM      6  C   UNL     1      24.043 -18.834 -17.470  1.00  0.00     0.000 C 
BRANCH   6   7
ATOM      7  C   UNL     1      24.211 -17.477 -18.171  1.00  0.00     0.000 C 
BRANCH   7   8
ATOM      8  C   UNL     1      24.749 -16.419 -17.199  1.00  0.00     0.000 C 
BRANCH   8   9
ATOM      9  C   UNL     1      23.649 -15.424 -16.806  1.00  0.00     0.000 C 
BRANCH   9  10
ATOM     10  C   UNL     1      22.231 -15.973 -17.052  1.00  0.00     0.006 C 
BRANCH  10  11
ATOM     11  C   UNL     1      21.108 -15.115 -16.446  1.00  0.00     0.053 C 
BRANCH  11  12
ATOM     12  C   UNL     1      19.861 -15.909 -16.210  1.00  0.00     0.041 C 
ATOM     13  O   UNL     1      19.873 -17.163 -16.338  1.00  0.00    -0.550 OA
ATOM     14  O   UNL     1      18.677 -15.263 -15.878  1.00  0.00    -0.550 OA
ENDBRANCH  11  12
ENDBRANCH  10  11
ENDBRANCH   9  10
ENDBRANCH   8   9
ENDBRANCH   7   8
ENDBRANCH   6   7
ENDBRANCH   5   6
ENDBRANCH   4   5
ENDBRANCH   3   4
ENDBRANCH   2   3
ENDBRANCH   1   2
BRANCH   1  15
ATOM     15  C   UNL     1      19.366 -21.701 -20.806  1.00  0.00     0.000 C 
BRANCH  15  16
ATOM     16  C   UNL     1      18.014 -22.344 -20.450  1.00  0.00     0.000 C 
BRANCH  16  17
ATOM     17  C   UNL     1      18.079 -23.878 -20.408  1.00  0.00     0.000 C 
BRANCH  17  18
ATOM     18  C   UNL     1      17.138 -24.479 -19.350  1.00  0.00    -0.000 C 
BRANCH  18  19
ATOM     19  C   UNL     1      17.042 -23.611 -18.083  1.00  0.00    -0.000 C 
BRANCH  19  20
ATOM     20  C   UNL     1      15.673 -23.729 -17.390  1.00  0.00    -0.000 C 
BRANCH  20  21
ATOM     21  C   UNL     1      14.641 -22.734 -17.949  1.00  0.00    -0.000 C 
BRANCH  21  22
ATOM     22  C   UNL     1      13.947 -23.255 -19.219  1.00  0.00    -0.000 C 
BRANCH  22  23
ATOM     23  C   UNL     1      13.992 -22.244 -20.376  1.00  0.00    -0.000 C 
BRANCH  23  24
ATOM     24  C   UNL     1      13.529 -20.838 -19.954  1.00  0.00    -0.000 C 
BRANCH  24  25
ATOM     25  C   UNL     1      14.136 -19.732 -20.831  1.00  0.00    -0.003 C 
ATOM     26  C   UNL     1      15.645 -19.586 -20.640  1.00  0.00     0.004 C 
ENDBRANCH  24  25
ENDBRANCH  23  24
ENDBRANCH  22  23
ENDBRANCH  21  22
ENDBRANCH  20  21
ENDBRANCH  19  20
ENDBRANCH  18  19
ENDBRANCH  17  18
ENDBRANCH  16  17
ENDBRANCH  15  16
ENDBRANCH   1  15
TORSDOF 22
ENDMDL
MODEL 5
REMARK VINA RESULT:    -3.453      2.882      4.700
REMARK INTER + INTRA:          -9.970
REMARK INTER:                  -7.920
REMARK INTRA:                  -2.049
REMARK UNBOUND:                -2.076
REMARK SMILES CCCCCCCCCCCCCCCCCCCCCCCC(=O)[O-]
REMARK SMILES IDX 13 1 14 2 15 3 16 4 17 5 18 6 19 7 20 8 21 9 22 10 23 11
REMARK SMILES IDX 24 12 25 13 26 14 12 15 11 16 10 17 9 18 8 19 7 20 6 21 5 22
REMARK SMILES IDX 4 23 3 24 2 25 1 26
REMARK H PARENT
REMARK Flexibility Score: inf
ROOT
ATOM      1  C   UNL     1      20.698 -22.079 -20.109  1.00  0.00     0.000 C 
ENDROOT
BRANCH   1   2
ATOM      2  C   UNL     1      21.068 -21.296 -18.832  1.00  0.00     0.000 C 
BRANCH   2   3
ATOM      3  C   UNL     1      20.541 -19.848 -18.774  1.00  0.00     0.000 C 
BRANCH   3   4
ATOM      4  C   UNL     1      21.515 -18.822 -18.165  1.00  0.00     0.000 C 
BRANCH   4   5
ATOM      5  C   UNL     1      22.974 -19.065 -18.585  1.00  0.00     0.000 C 
BRANCH   5   6
ATOM      6  C   UNL     1      23.914 -19.240 -17.381  1.00  0.00     0.000 C 
BRANCH   6   7
ATOM      7  C   UNL     1      24.935 -18.097 -17.252  1.00  0.00     0.000 C 
BRANCH   7   8
ATOM      8  C   UNL     1      25.083 -17.656 -15.791  1.00  0.00     0.000 C 
BRANCH   8   9
ATOM      9  C   UNL     1      24.971 -16.130 -15.664  1.00  0.00     0.000 C 
BRANCH   9  10
ATOM     10  C   UNL     1      24.501 -15.456 -16.966  1.00  0.00     0.006 C 
BRANCH  10  11
ATOM     11  C   UNL     1      24.918 -13.982 -17.100  1.00  0.00     0.053 C 
BRANCH  11  12
ATOM     12  C   UNL     1      23.751 -13.054 -16.968  1.00  0.00     0.041 C 
ATOM     13  O   UNL     1      22.577 -13.511 -16.937  1.00  0.00    -0.550 OA
ATOM     14  O   UNL     1      23.956 -11.681 -16.910  1.00  0.00    -0.550 OA
ENDBRANCH  11  12
ENDBRANCH  10  11
ENDBRANCH   9  10
ENDBRANCH   8   9
ENDBRANCH   7   8
ENDBRANCH   6   7
ENDBRANCH   5   6
ENDBRANCH   4   5
ENDBRANCH   3   4
ENDBRANCH   2   3
ENDBRANCH   1   2
BRANCH   1  15
ATOM     15  C   UNL     1      19.585 -21.440 -20.958  1.00  0.00     0.000 C 
BRANCH  15  16
ATOM     16  C   UNL     1      18.217 -22.113 -20.747  1.00  0.00     0.000 C 
BRANCH  16  17
ATOM     17  C   UNL     1      18.301 -23.647 -20.768  1.00  0.00     0.000 C 
BRANCH  17  18
ATOM     18  C   UNL     1      17.456 -24.297 -19.659  1.00  0.00    -0.000 C 
BRANCH  18  19
ATOM     19  C   UNL     1      17.346 -23.415 -18.404  1.00  0.00    -0.000 C 
BRANCH  19  20
ATOM     20  C   UNL     1      16.247 -23.895 -17.440  1.00  0.00    -0.000 C 
BRANCH  20  21
ATOM     21  C   UNL     1      14.879 -23.259 -17.741  1.00  0.00    -0.000 C 
BRANCH  21  22
ATOM     22  C   UNL     1      14.219 -23.848 -19.000  1.00  0.00    -0.000 C 
BRANCH  22  23
ATOM     23  C   UNL     1      13.989 -22.796 -20.097  1.00  0.00    -0.000 C 
BRANCH  23  24
ATOM     24  C   UNL     1      13.558 -21.431 -19.529  1.00  0.00    -0.000 C 
BRANCH  24  25
ATOM     25  C   UNL     1      13.819 -20.278 -20.511  1.00  0.00    -0.003 C 
ATOM     26  C   UNL     1      15.290 -19.867 -20.564  1.00  0.00     0.004 C 
ENDBRANCH  24  25
ENDBRANCH  23  24
ENDBRANCH  22  23
ENDBRANCH  21  22
ENDBRANCH  20  21
ENDBRANCH  19  20
ENDBRANCH  18  19
ENDBRANCH  17  18
ENDBRANCH  16  17
ENDBRANCH  15  16
ENDBRANCH   1  15
TORSDOF 22
ENDMDL
MODEL 6
REMARK VINA RESULT:    -3.315      1.948      4.419
REMARK INTER + INTRA:          -9.654
REMARK INTER:                  -7.948
REMARK INTRA:                  -1.706
REMARK UNBOUND:                -2.076
REMARK SMILES CCCCCCCCCCCCCCCCCCCCCCCC(=O)[O-]
REMARK SMILES IDX 13 1 14 2 15 3 16 4 17 5 18 6 19 7 20 8 21 9 22 10 23 11
REMARK SMILES IDX 24 12 25 13 26 14 12 15 11 16 10 17 9 18 8 19 7 20 6 21 5 22
REMARK SMILES IDX 4 23 3 24 2 25 1 26
REMARK H PARENT
REMARK Flexibility Score: inf
ROOT
ATOM      1  C   UNL     1      18.855 -22.854 -20.707  1.00  0.00     0.000 C 
ENDROOT
BRANCH   1   2
ATOM      2  C   UNL     1      20.245 -22.187 -20.743  1.00  0.00     0.000 C 
BRANCH   2   3
ATOM      3  C   UNL     1      20.261 -20.683 -20.401  1.00  0.00     0.000 C 
BRANCH   3   4
ATOM      4  C   UNL     1      20.377 -20.356 -18.901  1.00  0.00     0.000 C 
BRANCH   4   5
ATOM      5  C   UNL     1      21.834 -20.312 -18.412  1.00  0.00     0.000 C 
BRANCH   5   6
ATOM      6  C   UNL     1      22.017 -19.410 -17.181  1.00  0.00     0.000 C 
BRANCH   6   7
ATOM      7  C   UNL     1      20.963 -18.295 -17.098  1.00  0.00     0.000 C 
BRANCH   7   8
ATOM      8  C   UNL     1      21.603 -16.917 -17.307  1.00  0.00     0.000 C 
BRANCH   8   9
ATOM      9  C   UNL     1      21.299 -15.985 -16.125  1.00  0.00     0.000 C 
BRANCH   9  10
ATOM     10  C   UNL     1      19.931 -15.290 -16.249  1.00  0.00     0.006 C 
BRANCH  10  11
ATOM     11  C   UNL     1      18.812 -15.948 -15.425  1.00  0.00     0.053 C 
BRANCH  11  12
ATOM     12  C   UNL     1      17.497 -15.257 -15.612  1.00  0.00     0.041 C 
ATOM     13  O   UNL     1      16.964 -14.636 -14.653  1.00  0.00    -0.550 OA
ATOM     14  O   UNL     1      16.843 -15.323 -16.837  1.00  0.00    -0.550 OA
ENDBRANCH  11  12
ENDBRANCH  10  11
ENDBRANCH   9  10
ENDBRANCH   8   9
ENDBRANCH   7   8
ENDBRANCH   6   7
ENDBRANCH   5   6
ENDBRANCH   4   5
ENDBRANCH   3   4
ENDBRANCH   2   3
ENDBRANCH   1   2
BRANCH   1  15
ATOM     15  C   UNL     1      18.393 -23.309 -19.311  1.00  0.00     0.000 C 
BRANCH  15  16
ATOM     16  C   UNL     1      17.717 -24.691 -19.329  1.00  0.00     0.000 C 
BRANCH  16  17
ATOM     17  C   UNL     1      17.090 -25.026 -20.691  1.00  0.00     0.000 C 
BRANCH  17  18
ATOM     18  C   UNL     1      15.581 -24.733 -20.733  1.00  0.00    -0.000 C 
BRANCH  18  19
ATOM     19  C   UNL     1      14.888 -25.007 -19.388  1.00  0.00    -0.000 C 
BRANCH  19  20
ATOM     20  C   UNL     1      13.855 -23.925 -19.025  1.00  0.00    -0.000 C 
BRANCH  20  21
ATOM     21  C   UNL     1      14.500 -22.687 -18.379  1.00  0.00    -0.000 C 
BRANCH  21  22
ATOM     22  C   UNL     1      15.368 -23.044 -17.158  1.00  0.00    -0.000 C 
BRANCH  22  23
ATOM     23  C   UNL     1      14.573 -23.032 -15.843  1.00  0.00    -0.000 C 
BRANCH  23  24
ATOM     24  C   UNL     1      14.496 -21.631 -15.208  1.00  0.00    -0.000 C 
BRANCH  24  25
ATOM     25  C   UNL     1      13.086 -21.295 -14.698  1.00  0.00    -0.003 C 
ATOM     26  C   UNL     1      13.086 -20.760 -13.266  1.00  0.00     0.004 C 
ENDBRANCH  24  25
ENDBRANCH  23  24
ENDBRANCH  22  23
ENDBRANCH  21  22
ENDBRANCH  20  21
ENDBRANCH  19  20
ENDBRANCH  18  19
ENDBRANCH  17  18
ENDBRANCH  16  17
ENDBRANCH  15  16
ENDBRANCH   1  15
TORSDOF 22
ENDMDL
MODEL 7
REMARK VINA RESULT:    -3.091      1.215      2.488
REMARK INTER + INTRA:          -9.143
REMARK INTER:                  -7.221
REMARK INTRA:                  -1.923
REMARK UNBOUND:                -2.076
REMARK SMILES CCCCCCCCCCCCCCCCCCCCCCCC(=O)[O-]
REMARK SMILES IDX 13 1 14 2 15 3 16 4 17 5 18 6 19 7 20 8 21 9 22 10 23 11
REMARK SMILES IDX 24 12 25 13 26 14 12 15 11 16 10 17 9 18 8 19 7 20 6 21 5 22
REMARK SMILES IDX 4 23 3 24 2 25 1 26
REMARK H PARENT
REMARK Flexibility Score: inf
ROOT
ATOM      1  C   UNL     1      20.682 -19.987 -18.138  1.00  0.00     0.000 C 
ENDROOT
BRANCH   1   2
ATOM      2  C   UNL     1      21.776 -18.922 -18.357  1.00  0.00     0.000 C 
BRANCH   2   3
ATOM      3  C   UNL     1      23.204 -19.359 -17.970  1.00  0.00     0.000 C 
BRANCH   3   4
ATOM      4  C   UNL     1      24.324 -18.795 -18.863  1.00  0.00     0.000 C 
BRANCH   4   5
ATOM      5  C   UNL     1      25.123 -17.673 -18.179  1.00  0.00     0.000 C 
BRANCH   5   6
ATOM      6  C   UNL     1      25.125 -17.798 -16.647  1.00  0.00     0.000 C 
BRANCH   6   7
ATOM      7  C   UNL     1      24.185 -16.790 -15.967  1.00  0.00     0.000 C 
BRANCH   7   8
ATOM      8  C   UNL     1      23.852 -15.626 -16.909  1.00  0.00     0.000 C 
BRANCH   8   9
ATOM      9  C   UNL     1      22.381 -15.676 -17.344  1.00  0.00     0.000 C 
BRANCH   9  10
ATOM     10  C   UNL     1      21.411 -15.810 -16.156  1.00  0.00     0.006 C 
BRANCH  10  11
ATOM     11  C   UNL     1      20.056 -16.441 -16.516  1.00  0.00     0.053 C 
BRANCH  11  12
ATOM     12  C   UNL     1      18.935 -15.859 -15.713  1.00  0.00     0.041 C 
ATOM     13  O   UNL     1      18.204 -14.957 -16.204  1.00  0.00    -0.550 OA
ATOM     14  O   UNL     1      18.715 -16.288 -14.409  1.00  0.00    -0.550 OA
ENDBRANCH  11  12
ENDBRANCH  10  11
ENDBRANCH   9  10
ENDBRANCH   8   9
ENDBRANCH   7   8
ENDBRANCH   6   7
ENDBRANCH   5   6
ENDBRANCH   4   5
ENDBRANCH   3   4
ENDBRANCH   2   3
ENDBRANCH   1   2
BRANCH   1  15
ATOM     15  C   UNL     1      20.995 -21.368 -18.742  1.00  0.00     0.000 C 
BRANCH  15  16
ATOM     16  C   UNL     1      20.877 -21.386 -20.276  1.00  0.00     0.000 C 
BRANCH  16  17
ATOM     17  C   UNL     1      21.266 -22.743 -20.885  1.00  0.00     0.000 C 
BRANCH  17  18
ATOM     18  C   UNL     1      20.749 -23.930 -20.056  1.00  0.00    -0.000 C 
BRANCH  18  19
ATOM     19  C   UNL     1      19.284 -24.279 -20.371  1.00  0.00    -0.000 C 
BRANCH  19  20
ATOM     20  C   UNL     1      18.364 -24.120 -19.147  1.00  0.00    -0.000 C 
BRANCH  20  21
ATOM     21  C   UNL     1      16.953 -24.684 -19.393  1.00  0.00    -0.000 C 
BRANCH  21  22
ATOM     22  C   UNL     1      15.887 -24.011 -18.510  1.00  0.00    -0.000 C 
BRANCH  22  23
ATOM     23  C   UNL     1      14.484 -24.057 -19.136  1.00  0.00    -0.000 C 
BRANCH  23  24
ATOM     24  C   UNL     1      13.876 -22.657 -19.333  1.00  0.00    -0.000 C 
BRANCH  24  25
ATOM     25  C   UNL     1      14.924 -21.614 -19.753  1.00  0.00    -0.003 C 
ATOM     26  C   UNL     1      14.307 -20.392 -20.432  1.00  0.00     0.004 C 
ENDBRANCH  24  25
ENDBRANCH  23  24
ENDBRANCH  22  23
ENDBRANCH  21  22
ENDBRANCH  20  21
ENDBRANCH  19  20
ENDBRANCH  18  19
ENDBRANCH  17  18
ENDBRANCH  16  17
ENDBRANCH  15  16
ENDBRANCH   1  15
TORSDOF 22
ENDMDL
MODEL 8
REMARK VINA RESULT:    -3.043      3.257      6.233
REMARK INTER + INTRA:          -9.033
REMARK INTER:                  -7.334
REMARK INTRA:                  -1.699
REMARK UNBOUND:                -2.076
REMARK SMILES CCCCCCCCCCCCCCCCCCCCCCCC(=O)[O-]
REMARK SMILES IDX 13 1 14 2 15 3 16 4 17 5 18 6 19 7 20 8 21 9 22 10 23 11
REMARK SMILES IDX 24 12 25 13 26 14 12 15 11 16 10 17 9 18 8 19 7 20 6 21 5 22
REMARK SMILES IDX 4 23 3 24 2 25 1 26
REMARK H PARENT
REMARK Flexibility Score: inf
ROOT
ATOM      1  C   UNL     1      14.948 -15.485 -21.072  1.00  0.00     0.000 C 
ENDROOT
BRANCH   1   2
ATOM      2  C   UNL     1      15.847 -15.060 -19.893  1.00  0.00     0.000 C 
BRANCH   2   3
ATOM      3  C   UNL     1      15.311 -15.425 -18.494  1.00  0.00     0.000 C 
BRANCH   3   4
ATOM      4  C   UNL     1      16.089 -14.811 -17.315  1.00  0.00     0.000 C 
BRANCH   4   5
ATOM      5  C   UNL     1      16.452 -15.847 -16.238  1.00  0.00     0.000 C 
BRANCH   5   6
ATOM      6  C   UNL     1      17.653 -15.413 -15.382  1.00  0.00     0.000 C 
BRANCH   6   7
ATOM      7  C   UNL     1      18.892 -15.072 -16.225  1.00  0.00     0.000 C 
BRANCH   7   8
ATOM      8  C   UNL     1      20.069 -15.988 -15.866  1.00  0.00     0.000 C 
BRANCH   8   9
ATOM      9  C   UNL     1      19.983 -17.318 -16.629  1.00  0.00     0.000 C 
BRANCH   9  10
ATOM     10  C   UNL     1      21.366 -17.896 -16.979  1.00  0.00     0.006 C 
BRANCH  10  11
ATOM     11  C   UNL     1      21.370 -19.411 -17.237  1.00  0.00     0.053 C 
BRANCH  11  12
ATOM     12  C   UNL     1      22.280 -19.786 -18.365  1.00  0.00     0.041 C 
ATOM     13  O   UNL     1      23.389 -19.204 -18.506  1.00  0.00    -0.550 OA
ATOM     14  O   UNL     1      21.892 -20.758 -19.280  1.00  0.00    -0.550 OA
ENDBRANCH  11  12
ENDBRANCH  10  11
ENDBRANCH   9  10
ENDBRANCH   8   9
ENDBRANCH   7   8
ENDBRANCH   6   7
ENDBRANCH   5   6
ENDBRANCH   4   5
ENDBRANCH   3   4
ENDBRANCH   2   3
ENDBRANCH   1   2
BRANCH   1  15
ATOM     15  C   UNL     1      14.534 -16.968 -21.066  1.00  0.00     0.000 C 
BRANCH  15  16
ATOM     16  C   UNL     1      15.740 -17.922 -21.015  1.00  0.00     0.000 C 
BRANCH  16  17
ATOM     17  C   UNL     1      15.331 -19.383 -20.771  1.00  0.00     0.000 C 
BRANCH  17  18
ATOM     18  C   UNL     1      13.804 -19.568 -20.736  1.00  0.00    -0.000 C 
BRANCH  18  19
ATOM     19  C   UNL     1      13.391 -21.032 -20.506  1.00  0.00    -0.000 C 
BRANCH  19  20
ATOM     20  C   UNL     1      14.566 -21.910 -20.040  1.00  0.00    -0.000 C 
BRANCH  20  21
ATOM     21  C   UNL     1      14.397 -22.400 -18.591  1.00  0.00    -0.000 C 
BRANCH  21  22
ATOM     22  C   UNL     1      14.530 -23.928 -18.466  1.00  0.00    -0.000 C 
BRANCH  22  23
ATOM     23  C   UNL     1      15.918 -24.438 -18.883  1.00  0.00    -0.000 C 
BRANCH  23  24
ATOM     24  C   UNL     1      17.063 -23.682 -18.186  1.00  0.00    -0.000 C 
BRANCH  24  25
ATOM     25  C   UNL     1      18.276 -23.475 -19.106  1.00  0.00    -0.003 C 
ATOM     26  C   UNL     1      18.175 -22.200 -19.943  1.00  0.00     0.004 C 
ENDBRANCH  24  25
ENDBRANCH  23  24
ENDBRANCH  22  23
ENDBRANCH  21  22
ENDBRANCH  20  21
ENDBRANCH  19  20
ENDBRANCH  18  19
ENDBRANCH  17  18
ENDBRANCH  16  17
ENDBRANCH  15  16
ENDBRANCH   1  15
TORSDOF 22
ENDMDL
