MODEL 1
REMARK VINA RESULT:    -6.875      0.000      0.000
REMARK INTER + INTRA:          -8.551
REMARK INTER:                  -8.282
REMARK INTRA:                  -0.268
REMARK UNBOUND:                -0.268
REMARK SMILES O=c1c(O)c(-c2ccc(O)c(O)c2)oc2cc(O)cc(O)c12
REMARK SMILES IDX 5 1 3 2 2 3 1 4 22 5 20 6 19 7 17 8 16 9 15 10 14 11 6 12
REMARK SMILES IDX 7 13 8 14 9 15 13 16 11 17 10 18 12 20 4 22 21 24 18 26
REMARK H PARENT 10 19 12 21 4 23 21 25 18 27
REMARK Flexibility Score: inf
ROOT
ATOM      1  C   UNL     1     127.400 129.534 142.393  1.00  0.00     0.180 A 
ATOM      2  C   UNL     1     127.244 130.306 141.228  1.00  0.00     0.208 A 
ATOM      3  C   UNL     1     126.984 129.657 140.011  1.00  0.00     0.238 A 
ATOM      4  O   UNL     1     126.919 130.348 138.961  1.00  0.00    -0.285 OA
ATOM      5  C   UNL     1     126.827 128.250 139.981  1.00  0.00     0.111 A 
ATOM      6  C   UNL     1     126.517 127.491 138.811  1.00  0.00     0.134 A 
ATOM      7  C   UNL     1     126.491 126.093 138.883  1.00  0.00     0.093 A 
ATOM      8  C   UNL     1     126.701 125.429 140.094  1.00  0.00     0.123 A 
ATOM      9  C   UNL     1     126.948 126.161 141.251  1.00  0.00     0.094 A 
ATOM     10  C   UNL     1     127.019 127.556 141.204  1.00  0.00     0.146 A 
ATOM     11  O   UNL     1     127.279 128.214 142.329  1.00  0.00    -0.452 OA
ENDROOT
BRANCH   1  12
ATOM     12  C   UNL     1     127.690 130.145 143.710  1.00  0.00     0.025 A 
ATOM     13  C   UNL     1     126.654 130.765 144.425  1.00  0.00     0.016 A 
ATOM     14  C   UNL     1     126.900 131.330 145.680  1.00  0.00     0.051 A 
ATOM     15  C   UNL     1     128.177 131.270 146.244  1.00  0.00     0.157 A 
ATOM     16  C   UNL     1     128.970 130.067 144.288  1.00  0.00     0.062 A 
ATOM     17  C   UNL     1     129.218 130.632 145.548  1.00  0.00     0.158 A 
BRANCH  15  18
ATOM     18  O   UNL     1     128.393 131.845 147.497  1.00  0.00    -0.504 OA
ATOM     19  H   UNL     1     128.841 131.338 148.251  1.00  0.00     0.293 HD
ENDBRANCH  15  18
BRANCH  17  20
ATOM     20  O   UNL     1     130.491 130.557 146.111  1.00  0.00    -0.504 OA
ATOM     21  H   UNL     1     131.138 129.818 145.863  1.00  0.00     0.293 HD
ENDBRANCH  17  20
ENDBRANCH   1  12
BRANCH   2  22
ATOM     22  O   UNL     1     127.327 131.700 141.292  1.00  0.00    -0.502 OA
ATOM     23  H   UNL     1     127.953 132.180 141.927  1.00  0.00     0.293 HD
ENDBRANCH   2  22
BRANCH   6  24
ATOM     24  O   UNL     1     126.205 128.056 137.572  1.00  0.00    -0.507 OA
ATOM     25  H   UNL     1     126.856 128.553 136.983  1.00  0.00     0.293 HD
ENDBRANCH   6  24
BRANCH   8  26
ATOM     26  O   UNL     1     126.655 124.037 140.158  1.00  0.00    -0.508 OA
ATOM     27  H   UNL     1     125.812 123.546 140.435  1.00  0.00     0.293 HD
ENDBRANCH   8  26
TORSDOF 6
ENDMDL
MODEL 2
REMARK VINA RESULT:    -6.788      1.549      3.131
REMARK INTER + INTRA:          -8.446
REMARK INTER:                  -8.262
REMARK INTRA:                  -0.184
REMARK UNBOUND:                -0.268
REMARK SMILES O=c1c(O)c(-c2ccc(O)c(O)c2)oc2cc(O)cc(O)c12
REMARK SMILES IDX 5 1 3 2 2 3 1 4 22 5 20 6 19 7 17 8 16 9 15 10 14 11 6 12
REMARK SMILES IDX 7 13 8 14 9 15 13 16 11 17 10 18 12 20 4 22 21 24 18 26
REMARK H PARENT 10 19 12 21 4 23 21 25 18 27
REMARK Flexibility Score: inf
ROOT
ATOM      1  C   UNL     1     127.114 129.407 143.503  1.00  0.00     0.180 A 
ATOM      2  C   UNL     1     127.381 128.030 143.592  1.00  0.00     0.208 A 
ATOM      3  C   UNL     1     127.438 127.270 142.413  1.00  0.00     0.238 A 
ATOM      4  O   UNL     1     127.604 126.025 142.505  1.00  0.00    -0.285 OA
ATOM      5  C   UNL     1     127.284 127.904 141.157  1.00  0.00     0.111 A 
ATOM      6  C   UNL     1     127.368 127.240 139.895  1.00  0.00     0.134 A 
ATOM      7  C   UNL     1     127.092 127.952 138.721  1.00  0.00     0.093 A 
ATOM      8  C   UNL     1     126.797 129.317 138.758  1.00  0.00     0.123 A 
ATOM      9  C   UNL     1     126.767 129.986 139.978  1.00  0.00     0.094 A 
ATOM     10  C   UNL     1     127.001 129.295 141.170  1.00  0.00     0.146 A 
ATOM     11  O   UNL     1     126.941 129.968 142.313  1.00  0.00    -0.452 OA
ENDROOT
BRANCH   1  12
ATOM     12  C   UNL     1     127.023 130.271 144.702  1.00  0.00     0.025 A 
ATOM     13  C   UNL     1     125.970 130.081 145.610  1.00  0.00     0.016 A 
ATOM     14  C   UNL     1     125.875 130.871 146.760  1.00  0.00     0.051 A 
ATOM     15  C   UNL     1     126.838 131.848 147.027  1.00  0.00     0.157 A 
ATOM     16  C   UNL     1     128.002 131.241 144.983  1.00  0.00     0.062 A 
ATOM     17  C   UNL     1     127.910 132.033 146.137  1.00  0.00     0.158 A 
BRANCH  15  18
ATOM     18  O   UNL     1     126.717 132.623 148.181  1.00  0.00    -0.504 OA
ATOM     19  H   UNL     1     126.279 133.536 148.171  1.00  0.00     0.293 HD
ENDBRANCH  15  18
BRANCH  17  20
ATOM     20  O   UNL     1     128.881 132.996 146.405  1.00  0.00    -0.504 OA
ATOM     21  H   UNL     1     128.671 133.825 146.948  1.00  0.00     0.293 HD
ENDBRANCH  17  20
ENDBRANCH   1  12
BRANCH   2  22
ATOM     22  O   UNL     1     127.607 127.436 144.837  1.00  0.00    -0.502 OA
ATOM     23  H   UNL     1     127.580 127.960 145.704  1.00  0.00     0.293 HD
ENDBRANCH   2  22
BRANCH   6  24
ATOM     24  O   UNL     1     127.739 125.902 139.738  1.00  0.00    -0.507 OA
ATOM     25  H   UNL     1     128.685 125.575 139.617  1.00  0.00     0.293 HD
ENDBRANCH   6  24
BRANCH   8  26
ATOM     26  O   UNL     1     126.541 130.020 137.582  1.00  0.00    -0.508 OA
ATOM     27  H   UNL     1     126.618 129.579 136.672  1.00  0.00     0.293 HD
ENDBRANCH   8  26
TORSDOF 6
ENDMDL
MODEL 3
REMARK VINA RESULT:    -6.450      5.923     10.500
REMARK INTER + INTRA:          -8.038
REMARK INTER:                  -7.920
REMARK INTRA:                  -0.118
REMARK UNBOUND:                -0.268
REMARK SMILES O=c1c(O)c(-c2ccc(O)c(O)c2)oc2cc(O)cc(O)c12
REMARK SMILES IDX 5 1 3 2 2 3 1 4 22 5 20 6 19 7 17 8 16 9 15 10 14 11 6 12
REMARK SMILES IDX 7 13 8 14 9 15 13 16 11 17 10 18 12 20 4 22 21 24 18 26
REMARK H PARENT 10 19 12 21 4 23 21 25 18 27
REMARK Flexibility Score: inf
ROOT
ATOM      1  C   UNL     1     130.769 133.841 147.634  1.00  0.00     0.180 A 
ATOM      2  C   UNL     1     131.440 133.788 148.869  1.00  0.00     0.208 A 
ATOM      3  C   UNL     1     132.565 134.603 149.067  1.00  0.00     0.238 A 
ATOM      4  O   UNL     1     133.204 134.496 150.147  1.00  0.00    -0.285 OA
ATOM      5  C   UNL     1     132.975 135.500 148.051  1.00  0.00     0.111 A 
ATOM      6  C   UNL     1     134.075 136.404 148.160  1.00  0.00     0.134 A 
ATOM      7  C   UNL     1     134.452 137.170 147.050  1.00  0.00     0.093 A 
ATOM      8  C   UNL     1     133.731 137.110 145.855  1.00  0.00     0.123 A 
ATOM      9  C   UNL     1     132.623 136.273 145.756  1.00  0.00     0.094 A 
ATOM     10  C   UNL     1     132.245 135.468 146.834  1.00  0.00     0.146 A 
ATOM     11  O   UNL     1     131.195 134.668 146.688  1.00  0.00    -0.452 OA
ENDROOT
BRANCH   1  12
ATOM     12  C   UNL     1     129.584 133.001 147.345  1.00  0.00     0.025 A 
ATOM     13  C   UNL     1     129.650 132.044 146.321  1.00  0.00     0.016 A 
ATOM     14  C   UNL     1     128.551 131.227 146.043  1.00  0.00     0.051 A 
ATOM     15  C   UNL     1     127.378 131.341 146.795  1.00  0.00     0.157 A 
ATOM     16  C   UNL     1     128.410 133.101 148.113  1.00  0.00     0.062 A 
ATOM     17  C   UNL     1     127.306 132.280 147.838  1.00  0.00     0.158 A 
BRANCH  15  18
ATOM     18  O   UNL     1     126.296 130.513 146.494  1.00  0.00    -0.504 OA
ATOM     19  H   UNL     1     125.464 130.485 147.071  1.00  0.00     0.293 HD
ENDBRANCH  15  18
BRANCH  17  20
ATOM     20  O   UNL     1     126.144 132.390 148.600  1.00  0.00    -0.504 OA
ATOM     21  H   UNL     1     125.385 131.724 148.509  1.00  0.00     0.293 HD
ENDBRANCH  17  20
ENDBRANCH   1  12
BRANCH   2  22
ATOM     22  O   UNL     1     130.974 132.951 149.887  1.00  0.00    -0.502 OA
ATOM     23  H   UNL     1     131.596 132.390 150.457  1.00  0.00     0.293 HD
ENDBRANCH   2  22
BRANCH   6  24
ATOM     24  O   UNL     1     134.808 136.607 149.332  1.00  0.00    -0.507 OA
ATOM     25  H   UNL     1     135.815 136.594 149.394  1.00  0.00     0.293 HD
ENDBRANCH   6  24
BRANCH   8  26
ATOM     26  O   UNL     1     134.103 137.889 144.760  1.00  0.00    -0.508 OA
ATOM     27  H   UNL     1     135.071 137.968 144.470  1.00  0.00     0.293 HD
ENDBRANCH   8  26
TORSDOF 6
ENDMDL
MODEL 4
REMARK VINA RESULT:    -6.287      8.068      9.061
REMARK INTER + INTRA:          -7.842
REMARK INTER:                  -7.512
REMARK INTRA:                  -0.331
REMARK UNBOUND:                -0.268
REMARK SMILES O=c1c(O)c(-c2ccc(O)c(O)c2)oc2cc(O)cc(O)c12
REMARK SMILES IDX 5 1 3 2 2 3 1 4 22 5 20 6 19 7 17 8 16 9 15 10 14 11 6 12
REMARK SMILES IDX 7 13 8 14 9 15 13 16 11 17 10 18 12 20 4 22 21 24 18 26
REMARK H PARENT 10 19 12 21 4 23 21 25 18 27
REMARK Flexibility Score: inf
ROOT
ATOM      1  C   UNL     1     130.660 133.209 148.193  1.00  0.00     0.180 A 
ATOM      2  C   UNL     1     131.036 134.546 147.978  1.00  0.00     0.208 A 
ATOM      3  C   UNL     1     132.221 134.815 147.274  1.00  0.00     0.238 A 
ATOM      4  O   UNL     1     132.590 136.012 147.149  1.00  0.00    -0.285 OA
ATOM      5  C   UNL     1     132.985 133.746 146.746  1.00  0.00     0.111 A 
ATOM      6  C   UNL     1     134.180 133.903 145.978  1.00  0.00     0.134 A 
ATOM      7  C   UNL     1     134.910 132.770 145.599  1.00  0.00     0.093 A 
ATOM      8  C   UNL     1     134.457 131.484 145.905  1.00  0.00     0.123 A 
ATOM      9  C   UNL     1     133.265 131.319 146.605  1.00  0.00     0.094 A 
ATOM     10  C   UNL     1     132.534 132.431 147.031  1.00  0.00     0.146 A 
ATOM     11  O   UNL     1     131.413 132.227 147.715  1.00  0.00    -0.452 OA
ENDROOT
BRANCH   1  12
ATOM     12  C   UNL     1     129.432 132.846 148.939  1.00  0.00     0.025 A 
ATOM     13  C   UNL     1     128.234 132.645 148.237  1.00  0.00     0.016 A 
ATOM     14  C   UNL     1     127.068 132.282 148.917  1.00  0.00     0.051 A 
ATOM     15  C   UNL     1     127.086 132.099 150.302  1.00  0.00     0.157 A 
ATOM     16  C   UNL     1     129.453 132.642 150.330  1.00  0.00     0.062 A 
ATOM     17  C   UNL     1     128.285 132.275 151.014  1.00  0.00     0.158 A 
BRANCH  15  18
ATOM     18  O   UNL     1     125.906 131.739 150.954  1.00  0.00    -0.504 OA
ATOM     19  H   UNL     1     125.678 130.774 151.158  1.00  0.00     0.293 HD
ENDBRANCH  15  18
BRANCH  17  20
ATOM     20  O   UNL     1     128.312 132.081 152.394  1.00  0.00    -0.504 OA
ATOM     21  H   UNL     1     129.126 132.320 152.948  1.00  0.00     0.293 HD
ENDBRANCH  17  20
ENDBRANCH   1  12
BRANCH   2  22
ATOM     22  O   UNL     1     130.228 135.588 148.441  1.00  0.00    -0.502 OA
ATOM     23  H   UNL     1     129.355 135.841 147.992  1.00  0.00     0.293 HD
ENDBRANCH   2  22
BRANCH   6  24
ATOM     24  O   UNL     1     134.675 135.135 145.544  1.00  0.00    -0.507 OA
ATOM     25  H   UNL     1     135.332 135.706 146.053  1.00  0.00     0.293 HD
ENDBRANCH   6  24
BRANCH   8  26
ATOM     26  O   UNL     1     135.181 130.362 145.508  1.00  0.00    -0.508 OA
ATOM     27  H   UNL     1     134.753 129.444 145.458  1.00  0.00     0.293 HD
ENDBRANCH   8  26
TORSDOF 6
ENDMDL
MODEL 5
REMARK VINA RESULT:    -6.202      1.677      7.233
REMARK INTER + INTRA:          -7.739
REMARK INTER:                  -8.059
REMARK INTRA:                   0.320
REMARK UNBOUND:                -0.268
REMARK SMILES O=c1c(O)c(-c2ccc(O)c(O)c2)oc2cc(O)cc(O)c12
REMARK SMILES IDX 5 1 3 2 2 3 1 4 22 5 20 6 19 7 17 8 16 9 15 10 14 11 6 12
REMARK SMILES IDX 7 13 8 14 9 15 13 16 11 17 10 18 12 20 4 22 21 24 18 26
REMARK H PARENT 10 19 12 21 4 23 21 25 18 27
REMARK Flexibility Score: inf
ROOT
ATOM      1  C   UNL     1     127.383 128.291 141.670  1.00  0.00     0.180 A 
ATOM      2  C   UNL     1     127.964 127.323 142.508  1.00  0.00     0.208 A 
ATOM      3  C   UNL     1     128.327 127.684 143.815  1.00  0.00     0.238 A 
ATOM      4  O   UNL     1     128.914 126.833 144.535  1.00  0.00    -0.285 OA
ATOM      5  C   UNL     1     128.055 128.990 144.287  1.00  0.00     0.111 A 
ATOM      6  C   UNL     1     128.340 129.453 145.608  1.00  0.00     0.134 A 
ATOM      7  C   UNL     1     128.124 130.799 145.930  1.00  0.00     0.093 A 
ATOM      8  C   UNL     1     127.576 131.684 144.998  1.00  0.00     0.123 A 
ATOM      9  C   UNL     1     127.244 131.230 143.725  1.00  0.00     0.094 A 
ATOM     10  C   UNL     1     127.482 129.902 143.362  1.00  0.00     0.146 A 
ATOM     11  O   UNL     1     127.170 129.517 142.129  1.00  0.00    -0.452 OA
ENDROOT
BRANCH   1  12
ATOM     12  C   UNL     1     126.987 127.990 140.275  1.00  0.00     0.025 A 
ATOM     13  C   UNL     1     126.994 129.018 139.320  1.00  0.00     0.016 A 
ATOM     14  C   UNL     1     126.644 128.754 137.993  1.00  0.00     0.051 A 
ATOM     15  C   UNL     1     126.300 127.458 137.598  1.00  0.00     0.157 A 
ATOM     16  C   UNL     1     126.661 126.683 139.871  1.00  0.00     0.062 A 
ATOM     17  C   UNL     1     126.312 126.415 138.539  1.00  0.00     0.158 A 
BRANCH  15  18
ATOM     18  O   UNL     1     125.953 127.224 136.267  1.00  0.00    -0.504 OA
ATOM     19  H   UNL     1     126.129 127.905 135.538  1.00  0.00     0.293 HD
ENDBRANCH  15  18
BRANCH  17  20
ATOM     20  O   UNL     1     125.983 125.118 138.148  1.00  0.00    -0.504 OA
ATOM     21  H   UNL     1     125.509 124.479 138.776  1.00  0.00     0.293 HD
ENDBRANCH  17  20
ENDBRANCH   1  12
BRANCH   2  22
ATOM     22  O   UNL     1     128.154 126.016 142.048  1.00  0.00    -0.502 OA
ATOM     23  H   UNL     1     127.873 125.204 142.584  1.00  0.00     0.293 HD
ENDBRANCH   2  22
BRANCH   6  24
ATOM     24  O   UNL     1     128.806 128.635 146.641  1.00  0.00    -0.507 OA
ATOM     25  H   UNL     1     128.634 127.644 146.716  1.00  0.00     0.293 HD
ENDBRANCH   6  24
BRANCH   8  26
ATOM     26  O   UNL     1     127.348 133.017 145.333  1.00  0.00    -0.508 OA
ATOM     27  H   UNL     1     126.721 133.601 144.791  1.00  0.00     0.293 HD
ENDBRANCH   8  26
TORSDOF 6
ENDMDL
MODEL 6
REMARK VINA RESULT:    -6.175      2.382      3.552
REMARK INTER + INTRA:          -7.707
REMARK INTER:                  -7.374
REMARK INTRA:                  -0.333
REMARK UNBOUND:                -0.268
REMARK SMILES O=c1c(O)c(-c2ccc(O)c(O)c2)oc2cc(O)cc(O)c12
REMARK SMILES IDX 5 1 3 2 2 3 1 4 22 5 20 6 19 7 17 8 16 9 15 10 14 11 6 12
REMARK SMILES IDX 7 13 8 14 9 15 13 16 11 17 10 18 12 20 4 22 21 24 18 26
REMARK H PARENT 10 19 12 21 4 23 21 25 18 27
REMARK Flexibility Score: inf
ROOT
ATOM      1  C   UNL     1     127.321 130.430 145.700  1.00  0.00     0.180 A 
ATOM      2  C   UNL     1     127.259 131.247 144.558  1.00  0.00     0.208 A 
ATOM      3  C   UNL     1     127.368 130.653 143.290  1.00  0.00     0.238 A 
ATOM      4  O   UNL     1     127.386 131.398 142.275  1.00  0.00    -0.285 OA
ATOM      5  C   UNL     1     127.483 129.247 143.177  1.00  0.00     0.111 A 
ATOM      6  C   UNL     1     127.556 128.534 141.941  1.00  0.00     0.134 A 
ATOM      7  C   UNL     1     127.775 127.150 141.955  1.00  0.00     0.093 A 
ATOM      8  C   UNL     1     127.861 126.446 143.158  1.00  0.00     0.123 A 
ATOM      9  C   UNL     1     127.736 127.123 144.367  1.00  0.00     0.094 A 
ATOM     10  C   UNL     1     127.555 128.509 144.387  1.00  0.00     0.146 A 
ATOM     11  O   UNL     1     127.462 129.117 145.564  1.00  0.00    -0.452 OA
ENDROOT
BRANCH   1  12
ATOM     12  C   UNL     1     127.228 130.984 147.070  1.00  0.00     0.025 A 
ATOM     13  C   UNL     1     125.984 131.010 147.719  1.00  0.00     0.016 A 
ATOM     14  C   UNL     1     125.875 131.509 149.021  1.00  0.00     0.051 A 
ATOM     15  C   UNL     1     127.008 131.972 149.697  1.00  0.00     0.157 A 
ATOM     16  C   UNL     1     128.370 131.431 147.760  1.00  0.00     0.062 A 
ATOM     17  C   UNL     1     128.263 131.929 149.067  1.00  0.00     0.158 A 
BRANCH  15  18
ATOM     18  O   UNL     1     126.868 132.466 150.994  1.00  0.00    -0.504 OA
ATOM     19  H   UNL     1     127.467 133.198 151.358  1.00  0.00     0.293 HD
ENDBRANCH  15  18
BRANCH  17  20
ATOM     20  O   UNL     1     129.398 132.377 149.740  1.00  0.00    -0.504 OA
ATOM     21  H   UNL     1     129.383 132.570 150.735  1.00  0.00     0.293 HD
ENDBRANCH  17  20
ENDBRANCH   1  12
BRANCH   2  22
ATOM     22  O   UNL     1     127.068 132.625 144.687  1.00  0.00    -0.502 OA
ATOM     23  H   UNL     1     127.799 133.248 145.010  1.00  0.00     0.293 HD
ENDBRANCH   2  22
BRANCH   6  24
ATOM     24  O   UNL     1     127.396 129.125 140.686  1.00  0.00    -0.507 OA
ATOM     25  H   UNL     1     128.026 129.007 139.906  1.00  0.00     0.293 HD
ENDBRANCH   6  24
BRANCH   8  26
ATOM     26  O   UNL     1     128.062 125.066 143.160  1.00  0.00    -0.508 OA
ATOM     27  H   UNL     1     127.641 124.468 142.459  1.00  0.00     0.293 HD
ENDBRANCH   8  26
TORSDOF 6
ENDMDL
MODEL 7
REMARK VINA RESULT:    -6.150      7.503      9.501
REMARK INTER + INTRA:          -7.677
REMARK INTER:                  -7.354
REMARK INTRA:                  -0.323
REMARK UNBOUND:                -0.268
REMARK SMILES O=c1c(O)c(-c2ccc(O)c(O)c2)oc2cc(O)cc(O)c12
REMARK SMILES IDX 5 1 3 2 2 3 1 4 22 5 20 6 19 7 17 8 16 9 15 10 14 11 6 12
REMARK SMILES IDX 7 13 8 14 9 15 13 16 11 17 10 18 12 20 4 22 21 24 18 26
REMARK H PARENT 10 19 12 21 4 23 21 25 18 27
REMARK Flexibility Score: inf
ROOT
ATOM      1  C   UNL     1     130.645 132.850 147.964  1.00  0.00     0.180 A 
ATOM      2  C   UNL     1     131.645 131.899 147.695  1.00  0.00     0.208 A 
ATOM      3  C   UNL     1     132.797 132.300 147.001  1.00  0.00     0.238 A 
ATOM      4  O   UNL     1     133.654 131.428 146.698  1.00  0.00    -0.285 OA
ATOM      5  C   UNL     1     132.962 133.657 146.632  1.00  0.00     0.111 A 
ATOM      6  C   UNL     1     134.109 134.185 145.964  1.00  0.00     0.134 A 
ATOM      7  C   UNL     1     134.114 135.524 145.554  1.00  0.00     0.093 A 
ATOM      8  C   UNL     1     133.041 136.370 145.844  1.00  0.00     0.123 A 
ATOM      9  C   UNL     1     131.941 135.880 146.543  1.00  0.00     0.094 A 
ATOM     10  C   UNL     1     131.890 134.539 146.931  1.00  0.00     0.146 A 
ATOM     11  O   UNL     1     130.812 134.108 147.577  1.00  0.00    -0.452 OA
ENDROOT
BRANCH   1  12
ATOM     12  C   UNL     1     129.396 132.499 148.678  1.00  0.00     0.025 A 
ATOM     13  C   UNL     1     129.365 132.560 150.080  1.00  0.00     0.016 A 
ATOM     14  C   UNL     1     128.191 132.254 150.776  1.00  0.00     0.051 A 
ATOM     15  C   UNL     1     127.031 131.900 150.081  1.00  0.00     0.157 A 
ATOM     16  C   UNL     1     128.222 132.163 147.981  1.00  0.00     0.062 A 
ATOM     17  C   UNL     1     127.043 131.857 148.677  1.00  0.00     0.158 A 
BRANCH  15  18
ATOM     18  O   UNL     1     125.875 131.597 150.802  1.00  0.00    -0.504 OA
ATOM     19  H   UNL     1     125.496 130.659 150.840  1.00  0.00     0.293 HD
ENDBRANCH  15  18
BRANCH  17  20
ATOM     20  O   UNL     1     125.886 131.518 147.979  1.00  0.00    -0.504 OA
ATOM     21  H   UNL     1     124.988 131.928 148.208  1.00  0.00     0.293 HD
ENDBRANCH  17  20
ENDBRANCH   1  12
BRANCH   2  22
ATOM     22  O   UNL     1     131.499 130.580 148.135  1.00  0.00    -0.502 OA
ATOM     23  H   UNL     1     130.643 130.054 148.003  1.00  0.00     0.293 HD
ENDBRANCH   2  22
BRANCH   6  24
ATOM     24  O   UNL     1     135.269 133.451 145.703  1.00  0.00    -0.507 OA
ATOM     25  H   UNL     1     135.291 132.477 145.444  1.00  0.00     0.293 HD
ENDBRANCH   6  24
BRANCH   8  26
ATOM     26  O   UNL     1     133.062 137.706 145.447  1.00  0.00    -0.508 OA
ATOM     27  H   UNL     1     132.211 138.204 145.212  1.00  0.00     0.293 HD
ENDBRANCH   8  26
TORSDOF 6
ENDMDL
MODEL 8
REMARK VINA RESULT:    -5.906      5.776      8.638
REMARK INTER + INTRA:          -7.383
REMARK INTER:                  -7.084
REMARK INTRA:                  -0.299
REMARK UNBOUND:                -0.268
REMARK SMILES O=c1c(O)c(-c2ccc(O)c(O)c2)oc2cc(O)cc(O)c12
REMARK SMILES IDX 5 1 3 2 2 3 1 4 22 5 20 6 19 7 17 8 16 9 15 10 14 11 6 12
REMARK SMILES IDX 7 13 8 14 9 15 13 16 11 17 10 18 12 20 4 22 21 24 18 26
REMARK H PARENT 10 19 12 21 4 23 21 25 18 27
REMARK Flexibility Score: inf
ROOT
ATOM      1  C   UNL     1     132.269 133.396 147.067  1.00  0.00     0.180 A 
ATOM      2  C   UNL     1     132.905 132.146 146.969  1.00  0.00     0.208 A 
ATOM      3  C   UNL     1     132.122 130.996 146.786  1.00  0.00     0.238 A 
ATOM      4  O   UNL     1     132.692 129.873 146.774  1.00  0.00    -0.285 OA
ATOM      5  C   UNL     1     130.718 131.114 146.647  1.00  0.00     0.111 A 
ATOM      6  C   UNL     1     129.829 130.020 146.414  1.00  0.00     0.134 A 
ATOM      7  C   UNL     1     128.447 130.244 146.399  1.00  0.00     0.093 A 
ATOM      8  C   UNL     1     127.924 131.531 146.548  1.00  0.00     0.123 A 
ATOM      9  C   UNL     1     128.784 132.612 146.720  1.00  0.00     0.094 A 
ATOM     10  C   UNL     1     130.166 132.415 146.777  1.00  0.00     0.146 A 
ATOM     11  O   UNL     1     130.948 133.472 146.966  1.00  0.00    -0.452 OA
ENDROOT
BRANCH   1  12
ATOM     12  C   UNL     1     133.027 134.652 147.275  1.00  0.00     0.025 A 
ATOM     13  C   UNL     1     133.458 134.990 148.567  1.00  0.00     0.016 A 
ATOM     14  C   UNL     1     134.193 136.159 148.784  1.00  0.00     0.051 A 
ATOM     15  C   UNL     1     134.520 136.997 147.714  1.00  0.00     0.157 A 
ATOM     16  C   UNL     1     133.375 135.485 146.197  1.00  0.00     0.062 A 
ATOM     17  C   UNL     1     134.113 136.658 146.413  1.00  0.00     0.158 A 
BRANCH  15  18
ATOM     18  O   UNL     1     135.252 138.159 147.962  1.00  0.00    -0.504 OA
ATOM     19  H   UNL     1     134.864 139.082 147.807  1.00  0.00     0.293 HD
ENDBRANCH  15  18
BRANCH  17  20
ATOM     20  O   UNL     1     134.448 137.482 145.339  1.00  0.00    -0.504 OA
ATOM     21  H   UNL     1     133.990 138.373 145.191  1.00  0.00     0.293 HD
ENDBRANCH  17  20
ENDBRANCH   1  12
BRANCH   2  22
ATOM     22  O   UNL     1     134.299 132.059 147.032  1.00  0.00    -0.502 OA
ATOM     23  H   UNL     1     134.777 131.251 147.412  1.00  0.00     0.293 HD
ENDBRANCH   2  22
BRANCH   6  24
ATOM     24  O   UNL     1     130.248 128.710 146.166  1.00  0.00    -0.507 OA
ATOM     25  H   UNL     1     130.353 127.994 146.869  1.00  0.00     0.293 HD
ENDBRANCH   6  24
BRANCH   8  26
ATOM     26  O   UNL     1     126.547 131.747 146.514  1.00  0.00    -0.508 OA
ATOM     27  H   UNL     1     126.102 132.425 147.122  1.00  0.00     0.293 HD
ENDBRANCH   8  26
TORSDOF 6
ENDMDL
MODEL 9
REMARK VINA RESULT:    -5.863      1.669      3.224
REMARK INTER + INTRA:          -7.331
REMARK INTER:                  -7.008
REMARK INTRA:                  -0.323
REMARK UNBOUND:                -0.268
REMARK SMILES O=c1c(O)c(-c2ccc(O)c(O)c2)oc2cc(O)cc(O)c12
REMARK SMILES IDX 5 1 3 2 2 3 1 4 22 5 20 6 19 7 17 8 16 9 15 10 14 11 6 12
REMARK SMILES IDX 7 13 8 14 9 15 13 16 11 17 10 18 12 20 4 22 21 24 18 26
REMARK H PARENT 10 19 12 21 4 23 21 25 18 27
REMARK Flexibility Score: inf
ROOT
ATOM      1  C   UNL     1     126.864 128.038 142.541  1.00  0.00     0.180 A 
ATOM      2  C   UNL     1     126.598 126.681 142.288  1.00  0.00     0.208 A 
ATOM      3  C   UNL     1     126.452 126.253 140.959  1.00  0.00     0.238 A 
ATOM      4  O   UNL     1     126.141 125.052 140.743  1.00  0.00    -0.285 OA
ATOM      5  C   UNL     1     126.628 127.173 139.898  1.00  0.00     0.111 A 
ATOM      6  C   UNL     1     126.547 126.840 138.511  1.00  0.00     0.134 A 
ATOM      7  C   UNL     1     126.634 127.857 137.551  1.00  0.00     0.093 A 
ATOM      8  C   UNL     1     126.861 129.183 137.924  1.00  0.00     0.123 A 
ATOM      9  C   UNL     1     126.997 129.510 139.271  1.00  0.00     0.094 A 
ATOM     10  C   UNL     1     126.877 128.525 140.254  1.00  0.00     0.146 A 
ATOM     11  O   UNL     1     126.992 128.885 141.527  1.00  0.00    -0.452 OA
ENDROOT
BRANCH   1  12
ATOM     12  C   UNL     1     127.017 128.568 143.916  1.00  0.00     0.025 A 
ATOM     13  C   UNL     1     125.880 128.988 144.622  1.00  0.00     0.016 A 
ATOM     14  C   UNL     1     125.997 129.472 145.929  1.00  0.00     0.051 A 
ATOM     15  C   UNL     1     127.247 129.527 146.552  1.00  0.00     0.157 A 
ATOM     16  C   UNL     1     128.271 128.605 144.552  1.00  0.00     0.062 A 
ATOM     17  C   UNL     1     128.390 129.088 145.864  1.00  0.00     0.158 A 
BRANCH  15  18
ATOM     18  O   UNL     1     127.333 130.017 147.856  1.00  0.00    -0.504 OA
ATOM     19  H   UNL     1     127.601 129.428 148.635  1.00  0.00     0.293 HD
ENDBRANCH  15  18
BRANCH  17  20
ATOM     20  O   UNL     1     129.637 129.127 146.485  1.00  0.00    -0.504 OA
ATOM     21  H   UNL     1     130.346 128.428 146.298  1.00  0.00     0.293 HD
ENDBRANCH  17  20
ENDBRANCH   1  12
BRANCH   2  22
ATOM     22  O   UNL     1     126.504 125.773 143.346  1.00  0.00    -0.502 OA
ATOM     23  H   UNL     1     125.737 125.117 143.434  1.00  0.00     0.293 HD
ENDBRANCH   2  22
BRANCH   6  24
ATOM     24  O   UNL     1     126.409 125.538 138.025  1.00  0.00    -0.507 OA
ATOM     25  H   UNL     1     125.940 125.287 137.168  1.00  0.00     0.293 HD
ENDBRANCH   6  24
BRANCH   8  26
ATOM     26  O   UNL     1     126.963 130.185 136.961  1.00  0.00    -0.508 OA
ATOM     27  H   UNL     1     126.689 131.141 137.158  1.00  0.00     0.293 HD
ENDBRANCH   8  26
TORSDOF 6
ENDMDL
