MODEL 1
REMARK VINA RESULT:    -6.010      0.000      0.000
REMARK INTER + INTRA:         -11.605
REMARK INTER:                  -8.821
REMARK INTRA:                  -2.784
REMARK UNBOUND:                -2.784
REMARK SMILES O=c1c(O[C@@H]2O[C@H](CO)[C@H](O)[C@H](O)[C@@H]2O)c(-c2ccc(O)c(O)c2)oc2cc(O)cc(O)c12
REMARK SMILES IDX 4 1 3 2 16 3 25 4 2 5 26 6 1 7 33 8 27 9 31 10 28 11 30 12
REMARK SMILES IDX 17 13 18 14 19 15 20 16 24 17 22 18 21 19 23 21 32 23 29 25
REMARK SMILES IDX 5 27 14 28 6 29 12 30 7 31 10 32 15 33 13 35 8 37 9 38 11 40
REMARK H PARENT 21 20 23 22 32 24 29 26 15 34 13 36 9 39 11 41
REMARK Flexibility Score: inf
ROOT
ATOM      1  O   UNL     1     -16.927  37.936  -0.423  1.00  0.00    -0.454 OA
ENDROOT
BRANCH   1   2
ATOM      2  C   UNL     1     -16.229  36.941  -1.303  1.00  0.00     0.214 A 
ATOM      3  C   UNL     1     -15.782  36.964  -2.757  1.00  0.00     0.180 A 
ATOM      4  O   UNL     1     -15.177  35.842  -3.255  1.00  0.00    -0.452 OA
ATOM      5  C   UNL     1     -15.968  35.800  -0.731  1.00  0.00     0.239 A 
ATOM      6  C   UNL     1     -14.576  34.897  -2.446  1.00  0.00     0.146 A 
ATOM      7  O   UNL     1     -16.789  35.294  -0.070  1.00  0.00    -0.285 OA
ATOM      8  C   UNL     1     -14.798  35.095  -1.041  1.00  0.00     0.111 A 
ATOM      9  C   UNL     1     -13.574  34.073  -2.908  1.00  0.00     0.094 A 
ATOM     10  C   UNL     1     -13.579  35.259  -0.337  1.00  0.00     0.134 A 
ATOM     11  C   UNL     1     -12.558  33.631  -1.968  1.00  0.00     0.123 A 
ATOM     12  C   UNL     1     -12.561  34.222  -0.628  1.00  0.00     0.093 A 
BRANCH   3  13
ATOM     13  C   UNL     1     -15.561  38.138  -3.740  1.00  0.00     0.025 A 
ATOM     14  C   UNL     1     -16.007  39.360  -3.205  1.00  0.00     0.016 A 
ATOM     15  C   UNL     1     -14.966  40.121  -2.546  1.00  0.00     0.051 A 
ATOM     16  C   UNL     1     -13.897  39.366  -2.108  1.00  0.00     0.157 A 
ATOM     17  C   UNL     1     -14.190  38.231  -4.267  1.00  0.00     0.062 A 
ATOM     18  C   UNL     1     -13.312  38.682  -3.251  1.00  0.00     0.158 A 
BRANCH  16  19
ATOM     19  O   UNL     1     -13.794  38.885  -0.771  1.00  0.00    -0.504 OA
ATOM     20  H   UNL     1     -13.390  39.553  -0.225  1.00  0.00     0.293 HD
ENDBRANCH  16  19
BRANCH  18  21
ATOM     21  O   UNL     1     -11.915  38.845  -3.525  1.00  0.00    -0.504 OA
ATOM     22  H   UNL     1     -11.266  37.967  -3.488  1.00  0.00     0.293 HD
ENDBRANCH  18  21
ENDBRANCH   3  13
BRANCH  10  23
ATOM     23  O   UNL     1     -13.304  36.452   0.384  1.00  0.00    -0.507 OA
ATOM     24  H   UNL     1     -12.594  36.159   1.038  1.00  0.00     0.293 HD
ENDBRANCH  10  23
BRANCH  11  25
ATOM     25  O   UNL     1     -11.529  32.727  -2.259  1.00  0.00    -0.508 OA
ATOM     26  H   UNL     1     -11.726  32.188  -3.040  1.00  0.00     0.293 HD
ENDBRANCH  11  25
ENDBRANCH   1   2
BRANCH   1  27
ATOM     27  C   UNL     1     -16.781  38.282   1.003  1.00  0.00     0.339 C 
ATOM     28  C   UNL     1     -17.832  37.672   2.161  1.00  0.00     0.214 C 
ATOM     29  O   UNL     1     -15.457  38.423   1.449  1.00  0.00    -0.332 OA
ATOM     30  C   UNL     1     -17.282  36.493   3.125  1.00  0.00     0.180 C 
ATOM     31  C   UNL     1     -15.190  37.982   2.812  1.00  0.00     0.179 C 
ATOM     32  C   UNL     1     -15.672  36.451   3.108  1.00  0.00     0.177 C 
BRANCH  28  33
ATOM     33  O   UNL     1     -19.189  37.452   1.921  1.00  0.00    -0.384 OA
ATOM     34  H   UNL     1     -19.476  37.881   1.069  1.00  0.00     0.211 HD
ENDBRANCH  28  33
BRANCH  30  35
ATOM     35  O   UNL     1     -17.811  35.107   3.029  1.00  0.00    -0.387 OA
ATOM     36  H   UNL     1     -17.070  34.422   2.878  1.00  0.00     0.211 HD
ENDBRANCH  30  35
BRANCH  31  37
ATOM     37  C   UNL     1     -13.639  37.884   3.125  1.00  0.00     0.191 C 
BRANCH  37  38
ATOM     38  O   UNL     1     -12.785  38.467   2.233  1.00  0.00    -0.394 OA
ATOM     39  H   UNL     1     -13.414  38.929   1.567  1.00  0.00     0.210 HD
ENDBRANCH  37  38
ENDBRANCH  31  37
BRANCH  32  40
ATOM     40  O   UNL     1     -15.237  35.308   2.353  1.00  0.00    -0.387 OA
ATOM     41  H   UNL     1     -15.317  34.450   2.899  1.00  0.00     0.211 HD
ENDBRANCH  32  40
ENDBRANCH   1  27
TORSDOF 12
ENDMDL
MODEL 2
REMARK VINA RESULT:    -6.000      2.049      6.517
REMARK INTER + INTRA:         -11.590
REMARK INTER:                  -9.461
REMARK INTRA:                  -2.129
REMARK UNBOUND:                -2.784
REMARK SMILES O=c1c(O[C@@H]2O[C@H](CO)[C@H](O)[C@H](O)[C@@H]2O)c(-c2ccc(O)c(O)c2)oc2cc(O)cc(O)c12
REMARK SMILES IDX 4 1 3 2 16 3 25 4 2 5 26 6 1 7 33 8 27 9 31 10 28 11 30 12
REMARK SMILES IDX 17 13 18 14 19 15 20 16 24 17 22 18 21 19 23 21 32 23 29 25
REMARK SMILES IDX 5 27 14 28 6 29 12 30 7 31 10 32 15 33 13 35 8 37 9 38 11 40
REMARK H PARENT 21 20 23 22 32 24 29 26 15 34 13 36 9 39 11 41
REMARK Flexibility Score: inf
ROOT
ATOM      1  O   UNL     1     -14.465  34.401  -2.622  1.00  0.00    -0.454 OA
ENDROOT
BRANCH   1   2
ATOM      2  C   UNL     1     -15.228  35.197  -1.605  1.00  0.00     0.214 A 
ATOM      3  C   UNL     1     -15.016  35.478  -0.124  1.00  0.00     0.180 A 
ATOM      4  O   UNL     1     -15.948  36.249   0.517  1.00  0.00    -0.452 OA
ATOM      5  C   UNL     1     -16.319  35.748  -2.053  1.00  0.00     0.239 A 
ATOM      6  C   UNL     1     -16.791  37.114  -0.155  1.00  0.00     0.146 A 
ATOM      7  O   UNL     1     -17.031  35.123  -2.739  1.00  0.00    -0.285 OA
ATOM      8  C   UNL     1     -16.735  37.001  -1.586  1.00  0.00     0.111 A 
ATOM      9  C   UNL     1     -17.348  38.213   0.460  1.00  0.00     0.094 A 
ATOM     10  C   UNL     1     -16.357  38.225  -2.193  1.00  0.00     0.134 A 
ATOM     11  C   UNL     1     -17.619  39.389  -0.348  1.00  0.00     0.123 A 
ATOM     12  C   UNL     1     -17.129  39.401  -1.729  1.00  0.00     0.093 A 
BRANCH   3  13
ATOM     13  C   UNL     1     -13.762  35.347   0.773  1.00  0.00     0.025 A 
ATOM     14  C   UNL     1     -13.933  35.995   2.010  1.00  0.00     0.016 A 
ATOM     15  C   UNL     1     -14.400  35.121   3.065  1.00  0.00     0.051 A 
ATOM     16  C   UNL     1     -15.063  33.994   2.622  1.00  0.00     0.157 A 
ATOM     17  C   UNL     1     -13.280  33.966   0.933  1.00  0.00     0.062 A 
ATOM     18  C   UNL     1     -14.168  33.237   1.761  1.00  0.00     0.158 A 
BRANCH  16  19
ATOM     19  O   UNL     1     -16.483  33.928   2.528  1.00  0.00    -0.504 OA
ATOM     20  H   UNL     1     -16.806  34.696   2.067  1.00  0.00     0.293 HD
ENDBRANCH  16  19
BRANCH  18  21
ATOM     21  O   UNL     1     -13.912  31.859   2.058  1.00  0.00    -0.504 OA
ATOM     22  H   UNL     1     -14.292  31.442   2.993  1.00  0.00     0.293 HD
ENDBRANCH  18  21
ENDBRANCH   3  13
BRANCH  10  23
ATOM     23  O   UNL     1     -15.181  38.318  -2.984  1.00  0.00    -0.507 OA
ATOM     24  H   UNL     1     -15.055  39.313  -3.082  1.00  0.00     0.293 HD
ENDBRANCH  10  23
BRANCH  11  25
ATOM     25  O   UNL     1     -18.259  40.549   0.105  1.00  0.00    -0.508 OA
ATOM     26  H   UNL     1     -19.180  40.382   0.361  1.00  0.00     0.293 HD
ENDBRANCH  11  25
ENDBRANCH   1   2
BRANCH   1  27
ATOM     27  C   UNL     1     -13.149  34.596  -3.259  1.00  0.00     0.339 C 
ATOM     28  C   UNL     1     -12.739  36.054  -3.985  1.00  0.00     0.214 C 
ATOM     29  O   UNL     1     -12.076  33.952  -2.622  1.00  0.00    -0.332 OA
ATOM     30  C   UNL     1     -11.705  37.018  -3.197  1.00  0.00     0.180 C 
ATOM     31  C   UNL     1     -10.801  34.657  -2.645  1.00  0.00     0.179 C 
ATOM     32  C   UNL     1     -10.892  36.186  -2.082  1.00  0.00     0.177 C 
BRANCH  28  33
ATOM     33  O   UNL     1     -13.658  36.853  -4.667  1.00  0.00    -0.384 OA
ATOM     34  H   UNL     1     -13.217  37.350  -5.410  1.00  0.00     0.211 HD
ENDBRANCH  28  33
BRANCH  30  35
ATOM     35  O   UNL     1     -12.146  38.315  -2.618  1.00  0.00    -0.387 OA
ATOM     36  H   UNL     1     -11.424  38.741  -2.035  1.00  0.00     0.211 HD
ENDBRANCH  30  35
BRANCH  31  37
ATOM     37  C   UNL     1      -9.740  34.025  -1.652  1.00  0.00     0.191 C 
BRANCH  37  38
ATOM     38  O   UNL     1     -10.078  33.973  -0.330  1.00  0.00    -0.394 OA
ATOM     39  H   UNL     1      -9.557  33.161   0.018  1.00  0.00     0.210 HD
ENDBRANCH  37  38
ENDBRANCH  31  37
BRANCH  32  40
ATOM     40  O   UNL     1     -11.383  36.538  -0.778  1.00  0.00    -0.387 OA
ATOM     41  H   UNL     1     -12.401  36.475  -0.734  1.00  0.00     0.211 HD
ENDBRANCH  32  40
ENDBRANCH   1  27
TORSDOF 12
ENDMDL
MODEL 3
REMARK VINA RESULT:    -5.983      1.490      2.100
REMARK INTER + INTRA:         -11.565
REMARK INTER:                  -9.474
REMARK INTRA:                  -2.091
REMARK UNBOUND:                -2.784
REMARK SMILES O=c1c(O[C@@H]2O[C@H](CO)[C@H](O)[C@H](O)[C@@H]2O)c(-c2ccc(O)c(O)c2)oc2cc(O)cc(O)c12
REMARK SMILES IDX 4 1 3 2 16 3 25 4 2 5 26 6 1 7 33 8 27 9 31 10 28 11 30 12
REMARK SMILES IDX 17 13 18 14 19 15 20 16 24 17 22 18 21 19 23 21 32 23 29 25
REMARK SMILES IDX 5 27 14 28 6 29 12 30 7 31 10 32 15 33 13 35 8 37 9 38 11 40
REMARK H PARENT 21 20 23 22 32 24 29 26 15 34 13 36 9 39 11 41
REMARK Flexibility Score: inf
ROOT
ATOM      1  O   UNL     1     -16.814  36.840  -0.634  1.00  0.00    -0.454 OA
ENDROOT
BRANCH   1   2
ATOM      2  C   UNL     1     -15.613  36.549  -1.486  1.00  0.00     0.214 A 
ATOM      3  C   UNL     1     -14.382  37.359  -1.869  1.00  0.00     0.180 A 
ATOM      4  O   UNL     1     -13.472  36.775  -2.706  1.00  0.00    -0.452 OA
ATOM      5  C   UNL     1     -15.618  35.376  -2.050  1.00  0.00     0.239 A 
ATOM      6  C   UNL     1     -13.377  35.406  -2.868  1.00  0.00     0.146 A 
ATOM      7  O   UNL     1     -16.604  34.986  -2.542  1.00  0.00    -0.285 OA
ATOM      8  C   UNL     1     -14.427  34.662  -2.230  1.00  0.00     0.111 A 
ATOM      9  C   UNL     1     -12.211  34.799  -3.278  1.00  0.00     0.094 A 
ATOM     10  C   UNL     1     -13.915  33.746  -1.276  1.00  0.00     0.134 A 
ATOM     11  C   UNL     1     -11.929  33.456  -2.802  1.00  0.00     0.123 A 
ATOM     12  C   UNL     1     -12.815  32.891  -1.780  1.00  0.00     0.093 A 
BRANCH   3  13
ATOM     13  C   UNL     1     -13.753  38.623  -1.236  1.00  0.00     0.025 A 
ATOM     14  C   UNL     1     -12.410  38.787  -1.621  1.00  0.00     0.016 A 
ATOM     15  C   UNL     1     -12.234  39.650  -2.769  1.00  0.00     0.051 A 
ATOM     16  C   UNL     1     -13.346  39.755  -3.580  1.00  0.00     0.157 A 
ATOM     17  C   UNL     1     -14.540  39.850  -1.436  1.00  0.00     0.062 A 
ATOM     18  C   UNL     1     -14.453  40.265  -2.787  1.00  0.00     0.158 A 
BRANCH  16  19
ATOM     19  O   UNL     1     -13.521  38.958  -4.748  1.00  0.00    -0.504 OA
ATOM     20  H   UNL     1     -14.085  39.417  -5.364  1.00  0.00     0.293 HD
ENDBRANCH  16  19
BRANCH  18  21
ATOM     21  O   UNL     1     -15.147  41.439  -3.228  1.00  0.00    -0.504 OA
ATOM     22  H   UNL     1     -15.655  41.419  -4.194  1.00  0.00     0.293 HD
ENDBRANCH  18  21
ENDBRANCH   3  13
BRANCH  10  23
ATOM     23  O   UNL     1     -14.277  33.837   0.095  1.00  0.00    -0.507 OA
ATOM     24  H   UNL     1     -14.907  33.058   0.211  1.00  0.00     0.293 HD
ENDBRANCH  10  23
BRANCH  11  25
ATOM     25  O   UNL     1     -10.836  32.673  -3.194  1.00  0.00    -0.508 OA
ATOM     26  H   UNL     1     -10.949  32.310  -4.086  1.00  0.00     0.293 HD
ENDBRANCH  11  25
ENDBRANCH   1   2
BRANCH   1  27
ATOM     27  C   UNL     1     -16.969  37.144   0.801  1.00  0.00     0.339 C 
ATOM     28  C   UNL     1     -17.514  35.983   1.885  1.00  0.00     0.214 C 
ATOM     29  O   UNL     1     -16.006  38.017   1.333  1.00  0.00    -0.332 OA
ATOM     30  C   UNL     1     -16.423  35.313   2.874  1.00  0.00     0.180 C 
ATOM     31  C   UNL     1     -15.597  37.758   2.707  1.00  0.00     0.179 C 
ATOM     32  C   UNL     1     -15.099  36.226   2.961  1.00  0.00     0.177 C 
BRANCH  28  33
ATOM     33  O   UNL     1     -18.467  35.018   1.556  1.00  0.00    -0.384 OA
ATOM     34  H   UNL     1     -18.052  34.261   1.058  1.00  0.00     0.211 HD
ENDBRANCH  28  33
BRANCH  30  35
ATOM     35  O   UNL     1     -16.028  33.886   2.735  1.00  0.00    -0.387 OA
ATOM     36  H   UNL     1     -15.254  33.763   2.082  1.00  0.00     0.211 HD
ENDBRANCH  30  35
BRANCH  31  37
ATOM     37  C   UNL     1     -14.304  38.577   3.119  1.00  0.00     0.191 C 
BRANCH  37  38
ATOM     38  O   UNL     1     -13.250  38.556   2.250  1.00  0.00    -0.394 OA
ATOM     39  H   UNL     1     -12.522  38.055   2.769  1.00  0.00     0.210 HD
ENDBRANCH  37  38
ENDBRANCH  31  37
BRANCH  32  40
ATOM     40  O   UNL     1     -14.037  35.590   2.229  1.00  0.00    -0.387 OA
ATOM     41  H   UNL     1     -13.947  35.983   1.291  1.00  0.00     0.211 HD
ENDBRANCH  32  40
ENDBRANCH   1  27
TORSDOF 12
ENDMDL
MODEL 4
REMARK VINA RESULT:    -5.907      1.420      1.562
REMARK INTER + INTRA:         -11.454
REMARK INTER:                  -8.649
REMARK INTRA:                  -2.805
REMARK UNBOUND:                -2.784
REMARK SMILES O=c1c(O[C@@H]2O[C@H](CO)[C@H](O)[C@H](O)[C@@H]2O)c(-c2ccc(O)c(O)c2)oc2cc(O)cc(O)c12
REMARK SMILES IDX 4 1 3 2 16 3 25 4 2 5 26 6 1 7 33 8 27 9 31 10 28 11 30 12
REMARK SMILES IDX 17 13 18 14 19 15 20 16 24 17 22 18 21 19 23 21 32 23 29 25
REMARK SMILES IDX 5 27 14 28 6 29 12 30 7 31 10 32 15 33 13 35 8 37 9 38 11 40
REMARK H PARENT 21 20 23 22 32 24 29 26 15 34 13 36 9 39 11 41
REMARK Flexibility Score: inf
ROOT
ATOM      1  O   UNL     1     -16.752  36.771  -0.588  1.00  0.00    -0.454 OA
ENDROOT
BRANCH   1   2
ATOM      2  C   UNL     1     -15.663  36.345  -1.530  1.00  0.00     0.214 A 
ATOM      3  C   UNL     1     -15.343  36.682  -2.979  1.00  0.00     0.180 A 
ATOM      4  O   UNL     1     -14.255  36.077  -3.547  1.00  0.00    -0.452 OA
ATOM      5  C   UNL     1     -14.823  35.482  -1.034  1.00  0.00     0.239 A 
ATOM      6  C   UNL     1     -13.221  35.546  -2.801  1.00  0.00     0.146 A 
ATOM      7  O   UNL     1     -15.234  34.583  -0.409  1.00  0.00    -0.285 OA
ATOM      8  C   UNL     1     -13.468  35.517  -1.386  1.00  0.00     0.111 A 
ATOM      9  C   UNL     1     -11.951  35.402  -3.313  1.00  0.00     0.094 A 
ATOM     10  C   UNL     1     -12.495  36.259  -0.670  1.00  0.00     0.134 A 
ATOM     11  C   UNL     1     -10.825  35.508  -2.402  1.00  0.00     0.123 A 
ATOM     12  C   UNL     1     -11.094  35.932  -1.026  1.00  0.00     0.093 A 
BRANCH   3  13
ATOM     13  C   UNL     1     -15.804  37.850  -3.882  1.00  0.00     0.025 A 
ATOM     14  C   UNL     1     -16.824  38.608  -3.278  1.00  0.00     0.016 A 
ATOM     15  C   UNL     1     -16.341  39.765  -2.556  1.00  0.00     0.051 A 
ATOM     16  C   UNL     1     -15.024  39.675  -2.149  1.00  0.00     0.157 A 
ATOM     17  C   UNL     1     -14.707  38.696  -4.378  1.00  0.00     0.062 A 
ATOM     18  C   UNL     1     -14.187  39.483  -3.322  1.00  0.00     0.158 A 
BRANCH  16  19
ATOM     19  O   UNL     1     -14.654  39.242  -0.842  1.00  0.00    -0.504 OA
ATOM     20  H   UNL     1     -15.334  38.675  -0.492  1.00  0.00     0.293 HD
ENDBRANCH  16  19
BRANCH  18  21
ATOM     21  O   UNL     1     -13.100  40.385  -3.562  1.00  0.00    -0.504 OA
ATOM     22  H   UNL     1     -12.136  39.977  -3.874  1.00  0.00     0.293 HD
ENDBRANCH  18  21
ENDBRANCH   3  13
BRANCH  10  23
ATOM     23  O   UNL     1     -12.865  37.375   0.128  1.00  0.00    -0.507 OA
ATOM     24  H   UNL     1     -13.275  38.003  -0.545  1.00  0.00     0.293 HD
ENDBRANCH  10  23
BRANCH  11  25
ATOM     25  O   UNL     1      -9.484  35.300  -2.749  1.00  0.00    -0.508 OA
ATOM     26  H   UNL     1      -9.340  35.366  -3.706  1.00  0.00     0.293 HD
ENDBRANCH  11  25
ENDBRANCH   1   2
BRANCH   1  27
ATOM     27  C   UNL     1     -16.764  37.056   0.859  1.00  0.00     0.339 C 
ATOM     28  C   UNL     1     -17.323  35.924   1.966  1.00  0.00     0.214 C 
ATOM     29  O   UNL     1     -15.686  37.827   1.324  1.00  0.00    -0.332 OA
ATOM     30  C   UNL     1     -16.221  35.137   2.853  1.00  0.00     0.180 C 
ATOM     31  C   UNL     1     -15.194  37.503   2.656  1.00  0.00     0.179 C 
ATOM     32  C   UNL     1     -14.817  35.927   2.846  1.00  0.00     0.177 C 
BRANCH  28  33
ATOM     33  O   UNL     1     -18.382  35.055   1.702  1.00  0.00    -0.384 OA
ATOM     34  H   UNL     1     -19.229  35.558   1.554  1.00  0.00     0.211 HD
ENDBRANCH  28  33
BRANCH  30  35
ATOM     35  O   UNL     1     -15.969  33.684   2.661  1.00  0.00    -0.387 OA
ATOM     36  H   UNL     1     -15.209  33.509   2.002  1.00  0.00     0.211 HD
ENDBRANCH  30  35
BRANCH  31  37
ATOM     37  C   UNL     1     -13.803  38.194   2.974  1.00  0.00     0.191 C 
BRANCH  37  38
ATOM     38  O   UNL     1     -12.721  37.375   3.125  1.00  0.00    -0.394 OA
ATOM     39  H   UNL     1     -12.175  37.833   3.862  1.00  0.00     0.210 HD
ENDBRANCH  37  38
ENDBRANCH  31  37
BRANCH  32  40
ATOM     40  O   UNL     1     -13.879  35.216   2.020  1.00  0.00    -0.387 OA
ATOM     41  H   UNL     1     -13.781  35.658   1.104  1.00  0.00     0.211 HD
ENDBRANCH  32  40
ENDBRANCH   1  27
TORSDOF 12
ENDMDL
MODEL 5
REMARK VINA RESULT:    -5.710      2.119      6.259
REMARK INTER + INTRA:         -11.165
REMARK INTER:                  -8.399
REMARK INTRA:                  -2.766
REMARK UNBOUND:                -2.784
REMARK SMILES O=c1c(O[C@@H]2O[C@H](CO)[C@H](O)[C@H](O)[C@@H]2O)c(-c2ccc(O)c(O)c2)oc2cc(O)cc(O)c12
REMARK SMILES IDX 4 1 3 2 16 3 25 4 2 5 26 6 1 7 33 8 27 9 31 10 28 11 30 12
REMARK SMILES IDX 17 13 18 14 19 15 20 16 24 17 22 18 21 19 23 21 32 23 29 25
REMARK SMILES IDX 5 27 14 28 6 29 12 30 7 31 10 32 15 33 13 35 8 37 9 38 11 40
REMARK H PARENT 21 20 23 22 32 24 29 26 15 34 13 36 9 39 11 41
REMARK Flexibility Score: inf
ROOT
ATOM      1  O   UNL     1     -12.447  34.449  -0.539  1.00  0.00    -0.454 OA
ENDROOT
BRANCH   1   2
ATOM      2  C   UNL     1     -13.840  34.733  -1.019  1.00  0.00     0.214 A 
ATOM      3  C   UNL     1     -15.200  34.738  -0.336  1.00  0.00     0.180 A 
ATOM      4  O   UNL     1     -16.296  35.027  -1.103  1.00  0.00    -0.452 OA
ATOM      5  C   UNL     1     -13.932  35.004  -2.289  1.00  0.00     0.239 A 
ATOM      6  C   UNL     1     -16.210  35.714  -2.299  1.00  0.00     0.146 A 
ATOM      7  O   UNL     1     -13.333  34.354  -3.055  1.00  0.00    -0.285 OA
ATOM      8  C   UNL     1     -14.867  35.936  -2.757  1.00  0.00     0.111 A 
ATOM      9  C   UNL     1     -17.272  36.428  -2.807  1.00  0.00     0.094 A 
ATOM     10  C   UNL     1     -14.586  37.318  -2.903  1.00  0.00     0.134 A 
ATOM     11  C   UNL     1     -16.989  37.609  -3.604  1.00  0.00     0.123 A 
ATOM     12  C   UNL     1     -15.600  38.069  -3.678  1.00  0.00     0.093 A 
BRANCH   3  13
ATOM     13  C   UNL     1     -15.593  34.809   1.158  1.00  0.00     0.025 A 
ATOM     14  C   UNL     1     -14.472  34.702   2.000  1.00  0.00     0.016 A 
ATOM     15  C   UNL     1     -13.921  35.979   2.403  1.00  0.00     0.051 A 
ATOM     16  C   UNL     1     -14.221  37.024   1.551  1.00  0.00     0.157 A 
ATOM     17  C   UNL     1     -16.436  35.964   1.504  1.00  0.00     0.062 A 
ATOM     18  C   UNL     1     -15.667  37.152   1.466  1.00  0.00     0.158 A 
BRANCH  16  19
ATOM     19  O   UNL     1     -13.334  37.453   0.522  1.00  0.00    -0.504 OA
ATOM     20  H   UNL     1     -12.787  36.722   0.251  1.00  0.00     0.293 HD
ENDBRANCH  16  19
BRANCH  18  21
ATOM     21  O   UNL     1     -16.276  38.416   1.760  1.00  0.00    -0.504 OA
ATOM     22  H   UNL     1     -17.067  38.785   1.103  1.00  0.00     0.293 HD
ENDBRANCH  18  21
ENDBRANCH   3  13
BRANCH  10  23
ATOM     23  O   UNL     1     -13.548  37.937  -2.155  1.00  0.00    -0.507 OA
ATOM     24  H   UNL     1     -12.714  37.588  -2.601  1.00  0.00     0.293 HD
ENDBRANCH  10  23
BRANCH  11  25
ATOM     25  O   UNL     1     -17.949  38.389  -4.260  1.00  0.00    -0.508 OA
ATOM     26  H   UNL     1     -17.608  39.266  -4.497  1.00  0.00     0.293 HD
ENDBRANCH  11  25
ENDBRANCH   1   2
BRANCH   1  27
ATOM     27  C   UNL     1     -11.139  35.049  -0.864  1.00  0.00     0.339 C 
ATOM     28  C   UNL     1     -10.107  34.339  -1.981  1.00  0.00     0.214 C 
ATOM     29  O   UNL     1     -11.113  36.454  -0.871  1.00  0.00    -0.332 OA
ATOM     30  C   UNL     1      -9.987  35.035  -3.437  1.00  0.00     0.180 C 
ATOM     31  C   UNL     1     -10.243  37.072  -1.863  1.00  0.00     0.179 C 
ATOM     32  C   UNL     1     -10.520  36.555  -3.386  1.00  0.00     0.177 C 
BRANCH  28  33
ATOM     33  O   UNL     1      -9.984  32.958  -2.139  1.00  0.00    -0.384 OA
ATOM     34  H   UNL     1      -9.377  32.572  -1.449  1.00  0.00     0.211 HD
ENDBRANCH  28  33
BRANCH  30  35
ATOM     35  O   UNL     1     -10.515  34.370  -4.658  1.00  0.00    -0.387 OA
ATOM     36  H   UNL     1      -9.792  34.232  -5.365  1.00  0.00     0.211 HD
ENDBRANCH  30  35
BRANCH  31  37
ATOM     37  C   UNL     1     -10.505  38.628  -2.013  1.00  0.00     0.191 C 
BRANCH  37  38
ATOM     38  O   UNL     1     -10.969  39.068  -3.220  1.00  0.00    -0.394 OA
ATOM     39  H   UNL     1     -11.821  39.584  -2.975  1.00  0.00     0.210 HD
ENDBRANCH  37  38
ENDBRANCH  31  37
BRANCH  32  40
ATOM     40  O   UNL     1     -11.796  36.631  -4.044  1.00  0.00    -0.387 OA
ATOM     41  H   UNL     1     -12.207  35.704  -4.166  1.00  0.00     0.211 HD
ENDBRANCH  32  40
ENDBRANCH   1  27
TORSDOF 12
ENDMDL
MODEL 6
REMARK VINA RESULT:    -5.647      1.890      5.960
REMARK INTER + INTRA:         -11.072
REMARK INTER:                  -8.587
REMARK INTRA:                  -2.485
REMARK UNBOUND:                -2.784
REMARK SMILES O=c1c(O[C@@H]2O[C@H](CO)[C@H](O)[C@H](O)[C@@H]2O)c(-c2ccc(O)c(O)c2)oc2cc(O)cc(O)c12
REMARK SMILES IDX 4 1 3 2 16 3 25 4 2 5 26 6 1 7 33 8 27 9 31 10 28 11 30 12
REMARK SMILES IDX 17 13 18 14 19 15 20 16 24 17 22 18 21 19 23 21 32 23 29 25
REMARK SMILES IDX 5 27 14 28 6 29 12 30 7 31 10 32 15 33 13 35 8 37 9 38 11 40
REMARK H PARENT 21 20 23 22 32 24 29 26 15 34 13 36 9 39 11 41
REMARK Flexibility Score: inf
ROOT
ATOM      1  O   UNL     1     -14.431  37.748  -3.802  1.00  0.00    -0.454 OA
ENDROOT
BRANCH   1   2
ATOM      2  C   UNL     1     -15.233  37.007  -2.772  1.00  0.00     0.214 A 
ATOM      3  C   UNL     1     -15.257  35.557  -2.311  1.00  0.00     0.180 A 
ATOM      4  O   UNL     1     -16.157  35.213  -1.339  1.00  0.00    -0.452 OA
ATOM      5  C   UNL     1     -16.121  37.729  -2.153  1.00  0.00     0.239 A 
ATOM      6  C   UNL     1     -16.714  36.138  -0.477  1.00  0.00     0.146 A 
ATOM      7  O   UNL     1     -16.784  38.468  -2.771  1.00  0.00    -0.285 OA
ATOM      8  C   UNL     1     -16.413  37.504  -0.802  1.00  0.00     0.111 A 
ATOM      9  C   UNL     1     -17.194  35.781   0.764  1.00  0.00     0.094 A 
ATOM     10  C   UNL     1     -15.741  38.159   0.261  1.00  0.00     0.134 A 
ATOM     11  C   UNL     1     -17.122  36.758   1.836  1.00  0.00     0.123 A 
ATOM     12  C   UNL     1     -16.390  38.002   1.583  1.00  0.00     0.093 A 
BRANCH   3  13
ATOM     13  C   UNL     1     -14.226  34.414  -2.476  1.00  0.00     0.025 A 
ATOM     14  C   UNL     1     -13.041  34.863  -3.086  1.00  0.00     0.016 A 
ATOM     15  C   UNL     1     -12.008  35.242  -2.145  1.00  0.00     0.051 A 
ATOM     16  C   UNL     1     -12.476  35.586  -0.892  1.00  0.00     0.157 A 
ATOM     17  C   UNL     1     -13.962  33.661  -1.240  1.00  0.00     0.062 A 
ATOM     18  C   UNL     1     -13.205  34.454  -0.343  1.00  0.00     0.158 A 
BRANCH  16  19
ATOM     19  O   UNL     1     -12.719  36.937  -0.509  1.00  0.00    -0.504 OA
ATOM     20  H   UNL     1     -12.015  37.236   0.059  1.00  0.00     0.293 HD
ENDBRANCH  16  19
BRANCH  18  21
ATOM     21  O   UNL     1     -12.830  33.936   0.940  1.00  0.00    -0.504 OA
ATOM     22  H   UNL     1     -13.448  33.159   1.395  1.00  0.00     0.293 HD
ENDBRANCH  18  21
ENDBRANCH   3  13
BRANCH  10  23
ATOM     23  O   UNL     1     -14.439  38.700   0.081  1.00  0.00    -0.507 OA
ATOM     24  H   UNL     1     -14.629  39.648  -0.205  1.00  0.00     0.293 HD
ENDBRANCH  10  23
BRANCH  11  25
ATOM     25  O   UNL     1     -17.643  36.583   3.124  1.00  0.00    -0.508 OA
ATOM     26  H   UNL     1     -16.963  36.680   3.809  1.00  0.00     0.293 HD
ENDBRANCH  11  25
ENDBRANCH   1   2
BRANCH   1  27
ATOM     27  C   UNL     1     -13.145  38.468  -3.735  1.00  0.00     0.339 C 
ATOM     28  C   UNL     1     -12.698  39.565  -4.925  1.00  0.00     0.214 C 
ATOM     29  O   UNL     1     -12.726  38.823  -2.443  1.00  0.00    -0.332 OA
ATOM     30  C   UNL     1     -12.785  41.140  -4.562  1.00  0.00     0.180 C 
ATOM     31  C   UNL     1     -12.020  40.091  -2.324  1.00  0.00     0.179 C 
ATOM     32  C   UNL     1     -12.833  41.352  -2.966  1.00  0.00     0.177 C 
BRANCH  28  33
ATOM     33  O   UNL     1     -13.017  39.403  -6.273  1.00  0.00    -0.384 OA
ATOM     34  H   UNL     1     -13.938  39.735  -6.465  1.00  0.00     0.211 HD
ENDBRANCH  28  33
BRANCH  30  35
ATOM     35  O   UNL     1     -13.789  42.027  -5.206  1.00  0.00    -0.387 OA
ATOM     36  H   UNL     1     -13.583  43.015  -5.055  1.00  0.00     0.211 HD
ENDBRANCH  30  35
BRANCH  31  37
ATOM     37  C   UNL     1     -11.862  40.559  -0.818  1.00  0.00     0.191 C 
BRANCH  37  38
ATOM     38  O   UNL     1     -11.701  39.584   0.124  1.00  0.00    -0.394 OA
ATOM     39  H   UNL     1     -11.420  38.765  -0.426  1.00  0.00     0.210 HD
ENDBRANCH  37  38
ENDBRANCH  31  37
BRANCH  32  40
ATOM     40  O   UNL     1     -14.163  41.735  -2.580  1.00  0.00    -0.387 OA
ATOM     41  H   UNL     1     -14.154  42.311  -1.737  1.00  0.00     0.211 HD
ENDBRANCH  32  40
ENDBRANCH   1  27
TORSDOF 12
ENDMDL
MODEL 7
REMARK VINA RESULT:    -5.634      1.888      5.202
REMARK INTER + INTRA:         -11.052
REMARK INTER:                  -8.291
REMARK INTRA:                  -2.761
REMARK UNBOUND:                -2.784
REMARK SMILES O=c1c(O[C@@H]2O[C@H](CO)[C@H](O)[C@H](O)[C@@H]2O)c(-c2ccc(O)c(O)c2)oc2cc(O)cc(O)c12
REMARK SMILES IDX 4 1 3 2 16 3 25 4 2 5 26 6 1 7 33 8 27 9 31 10 28 11 30 12
REMARK SMILES IDX 17 13 18 14 19 15 20 16 24 17 22 18 21 19 23 21 32 23 29 25
REMARK SMILES IDX 5 27 14 28 6 29 12 30 7 31 10 32 15 33 13 35 8 37 9 38 11 40
REMARK H PARENT 21 20 23 22 32 24 29 26 15 34 13 36 9 39 11 41
REMARK Flexibility Score: inf
ROOT
ATOM      1  O   UNL     1     -12.940  37.795  -0.889  1.00  0.00    -0.454 OA
ENDROOT
BRANCH   1   2
ATOM      2  C   UNL     1     -14.294  38.109  -0.323  1.00  0.00     0.214 A 
ATOM      3  C   UNL     1     -15.454  38.968  -0.804  1.00  0.00     0.180 A 
ATOM      4  O   UNL     1     -16.561  39.050  -0.003  1.00  0.00    -0.452 OA
ATOM      5  C   UNL     1     -14.537  37.568   0.836  1.00  0.00     0.239 A 
ATOM      6  C   UNL     1     -16.860  38.101   0.955  1.00  0.00     0.146 A 
ATOM      7  O   UNL     1     -13.707  37.590   1.659  1.00  0.00    -0.285 OA
ATOM      8  C   UNL     1     -15.825  37.127   1.166  1.00  0.00     0.111 A 
ATOM      9  C   UNL     1     -18.148  37.890   1.395  1.00  0.00     0.094 A 
ATOM     10  C   UNL     1     -16.287  35.810   0.915  1.00  0.00     0.134 A 
ATOM     11  C   UNL     1     -18.519  36.551   1.819  1.00  0.00     0.123 A 
ATOM     12  C   UNL     1     -17.558  35.469   1.595  1.00  0.00     0.093 A 
BRANCH   3  13
ATOM     13  C   UNL     1     -15.798  39.531  -2.204  1.00  0.00     0.025 A 
ATOM     14  C   UNL     1     -14.738  39.359  -3.112  1.00  0.00     0.016 A 
ATOM     15  C   UNL     1     -14.843  38.156  -3.910  1.00  0.00     0.051 A 
ATOM     16  C   UNL     1     -15.619  37.163  -3.345  1.00  0.00     0.157 A 
ATOM     17  C   UNL     1     -17.077  39.047  -2.748  1.00  0.00     0.062 A 
ATOM     18  C   UNL     1     -16.957  37.688  -3.127  1.00  0.00     0.158 A 
BRANCH  16  19
ATOM     19  O   UNL     1     -15.063  36.094  -2.585  1.00  0.00    -0.504 OA
ATOM     20  H   UNL     1     -15.746  35.462  -2.380  1.00  0.00     0.293 HD
ENDBRANCH  16  19
BRANCH  18  21
ATOM     21  O   UNL     1     -18.081  36.991  -3.680  1.00  0.00    -0.504 OA
ATOM     22  H   UNL     1     -17.955  36.448  -4.619  1.00  0.00     0.293 HD
ENDBRANCH  18  21
ENDBRANCH   3  13
BRANCH  10  23
ATOM     23  O   UNL     1     -15.691  35.005  -0.093  1.00  0.00    -0.507 OA
ATOM     24  H   UNL     1     -15.344  34.215   0.428  1.00  0.00     0.293 HD
ENDBRANCH  10  23
BRANCH  11  25
ATOM     25  O   UNL     1     -19.756  36.194   2.371  1.00  0.00    -0.508 OA
ATOM     26  H   UNL     1     -20.400  36.917   2.322  1.00  0.00     0.293 HD
ENDBRANCH  11  25
ENDBRANCH   1   2
BRANCH   1  27
ATOM     27  C   UNL     1     -12.130  36.562  -0.910  1.00  0.00     0.339 C 
ATOM     28  C   UNL     1     -10.864  36.332   0.168  1.00  0.00     0.214 C 
ATOM     29  O   UNL     1     -12.836  35.390  -1.223  1.00  0.00    -0.332 OA
ATOM     30  C   UNL     1     -11.103  35.303   1.395  1.00  0.00     0.180 C 
ATOM     31  C   UNL     1     -12.402  34.179  -0.540  1.00  0.00     0.179 C 
ATOM     32  C   UNL     1     -12.348  34.330   1.084  1.00  0.00     0.177 C 
BRANCH  28  33
ATOM     33  O   UNL     1     -10.040  37.367   0.611  1.00  0.00    -0.384 OA
ATOM     34  H   UNL     1      -9.165  37.014   0.934  1.00  0.00     0.211 HD
ENDBRANCH  28  33
BRANCH  30  35
ATOM     35  O   UNL     1     -11.192  35.784   2.799  1.00  0.00    -0.387 OA
ATOM     36  H   UNL     1     -10.444  36.439   3.030  1.00  0.00     0.211 HD
ENDBRANCH  30  35
BRANCH  31  37
ATOM     37  C   UNL     1     -13.431  32.985  -0.705  1.00  0.00     0.191 C 
BRANCH  37  38
ATOM     38  O   UNL     1     -13.939  32.438   0.438  1.00  0.00    -0.394 OA
ATOM     39  H   UNL     1     -14.848  32.902   0.543  1.00  0.00     0.210 HD
ENDBRANCH  37  38
ENDBRANCH  31  37
BRANCH  32  40
ATOM     40  O   UNL     1     -13.469  34.723   1.895  1.00  0.00    -0.387 OA
ATOM     41  H   UNL     1     -14.314  34.830   1.334  1.00  0.00     0.211 HD
ENDBRANCH  32  40
ENDBRANCH   1  27
TORSDOF 12
ENDMDL
MODEL 8
REMARK VINA RESULT:    -5.629      1.767      3.567
REMARK INTER + INTRA:         -11.046
REMARK INTER:                  -9.071
REMARK INTRA:                  -1.974
REMARK UNBOUND:                -2.784
REMARK SMILES O=c1c(O[C@@H]2O[C@H](CO)[C@H](O)[C@H](O)[C@@H]2O)c(-c2ccc(O)c(O)c2)oc2cc(O)cc(O)c12
REMARK SMILES IDX 4 1 3 2 16 3 25 4 2 5 26 6 1 7 33 8 27 9 31 10 28 11 30 12
REMARK SMILES IDX 17 13 18 14 19 15 20 16 24 17 22 18 21 19 23 21 32 23 29 25
REMARK SMILES IDX 5 27 14 28 6 29 12 30 7 31 10 32 15 33 13 35 8 37 9 38 11 40
REMARK H PARENT 21 20 23 22 32 24 29 26 15 34 13 36 9 39 11 41
REMARK Flexibility Score: inf
ROOT
ATOM      1  O   UNL     1     -16.320  35.750  -0.799  1.00  0.00    -0.454 OA
ENDROOT
BRANCH   1   2
ATOM      2  C   UNL     1     -15.252  36.009  -1.820  1.00  0.00     0.214 A 
ATOM      3  C   UNL     1     -14.536  37.268  -2.289  1.00  0.00     0.180 A 
ATOM      4  O   UNL     1     -13.606  37.138  -3.284  1.00  0.00    -0.452 OA
ATOM      5  C   UNL     1     -14.861  34.954  -2.476  1.00  0.00     0.239 A 
ATOM      6  C   UNL     1     -12.984  35.939  -3.572  1.00  0.00     0.146 A 
ATOM      7  O   UNL     1     -15.663  34.199  -2.868  1.00  0.00    -0.285 OA
ATOM      8  C   UNL     1     -13.525  34.809  -2.869  1.00  0.00     0.111 A 
ATOM      9  C   UNL     1     -11.749  35.885  -4.180  1.00  0.00     0.094 A 
ATOM     10  C   UNL     1     -12.542  34.170  -2.071  1.00  0.00     0.134 A 
ATOM     11  C   UNL     1     -10.872  34.773  -3.860  1.00  0.00     0.123 A 
ATOM     12  C   UNL     1     -11.280  33.866  -2.784  1.00  0.00     0.093 A 
BRANCH   3  13
ATOM     13  C   UNL     1     -14.392  38.664  -1.638  1.00  0.00     0.025 A 
ATOM     14  C   UNL     1     -14.328  39.686  -2.601  1.00  0.00     0.016 A 
ATOM     15  C   UNL     1     -15.608  40.295  -2.892  1.00  0.00     0.051 A 
ATOM     16  C   UNL     1     -16.698  39.498  -2.602  1.00  0.00     0.157 A 
ATOM     17  C   UNL     1     -15.392  38.947  -0.596  1.00  0.00     0.062 A 
ATOM     18  C   UNL     1     -16.661  39.158  -1.189  1.00  0.00     0.158 A 
BRANCH  16  19
ATOM     19  O   UNL     1     -17.343  38.693  -3.586  1.00  0.00    -0.504 OA
ATOM     20  H   UNL     1     -17.369  37.789  -3.288  1.00  0.00     0.293 HD
ENDBRANCH  16  19
BRANCH  18  21
ATOM     21  O   UNL     1     -17.802  39.444  -0.370  1.00  0.00    -0.504 OA
ATOM     22  H   UNL     1     -18.795  39.425  -0.825  1.00  0.00     0.293 HD
ENDBRANCH  18  21
ENDBRANCH   3  13
BRANCH  10  23
ATOM     23  O   UNL     1     -12.696  34.068  -0.662  1.00  0.00    -0.507 OA
ATOM     24  H   UNL     1     -13.691  34.167  -0.538  1.00  0.00     0.293 HD
ENDBRANCH  10  23
BRANCH  11  25
ATOM     25  O   UNL     1      -9.628  34.529  -4.455  1.00  0.00    -0.508 OA
ATOM     26  H   UNL     1      -9.254  33.676  -4.182  1.00  0.00     0.293 HD
ENDBRANCH  11  25
ENDBRANCH   1   2
BRANCH   1  27
ATOM     27  C   UNL     1     -16.269  35.326   0.613  1.00  0.00     0.339 C 
ATOM     28  C   UNL     1     -15.111  35.935   1.666  1.00  0.00     0.214 C 
ATOM     29  O   UNL     1     -17.517  35.089   1.211  1.00  0.00    -0.332 OA
ATOM     30  C   UNL     1     -15.593  37.032   2.754  1.00  0.00     0.180 C 
ATOM     31  C   UNL     1     -17.632  35.446   2.618  1.00  0.00     0.179 C 
ATOM     32  C   UNL     1     -17.193  36.985   2.938  1.00  0.00     0.177 C 
BRANCH  28  33
ATOM     33  O   UNL     1     -13.808  36.243   1.273  1.00  0.00    -0.384 OA
ATOM     34  H   UNL     1     -13.273  35.415   1.128  1.00  0.00     0.211 HD
ENDBRANCH  28  33
BRANCH  30  35
ATOM     35  O   UNL     1     -15.149  38.449   2.672  1.00  0.00    -0.387 OA
ATOM     36  H   UNL     1     -14.314  38.558   2.094  1.00  0.00     0.211 HD
ENDBRANCH  30  35
BRANCH  31  37
ATOM     37  C   UNL     1     -19.134  35.442   3.125  1.00  0.00     0.191 C 
BRANCH  37  38
ATOM     38  O   UNL     1     -20.025  34.681   2.424  1.00  0.00    -0.394 OA
ATOM     39  H   UNL     1     -20.876  34.723   2.995  1.00  0.00     0.210 HD
ENDBRANCH  37  38
ENDBRANCH  31  37
BRANCH  32  40
ATOM     40  O   UNL     1     -17.775  38.138   2.308  1.00  0.00    -0.387 OA
ATOM     41  H   UNL     1     -17.060  38.736   1.893  1.00  0.00     0.211 HD
ENDBRANCH  32  40
ENDBRANCH   1  27
TORSDOF 12
ENDMDL
MODEL 9
REMARK VINA RESULT:    -5.507      1.724      5.125
REMARK INTER + INTRA:         -10.866
REMARK INTER:                  -8.964
REMARK INTRA:                  -1.903
REMARK UNBOUND:                -2.784
REMARK SMILES O=c1c(O[C@@H]2O[C@H](CO)[C@H](O)[C@H](O)[C@@H]2O)c(-c2ccc(O)c(O)c2)oc2cc(O)cc(O)c12
REMARK SMILES IDX 4 1 3 2 16 3 25 4 2 5 26 6 1 7 33 8 27 9 31 10 28 11 30 12
REMARK SMILES IDX 17 13 18 14 19 15 20 16 24 17 22 18 21 19 23 21 32 23 29 25
REMARK SMILES IDX 5 27 14 28 6 29 12 30 7 31 10 32 15 33 13 35 8 37 9 38 11 40
REMARK H PARENT 21 20 23 22 32 24 29 26 15 34 13 36 9 39 11 41
REMARK Flexibility Score: inf
ROOT
ATOM      1  O   UNL     1     -15.568  36.122  -0.966  1.00  0.00    -0.454 OA
ENDROOT
BRANCH   1   2
ATOM      2  C   UNL     1     -14.352  36.591  -1.708  1.00  0.00     0.214 A 
ATOM      3  C   UNL     1     -13.182  35.870  -2.361  1.00  0.00     0.180 A 
ATOM      4  O   UNL     1     -12.209  36.634  -2.946  1.00  0.00    -0.452 OA
ATOM      5  C   UNL     1     -14.236  37.885  -1.797  1.00  0.00     0.239 A 
ATOM      6  C   UNL     1     -12.425  37.937  -3.350  1.00  0.00     0.146 A 
ATOM      7  O   UNL     1     -14.450  38.542  -0.854  1.00  0.00    -0.285 OA
ATOM      8  C   UNL     1     -13.692  38.479  -2.943  1.00  0.00     0.111 A 
ATOM      9  C   UNL     1     -11.676  38.526  -4.345  1.00  0.00     0.094 A 
ATOM     10  C   UNL     1     -14.470  38.884  -4.057  1.00  0.00     0.134 A 
ATOM     11  C   UNL     1     -12.308  39.534  -5.177  1.00  0.00     0.123 A 
ATOM     12  C   UNL     1     -13.750  39.743  -5.025  1.00  0.00     0.093 A 
BRANCH   3  13
ATOM     13  C   UNL     1     -13.009  34.399  -2.809  1.00  0.00     0.025 A 
ATOM     14  C   UNL     1     -11.654  34.042  -2.923  1.00  0.00     0.016 A 
ATOM     15  C   UNL     1     -11.113  33.419  -1.733  1.00  0.00     0.051 A 
ATOM     16  C   UNL     1     -11.796  33.721  -0.571  1.00  0.00     0.157 A 
ATOM     17  C   UNL     1     -13.770  33.432  -2.002  1.00  0.00     0.062 A 
ATOM     18  C   UNL     1     -13.179  33.299  -0.722  1.00  0.00     0.158 A 
BRANCH  16  19
ATOM     19  O   UNL     1     -11.386  34.763   0.311  1.00  0.00    -0.504 OA
ATOM     20  H   UNL     1     -12.121  35.021   0.858  1.00  0.00     0.293 HD
ENDBRANCH  16  19
BRANCH  18  21
ATOM     21  O   UNL     1     -13.751  32.414   0.249  1.00  0.00    -0.504 OA
ATOM     22  H   UNL     1     -14.667  31.876  -0.004  1.00  0.00     0.293 HD
ENDBRANCH  18  21
ENDBRANCH   3  13
BRANCH  10  23
ATOM     23  O   UNL     1     -15.740  38.301  -4.313  1.00  0.00    -0.507 OA
ATOM     24  H   UNL     1     -15.690  37.428  -3.813  1.00  0.00     0.293 HD
ENDBRANCH  10  23
BRANCH  11  25
ATOM     25  O   UNL     1     -11.662  40.284  -6.167  1.00  0.00    -0.508 OA
ATOM     26  H   UNL     1     -10.962  39.778  -6.610  1.00  0.00     0.293 HD
ENDBRANCH  11  25
ENDBRANCH   1   2
BRANCH   1  27
ATOM     27  C   UNL     1     -15.777  35.669   0.422  1.00  0.00     0.339 C 
ATOM     28  C   UNL     1     -14.789  36.201   1.671  1.00  0.00     0.214 C 
ATOM     29  O   UNL     1     -17.119  35.483   0.793  1.00  0.00    -0.332 OA
ATOM     30  C   UNL     1     -15.399  37.300   2.691  1.00  0.00     0.180 C 
ATOM     31  C   UNL     1     -17.455  35.820   2.170  1.00  0.00     0.179 C 
ATOM     32  C   UNL     1     -17.007  37.329   2.600  1.00  0.00     0.177 C 
BRANCH  28  33
ATOM     33  O   UNL     1     -13.426  36.451   1.513  1.00  0.00    -0.384 OA
ATOM     34  H   UNL     1     -13.193  37.372   1.817  1.00  0.00     0.211 HD
ENDBRANCH  28  33
BRANCH  30  35
ATOM     35  O   UNL     1     -14.883  38.695   2.723  1.00  0.00    -0.387 OA
ATOM     36  H   UNL     1     -14.182  38.830   3.452  1.00  0.00     0.211 HD
ENDBRANCH  30  35
BRANCH  31  37
ATOM     37  C   UNL     1     -19.020  35.880   2.415  1.00  0.00     0.191 C 
BRANCH  37  38
ATOM     38  O   UNL     1     -19.747  34.775   2.076  1.00  0.00    -0.394 OA
ATOM     39  H   UNL     1     -20.658  35.161   1.808  1.00  0.00     0.210 HD
ENDBRANCH  37  38
ENDBRANCH  31  37
BRANCH  32  40
ATOM     40  O   UNL     1     -17.420  38.521   1.911  1.00  0.00    -0.387 OA
ATOM     41  H   UNL     1     -18.111  38.312   1.189  1.00  0.00     0.211 HD
ENDBRANCH  32  40
ENDBRANCH   1  27
TORSDOF 12
ENDMDL
