MODEL 1
REMARK VINA RESULT:    -2.084      0.000      0.000
REMARK INTER + INTRA:          -2.192
REMARK INTER:                  -2.510
REMARK INTRA:                   0.318
REMARK UNBOUND:                 0.318
REMARK SMILES O=c1c(O)c(-c2ccc(O)c(O)c2)oc2cc(O)cc(O)c12
REMARK SMILES IDX 5 1 3 2 2 3 1 4 22 5 20 6 19 7 17 8 16 9 15 10 14 11 6 12
REMARK SMILES IDX 7 13 8 14 9 15 13 16 11 17 10 18 12 20 4 22 21 24 18 26
REMARK H PARENT 10 19 12 21 4 23 21 25 18 27
REMARK Flexibility Score: inf
ROOT
ATOM      1  C   UNL     1     -32.410   0.085 -26.759  1.00  0.00     0.180 A 
ATOM      2  C   UNL     1     -31.975   0.397 -25.455  1.00  0.00     0.208 A 
ATOM      3  C   UNL     1     -31.872   1.745 -25.079  1.00  0.00     0.238 A 
ATOM      4  O   UNL     1     -31.494   2.036 -23.911  1.00  0.00    -0.285 OA
ATOM      5  C   UNL     1     -32.184   2.755 -26.012  1.00  0.00     0.111 A 
ATOM      6  C   UNL     1     -32.101   4.137 -25.715  1.00  0.00     0.134 A 
ATOM      7  C   UNL     1     -32.420   5.082 -26.702  1.00  0.00     0.093 A 
ATOM      8  C   UNL     1     -32.816   4.673 -27.977  1.00  0.00     0.123 A 
ATOM      9  C   UNL     1     -32.900   3.310 -28.277  1.00  0.00     0.094 A 
ATOM     10  C   UNL     1     -32.589   2.353 -27.307  1.00  0.00     0.146 A 
ATOM     11  O   UNL     1     -32.680   1.064 -27.617  1.00  0.00    -0.452 OA
ENDROOT
BRANCH   1  12
ATOM     12  C   UNL     1     -32.562  -1.312 -27.223  1.00  0.00     0.025 A 
ATOM     13  C   UNL     1     -32.564  -1.585 -28.601  1.00  0.00     0.016 A 
ATOM     14  C   UNL     1     -32.727  -2.893 -29.063  1.00  0.00     0.051 A 
ATOM     15  C   UNL     1     -32.908  -3.945 -28.155  1.00  0.00     0.157 A 
ATOM     16  C   UNL     1     -32.765  -2.368 -26.317  1.00  0.00     0.062 A 
ATOM     17  C   UNL     1     -32.931  -3.682 -26.780  1.00  0.00     0.158 A 
BRANCH  15  18
ATOM     18  O   UNL     1     -33.069  -5.252 -28.612  1.00  0.00    -0.504 OA
ATOM     19  H   UNL     1     -32.843  -6.049 -28.029  1.00  0.00     0.293 HD
ENDBRANCH  15  18
BRANCH  17  20
ATOM     20  O   UNL     1     -33.124  -4.728 -25.880  1.00  0.00    -0.504 OA
ATOM     21  H   UNL     1     -32.354  -5.309 -25.568  1.00  0.00     0.293 HD
ENDBRANCH  17  20
ENDBRANCH   1  12
BRANCH   2  22
ATOM     22  O   UNL     1     -31.626  -0.622 -24.565  1.00  0.00    -0.502 OA
ATOM     23  H   UNL     1     -30.913  -1.309 -24.780  1.00  0.00     0.293 HD
ENDBRANCH   2  22
BRANCH   6  24
ATOM     24  O   UNL     1     -31.707   4.577 -24.450  1.00  0.00    -0.507 OA
ATOM     25  H   UNL     1     -30.941   5.229 -24.328  1.00  0.00     0.293 HD
ENDBRANCH   6  24
BRANCH   8  26
ATOM     26  O   UNL     1     -33.125   5.632 -28.939  1.00  0.00    -0.508 OA
ATOM     27  H   UNL     1     -32.576   5.729 -29.786  1.00  0.00     0.293 HD
ENDBRANCH   8  26
TORSDOF 6
ENDMDL
MODEL 2
REMARK VINA RESULT:    -1.684     19.100     21.358
REMARK INTER + INTRA:          -1.711
REMARK INTER:                  -1.398
REMARK INTRA:                  -0.313
REMARK UNBOUND:                 0.318
REMARK SMILES O=c1c(O)c(-c2ccc(O)c(O)c2)oc2cc(O)cc(O)c12
REMARK SMILES IDX 5 1 3 2 2 3 1 4 22 5 20 6 19 7 17 8 16 9 15 10 14 11 6 12
REMARK SMILES IDX 7 13 8 14 9 15 13 16 11 17 10 18 12 20 4 22 21 24 18 26
REMARK H PARENT 10 19 12 21 4 23 21 25 18 27
REMARK Flexibility Score: inf
ROOT
ATOM      1  C   UNL     1     -17.591 -12.822 -21.907  1.00  0.00     0.180 A 
ATOM      2  C   UNL     1     -18.874 -12.627 -22.455  1.00  0.00     0.208 A 
ATOM      3  C   UNL     1     -19.024 -12.632 -23.850  1.00  0.00     0.238 A 
ATOM      4  O   UNL     1     -20.169 -12.470 -24.353  1.00  0.00    -0.285 OA
ATOM      5  C   UNL     1     -17.891 -12.811 -24.672  1.00  0.00     0.111 A 
ATOM      6  C   UNL     1     -17.955 -12.823 -26.087  1.00  0.00     0.134 A 
ATOM      7  C   UNL     1     -16.781 -12.997 -26.835  1.00  0.00     0.093 A 
ATOM      8  C   UNL     1     -15.548 -13.156 -26.198  1.00  0.00     0.123 A 
ATOM      9  C   UNL     1     -15.479 -13.144 -24.802  1.00  0.00     0.094 A 
ATOM     10  C   UNL     1     -16.638 -12.975 -24.039  1.00  0.00     0.146 A 
ATOM     11  O   UNL     1     -16.544 -12.972 -22.713  1.00  0.00    -0.452 OA
ENDROOT
BRANCH   1  12
ATOM     12  C   UNL     1     -17.356 -12.849 -20.446  1.00  0.00     0.025 A 
ATOM     13  C   UNL     1     -17.362 -14.078 -19.767  1.00  0.00     0.016 A 
ATOM     14  C   UNL     1     -17.164 -14.125 -18.385  1.00  0.00     0.051 A 
ATOM     15  C   UNL     1     -16.973 -12.942 -17.659  1.00  0.00     0.157 A 
ATOM     16  C   UNL     1     -17.185 -11.663 -19.710  1.00  0.00     0.062 A 
ATOM     17  C   UNL     1     -16.987 -11.708 -18.321  1.00  0.00     0.158 A 
BRANCH  15  18
ATOM     18  O   UNL     1     -16.772 -12.985 -16.281  1.00  0.00    -0.504 OA
ATOM     19  H   UNL     1     -17.473 -13.363 -15.654  1.00  0.00     0.293 HD
ENDBRANCH  15  18
BRANCH  17  20
ATOM     20  O   UNL     1     -16.811 -10.533 -17.594  1.00  0.00    -0.504 OA
ATOM     21  H   UNL     1     -16.968  -9.623 -18.011  1.00  0.00     0.293 HD
ENDBRANCH  17  20
ENDBRANCH   1  12
BRANCH   2  22
ATOM     22  O   UNL     1     -19.972 -12.404 -21.620  1.00  0.00    -0.502 OA
ATOM     23  H   UNL     1     -20.325 -11.475 -21.424  1.00  0.00     0.293 HD
ENDBRANCH   2  22
BRANCH   6  24
ATOM     24  O   UNL     1     -19.172 -12.666 -26.753  1.00  0.00    -0.507 OA
ATOM     25  H   UNL     1     -19.590 -13.421 -27.282  1.00  0.00     0.293 HD
ENDBRANCH   6  24
BRANCH   8  26
ATOM     26  O   UNL     1     -14.397 -13.325 -26.964  1.00  0.00    -0.508 OA
ATOM     27  H   UNL     1     -14.098 -14.242 -27.277  1.00  0.00     0.293 HD
ENDBRANCH   8  26
TORSDOF 6
ENDMDL
MODEL 3
REMARK VINA RESULT:    -0.487     19.363     21.742
REMARK INTER + INTRA:          -0.269
REMARK INTER:                  -0.048
REMARK INTRA:                  -0.221
REMARK UNBOUND:                 0.318
REMARK SMILES O=c1c(O)c(-c2ccc(O)c(O)c2)oc2cc(O)cc(O)c12
REMARK SMILES IDX 5 1 3 2 2 3 1 4 22 5 20 6 19 7 17 8 16 9 15 10 14 11 6 12
REMARK SMILES IDX 7 13 8 14 9 15 13 16 11 17 10 18 12 20 4 22 21 24 18 26
REMARK H PARENT 10 19 12 21 4 23 21 25 18 27
REMARK Flexibility Score: inf
ROOT
ATOM      1  C   UNL     1     -16.513 -12.426 -21.617  1.00  0.00     0.180 A 
ATOM      2  C   UNL     1     -15.210 -12.590 -22.128  1.00  0.00     0.208 A 
ATOM      3  C   UNL     1     -15.038 -12.745 -23.512  1.00  0.00     0.238 A 
ATOM      4  O   UNL     1     -13.876 -12.881 -23.981  1.00  0.00    -0.285 OA
ATOM      5  C   UNL     1     -16.167 -12.753 -24.358  1.00  0.00     0.111 A 
ATOM      6  C   UNL     1     -16.080 -12.908 -25.763  1.00  0.00     0.134 A 
ATOM      7  C   UNL     1     -17.251 -12.914 -26.536  1.00  0.00     0.093 A 
ATOM      8  C   UNL     1     -18.502 -12.771 -25.933  1.00  0.00     0.123 A 
ATOM      9  C   UNL     1     -18.595 -12.617 -24.546  1.00  0.00     0.094 A 
ATOM     10  C   UNL     1     -17.439 -12.606 -23.759  1.00  0.00     0.146 A 
ATOM     11  O   UNL     1     -17.555 -12.454 -22.444  1.00  0.00    -0.452 OA
ENDROOT
BRANCH   1  12
ATOM     12  C   UNL     1     -16.774 -12.239 -20.173  1.00  0.00     0.025 A 
ATOM     13  C   UNL     1     -17.155 -10.974 -19.698  1.00  0.00     0.016 A 
ATOM     14  C   UNL     1     -17.386 -10.769 -18.335  1.00  0.00     0.051 A 
ATOM     15  C   UNL     1     -17.222 -11.822 -17.425  1.00  0.00     0.157 A 
ATOM     16  C   UNL     1     -16.591 -13.287 -19.254  1.00  0.00     0.062 A 
ATOM     17  C   UNL     1     -16.820 -13.083 -17.884  1.00  0.00     0.158 A 
BRANCH  15  18
ATOM     18  O   UNL     1     -17.454 -11.623 -16.066  1.00  0.00    -0.504 OA
ATOM     19  H   UNL     1     -17.669 -10.706 -15.693  1.00  0.00     0.293 HD
ENDBRANCH  15  18
BRANCH  17  20
ATOM     20  O   UNL     1     -16.645 -14.124 -16.975  1.00  0.00    -0.504 OA
ATOM     21  H   UNL     1     -16.650 -13.961 -15.975  1.00  0.00     0.293 HD
ENDBRANCH  17  20
ENDBRANCH   1  12
BRANCH   2  22
ATOM     22  O   UNL     1     -14.113 -12.627 -21.263  1.00  0.00    -0.502 OA
ATOM     23  H   UNL     1     -13.158 -12.597 -21.597  1.00  0.00     0.293 HD
ENDBRANCH   2  22
BRANCH   6  24
ATOM     24  O   UNL     1     -14.844 -13.054 -26.395  1.00  0.00    -0.507 OA
ATOM     25  H   UNL     1     -14.704 -12.779 -27.359  1.00  0.00     0.293 HD
ENDBRANCH   6  24
BRANCH   8  26
ATOM     26  O   UNL     1     -19.650 -12.783 -26.723  1.00  0.00    -0.508 OA
ATOM     27  H   UNL     1     -19.649 -12.410 -27.665  1.00  0.00     0.293 HD
ENDBRANCH   8  26
TORSDOF 6
ENDMDL
