MODEL 1
REMARK VINA RESULT:    -4.154      0.000      0.000
REMARK INTER + INTRA:          -8.048
REMARK INTER:                  -7.068
REMARK INTRA:                  -0.979
REMARK UNBOUND:                -0.979
REMARK SMILES CCCCCCCCCCCCCC(=O)[O-]
REMARK SMILES IDX 8 1 9 2 10 3 11 4 12 5 13 6 14 7 15 8 16 9 7 10 6 11 5 12
REMARK SMILES IDX 4 13 3 14 2 15 1 16
REMARK H PARENT
REMARK Flexibility Score: inf
ROOT
ATOM      1  C   UNL     1     -15.276   6.451  29.764  1.00  0.00     0.000 C 
ENDROOT
BRANCH   1   2
ATOM      2  C   UNL     1     -16.366   6.499  30.846  1.00  0.00     0.000 C 
BRANCH   2   3
ATOM      3  C   UNL     1     -16.493   5.179  31.629  1.00  0.00     0.000 C 
BRANCH   3   4
ATOM      4  C   UNL     1     -15.164   4.452  31.900  1.00  0.00     0.000 C 
BRANCH   4   5
ATOM      5  C   UNL     1     -15.338   2.937  32.101  1.00  0.00     0.006 C 
BRANCH   5   6
ATOM      6  C   UNL     1     -16.435   2.611  33.123  1.00  0.00     0.053 C 
BRANCH   6   7
ATOM      7  C   UNL     1     -16.135   1.355  33.883  1.00  0.00     0.041 C 
ATOM      8  O   UNL     1     -16.171   0.238  33.301  1.00  0.00    -0.550 OA
ATOM      9  O   UNL     1     -15.846   1.414  35.240  1.00  0.00    -0.550 OA
ENDBRANCH   6   7
ENDBRANCH   5   6
ENDBRANCH   4   5
ENDBRANCH   3   4
ENDBRANCH   2   3
ENDBRANCH   1   2
BRANCH   1  10
ATOM     10  C   UNL     1     -14.888   7.868  29.314  1.00  0.00     0.000 C 
BRANCH  10  11
ATOM     11  C   UNL     1     -13.726   7.877  28.305  1.00  0.00    -0.000 C 
BRANCH  11  12
ATOM     12  C   UNL     1     -12.741   9.053  28.451  1.00  0.00    -0.000 C 
BRANCH  12  13
ATOM     13  C   UNL     1     -11.373   8.692  29.057  1.00  0.00    -0.000 C 
BRANCH  13  14
ATOM     14  C   UNL     1     -10.975   7.228  28.802  1.00  0.00    -0.000 C 
BRANCH  14  15
ATOM     15  C   UNL     1     -10.657   6.470  30.100  1.00  0.00    -0.003 C 
ATOM     16  C   UNL     1     -11.763   5.493  30.502  1.00  0.00     0.004 C 
ENDBRANCH  14  15
ENDBRANCH  13  14
ENDBRANCH  12  13
ENDBRANCH  11  12
ENDBRANCH  10  11
ENDBRANCH   1  10
TORSDOF 12
ENDMDL
MODEL 2
REMARK VINA RESULT:    -4.045      1.212      2.486
REMARK INTER + INTRA:          -7.863
REMARK INTER:                  -6.575
REMARK INTRA:                  -1.287
REMARK UNBOUND:                -0.979
REMARK SMILES CCCCCCCCCCCCCC(=O)[O-]
REMARK SMILES IDX 8 1 9 2 10 3 11 4 12 5 13 6 14 7 15 8 16 9 7 10 6 11 5 12
REMARK SMILES IDX 4 13 3 14 2 15 1 16
REMARK H PARENT
REMARK Flexibility Score: inf
ROOT
ATOM      1  C   UNL     1     -13.540   7.458  28.474  1.00  0.00     0.000 C 
ENDROOT
BRANCH   1   2
ATOM      2  C   UNL     1     -14.816   7.592  29.320  1.00  0.00     0.000 C 
BRANCH   2   3
ATOM      3  C   UNL     1     -15.374   6.234  29.786  1.00  0.00     0.000 C 
BRANCH   3   4
ATOM      4  C   UNL     1     -16.539   6.319  30.789  1.00  0.00     0.000 C 
BRANCH   4   5
ATOM      5  C   UNL     1     -16.560   5.147  31.785  1.00  0.00     0.006 C 
BRANCH   5   6
ATOM      6  C   UNL     1     -15.204   4.435  31.870  1.00  0.00     0.053 C 
BRANCH   6   7
ATOM      7  C   UNL     1     -15.296   3.146  32.629  1.00  0.00     0.041 C 
ATOM      8  O   UNL     1     -15.903   3.103  33.732  1.00  0.00    -0.550 OA
ATOM      9  O   UNL     1     -14.686   2.000  32.134  1.00  0.00    -0.550 OA
ENDBRANCH   6   7
ENDBRANCH   5   6
ENDBRANCH   4   5
ENDBRANCH   3   4
ENDBRANCH   2   3
ENDBRANCH   1   2
BRANCH   1  10
ATOM     10  C   UNL     1     -12.752   8.776  28.458  1.00  0.00     0.000 C 
BRANCH  10  11
ATOM     11  C   UNL     1     -11.234   8.563  28.320  1.00  0.00    -0.000 C 
BRANCH  11  12
ATOM     12  C   UNL     1     -10.518   8.102  29.605  1.00  0.00    -0.000 C 
BRANCH  12  13
ATOM     13  C   UNL     1      -9.730   6.786  29.481  1.00  0.00    -0.000 C 
BRANCH  13  14
ATOM     14  C   UNL     1      -9.999   5.817  30.646  1.00  0.00    -0.000 C 
BRANCH  14  15
ATOM     15  C   UNL     1     -11.492   5.489  30.804  1.00  0.00    -0.003 C 
ATOM     16  C   UNL     1     -11.954   4.368  29.872  1.00  0.00     0.004 C 
ENDBRANCH  14  15
ENDBRANCH  13  14
ENDBRANCH  12  13
ENDBRANCH  11  12
ENDBRANCH  10  11
ENDBRANCH   1  10
TORSDOF 12
ENDMDL
MODEL 3
REMARK VINA RESULT:    -3.986     21.551     23.441
REMARK INTER + INTRA:          -7.761
REMARK INTER:                  -6.193
REMARK INTRA:                  -1.568
REMARK UNBOUND:                -0.979
REMARK SMILES CCCCCCCCCCCCCC(=O)[O-]
REMARK SMILES IDX 8 1 9 2 10 3 11 4 12 5 13 6 14 7 15 8 16 9 7 10 6 11 5 12
REMARK SMILES IDX 4 13 3 14 2 15 1 16
REMARK H PARENT
REMARK Flexibility Score: inf
ROOT
ATOM      1  C   UNL     1       1.450  -5.623  22.454  1.00  0.00     0.000 C 
ENDROOT
BRANCH   1   2
ATOM      2  C   UNL     1       1.826  -7.056  22.859  1.00  0.00     0.000 C 
BRANCH   2   3
ATOM      3  C   UNL     1       1.313  -8.116  21.866  1.00  0.00     0.000 C 
BRANCH   3   4
ATOM      4  C   UNL     1       2.411  -8.927  21.154  1.00  0.00     0.000 C 
BRANCH   4   5
ATOM      5  C   UNL     1       2.329  -8.830  19.621  1.00  0.00     0.006 C 
BRANCH   5   6
ATOM      6  C   UNL     1       2.534 -10.190  18.943  1.00  0.00     0.053 C 
BRANCH   6   7
ATOM      7  C   UNL     1       1.411 -10.523  18.007  1.00  0.00     0.041 C 
ATOM      8  O   UNL     1       0.226 -10.574  18.434  1.00  0.00    -0.550 OA
ATOM      9  O   UNL     1       1.675 -10.806  16.674  1.00  0.00    -0.550 OA
ENDBRANCH   6   7
ENDBRANCH   5   6
ENDBRANCH   4   5
ENDBRANCH   3   4
ENDBRANCH   2   3
ENDBRANCH   1   2
BRANCH   1  10
ATOM     10  C   UNL     1       2.564  -4.981  21.614  1.00  0.00     0.000 C 
BRANCH  10  11
ATOM     11  C   UNL     1       2.049  -4.397  20.286  1.00  0.00    -0.000 C 
BRANCH  11  12
ATOM     12  C   UNL     1       1.072  -5.301  19.508  1.00  0.00    -0.000 C 
BRANCH  12  13
ATOM     13  C   UNL     1      -0.319  -4.694  19.248  1.00  0.00    -0.000 C 
BRANCH  13  14
ATOM     14  C   UNL     1      -1.398  -5.761  18.998  1.00  0.00    -0.000 C 
BRANCH  14  15
ATOM     15  C   UNL     1      -0.799  -7.134  18.653  1.00  0.00    -0.003 C 
ATOM     16  C   UNL     1      -0.812  -7.425  17.152  1.00  0.00     0.004 C 
ENDBRANCH  14  15
ENDBRANCH  13  14
ENDBRANCH  12  13
ENDBRANCH  11  12
ENDBRANCH  10  11
ENDBRANCH   1  10
TORSDOF 12
ENDMDL
MODEL 4
REMARK VINA RESULT:    -3.979      2.132      3.836
REMARK INTER + INTRA:          -7.750
REMARK INTER:                  -6.711
REMARK INTRA:                  -1.039
REMARK UNBOUND:                -0.979
REMARK SMILES CCCCCCCCCCCCCC(=O)[O-]
REMARK SMILES IDX 8 1 9 2 10 3 11 4 12 5 13 6 14 7 15 8 16 9 7 10 6 11 5 12
REMARK SMILES IDX 4 13 3 14 2 15 1 16
REMARK H PARENT
REMARK Flexibility Score: inf
ROOT
ATOM      1  C   UNL     1     -12.456   8.712  28.219  1.00  0.00     0.000 C 
ENDROOT
BRANCH   1   2
ATOM      2  C   UNL     1     -13.955   8.778  28.550  1.00  0.00     0.000 C 
BRANCH   2   3
ATOM      3  C   UNL     1     -14.532   7.424  29.002  1.00  0.00     0.000 C 
BRANCH   3   4
ATOM      4  C   UNL     1     -15.652   7.512  30.054  1.00  0.00     0.000 C 
BRANCH   4   5
ATOM      5  C   UNL     1     -16.083   6.136  30.588  1.00  0.00     0.006 C 
BRANCH   5   6
ATOM      6  C   UNL     1     -14.908   5.155  30.677  1.00  0.00     0.053 C 
BRANCH   6   7
ATOM      7  C   UNL     1     -15.099   4.152  31.774  1.00  0.00     0.041 C 
ATOM      8  O   UNL     1     -16.169   4.136  32.439  1.00  0.00    -0.550 OA
ATOM      9  O   UNL     1     -14.084   3.255  32.082  1.00  0.00    -0.550 OA
ENDBRANCH   6   7
ENDBRANCH   5   6
ENDBRANCH   4   5
ENDBRANCH   3   4
ENDBRANCH   2   3
ENDBRANCH   1   2
BRANCH   1  10
ATOM     10  C   UNL     1     -11.845   7.389  28.705  1.00  0.00     0.000 C 
BRANCH  10  11
ATOM     11  C   UNL     1     -10.678   7.595  29.687  1.00  0.00    -0.000 C 
BRANCH  11  12
ATOM     12  C   UNL     1     -10.157   6.312  30.365  1.00  0.00    -0.000 C 
BRANCH  12  13
ATOM     13  C   UNL     1     -11.246   5.329  30.833  1.00  0.00    -0.000 C 
BRANCH  13  14
ATOM     14  C   UNL     1     -10.668   4.096  31.548  1.00  0.00    -0.000 C 
BRANCH  14  15
ATOM     15  C   UNL     1      -9.155   4.213  31.791  1.00  0.00    -0.003 C 
ATOM     16  C   UNL     1      -8.514   2.882  32.186  1.00  0.00     0.004 C 
ENDBRANCH  14  15
ENDBRANCH  13  14
ENDBRANCH  12  13
ENDBRANCH  11  12
ENDBRANCH  10  11
ENDBRANCH   1  10
TORSDOF 12
ENDMDL
MODEL 5
REMARK VINA RESULT:    -3.973      3.078      6.911
REMARK INTER + INTRA:          -7.739
REMARK INTER:                  -6.119
REMARK INTRA:                  -1.620
REMARK UNBOUND:                -0.979
REMARK SMILES CCCCCCCCCCCCCC(=O)[O-]
REMARK SMILES IDX 8 1 9 2 10 3 11 4 12 5 13 6 14 7 15 8 16 9 7 10 6 11 5 12
REMARK SMILES IDX 4 13 3 14 2 15 1 16
REMARK H PARENT
REMARK Flexibility Score: inf
ROOT
ATOM      1  C   UNL     1     -15.227   3.313  32.980  1.00  0.00     0.000 C 
ENDROOT
BRANCH   1   2
ATOM      2  C   UNL     1     -16.305   4.139  32.262  1.00  0.00     0.000 C 
BRANCH   2   3
ATOM      3  C   UNL     1     -16.437   3.788  30.768  1.00  0.00     0.000 C 
BRANCH   3   4
ATOM      4  C   UNL     1     -16.472   4.997  29.816  1.00  0.00     0.000 C 
BRANCH   4   5
ATOM      5  C   UNL     1     -15.968   6.293  30.473  1.00  0.00     0.006 C 
BRANCH   5   6
ATOM      6  C   UNL     1     -14.811   6.927  29.692  1.00  0.00     0.053 C 
BRANCH   6   7
ATOM      7  C   UNL     1     -13.710   5.944  29.428  1.00  0.00     0.041 C 
ATOM      8  O   UNL     1     -13.370   5.679  28.244  1.00  0.00    -0.550 OA
ATOM      9  O   UNL     1     -13.083   5.300  30.485  1.00  0.00    -0.550 OA
ENDBRANCH   6   7
ENDBRANCH   5   6
ENDBRANCH   4   5
ENDBRANCH   3   4
ENDBRANCH   2   3
ENDBRANCH   1   2
BRANCH   1  10
ATOM     10  C   UNL     1     -15.746   2.786  34.325  1.00  0.00     0.000 C 
BRANCH  10  11
ATOM     11  C   UNL     1     -15.915   1.256  34.342  1.00  0.00    -0.000 C 
BRANCH  11  12
ATOM     12  C   UNL     1     -17.125   0.721  33.551  1.00  0.00    -0.000 C 
BRANCH  12  13
ATOM     13  C   UNL     1     -16.801   0.169  32.150  1.00  0.00    -0.000 C 
BRANCH  13  14
ATOM     14  C   UNL     1     -15.322  -0.222  31.991  1.00  0.00    -0.000 C 
BRANCH  14  15
ATOM     15  C   UNL     1     -14.700   0.340  30.703  1.00  0.00    -0.003 C 
ATOM     16  C   UNL     1     -13.344   1.005  30.942  1.00  0.00     0.004 C 
ENDBRANCH  14  15
ENDBRANCH  13  14
ENDBRANCH  12  13
ENDBRANCH  11  12
ENDBRANCH  10  11
ENDBRANCH   1  10
TORSDOF 12
ENDMDL
MODEL 6
REMARK VINA RESULT:    -3.897     21.424     23.691
REMARK INTER + INTRA:          -7.610
REMARK INTER:                  -6.282
REMARK INTRA:                  -1.328
REMARK UNBOUND:                -0.979
REMARK SMILES CCCCCCCCCCCCCC(=O)[O-]
REMARK SMILES IDX 8 1 9 2 10 3 11 4 12 5 13 6 14 7 15 8 16 9 7 10 6 11 5 12
REMARK SMILES IDX 4 13 3 14 2 15 1 16
REMARK H PARENT
REMARK Flexibility Score: inf
ROOT
ATOM      1  C   UNL     1       2.233  -9.052  20.824  1.00  0.00     0.000 C 
ENDROOT
BRANCH   1   2
ATOM      2  C   UNL     1       2.917  -7.855  21.501  1.00  0.00     0.000 C 
BRANCH   2   3
ATOM      3  C   UNL     1       2.033  -6.594  21.531  1.00  0.00     0.000 C 
BRANCH   3   4
ATOM      4  C   UNL     1       2.643  -5.389  22.269  1.00  0.00     0.000 C 
BRANCH   4   5
ATOM      5  C   UNL     1       2.821  -4.158  21.364  1.00  0.00     0.006 C 
BRANCH   5   6
ATOM      6  C   UNL     1       1.996  -4.263  20.075  1.00  0.00     0.053 C 
BRANCH   6   7
ATOM      7  C   UNL     1       1.198  -3.020  19.820  1.00  0.00     0.041 C 
ATOM      8  O   UNL     1       1.697  -1.888  20.055  1.00  0.00    -0.550 OA
ATOM      9  O   UNL     1      -0.107  -3.114  19.354  1.00  0.00    -0.550 OA
ENDBRANCH   6   7
ENDBRANCH   5   6
ENDBRANCH   4   5
ENDBRANCH   3   4
ENDBRANCH   2   3
ENDBRANCH   1   2
BRANCH   1  10
ATOM     10  C   UNL     1       3.109  -9.620  19.698  1.00  0.00     0.000 C 
BRANCH  10  11
ATOM     11  C   UNL     1       2.289 -10.307  18.592  1.00  0.00    -0.000 C 
BRANCH  11  12
ATOM     12  C   UNL     1       0.876  -9.731  18.370  1.00  0.00    -0.000 C 
BRANCH  12  13
ATOM     13  C   UNL     1       0.578  -9.259  16.935  1.00  0.00    -0.000 C 
BRANCH  13  14
ATOM     14  C   UNL     1       0.493  -7.728  16.817  1.00  0.00    -0.000 C 
BRANCH  14  15
ATOM     15  C   UNL     1       0.520  -7.030  18.186  1.00  0.00    -0.003 C 
ATOM     16  C   UNL     1      -0.855  -6.517  18.617  1.00  0.00     0.004 C 
ENDBRANCH  14  15
ENDBRANCH  13  14
ENDBRANCH  12  13
ENDBRANCH  11  12
ENDBRANCH  10  11
ENDBRANCH   1  10
TORSDOF 12
ENDMDL
MODEL 7
REMARK VINA RESULT:    -3.887      3.915      6.463
REMARK INTER + INTRA:          -7.593
REMARK INTER:                  -6.390
REMARK INTRA:                  -1.202
REMARK UNBOUND:                -0.979
REMARK SMILES CCCCCCCCCCCCCC(=O)[O-]
REMARK SMILES IDX 8 1 9 2 10 3 11 4 12 5 13 6 14 7 15 8 16 9 7 10 6 11 5 12
REMARK SMILES IDX 4 13 3 14 2 15 1 16
REMARK H PARENT
REMARK Flexibility Score: inf
ROOT
ATOM      1  C   UNL     1     -16.090   5.032  30.247  1.00  0.00     0.000 C 
ENDROOT
BRANCH   1   2
ATOM      2  C   UNL     1     -15.998   6.563  30.329  1.00  0.00     0.000 C 
BRANCH   2   3
ATOM      3  C   UNL     1     -14.719   7.126  29.681  1.00  0.00     0.000 C 
BRANCH   3   4
ATOM      4  C   UNL     1     -14.866   8.527  29.061  1.00  0.00     0.000 C 
BRANCH   4   5
ATOM      5  C   UNL     1     -13.525   9.123  28.602  1.00  0.00     0.006 C 
BRANCH   5   6
ATOM      6  C   UNL     1     -12.694   8.122  27.789  1.00  0.00     0.053 C 
BRANCH   6   7
ATOM      7  C   UNL     1     -11.299   7.990  28.323  1.00  0.00     0.041 C 
ATOM      8  O   UNL     1     -10.525   7.112  27.858  1.00  0.00    -0.550 OA
ATOM      9  O   UNL     1     -10.866   8.815  29.352  1.00  0.00    -0.550 OA
ENDBRANCH   6   7
ENDBRANCH   5   6
ENDBRANCH   4   5
ENDBRANCH   3   4
ENDBRANCH   2   3
ENDBRANCH   1   2
BRANCH   1  10
ATOM     10  C   UNL     1     -16.372   4.425  31.629  1.00  0.00     0.000 C 
BRANCH  10  11
ATOM     11  C   UNL     1     -15.088   4.042  32.387  1.00  0.00    -0.000 C 
BRANCH  11  12
ATOM     12  C   UNL     1     -14.496   2.666  32.020  1.00  0.00    -0.000 C 
BRANCH  12  13
ATOM     13  C   UNL     1     -13.445   2.683  30.895  1.00  0.00    -0.000 C 
BRANCH  13  14
ATOM     14  C   UNL     1     -12.152   3.412  31.300  1.00  0.00    -0.000 C 
BRANCH  14  15
ATOM     15  C   UNL     1     -12.003   4.775  30.606  1.00  0.00    -0.003 C 
ATOM     16  C   UNL     1     -10.821   5.585  31.138  1.00  0.00     0.004 C 
ENDBRANCH  14  15
ENDBRANCH  13  14
ENDBRANCH  12  13
ENDBRANCH  11  12
ENDBRANCH  10  11
ENDBRANCH   1  10
TORSDOF 12
ENDMDL
MODEL 8
REMARK VINA RESULT:    -3.873      4.112      6.774
REMARK INTER + INTRA:          -7.570
REMARK INTER:                  -6.768
REMARK INTRA:                  -0.802
REMARK UNBOUND:                -0.979
REMARK SMILES CCCCCCCCCCCCCC(=O)[O-]
REMARK SMILES IDX 8 1 9 2 10 3 11 4 12 5 13 6 14 7 15 8 16 9 7 10 6 11 5 12
REMARK SMILES IDX 4 13 3 14 2 15 1 16
REMARK H PARENT
REMARK Flexibility Score: inf
ROOT
ATOM      1  C   UNL     1     -10.474   5.592  29.925  1.00  0.00     0.000 C 
ENDROOT
BRANCH   1   2
ATOM      2  C   UNL     1     -10.459   7.124  30.044  1.00  0.00     0.000 C 
BRANCH   2   3
ATOM      3  C   UNL     1     -10.697   7.834  28.698  1.00  0.00     0.000 C 
BRANCH   3   4
ATOM      4  C   UNL     1     -11.780   8.927  28.722  1.00  0.00     0.000 C 
BRANCH   4   5
ATOM      5  C   UNL     1     -13.060   8.520  27.972  1.00  0.00     0.006 C 
BRANCH   5   6
ATOM      6  C   UNL     1     -14.314   8.672  28.842  1.00  0.00     0.053 C 
BRANCH   6   7
ATOM      7  C   UNL     1     -14.750   7.363  29.428  1.00  0.00     0.041 C 
ATOM      8  O   UNL     1     -15.741   7.316  30.204  1.00  0.00    -0.550 OA
ATOM      9  O   UNL     1     -14.045   6.202  29.140  1.00  0.00    -0.550 OA
ENDBRANCH   6   7
ENDBRANCH   5   6
ENDBRANCH   4   5
ENDBRANCH   3   4
ENDBRANCH   2   3
ENDBRANCH   1   2
BRANCH   1  10
ATOM     10  C   UNL     1     -10.523   4.935  31.313  1.00  0.00     0.000 C 
BRANCH  10  11
ATOM     11  C   UNL     1     -10.097   3.457  31.289  1.00  0.00    -0.000 C 
BRANCH  11  12
ATOM     12  C   UNL     1      -8.845   3.121  32.124  1.00  0.00    -0.000 C 
BRANCH  12  13
ATOM     13  C   UNL     1      -7.938   4.320  32.455  1.00  0.00    -0.000 C 
BRANCH  13  14
ATOM     14  C   UNL     1      -6.732   4.435  31.506  1.00  0.00    -0.000 C 
BRANCH  14  15
ATOM     15  C   UNL     1      -5.704   5.473  31.984  1.00  0.00    -0.003 C 
ATOM     16  C   UNL     1      -5.547   5.493  33.505  1.00  0.00     0.004 C 
ENDBRANCH  14  15
ENDBRANCH  13  14
ENDBRANCH  12  13
ENDBRANCH  11  12
ENDBRANCH  10  11
ENDBRANCH   1  10
TORSDOF 12
ENDMDL
MODEL 9
REMARK VINA RESULT:    -3.845     21.718     23.792
REMARK INTER + INTRA:          -7.521
REMARK INTER:                  -5.600
REMARK INTRA:                  -1.921
REMARK UNBOUND:                -0.979
REMARK SMILES CCCCCCCCCCCCCC(=O)[O-]
REMARK SMILES IDX 8 1 9 2 10 3 11 4 12 5 13 6 14 7 15 8 16 9 7 10 6 11 5 12
REMARK SMILES IDX 4 13 3 14 2 15 1 16
REMARK H PARENT
REMARK Flexibility Score: inf
ROOT
ATOM      1  C   UNL     1      -0.076  -9.519  18.372  1.00  0.00     0.000 C 
ENDROOT
BRANCH   1   2
ATOM      2  C   UNL     1       0.443  -8.518  17.330  1.00  0.00     0.000 C 
BRANCH   2   3
ATOM      3  C   UNL     1       0.549  -7.082  17.875  1.00  0.00     0.000 C 
BRANCH   3   4
ATOM      4  C   UNL     1      -0.458  -6.731  18.986  1.00  0.00     0.000 C 
BRANCH   4   5
ATOM      5  C   UNL     1       0.065  -5.655  19.952  1.00  0.00     0.006 C 
BRANCH   5   6
ATOM      6  C   UNL     1       1.524  -5.279  19.666  1.00  0.00     0.053 C 
BRANCH   6   7
ATOM      7  C   UNL     1       2.197  -4.694  20.871  1.00  0.00     0.041 C 
ATOM      8  O   UNL     1       2.476  -5.425  21.858  1.00  0.00    -0.550 OA
ATOM      9  O   UNL     1       2.489  -3.337  20.915  1.00  0.00    -0.550 OA
ENDBRANCH   6   7
ENDBRANCH   5   6
ENDBRANCH   4   5
ENDBRANCH   3   4
ENDBRANCH   2   3
ENDBRANCH   1   2
BRANCH   1  10
ATOM     10  C   UNL     1       0.870 -10.723  18.495  1.00  0.00     0.000 C 
BRANCH  10  11
ATOM     11  C   UNL     1       2.349 -10.342  18.307  1.00  0.00    -0.000 C 
BRANCH  11  12
ATOM     12  C   UNL     1       3.124 -10.062  19.611  1.00  0.00    -0.000 C 
BRANCH  12  13
ATOM     13  C   UNL     1       2.725  -8.771  20.347  1.00  0.00    -0.000 C 
BRANCH  13  14
ATOM     14  C   UNL     1       2.215  -9.031  21.775  1.00  0.00    -0.000 C 
BRANCH  14  15
ATOM     15  C   UNL     1       0.757  -8.587  21.970  1.00  0.00    -0.003 C 
ATOM     16  C   UNL     1       0.486  -8.044  23.373  1.00  0.00     0.004 C 
ENDBRANCH  14  15
ENDBRANCH  13  14
ENDBRANCH  12  13
ENDBRANCH  11  12
ENDBRANCH  10  11
ENDBRANCH   1  10
TORSDOF 12
ENDMDL
