MODEL 1
REMARK VINA RESULT:    -5.400      0.000      0.000
REMARK INTER + INTRA:         -12.425
REMARK INTER:                 -10.451
REMARK INTRA:                  -1.974
REMARK UNBOUND:                -1.974
REMARK SMILES CCCCCCCCCCCCCCCCCC(=O)[O-]
REMARK SMILES IDX 10 1 11 2 12 3 13 4 14 5 15 6 16 7 17 8 18 9 19 10 20 11
REMARK SMILES IDX 9 12 8 13 7 14 6 15 5 16 4 17 3 18 2 19 1 20
REMARK H PARENT
REMARK Flexibility Score: inf
ROOT
ATOM      1  C   UNL     1     139.392 140.016 113.705  1.00  0.00     0.000 C 
ENDROOT
BRANCH   1   2
ATOM      2  C   UNL     1     139.363 138.550 114.168  1.00  0.00     0.000 C 
BRANCH   2   3
ATOM      3  C   UNL     1     137.954 138.056 114.562  1.00  0.00     0.000 C 
BRANCH   3   4
ATOM      4  C   UNL     1     137.472 136.900 113.669  1.00  0.00     0.000 C 
BRANCH   4   5
ATOM      5  C   UNL     1     136.887 135.730 114.475  1.00  0.00     0.000 C 
BRANCH   5   6
ATOM      6  C   UNL     1     136.506 136.130 115.908  1.00  0.00     0.000 C 
BRANCH   6   7
ATOM      7  C   UNL     1     135.054 135.747 116.218  1.00  0.00     0.006 C 
BRANCH   7   8
ATOM      8  C   UNL     1     134.132 136.085 115.041  1.00  0.00     0.053 C 
BRANCH   8   9
ATOM      9  C   UNL     1     133.318 134.893 114.653  1.00  0.00     0.041 C 
ATOM     10  O   UNL     1     132.424 134.995 113.771  1.00  0.00    -0.550 OA
ATOM     11  O   UNL     1     133.508 133.679 115.304  1.00  0.00    -0.550 OA
ENDBRANCH   8   9
ENDBRANCH   7   8
ENDBRANCH   6   7
ENDBRANCH   5   6
ENDBRANCH   4   5
ENDBRANCH   3   4
ENDBRANCH   2   3
ENDBRANCH   1   2
BRANCH   1  12
ATOM     12  C   UNL     1     140.208 140.219 112.417  1.00  0.00     0.000 C 
BRANCH  12  13
ATOM     13  C   UNL     1     140.761 141.647 112.284  1.00  0.00    -0.000 C 
BRANCH  13  14
ATOM     14  C   UNL     1     140.778 142.401 113.621  1.00  0.00    -0.000 C 
BRANCH  14  15
ATOM     15  C   UNL     1     142.198 142.869 113.970  1.00  0.00    -0.000 C 
BRANCH  15  16
ATOM     16  C   UNL     1     142.761 142.195 115.236  1.00  0.00    -0.000 C 
BRANCH  16  17
ATOM     17  C   UNL     1     142.731 140.655 115.223  1.00  0.00    -0.000 C 
BRANCH  17  18
ATOM     18  C   UNL     1     141.977 140.059 116.423  1.00  0.00    -0.000 C 
BRANCH  18  19
ATOM     19  C   UNL     1     141.270 141.156 117.227  1.00  0.00    -0.003 C 
ATOM     20  C   UNL     1     139.757 140.964 117.209  1.00  0.00     0.004 C 
ENDBRANCH  18  19
ENDBRANCH  17  18
ENDBRANCH  16  17
ENDBRANCH  15  16
ENDBRANCH  14  15
ENDBRANCH  13  14
ENDBRANCH  12  13
ENDBRANCH   1  12
TORSDOF 16
ENDMDL
MODEL 2
REMARK VINA RESULT:    -5.372      3.936      8.240
REMARK INTER + INTRA:         -12.370
REMARK INTER:                  -9.974
REMARK INTRA:                  -2.397
REMARK UNBOUND:                -1.974
REMARK SMILES CCCCCCCCCCCCCCCCCC(=O)[O-]
REMARK SMILES IDX 10 1 11 2 12 3 13 4 14 5 15 6 16 7 17 8 18 9 19 10 20 11
REMARK SMILES IDX 9 12 8 13 7 14 6 15 5 16 4 17 3 18 2 19 1 20
REMARK H PARENT
REMARK Flexibility Score: inf
ROOT
ATOM      1  C   UNL     1     135.092 137.276 113.142  1.00  0.00     0.000 C 
ENDROOT
BRANCH   1   2
ATOM      2  C   UNL     1     136.284 136.991 112.213  1.00  0.00     0.000 C 
BRANCH   2   3
ATOM      3  C   UNL     1     137.587 137.696 112.648  1.00  0.00     0.000 C 
BRANCH   3   4
ATOM      4  C   UNL     1     137.832 137.583 114.162  1.00  0.00     0.000 C 
BRANCH   4   5
ATOM      5  C   UNL     1     138.615 138.779 114.729  1.00  0.00     0.000 C 
BRANCH   5   6
ATOM      6  C   UNL     1     139.152 139.709 113.631  1.00  0.00     0.000 C 
BRANCH   6   7
ATOM      7  C   UNL     1     139.764 140.977 114.238  1.00  0.00     0.006 C 
BRANCH   7   8
ATOM      8  C   UNL     1     139.895 140.852 115.759  1.00  0.00     0.053 C 
BRANCH   8   9
ATOM      9  C   UNL     1     139.921 142.205 116.397  1.00  0.00     0.041 C 
ATOM     10  O   UNL     1     140.371 142.347 117.565  1.00  0.00    -0.550 OA
ATOM     11  O   UNL     1     139.400 143.302 115.721  1.00  0.00    -0.550 OA
ENDBRANCH   8   9
ENDBRANCH   7   8
ENDBRANCH   6   7
ENDBRANCH   5   6
ENDBRANCH   4   5
ENDBRANCH   3   4
ENDBRANCH   2   3
ENDBRANCH   1   2
BRANCH   1  12
ATOM     12  C   UNL     1     133.789 136.617 112.659  1.00  0.00     0.000 C 
BRANCH  12  13
ATOM     13  C   UNL     1     133.891 135.085 112.589  1.00  0.00    -0.000 C 
BRANCH  13  14
ATOM     14  C   UNL     1     133.142 134.389 113.735  1.00  0.00    -0.000 C 
BRANCH  14  15
ATOM     15  C   UNL     1     134.075 133.448 114.510  1.00  0.00    -0.000 C 
BRANCH  15  16
ATOM     16  C   UNL     1     135.546 133.558 114.067  1.00  0.00    -0.000 C 
BRANCH  16  17
ATOM     17  C   UNL     1     136.482 134.249 115.077  1.00  0.00    -0.000 C 
BRANCH  17  18
ATOM     18  C   UNL     1     135.797 134.557 116.418  1.00  0.00    -0.000 C 
BRANCH  18  19
ATOM     19  C   UNL     1     135.746 136.068 116.673  1.00  0.00    -0.003 C 
ATOM     20  C   UNL     1     134.309 136.581 116.654  1.00  0.00     0.004 C 
ENDBRANCH  18  19
ENDBRANCH  17  18
ENDBRANCH  16  17
ENDBRANCH  15  16
ENDBRANCH  14  15
ENDBRANCH  13  14
ENDBRANCH  12  13
ENDBRANCH   1  12
TORSDOF 16
ENDMDL
MODEL 3
REMARK VINA RESULT:    -5.324      4.377      8.862
REMARK INTER + INTRA:         -12.278
REMARK INTER:                 -10.334
REMARK INTRA:                  -1.944
REMARK UNBOUND:                -1.974
REMARK SMILES CCCCCCCCCCCCCCCCCC(=O)[O-]
REMARK SMILES IDX 10 1 11 2 12 3 13 4 14 5 15 6 16 7 17 8 18 9 19 10 20 11
REMARK SMILES IDX 9 12 8 13 7 14 6 15 5 16 4 17 3 18 2 19 1 20
REMARK H PARENT
REMARK Flexibility Score: inf
ROOT
ATOM      1  C   UNL     1     136.155 137.461 113.519  1.00  0.00     0.000 C 
ENDROOT
BRANCH   1   2
ATOM      2  C   UNL     1     137.534 137.134 112.921  1.00  0.00     0.000 C 
BRANCH   2   3
ATOM      3  C   UNL     1     138.378 138.385 112.594  1.00  0.00     0.000 C 
BRANCH   3   4
ATOM      4  C   UNL     1     138.624 139.260 113.835  1.00  0.00     0.000 C 
BRANCH   4   5
ATOM      5  C   UNL     1     140.020 139.050 114.442  1.00  0.00     0.000 C 
BRANCH   5   6
ATOM      6  C   UNL     1     140.647 140.355 114.955  1.00  0.00     0.000 C 
BRANCH   6   7
ATOM      7  C   UNL     1     141.999 140.089 115.626  1.00  0.00     0.006 C 
BRANCH   7   8
ATOM      8  C   UNL     1     143.157 140.539 114.730  1.00  0.00     0.053 C 
BRANCH   8   9
ATOM      9  C   UNL     1     143.042 141.997 114.418  1.00  0.00     0.041 C 
ATOM     10  O   UNL     1     143.029 142.846 115.349  1.00  0.00    -0.550 OA
ATOM     11  O   UNL     1     142.897 142.418 113.101  1.00  0.00    -0.550 OA
ENDBRANCH   8   9
ENDBRANCH   7   8
ENDBRANCH   6   7
ENDBRANCH   5   6
ENDBRANCH   4   5
ENDBRANCH   3   4
ENDBRANCH   2   3
ENDBRANCH   1   2
BRANCH   1  12
ATOM     12  C   UNL     1     136.030 137.045 114.994  1.00  0.00     0.000 C 
BRANCH  12  13
ATOM     13  C   UNL     1     137.122 136.051 115.424  1.00  0.00    -0.000 C 
BRANCH  13  14
ATOM     14  C   UNL     1     136.813 135.380 116.770  1.00  0.00    -0.000 C 
BRANCH  14  15
ATOM     15  C   UNL     1     136.365 133.925 116.569  1.00  0.00    -0.000 C 
BRANCH  15  16
ATOM     16  C   UNL     1     136.504 133.448 115.111  1.00  0.00    -0.000 C 
BRANCH  16  17
ATOM     17  C   UNL     1     135.176 133.114 114.405  1.00  0.00    -0.000 C 
BRANCH  17  18
ATOM     18  C   UNL     1     134.960 133.925 113.117  1.00  0.00    -0.000 C 
BRANCH  18  19
ATOM     19  C   UNL     1     133.625 134.678 113.160  1.00  0.00    -0.003 C 
ATOM     20  C   UNL     1     133.094 134.776 114.587  1.00  0.00     0.004 C 
ENDBRANCH  18  19
ENDBRANCH  17  18
ENDBRANCH  16  17
ENDBRANCH  15  16
ENDBRANCH  14  15
ENDBRANCH  13  14
ENDBRANCH  12  13
ENDBRANCH   1  12
TORSDOF 16
ENDMDL
MODEL 4
REMARK VINA RESULT:    -5.321      1.478      2.661
REMARK INTER + INTRA:         -12.272
REMARK INTER:                 -10.894
REMARK INTRA:                  -1.378
REMARK UNBOUND:                -1.974
REMARK SMILES CCCCCCCCCCCCCCCCCC(=O)[O-]
REMARK SMILES IDX 10 1 11 2 12 3 13 4 14 5 15 6 16 7 17 8 18 9 19 10 20 11
REMARK SMILES IDX 9 12 8 13 7 14 6 15 5 16 4 17 3 18 2 19 1 20
REMARK H PARENT
REMARK Flexibility Score: inf
ROOT
ATOM      1  C   UNL     1     137.939 138.484 114.232  1.00  0.00     0.000 C 
ENDROOT
BRANCH   1   2
ATOM      2  C   UNL     1     136.854 137.537 113.693  1.00  0.00     0.000 C 
BRANCH   2   3
ATOM      3  C   UNL     1     136.131 136.736 114.797  1.00  0.00     0.000 C 
BRANCH   3   4
ATOM      4  C   UNL     1     137.076 135.765 115.526  1.00  0.00     0.000 C 
BRANCH   4   5
ATOM      5  C   UNL     1     136.495 134.347 115.644  1.00  0.00     0.000 C 
BRANCH   5   6
ATOM      6  C   UNL     1     136.065 133.768 114.288  1.00  0.00     0.000 C 
BRANCH   6   7
ATOM      7  C   UNL     1     134.699 133.079 114.394  1.00  0.00     0.006 C 
BRANCH   7   8
ATOM      8  C   UNL     1     133.655 134.018 115.007  1.00  0.00     0.053 C 
BRANCH   8   9
ATOM      9  C   UNL     1     133.015 134.855 113.946  1.00  0.00     0.041 C 
ATOM     10  O   UNL     1     132.198 135.762 114.260  1.00  0.00    -0.550 OA
ATOM     11  O   UNL     1     133.279 134.601 112.605  1.00  0.00    -0.550 OA
ENDBRANCH   8   9
ENDBRANCH   7   8
ENDBRANCH   6   7
ENDBRANCH   5   6
ENDBRANCH   4   5
ENDBRANCH   3   4
ENDBRANCH   2   3
ENDBRANCH   1   2
BRANCH   1  12
ATOM     12  C   UNL     1     138.929 138.937 113.145  1.00  0.00     0.000 C 
BRANCH  12  13
ATOM     13  C   UNL     1     139.751 140.166 113.568  1.00  0.00    -0.000 C 
BRANCH  13  14
ATOM     14  C   UNL     1     139.391 140.662 114.977  1.00  0.00    -0.000 C 
BRANCH  14  15
ATOM     15  C   UNL     1     139.831 142.120 115.175  1.00  0.00    -0.000 C 
BRANCH  15  16
ATOM     16  C   UNL     1     140.528 142.713 113.936  1.00  0.00    -0.000 C 
BRANCH  16  17
ATOM     17  C   UNL     1     142.033 142.993 114.106  1.00  0.00    -0.000 C 
BRANCH  17  18
ATOM     18  C   UNL     1     142.639 142.295 115.334  1.00  0.00    -0.000 C 
BRANCH  18  19
ATOM     19  C   UNL     1     143.212 140.923 114.958  1.00  0.00    -0.003 C 
ATOM     20  C   UNL     1     143.851 140.954 113.573  1.00  0.00     0.004 C 
ENDBRANCH  18  19
ENDBRANCH  17  18
ENDBRANCH  16  17
ENDBRANCH  15  16
ENDBRANCH  14  15
ENDBRANCH  13  14
ENDBRANCH  12  13
ENDBRANCH   1  12
TORSDOF 16
ENDMDL
MODEL 5
REMARK VINA RESULT:    -5.298      1.881      2.661
REMARK INTER + INTRA:         -12.227
REMARK INTER:                 -10.165
REMARK INTRA:                  -2.062
REMARK UNBOUND:                -1.974
REMARK SMILES CCCCCCCCCCCCCCCCCC(=O)[O-]
REMARK SMILES IDX 10 1 11 2 12 3 13 4 14 5 15 6 16 7 17 8 18 9 19 10 20 11
REMARK SMILES IDX 9 12 8 13 7 14 6 15 5 16 4 17 3 18 2 19 1 20
REMARK H PARENT
REMARK Flexibility Score: inf
ROOT
ATOM      1  C   UNL     1     141.420 139.603 114.427  1.00  0.00     0.000 C 
ENDROOT
BRANCH   1   2
ATOM      2  C   UNL     1     140.090 139.896 113.712  1.00  0.00     0.000 C 
BRANCH   2   3
ATOM      3  C   UNL     1     138.855 139.352 114.462  1.00  0.00     0.000 C 
BRANCH   3   4
ATOM      4  C   UNL     1     138.086 138.308 113.634  1.00  0.00     0.000 C 
BRANCH   4   5
ATOM      5  C   UNL     1     137.549 137.150 114.491  1.00  0.00     0.000 C 
BRANCH   5   6
ATOM      6  C   UNL     1     136.028 136.974 114.365  1.00  0.00     0.000 C 
BRANCH   6   7
ATOM      7  C   UNL     1     135.431 136.414 115.661  1.00  0.00     0.006 C 
BRANCH   7   8
ATOM      8  C   UNL     1     136.532 135.930 116.611  1.00  0.00     0.053 C 
BRANCH   8   9
ATOM      9  C   UNL     1     136.399 134.463 116.864  1.00  0.00     0.041 C 
ATOM     10  O   UNL     1     135.889 134.048 117.938  1.00  0.00    -0.550 OA
ATOM     11  O   UNL     1     136.887 133.549 115.936  1.00  0.00    -0.550 OA
ENDBRANCH   8   9
ENDBRANCH   7   8
ENDBRANCH   6   7
ENDBRANCH   5   6
ENDBRANCH   4   5
ENDBRANCH   3   4
ENDBRANCH   2   3
ENDBRANCH   1   2
BRANCH   1  12
ATOM     12  C   UNL     1     142.548 140.558 114.003  1.00  0.00     0.000 C 
BRANCH  12  13
ATOM     13  C   UNL     1     142.021 141.915 113.508  1.00  0.00    -0.000 C 
BRANCH  13  14
ATOM     14  C   UNL     1     141.908 142.952 114.635  1.00  0.00    -0.000 C 
BRANCH  14  15
ATOM     15  C   UNL     1     140.517 143.602 114.645  1.00  0.00    -0.000 C 
BRANCH  15  16
ATOM     16  C   UNL     1     139.591 143.026 115.733  1.00  0.00    -0.000 C 
BRANCH  16  17
ATOM     17  C   UNL     1     140.313 142.392 116.936  1.00  0.00    -0.000 C 
BRANCH  17  18
ATOM     18  C   UNL     1     139.506 141.261 117.594  1.00  0.00    -0.000 C 
BRANCH  18  19
ATOM     19  C   UNL     1     140.358 140.504 118.619  1.00  0.00    -0.003 C 
ATOM     20  C   UNL     1     141.745 140.194 118.062  1.00  0.00     0.004 C 
ENDBRANCH  18  19
ENDBRANCH  17  18
ENDBRANCH  16  17
ENDBRANCH  15  16
ENDBRANCH  14  15
ENDBRANCH  13  14
ENDBRANCH  12  13
ENDBRANCH   1  12
TORSDOF 16
ENDMDL
MODEL 6
REMARK VINA RESULT:    -5.286      1.919      3.551
REMARK INTER + INTRA:         -12.205
REMARK INTER:                 -10.825
REMARK INTRA:                  -1.379
REMARK UNBOUND:                -1.974
REMARK SMILES CCCCCCCCCCCCCCCCCC(=O)[O-]
REMARK SMILES IDX 10 1 11 2 12 3 13 4 14 5 15 6 16 7 17 8 18 9 19 10 20 11
REMARK SMILES IDX 9 12 8 13 7 14 6 15 5 16 4 17 3 18 2 19 1 20
REMARK H PARENT
REMARK Flexibility Score: inf
ROOT
ATOM      1  C   UNL     1     138.028 137.512 113.438  1.00  0.00     0.000 C 
ENDROOT
BRANCH   1   2
ATOM      2  C   UNL     1     137.041 136.458 113.965  1.00  0.00     0.000 C 
BRANCH   2   3
ATOM      3  C   UNL     1     135.583 136.960 114.037  1.00  0.00     0.000 C 
BRANCH   3   4
ATOM      4  C   UNL     1     134.973 136.779 115.438  1.00  0.00     0.000 C 
BRANCH   4   5
ATOM      5  C   UNL     1     133.654 135.990 115.415  1.00  0.00     0.000 C 
BRANCH   5   6
ATOM      6  C   UNL     1     133.632 134.902 114.331  1.00  0.00     0.000 C 
BRANCH   6   7
ATOM      7  C   UNL     1     134.129 133.563 114.888  1.00  0.00     0.006 C 
BRANCH   7   8
ATOM      8  C   UNL     1     135.431 133.132 114.205  1.00  0.00     0.053 C 
BRANCH   8   9
ATOM      9  C   UNL     1     136.479 132.819 115.225  1.00  0.00     0.041 C 
ATOM     10  O   UNL     1     137.081 131.713 115.197  1.00  0.00    -0.550 OA
ATOM     11  O   UNL     1     136.756 133.729 116.239  1.00  0.00    -0.550 OA
ENDBRANCH   8   9
ENDBRANCH   7   8
ENDBRANCH   6   7
ENDBRANCH   5   6
ENDBRANCH   4   5
ENDBRANCH   3   4
ENDBRANCH   2   3
ENDBRANCH   1   2
BRANCH   1  12
ATOM     12  C   UNL     1     138.057 138.786 114.299  1.00  0.00     0.000 C 
BRANCH  12  13
ATOM     13  C   UNL     1     139.303 139.649 114.040  1.00  0.00    -0.000 C 
BRANCH  13  14
ATOM     14  C   UNL     1     139.943 140.167 115.337  1.00  0.00    -0.000 C 
BRANCH  14  15
ATOM     15  C   UNL     1     139.834 141.696 115.429  1.00  0.00    -0.000 C 
BRANCH  15  16
ATOM     16  C   UNL     1     140.347 142.415 114.167  1.00  0.00    -0.000 C 
BRANCH  16  17
ATOM     17  C   UNL     1     141.738 143.061 114.304  1.00  0.00    -0.000 C 
BRANCH  17  18
ATOM     18  C   UNL     1     142.833 142.299 113.541  1.00  0.00    -0.000 C 
BRANCH  18  19
ATOM     19  C   UNL     1     143.437 141.190 114.410  1.00  0.00    -0.003 C 
ATOM     20  C   UNL     1     144.728 140.653 113.799  1.00  0.00     0.004 C 
ENDBRANCH  18  19
ENDBRANCH  17  18
ENDBRANCH  16  17
ENDBRANCH  15  16
ENDBRANCH  14  15
ENDBRANCH  13  14
ENDBRANCH  12  13
ENDBRANCH   1  12
TORSDOF 16
ENDMDL
MODEL 7
REMARK VINA RESULT:    -5.230      3.668      8.521
REMARK INTER + INTRA:         -12.096
REMARK INTER:                 -10.570
REMARK INTRA:                  -1.526
REMARK UNBOUND:                -1.974
REMARK SMILES CCCCCCCCCCCCCCCCCC(=O)[O-]
REMARK SMILES IDX 10 1 11 2 12 3 13 4 14 5 15 6 16 7 17 8 18 9 19 10 20 11
REMARK SMILES IDX 9 12 8 13 7 14 6 15 5 16 4 17 3 18 2 19 1 20
REMARK H PARENT
REMARK Flexibility Score: inf
ROOT
ATOM      1  C   UNL     1     138.939 139.584 114.304  1.00  0.00     0.000 C 
ENDROOT
BRANCH   1   2
ATOM      2  C   UNL     1     139.934 140.265 113.350  1.00  0.00     0.000 C 
BRANCH   2   3
ATOM      3  C   UNL     1     141.236 139.463 113.141  1.00  0.00     0.000 C 
BRANCH   3   4
ATOM      4  C   UNL     1     142.317 140.287 112.420  1.00  0.00     0.000 C 
BRANCH   4   5
ATOM      5  C   UNL     1     142.462 141.707 112.990  1.00  0.00     0.000 C 
BRANCH   5   6
ATOM      6  C   UNL     1     143.319 141.750 114.264  1.00  0.00     0.000 C 
BRANCH   6   7
ATOM      7  C   UNL     1     142.637 142.582 115.356  1.00  0.00     0.006 C 
BRANCH   7   8
ATOM      8  C   UNL     1     141.828 141.690 116.304  1.00  0.00     0.053 C 
BRANCH   8   9
ATOM      9  C   UNL     1     140.439 142.220 116.466  1.00  0.00     0.041 C 
ATOM     10  O   UNL     1     139.685 141.759 117.363  1.00  0.00    -0.550 OA
ATOM     11  O   UNL     1     139.957 143.188 115.591  1.00  0.00    -0.550 OA
ENDBRANCH   8   9
ENDBRANCH   7   8
ENDBRANCH   6   7
ENDBRANCH   5   6
ENDBRANCH   4   5
ENDBRANCH   3   4
ENDBRANCH   2   3
ENDBRANCH   1   2
BRANCH   1  12
ATOM     12  C   UNL     1     138.538 138.173 113.840  1.00  0.00     0.000 C 
BRANCH  12  13
ATOM     13  C   UNL     1     137.357 137.599 114.640  1.00  0.00    -0.000 C 
BRANCH  13  14
ATOM     14  C   UNL     1     137.166 136.092 114.413  1.00  0.00    -0.000 C 
BRANCH  14  15
ATOM     15  C   UNL     1     136.919 135.364 115.742  1.00  0.00    -0.000 C 
BRANCH  15  16
ATOM     16  C   UNL     1     136.510 133.891 115.555  1.00  0.00    -0.000 C 
BRANCH  16  17
ATOM     17  C   UNL     1     135.798 133.575 114.226  1.00  0.00    -0.000 C 
BRANCH  17  18
ATOM     18  C   UNL     1     134.360 133.068 114.420  1.00  0.00    -0.000 C 
BRANCH  18  19
ATOM     19  C   UNL     1     133.493 134.127 115.110  1.00  0.00    -0.003 C 
ATOM     20  C   UNL     1     133.308 135.353 114.220  1.00  0.00     0.004 C 
ENDBRANCH  18  19
ENDBRANCH  17  18
ENDBRANCH  16  17
ENDBRANCH  15  16
ENDBRANCH  14  15
ENDBRANCH  13  14
ENDBRANCH  12  13
ENDBRANCH   1  12
TORSDOF 16
ENDMDL
MODEL 8
REMARK VINA RESULT:    -5.183      1.349      2.326
REMARK INTER + INTRA:         -12.004
REMARK INTER:                  -9.964
REMARK INTRA:                  -2.040
REMARK UNBOUND:                -1.974
REMARK SMILES CCCCCCCCCCCCCCCCCC(=O)[O-]
REMARK SMILES IDX 10 1 11 2 12 3 13 4 14 5 15 6 16 7 17 8 18 9 19 10 20 11
REMARK SMILES IDX 9 12 8 13 7 14 6 15 5 16 4 17 3 18 2 19 1 20
REMARK H PARENT
REMARK Flexibility Score: inf
ROOT
ATOM      1  C   UNL     1     141.204 139.392 113.508  1.00  0.00     0.000 C 
ENDROOT
BRANCH   1   2
ATOM      2  C   UNL     1     139.951 139.711 112.675  1.00  0.00     0.000 C 
BRANCH   2   3
ATOM      3  C   UNL     1     138.815 138.681 112.851  1.00  0.00     0.000 C 
BRANCH   3   4
ATOM      4  C   UNL     1     138.355 138.567 114.314  1.00  0.00     0.000 C 
BRANCH   4   5
ATOM      5  C   UNL     1     137.749 137.193 114.641  1.00  0.00     0.000 C 
BRANCH   5   6
ATOM      6  C   UNL     1     136.996 136.578 113.452  1.00  0.00     0.000 C 
BRANCH   6   7
ATOM      7  C   UNL     1     135.494 136.485 113.742  1.00  0.00     0.006 C 
BRANCH   7   8
ATOM      8  C   UNL     1     135.220 136.532 115.249  1.00  0.00     0.053 C 
BRANCH   8   9
ATOM      9  C   UNL     1     134.373 135.372 115.665  1.00  0.00     0.041 C 
ATOM     10  O   UNL     1     134.724 134.646 116.633  1.00  0.00    -0.550 OA
ATOM     11  O   UNL     1     133.222 135.058 114.951  1.00  0.00    -0.550 OA
ENDBRANCH   8   9
ENDBRANCH   7   8
ENDBRANCH   6   7
ENDBRANCH   5   6
ENDBRANCH   4   5
ENDBRANCH   3   4
ENDBRANCH   2   3
ENDBRANCH   1   2
BRANCH   1  12
ATOM     12  C   UNL     1     142.512 139.685 112.754  1.00  0.00     0.000 C 
BRANCH  12  13
ATOM     13  C   UNL     1     143.354 140.779 113.432  1.00  0.00    -0.000 C 
BRANCH  13  14
ATOM     14  C   UNL     1     143.017 140.946 114.921  1.00  0.00    -0.000 C 
BRANCH  14  15
ATOM     15  C   UNL     1     142.837 142.429 115.280  1.00  0.00    -0.000 C 
BRANCH  15  16
ATOM     16  C   UNL     1     142.008 143.205 114.240  1.00  0.00    -0.000 C 
BRANCH  16  17
ATOM     17  C   UNL     1     140.490 142.954 114.297  1.00  0.00    -0.000 C 
BRANCH  17  18
ATOM     18  C   UNL     1     139.945 142.889 115.733  1.00  0.00    -0.000 C 
BRANCH  18  19
ATOM     19  C   UNL     1     139.471 141.472 116.076  1.00  0.00    -0.003 C 
ATOM     20  C   UNL     1     140.041 141.009 117.414  1.00  0.00     0.004 C 
ENDBRANCH  18  19
ENDBRANCH  17  18
ENDBRANCH  16  17
ENDBRANCH  15  16
ENDBRANCH  14  15
ENDBRANCH  13  14
ENDBRANCH  12  13
ENDBRANCH   1  12
TORSDOF 16
ENDMDL
MODEL 9
REMARK VINA RESULT:    -5.182      4.351      8.998
REMARK INTER + INTRA:         -12.003
REMARK INTER:                  -9.876
REMARK INTRA:                  -2.128
REMARK UNBOUND:                -1.974
REMARK SMILES CCCCCCCCCCCCCCCCCC(=O)[O-]
REMARK SMILES IDX 10 1 11 2 12 3 13 4 14 5 15 6 16 7 17 8 18 9 19 10 20 11
REMARK SMILES IDX 9 12 8 13 7 14 6 15 5 16 4 17 3 18 2 19 1 20
REMARK H PARENT
REMARK Flexibility Score: inf
ROOT
ATOM      1  C   UNL     1     137.254 136.068 114.886  1.00  0.00     0.000 C 
ENDROOT
BRANCH   1   2
ATOM      2  C   UNL     1     137.397 137.587 114.697  1.00  0.00     0.000 C 
BRANCH   2   3
ATOM      3  C   UNL     1     138.346 137.979 113.544  1.00  0.00     0.000 C 
BRANCH   3   4
ATOM      4  C   UNL     1     139.559 138.786 114.037  1.00  0.00     0.000 C 
BRANCH   4   5
ATOM      5  C   UNL     1     139.168 140.162 114.600  1.00  0.00     0.000 C 
BRANCH   5   6
ATOM      6  C   UNL     1     140.031 140.579 115.799  1.00  0.00     0.000 C 
BRANCH   6   7
ATOM      7  C   UNL     1     141.481 140.115 115.621  1.00  0.00     0.006 C 
BRANCH   7   8
ATOM      8  C   UNL     1     142.463 141.261 115.885  1.00  0.00     0.053 C 
BRANCH   8   9
ATOM      9  C   UNL     1     143.044 141.762 114.601  1.00  0.00     0.041 C 
ATOM     10  O   UNL     1     144.097 141.248 114.138  1.00  0.00    -0.550 OA
ATOM     11  O   UNL     1     142.452 142.833 113.941  1.00  0.00    -0.550 OA
ENDBRANCH   8   9
ENDBRANCH   7   8
ENDBRANCH   6   7
ENDBRANCH   5   6
ENDBRANCH   4   5
ENDBRANCH   3   4
ENDBRANCH   2   3
ENDBRANCH   1   2
BRANCH   1  12
ATOM     12  C   UNL     1     136.145 135.692 115.883  1.00  0.00     0.000 C 
BRANCH  12  13
ATOM     13  C   UNL     1     134.871 136.533 115.697  1.00  0.00    -0.000 C 
BRANCH  13  14
ATOM     14  C   UNL     1     133.671 135.693 115.238  1.00  0.00    -0.000 C 
BRANCH  14  15
ATOM     15  C   UNL     1     134.019 134.197 115.224  1.00  0.00    -0.000 C 
BRANCH  15  16
ATOM     16  C   UNL     1     133.923 133.568 113.821  1.00  0.00    -0.000 C 
BRANCH  16  17
ATOM     17  C   UNL     1     134.068 134.559 112.651  1.00  0.00    -0.000 C 
BRANCH  17  18
ATOM     18  C   UNL     1     135.473 134.550 112.026  1.00  0.00    -0.000 C 
BRANCH  18  19
ATOM     19  C   UNL     1     135.833 135.931 111.466  1.00  0.00    -0.003 C 
ATOM     20  C   UNL     1     134.869 136.999 111.973  1.00  0.00     0.004 C 
ENDBRANCH  18  19
ENDBRANCH  17  18
ENDBRANCH  16  17
ENDBRANCH  15  16
ENDBRANCH  14  15
ENDBRANCH  13  14
ENDBRANCH  12  13
ENDBRANCH   1  12
TORSDOF 16
ENDMDL
