MODEL 1
REMARK VINA RESULT:    -7.037      0.000      0.000
REMARK INTER + INTRA:          -8.571
REMARK INTER:                  -8.271
REMARK INTRA:                  -0.300
REMARK UNBOUND:                -0.300
REMARK SMILES O=c1cc(-c2ccc(O)c(O)c2)oc2cc(O)cc(O)c12
REMARK SMILES IDX 4 1 3 2 2 3 1 4 21 5 19 6 18 7 16 8 15 9 14 10 13 11 5 12
REMARK SMILES IDX 6 13 7 14 8 15 12 16 10 17 9 18 11 20 20 22 17 24
REMARK H PARENT 9 19 11 21 20 23 17 25
REMARK Flexibility Score: inf
ROOT
ATOM      1  C   UNL     1      26.592   9.278 -32.595  1.00  0.00     0.138 A 
ATOM      2  C   UNL     1      26.593  10.549 -32.006  1.00  0.00     0.100 A 
ATOM      3  C   UNL     1      27.653  11.423 -32.251  1.00  0.00     0.197 A 
ATOM      4  O   UNL     1      27.598  12.576 -31.753  1.00  0.00    -0.289 OA
ATOM      5  C   UNL     1      28.734  11.007 -33.065  1.00  0.00     0.107 A 
ATOM      6  C   UNL     1      29.885  11.799 -33.357  1.00  0.00     0.134 A 
ATOM      7  C   UNL     1      30.846  11.316 -34.256  1.00  0.00     0.093 A 
ATOM      8  C   UNL     1      30.727  10.049 -34.825  1.00  0.00     0.123 A 
ATOM      9  C   UNL     1      29.632   9.245 -34.507  1.00  0.00     0.094 A 
ATOM     10  C   UNL     1      28.639   9.712 -33.642  1.00  0.00     0.146 A 
ATOM     11  O   UNL     1      27.603   8.922 -33.380  1.00  0.00    -0.456 OA
ENDROOT
BRANCH   1  12
ATOM     12  C   UNL     1      25.491   8.307 -32.365  1.00  0.00     0.021 A 
ATOM     13  C   UNL     1      24.852   8.194 -31.117  1.00  0.00     0.016 A 
ATOM     14  C   UNL     1      23.812   7.278 -30.933  1.00  0.00     0.051 A 
ATOM     15  C   UNL     1      23.388   6.467 -31.993  1.00  0.00     0.157 A 
ATOM     16  C   UNL     1      25.050   7.498 -33.429  1.00  0.00     0.062 A 
ATOM     17  C   UNL     1      24.010   6.580 -33.247  1.00  0.00     0.158 A 
BRANCH  15  18
ATOM     18  O   UNL     1      22.351   5.554 -31.806  1.00  0.00    -0.504 OA
ATOM     19  H   UNL     1      21.586   5.475 -32.466  1.00  0.00     0.293 HD
ENDBRANCH  15  18
BRANCH  17  20
ATOM     20  O   UNL     1      23.609   5.789 -34.324  1.00  0.00    -0.504 OA
ATOM     21  H   UNL     1      24.149   5.729 -35.179  1.00  0.00     0.293 HD
ENDBRANCH  17  20
ENDBRANCH   1  12
BRANCH   6  22
ATOM     22  O   UNL     1      30.145  13.047 -32.783  1.00  0.00    -0.507 OA
ATOM     23  H   UNL     1      29.476  13.598 -32.269  1.00  0.00     0.293 HD
ENDBRANCH   6  22
BRANCH   8  24
ATOM     24  O   UNL     1      31.710   9.595 -35.703  1.00  0.00    -0.508 OA
ATOM     25  H   UNL     1      32.657   9.417 -35.390  1.00  0.00     0.293 HD
ENDBRANCH   8  24
TORSDOF 5
ENDMDL
MODEL 2
REMARK VINA RESULT:    -6.401      1.981      7.120
REMARK INTER + INTRA:          -7.824
REMARK INTER:                  -7.555
REMARK INTRA:                  -0.269
REMARK UNBOUND:                -0.300
REMARK SMILES O=c1cc(-c2ccc(O)c(O)c2)oc2cc(O)cc(O)c12
REMARK SMILES IDX 4 1 3 2 2 3 1 4 21 5 19 6 18 7 16 8 15 9 14 10 13 11 5 12
REMARK SMILES IDX 6 13 7 14 8 15 12 16 10 17 9 18 11 20 20 22 17 24
REMARK H PARENT 9 19 11 21 20 23 17 25
REMARK Flexibility Score: inf
ROOT
ATOM      1  C   UNL     1      26.478   8.557 -32.352  1.00  0.00     0.138 A 
ATOM      2  C   UNL     1      25.112   8.810 -32.542  1.00  0.00     0.100 A 
ATOM      3  C   UNL     1      24.181   7.804 -32.282  1.00  0.00     0.197 A 
ATOM      4  O   UNL     1      22.960   8.079 -32.409  1.00  0.00    -0.289 OA
ATOM      5  C   UNL     1      24.624   6.526 -31.861  1.00  0.00     0.107 A 
ATOM      6  C   UNL     1      23.769   5.414 -31.599  1.00  0.00     0.134 A 
ATOM      7  C   UNL     1      24.315   4.227 -31.093  1.00  0.00     0.093 A 
ATOM      8  C   UNL     1      25.689   4.093 -30.895  1.00  0.00     0.123 A 
ATOM      9  C   UNL     1      26.540   5.157 -31.196  1.00  0.00     0.094 A 
ATOM     10  C   UNL     1      26.022   6.365 -31.669  1.00  0.00     0.146 A 
ATOM     11  O   UNL     1      26.865   7.360 -31.926  1.00  0.00    -0.456 OA
ENDROOT
BRANCH   1  12
ATOM     12  C   UNL     1      27.512   9.590 -32.616  1.00  0.00     0.021 A 
ATOM     13  C   UNL     1      28.588   9.354 -33.491  1.00  0.00     0.016 A 
ATOM     14  C   UNL     1      29.541  10.350 -33.728  1.00  0.00     0.051 A 
ATOM     15  C   UNL     1      29.429  11.598 -33.103  1.00  0.00     0.157 A 
ATOM     16  C   UNL     1      27.400  10.851 -32.002  1.00  0.00     0.062 A 
ATOM     17  C   UNL     1      28.352  11.849 -32.238  1.00  0.00     0.158 A 
BRANCH  15  18
ATOM     18  O   UNL     1      30.382  12.588 -33.341  1.00  0.00    -0.504 OA
ATOM     19  H   UNL     1      30.274  13.528 -32.979  1.00  0.00     0.293 HD
ENDBRANCH  15  18
BRANCH  17  20
ATOM     20  O   UNL     1      28.212  13.082 -31.602  1.00  0.00    -0.504 OA
ATOM     21  H   UNL     1      27.798  13.170 -30.682  1.00  0.00     0.293 HD
ENDBRANCH  17  20
ENDBRANCH   1  12
BRANCH   6  22
ATOM     22  O   UNL     1      22.390   5.411 -31.835  1.00  0.00    -0.507 OA
ATOM     23  H   UNL     1      21.688   5.694 -31.169  1.00  0.00     0.293 HD
ENDBRANCH   6  22
BRANCH   8  24
ATOM     24  O   UNL     1      26.198   2.892 -30.404  1.00  0.00    -0.508 OA
ATOM     25  H   UNL     1      26.352   2.095 -31.011  1.00  0.00     0.293 HD
ENDBRANCH   8  24
TORSDOF 5
ENDMDL
MODEL 3
REMARK VINA RESULT:    -6.391      2.349      7.002
REMARK INTER + INTRA:          -7.811
REMARK INTER:                  -7.513
REMARK INTRA:                  -0.298
REMARK UNBOUND:                -0.300
REMARK SMILES O=c1cc(-c2ccc(O)c(O)c2)oc2cc(O)cc(O)c12
REMARK SMILES IDX 4 1 3 2 2 3 1 4 21 5 19 6 18 7 16 8 15 9 14 10 13 11 5 12
REMARK SMILES IDX 6 13 7 14 8 15 12 16 10 17 9 18 11 20 20 22 17 24
REMARK H PARENT 9 19 11 21 20 23 17 25
REMARK Flexibility Score: inf
ROOT
ATOM      1  C   UNL     1      27.198   8.340 -32.142  1.00  0.00     0.138 A 
ATOM      2  C   UNL     1      25.885   8.820 -32.048  1.00  0.00     0.100 A 
ATOM      3  C   UNL     1      24.922   8.070 -31.369  1.00  0.00     0.197 A 
ATOM      4  O   UNL     1      23.767   8.554 -31.254  1.00  0.00    -0.289 OA
ATOM      5  C   UNL     1      25.271   6.816 -30.813  1.00  0.00     0.107 A 
ATOM      6  C   UNL     1      24.367   5.948 -30.130  1.00  0.00     0.134 A 
ATOM      7  C   UNL     1      24.850   4.775 -29.536  1.00  0.00     0.093 A 
ATOM      8  C   UNL     1      26.191   4.410 -29.651  1.00  0.00     0.123 A 
ATOM      9  C   UNL     1      27.074   5.224 -30.359  1.00  0.00     0.094 A 
ATOM     10  C   UNL     1      26.630   6.418 -30.933  1.00  0.00     0.146 A 
ATOM     11  O   UNL     1      27.507   7.174 -31.584  1.00  0.00    -0.456 OA
ENDROOT
BRANCH   1  12
ATOM     12  C   UNL     1      28.260   9.095 -32.854  1.00  0.00     0.021 A 
ATOM     13  C   UNL     1      28.371  10.494 -32.751  1.00  0.00     0.016 A 
ATOM     14  C   UNL     1      29.388  11.177 -33.425  1.00  0.00     0.051 A 
ATOM     15  C   UNL     1      30.314  10.474 -34.207  1.00  0.00     0.157 A 
ATOM     16  C   UNL     1      29.202   8.396 -33.631  1.00  0.00     0.062 A 
ATOM     17  C   UNL     1      30.220   9.076 -34.308  1.00  0.00     0.158 A 
BRANCH  15  18
ATOM     18  O   UNL     1      31.325  11.159 -34.879  1.00  0.00    -0.504 OA
ATOM     19  H   UNL     1      31.694  10.828 -35.762  1.00  0.00     0.293 HD
ENDBRANCH  15  18
BRANCH  17  20
ATOM     20  O   UNL     1      31.128   8.348 -35.076  1.00  0.00    -0.504 OA
ATOM     21  H   UNL     1      31.283   7.357 -34.931  1.00  0.00     0.293 HD
ENDBRANCH  17  20
ENDBRANCH   1  12
BRANCH   6  22
ATOM     22  O   UNL     1      22.991   6.176 -30.023  1.00  0.00    -0.507 OA
ATOM     23  H   UNL     1      22.285   5.457 -29.991  1.00  0.00     0.293 HD
ENDBRANCH   6  22
BRANCH   8  24
ATOM     24  O   UNL     1      26.633   3.228 -29.059  1.00  0.00    -0.508 OA
ATOM     25  H   UNL     1      27.415   3.219 -28.414  1.00  0.00     0.293 HD
ENDBRANCH   8  24
TORSDOF 5
ENDMDL
MODEL 4
REMARK VINA RESULT:    -6.268     12.983     14.555
REMARK INTER + INTRA:          -7.667
REMARK INTER:                  -7.404
REMARK INTRA:                  -0.264
REMARK UNBOUND:                -0.300
REMARK SMILES O=c1cc(-c2ccc(O)c(O)c2)oc2cc(O)cc(O)c12
REMARK SMILES IDX 4 1 3 2 2 3 1 4 21 5 19 6 18 7 16 8 15 9 14 10 13 11 5 12
REMARK SMILES IDX 6 13 7 14 8 15 12 16 10 17 9 18 11 20 20 22 17 24
REMARK H PARENT 9 19 11 21 20 23 17 25
REMARK Flexibility Score: inf
ROOT
ATOM      1  C   UNL     1      34.953   6.183 -22.369  1.00  0.00     0.138 A 
ATOM      2  C   UNL     1      34.706   7.291 -21.547  1.00  0.00     0.100 A 
ATOM      3  C   UNL     1      33.397   7.739 -21.366  1.00  0.00     0.197 A 
ATOM      4  O   UNL     1      33.202   8.699 -20.578  1.00  0.00    -0.289 OA
ATOM      5  C   UNL     1      32.333   7.094 -22.043  1.00  0.00     0.107 A 
ATOM      6  C   UNL     1      30.962   7.484 -21.963  1.00  0.00     0.134 A 
ATOM      7  C   UNL     1      29.985   6.708 -22.600  1.00  0.00     0.093 A 
ATOM      8  C   UNL     1      30.334   5.593 -23.361  1.00  0.00     0.123 A 
ATOM      9  C   UNL     1      31.676   5.232 -23.489  1.00  0.00     0.094 A 
ATOM     10  C   UNL     1      32.670   5.965 -22.836  1.00  0.00     0.146 A 
ATOM     11  O   UNL     1      33.934   5.577 -22.968  1.00  0.00    -0.456 OA
ENDROOT
BRANCH   1  12
ATOM     12  C   UNL     1      36.327   5.667 -22.598  1.00  0.00     0.021 A 
ATOM     13  C   UNL     1      36.734   4.407 -22.122  1.00  0.00     0.016 A 
ATOM     14  C   UNL     1      38.031   3.943 -22.362  1.00  0.00     0.051 A 
ATOM     15  C   UNL     1      38.939   4.725 -23.086  1.00  0.00     0.157 A 
ATOM     16  C   UNL     1      37.242   6.441 -23.336  1.00  0.00     0.062 A 
ATOM     17  C   UNL     1      38.541   5.980 -23.577  1.00  0.00     0.158 A 
BRANCH  15  18
ATOM     18  O   UNL     1      40.232   4.260 -23.322  1.00  0.00    -0.504 OA
ATOM     19  H   UNL     1      40.406   3.316 -23.648  1.00  0.00     0.293 HD
ENDBRANCH  15  18
BRANCH  17  20
ATOM     20  O   UNL     1      39.420   6.781 -24.304  1.00  0.00    -0.504 OA
ATOM     21  H   UNL     1      40.011   6.405 -25.036  1.00  0.00     0.293 HD
ENDBRANCH  17  20
ENDBRANCH   1  12
BRANCH   6  22
ATOM     22  O   UNL     1      30.509   8.626 -21.295  1.00  0.00    -0.507 OA
ATOM     23  H   UNL     1      30.040   8.626 -20.402  1.00  0.00     0.293 HD
ENDBRANCH   6  22
BRANCH   8  24
ATOM     24  O   UNL     1      29.336   4.854 -23.994  1.00  0.00    -0.508 OA
ATOM     25  H   UNL     1      28.845   4.109 -23.514  1.00  0.00     0.293 HD
ENDBRANCH   8  24
TORSDOF 5
ENDMDL
MODEL 5
REMARK VINA RESULT:    -6.119     13.399     14.687
REMARK INTER + INTRA:          -7.492
REMARK INTER:                  -7.213
REMARK INTRA:                  -0.279
REMARK UNBOUND:                -0.300
REMARK SMILES O=c1cc(-c2ccc(O)c(O)c2)oc2cc(O)cc(O)c12
REMARK SMILES IDX 4 1 3 2 2 3 1 4 21 5 19 6 18 7 16 8 15 9 14 10 13 11 5 12
REMARK SMILES IDX 6 13 7 14 8 15 12 16 10 17 9 18 11 20 20 22 17 24
REMARK H PARENT 9 19 11 21 20 23 17 25
REMARK Flexibility Score: inf
ROOT
ATOM      1  C   UNL     1      34.640   5.016 -22.217  1.00  0.00     0.138 A 
ATOM      2  C   UNL     1      34.769   6.088 -21.322  1.00  0.00     0.100 A 
ATOM      3  C   UNL     1      33.663   6.894 -21.048  1.00  0.00     0.197 A 
ATOM      4  O   UNL     1      33.795   7.813 -20.200  1.00  0.00    -0.289 OA
ATOM      5  C   UNL     1      32.432   6.647 -21.702  1.00  0.00     0.107 A 
ATOM      6  C   UNL     1      31.247   7.423 -21.528  1.00  0.00     0.134 A 
ATOM      7  C   UNL     1      30.060   7.022 -22.154  1.00  0.00     0.093 A 
ATOM      8  C   UNL     1      30.029   5.909 -22.993  1.00  0.00     0.123 A 
ATOM      9  C   UNL     1      31.192   5.171 -23.211  1.00  0.00     0.094 A 
ATOM     10  C   UNL     1      32.384   5.525 -22.573  1.00  0.00     0.146 A 
ATOM     11  O   UNL     1      33.466   4.786 -22.793  1.00  0.00    -0.456 OA
ENDROOT
BRANCH   1  12
ATOM     12  C   UNL     1      35.785   4.128 -22.547  1.00  0.00     0.021 A 
ATOM     13  C   UNL     1      35.624   2.739 -22.700  1.00  0.00     0.016 A 
ATOM     14  C   UNL     1      36.718   1.930 -23.020  1.00  0.00     0.051 A 
ATOM     15  C   UNL     1      37.987   2.494 -23.200  1.00  0.00     0.157 A 
ATOM     16  C   UNL     1      37.060   4.689 -22.741  1.00  0.00     0.062 A 
ATOM     17  C   UNL     1      38.157   3.882 -23.061  1.00  0.00     0.158 A 
BRANCH  15  18
ATOM     18  O   UNL     1      39.076   1.684 -23.518  1.00  0.00    -0.504 OA
ATOM     19  H   UNL     1      40.029   2.007 -23.405  1.00  0.00     0.293 HD
ENDBRANCH  15  18
BRANCH  17  20
ATOM     20  O   UNL     1      39.407   4.475 -23.236  1.00  0.00    -0.504 OA
ATOM     21  H   UNL     1      40.055   4.164 -23.950  1.00  0.00     0.293 HD
ENDBRANCH  17  20
ENDBRANCH   1  12
BRANCH   6  22
ATOM     22  O   UNL     1      31.184   8.600 -20.775  1.00  0.00    -0.507 OA
ATOM     23  H   UNL     1      31.416   8.674 -19.796  1.00  0.00     0.293 HD
ENDBRANCH   6  22
BRANCH   8  24
ATOM     24  O   UNL     1      28.833   5.548 -23.612  1.00  0.00    -0.508 OA
ATOM     25  H   UNL     1      28.543   4.579 -23.679  1.00  0.00     0.293 HD
ENDBRANCH   8  24
TORSDOF 5
ENDMDL
MODEL 6
REMARK VINA RESULT:    -5.975     11.219     11.617
REMARK INTER + INTRA:          -7.323
REMARK INTER:                  -7.054
REMARK INTRA:                  -0.269
REMARK UNBOUND:                -0.300
REMARK SMILES O=c1cc(-c2ccc(O)c(O)c2)oc2cc(O)cc(O)c12
REMARK SMILES IDX 4 1 3 2 2 3 1 4 21 5 19 6 18 7 16 8 15 9 14 10 13 11 5 12
REMARK SMILES IDX 6 13 7 14 8 15 12 16 10 17 9 18 11 20 20 22 17 24
REMARK H PARENT 9 19 11 21 20 23 17 25
REMARK Flexibility Score: inf
ROOT
ATOM      1  C   UNL     1      32.067   6.198 -24.051  1.00  0.00     0.138 A 
ATOM      2  C   UNL     1      31.485   7.128 -23.179  1.00  0.00     0.100 A 
ATOM      3  C   UNL     1      32.243   7.668 -22.139  1.00  0.00     0.197 A 
ATOM      4  O   UNL     1      31.709   8.541 -21.408  1.00  0.00    -0.289 OA
ATOM      5  C   UNL     1      33.582   7.247 -21.952  1.00  0.00     0.107 A 
ATOM      6  C   UNL     1      34.439   7.702 -20.906  1.00  0.00     0.134 A 
ATOM      7  C   UNL     1      35.777   7.288 -20.880  1.00  0.00     0.093 A 
ATOM      8  C   UNL     1      36.272   6.391 -21.826  1.00  0.00     0.123 A 
ATOM      9  C   UNL     1      35.429   5.899 -22.823  1.00  0.00     0.094 A 
ATOM     10  C   UNL     1      34.099   6.321 -22.897  1.00  0.00     0.146 A 
ATOM     11  O   UNL     1      33.335   5.843 -23.873  1.00  0.00    -0.456 OA
ENDROOT
BRANCH   1  12
ATOM     12  C   UNL     1      31.306   5.590 -25.173  1.00  0.00     0.021 A 
ATOM     13  C   UNL     1      30.329   4.601 -24.955  1.00  0.00     0.016 A 
ATOM     14  C   UNL     1      29.622   4.054 -26.029  1.00  0.00     0.051 A 
ATOM     15  C   UNL     1      29.872   4.491 -27.336  1.00  0.00     0.157 A 
ATOM     16  C   UNL     1      31.542   6.032 -26.487  1.00  0.00     0.062 A 
ATOM     17  C   UNL     1      30.836   5.486 -27.565  1.00  0.00     0.158 A 
BRANCH  15  18
ATOM     18  O   UNL     1      29.165   3.942 -28.405  1.00  0.00    -0.504 OA
ATOM     19  H   UNL     1      29.398   4.164 -29.366  1.00  0.00     0.293 HD
ENDBRANCH  15  18
BRANCH  17  20
ATOM     20  O   UNL     1      31.106   5.944 -28.854  1.00  0.00    -0.504 OA
ATOM     21  H   UNL     1      31.569   5.365 -29.545  1.00  0.00     0.293 HD
ENDBRANCH  17  20
ENDBRANCH   1  12
BRANCH   6  22
ATOM     22  O   UNL     1      34.029   8.538 -19.862  1.00  0.00    -0.507 OA
ATOM     23  H   UNL     1      33.190   9.097 -19.864  1.00  0.00     0.293 HD
ENDBRANCH   6  22
BRANCH   8  24
ATOM     24  O   UNL     1      37.605   5.989 -21.760  1.00  0.00    -0.508 OA
ATOM     25  H   UNL     1      38.301   6.358 -22.398  1.00  0.00     0.293 HD
ENDBRANCH   8  24
TORSDOF 5
ENDMDL
MODEL 7
REMARK VINA RESULT:    -5.914     13.855     15.223
REMARK INTER + INTRA:          -7.251
REMARK INTER:                  -6.943
REMARK INTRA:                  -0.308
REMARK UNBOUND:                -0.300
REMARK SMILES O=c1cc(-c2ccc(O)c(O)c2)oc2cc(O)cc(O)c12
REMARK SMILES IDX 4 1 3 2 2 3 1 4 21 5 19 6 18 7 16 8 15 9 14 10 13 11 5 12
REMARK SMILES IDX 6 13 7 14 8 15 12 16 10 17 9 18 11 20 20 22 17 24
REMARK H PARENT 9 19 11 21 20 23 17 25
REMARK Flexibility Score: inf
ROOT
ATOM      1  C   UNL     1      34.117   3.653 -22.025  1.00  0.00     0.138 A 
ATOM      2  C   UNL     1      33.114   2.894 -21.407  1.00  0.00     0.100 A 
ATOM      3  C   UNL     1      31.967   3.528 -20.925  1.00  0.00     0.197 A 
ATOM      4  O   UNL     1      31.061   2.813 -20.426  1.00  0.00    -0.289 OA
ATOM      5  C   UNL     1      31.842   4.934 -21.034  1.00  0.00     0.107 A 
ATOM      6  C   UNL     1      30.734   5.692 -20.549  1.00  0.00     0.134 A 
ATOM      7  C   UNL     1      30.676   7.069 -20.802  1.00  0.00     0.093 A 
ATOM      8  C   UNL     1      31.711   7.723 -21.469  1.00  0.00     0.123 A 
ATOM      9  C   UNL     1      32.822   7.001 -21.903  1.00  0.00     0.094 A 
ATOM     10  C   UNL     1      32.894   5.621 -21.697  1.00  0.00     0.146 A 
ATOM     11  O   UNL     1      33.961   4.967 -22.143  1.00  0.00    -0.456 OA
ENDROOT
BRANCH   1  12
ATOM     12  C   UNL     1      35.359   3.031 -22.552  1.00  0.00     0.021 A 
ATOM     13  C   UNL     1      35.385   1.700 -23.010  1.00  0.00     0.016 A 
ATOM     14  C   UNL     1      36.566   1.145 -23.510  1.00  0.00     0.051 A 
ATOM     15  C   UNL     1      37.738   1.910 -23.568  1.00  0.00     0.157 A 
ATOM     16  C   UNL     1      36.537   3.796 -22.626  1.00  0.00     0.062 A 
ATOM     17  C   UNL     1      37.721   3.243 -23.126  1.00  0.00     0.158 A 
BRANCH  15  18
ATOM     18  O   UNL     1      38.914   1.352 -24.067  1.00  0.00    -0.504 OA
ATOM     19  H   UNL     1      39.623   0.969 -23.452  1.00  0.00     0.293 HD
ENDBRANCH  15  18
BRANCH  17  20
ATOM     20  O   UNL     1      38.870   4.032 -23.173  1.00  0.00    -0.504 OA
ATOM     21  H   UNL     1      38.957   4.889 -22.641  1.00  0.00     0.293 HD
ENDBRANCH  17  20
ENDBRANCH   1  12
BRANCH   6  22
ATOM     22  O   UNL     1      29.683   5.154 -19.801  1.00  0.00    -0.507 OA
ATOM     23  H   UNL     1      28.813   4.816 -20.183  1.00  0.00     0.293 HD
ENDBRANCH   6  22
BRANCH   8  24
ATOM     24  O   UNL     1      31.626   9.097 -21.690  1.00  0.00    -0.508 OA
ATOM     25  H   UNL     1      32.285   9.742 -21.270  1.00  0.00     0.293 HD
ENDBRANCH   8  24
TORSDOF 5
ENDMDL
MODEL 8
REMARK VINA RESULT:    -5.858     13.834     14.405
REMARK INTER + INTRA:          -7.185
REMARK INTER:                  -6.866
REMARK INTRA:                  -0.318
REMARK UNBOUND:                -0.300
REMARK SMILES O=c1cc(-c2ccc(O)c(O)c2)oc2cc(O)cc(O)c12
REMARK SMILES IDX 4 1 3 2 2 3 1 4 21 5 19 6 18 7 16 8 15 9 14 10 13 11 5 12
REMARK SMILES IDX 6 13 7 14 8 15 12 16 10 17 9 18 11 20 20 22 17 24
REMARK H PARENT 9 19 11 21 20 23 17 25
REMARK Flexibility Score: inf
ROOT
ATOM      1  C   UNL     1      34.360   6.265 -22.306  1.00  0.00     0.138 A 
ATOM      2  C   UNL     1      35.310   6.307 -23.336  1.00  0.00     0.100 A 
ATOM      3  C   UNL     1      36.667   6.387 -23.019  1.00  0.00     0.197 A 
ATOM      4  O   UNL     1      37.498   6.367 -23.963  1.00  0.00    -0.289 OA
ATOM      5  C   UNL     1      37.071   6.460 -21.664  1.00  0.00     0.107 A 
ATOM      6  C   UNL     1      38.423   6.579 -21.223  1.00  0.00     0.134 A 
ATOM      7  C   UNL     1      38.708   6.544 -19.852  1.00  0.00     0.093 A 
ATOM      8  C   UNL     1      37.687   6.454 -18.906  1.00  0.00     0.123 A 
ATOM      9  C   UNL     1      36.358   6.388 -19.324  1.00  0.00     0.094 A 
ATOM     10  C   UNL     1      36.044   6.386 -20.686  1.00  0.00     0.146 A 
ATOM     11  O   UNL     1      34.766   6.303 -21.042  1.00  0.00    -0.456 OA
ENDROOT
BRANCH   1  12
ATOM     12  C   UNL     1      32.903   6.182 -22.586  1.00  0.00     0.021 A 
ATOM     13  C   UNL     1      32.404   6.105 -23.900  1.00  0.00     0.016 A 
ATOM     14  C   UNL     1      31.028   6.019 -24.132  1.00  0.00     0.051 A 
ATOM     15  C   UNL     1      30.130   6.000 -23.058  1.00  0.00     0.157 A 
ATOM     16  C   UNL     1      31.995   6.150 -21.512  1.00  0.00     0.062 A 
ATOM     17  C   UNL     1      30.617   6.064 -21.742  1.00  0.00     0.158 A 
BRANCH  15  18
ATOM     18  O   UNL     1      28.759   5.915 -23.293  1.00  0.00    -0.504 OA
ATOM     19  H   UNL     1      28.091   6.441 -22.741  1.00  0.00     0.293 HD
ENDBRANCH  15  18
BRANCH  17  20
ATOM     20  O   UNL     1      29.749   6.045 -20.651  1.00  0.00    -0.504 OA
ATOM     21  H   UNL     1      28.800   6.396 -20.711  1.00  0.00     0.293 HD
ENDBRANCH  17  20
ENDBRANCH   1  12
BRANCH   6  22
ATOM     22  O   UNL     1      39.515   6.754 -22.079  1.00  0.00    -0.507 OA
ATOM     23  H   UNL     1      40.410   7.132 -21.807  1.00  0.00     0.293 HD
ENDBRANCH   6  22
BRANCH   8  24
ATOM     24  O   UNL     1      38.007   6.437 -17.550  1.00  0.00    -0.508 OA
ATOM     25  H   UNL     1      38.305   5.586 -17.087  1.00  0.00     0.293 HD
ENDBRANCH   8  24
TORSDOF 5
ENDMDL
MODEL 9
REMARK VINA RESULT:    -5.803     13.710     14.137
REMARK INTER + INTRA:          -7.120
REMARK INTER:                  -6.826
REMARK INTRA:                  -0.294
REMARK UNBOUND:                -0.300
REMARK SMILES O=c1cc(-c2ccc(O)c(O)c2)oc2cc(O)cc(O)c12
REMARK SMILES IDX 4 1 3 2 2 3 1 4 21 5 19 6 18 7 16 8 15 9 14 10 13 11 5 12
REMARK SMILES IDX 6 13 7 14 8 15 12 16 10 17 9 18 11 20 20 22 17 24
REMARK H PARENT 9 19 11 21 20 23 17 25
REMARK Flexibility Score: inf
ROOT
ATOM      1  C   UNL     1      34.450   6.348 -21.805  1.00  0.00     0.138 A 
ATOM      2  C   UNL     1      34.839   6.422 -20.461  1.00  0.00     0.100 A 
ATOM      3  C   UNL     1      36.196   6.476 -20.137  1.00  0.00     0.197 A 
ATOM      4  O   UNL     1      36.511   6.598 -18.926  1.00  0.00    -0.289 OA
ATOM      5  C   UNL     1      37.168   6.421 -21.165  1.00  0.00     0.107 A 
ATOM      6  C   UNL     1      38.579   6.433 -20.952  1.00  0.00     0.134 A 
ATOM      7  C   UNL     1      39.443   6.473 -22.055  1.00  0.00     0.093 A 
ATOM      8  C   UNL     1      38.950   6.441 -23.358  1.00  0.00     0.123 A 
ATOM      9  C   UNL     1      37.574   6.377 -23.578  1.00  0.00     0.094 A 
ATOM     10  C   UNL     1      36.685   6.372 -22.500  1.00  0.00     0.146 A 
ATOM     11  O   UNL     1      35.381   6.329 -22.753  1.00  0.00    -0.456 OA
ENDROOT
BRANCH   1  12
ATOM     12  C   UNL     1      33.021   6.286 -22.206  1.00  0.00     0.021 A 
ATOM     13  C   UNL     1      32.626   6.346 -23.555  1.00  0.00     0.016 A 
ATOM     14  C   UNL     1      31.274   6.275 -23.902  1.00  0.00     0.051 A 
ATOM     15  C   UNL     1      30.296   6.134 -22.910  1.00  0.00     0.157 A 
ATOM     16  C   UNL     1      32.033   6.132 -21.216  1.00  0.00     0.062 A 
ATOM     17  C   UNL     1      30.678   6.061 -21.561  1.00  0.00     0.158 A 
BRANCH  15  18
ATOM     18  O   UNL     1      28.948   6.065 -23.261  1.00  0.00    -0.504 OA
ATOM     19  H   UNL     1      28.535   5.211 -23.618  1.00  0.00     0.293 HD
ENDBRANCH  15  18
BRANCH  17  20
ATOM     20  O   UNL     1      29.729   5.919 -20.550  1.00  0.00    -0.504 OA
ATOM     21  H   UNL     1      29.950   5.489 -19.660  1.00  0.00     0.293 HD
ENDBRANCH  17  20
ENDBRANCH   1  12
BRANCH   6  22
ATOM     22  O   UNL     1      39.183   6.387 -19.692  1.00  0.00    -0.507 OA
ATOM     23  H   UNL     1      40.098   6.007 -19.502  1.00  0.00     0.293 HD
ENDBRANCH   6  22
BRANCH   8  24
ATOM     24  O   UNL     1      39.840   6.466 -24.430  1.00  0.00    -0.508 OA
ATOM     25  H   UNL     1      40.718   6.970 -24.378  1.00  0.00     0.293 HD
ENDBRANCH   8  24
TORSDOF 5
ENDMDL
