MODEL 1
REMARK VINA RESULT:    -4.433      0.000      0.000
REMARK INTER + INTRA:          -8.982
REMARK INTER:                  -7.543
REMARK INTRA:                  -1.439
REMARK UNBOUND:                -1.439
REMARK SMILES CCCCCCCCCCCCCC(=O)[O-]
REMARK SMILES IDX 8 1 9 2 10 3 11 4 12 5 13 6 14 7 15 8 16 9 7 10 6 11 5 12
REMARK SMILES IDX 4 13 3 14 2 15 1 16
REMARK H PARENT
REMARK Flexibility Score: inf
ROOT
ATOM      1  C   UNL     1       1.303 -37.260  19.865  1.00  0.00     0.000 C 
ENDROOT
BRANCH   1   2
ATOM      2  C   UNL     1       0.202 -37.198  20.939  1.00  0.00     0.000 C 
BRANCH   2   3
ATOM      3  C   UNL     1      -0.493 -35.831  21.082  1.00  0.00     0.000 C 
BRANCH   3   4
ATOM      4  C   UNL     1      -1.998 -35.951  21.362  1.00  0.00     0.000 C 
BRANCH   4   5
ATOM      5  C   UNL     1      -2.441 -34.944  22.429  1.00  0.00     0.006 C 
BRANCH   5   6
ATOM      6  C   UNL     1      -1.305 -33.978  22.779  1.00  0.00     0.053 C 
BRANCH   6   7
ATOM      7  C   UNL     1      -1.802 -32.887  23.674  1.00  0.00     0.041 C 
ATOM      8  O   UNL     1      -2.976 -32.451  23.549  1.00  0.00    -0.550 OA
ATOM      9  O   UNL     1      -0.984 -32.384  24.678  1.00  0.00    -0.550 OA
ENDBRANCH   6   7
ENDBRANCH   5   6
ENDBRANCH   4   5
ENDBRANCH   3   4
ENDBRANCH   2   3
ENDBRANCH   1   2
BRANCH   1  10
ATOM     10  C   UNL     1       1.854 -35.875  19.490  1.00  0.00     0.000 C 
BRANCH  10  11
ATOM     11  C   UNL     1       3.365 -35.937  19.236  1.00  0.00    -0.000 C 
BRANCH  11  12
ATOM     12  C   UNL     1       3.963 -37.239  19.786  1.00  0.00    -0.000 C 
BRANCH  12  13
ATOM     13  C   UNL     1       4.851 -37.015  21.022  1.00  0.00    -0.000 C 
BRANCH  13  14
ATOM     14  C   UNL     1       4.058 -36.923  22.343  1.00  0.00    -0.000 C 
BRANCH  14  15
ATOM     15  C   UNL     1       4.124 -35.519  22.962  1.00  0.00    -0.003 C 
ATOM     16  C   UNL     1       2.779 -34.806  22.858  1.00  0.00     0.004 C 
ENDBRANCH  14  15
ENDBRANCH  13  14
ENDBRANCH  12  13
ENDBRANCH  11  12
ENDBRANCH  10  11
ENDBRANCH   1  10
TORSDOF 12
ENDMDL
MODEL 2
REMARK VINA RESULT:    -4.430      1.403      2.111
REMARK INTER + INTRA:          -8.977
REMARK INTER:                  -7.481
REMARK INTRA:                  -1.496
REMARK UNBOUND:                -1.439
REMARK SMILES CCCCCCCCCCCCCC(=O)[O-]
REMARK SMILES IDX 8 1 9 2 10 3 11 4 12 5 13 6 14 7 15 8 16 9 7 10 6 11 5 12
REMARK SMILES IDX 4 13 3 14 2 15 1 16
REMARK H PARENT
REMARK Flexibility Score: inf
ROOT
ATOM      1  C   UNL     1       2.154 -36.337  19.032  1.00  0.00     0.000 C 
ENDROOT
BRANCH   1   2
ATOM      2  C   UNL     1       1.607 -37.653  19.616  1.00  0.00     0.000 C 
BRANCH   2   3
ATOM      3  C   UNL     1       0.888 -37.514  20.971  1.00  0.00     0.000 C 
BRANCH   3   4
ATOM      4  C   UNL     1      -0.582 -37.958  20.916  1.00  0.00     0.000 C 
BRANCH   4   5
ATOM      5  C   UNL     1      -1.508 -36.764  20.657  1.00  0.00     0.006 C 
BRANCH   5   6
ATOM      6  C   UNL     1      -1.008 -35.511  21.383  1.00  0.00     0.053 C 
BRANCH   6   7
ATOM      7  C   UNL     1      -2.084 -34.947  22.255  1.00  0.00     0.041 C 
ATOM      8  O   UNL     1      -3.156 -35.582  22.429  1.00  0.00    -0.550 OA
ATOM      9  O   UNL     1      -1.883 -33.742  22.916  1.00  0.00    -0.550 OA
ENDBRANCH   6   7
ENDBRANCH   5   6
ENDBRANCH   4   5
ENDBRANCH   3   4
ENDBRANCH   2   3
ENDBRANCH   1   2
BRANCH   1  10
ATOM     10  C   UNL     1       3.170 -36.559  17.902  1.00  0.00     0.000 C 
BRANCH  10  11
ATOM     11  C   UNL     1       4.195 -37.632  18.289  1.00  0.00    -0.000 C 
BRANCH  11  12
ATOM     12  C   UNL     1       5.472 -36.995  18.855  1.00  0.00    -0.000 C 
BRANCH  12  13
ATOM     13  C   UNL     1       5.870 -37.568  20.226  1.00  0.00    -0.000 C 
BRANCH  13  14
ATOM     14  C   UNL     1       4.825 -37.308  21.332  1.00  0.00    -0.000 C 
BRANCH  14  15
ATOM     15  C   UNL     1       4.876 -35.863  21.849  1.00  0.00    -0.003 C 
ATOM     16  C   UNL     1       3.544 -35.452  22.470  1.00  0.00     0.004 C 
ENDBRANCH  14  15
ENDBRANCH  13  14
ENDBRANCH  12  13
ENDBRANCH  11  12
ENDBRANCH  10  11
ENDBRANCH   1  10
TORSDOF 12
ENDMDL
MODEL 3
REMARK VINA RESULT:    -4.390      1.895      3.001
REMARK INTER + INTRA:          -8.908
REMARK INTER:                  -7.993
REMARK INTRA:                  -0.915
REMARK UNBOUND:                -1.439
REMARK SMILES CCCCCCCCCCCCCC(=O)[O-]
REMARK SMILES IDX 8 1 9 2 10 3 11 4 12 5 13 6 14 7 15 8 16 9 7 10 6 11 5 12
REMARK SMILES IDX 4 13 3 14 2 15 1 16
REMARK H PARENT
REMARK Flexibility Score: inf
ROOT
ATOM      1  C   UNL     1      -0.740 -37.942  21.353  1.00  0.00     0.000 C 
ENDROOT
BRANCH   1   2
ATOM      2  C   UNL     1      -2.158 -37.533  20.916  1.00  0.00     0.000 C 
BRANCH   2   3
ATOM      3  C   UNL     1      -2.439 -36.020  20.952  1.00  0.00     0.000 C 
BRANCH   3   4
ATOM      4  C   UNL     1      -2.504 -35.457  22.379  1.00  0.00     0.000 C 
BRANCH   4   5
ATOM      5  C   UNL     1      -1.667 -34.179  22.504  1.00  0.00     0.006 C 
BRANCH   5   6
ATOM      6  C   UNL     1      -2.422 -33.101  23.288  1.00  0.00     0.053 C 
BRANCH   6   7
ATOM      7  C   UNL     1      -1.462 -32.204  24.004  1.00  0.00     0.041 C 
ATOM      8  O   UNL     1      -1.819 -31.052  24.362  1.00  0.00    -0.550 OA
ATOM      9  O   UNL     1      -0.188 -32.659  24.318  1.00  0.00    -0.550 OA
ENDBRANCH   6   7
ENDBRANCH   5   6
ENDBRANCH   4   5
ENDBRANCH   3   4
ENDBRANCH   2   3
ENDBRANCH   1   2
BRANCH   1  10
ATOM     10  C   UNL     1       0.273 -37.926  20.198  1.00  0.00     0.000 C 
BRANCH  10  11
ATOM     11  C   UNL     1       1.535 -37.146  20.585  1.00  0.00    -0.000 C 
BRANCH  11  12
ATOM     12  C   UNL     1       1.635 -35.834  19.796  1.00  0.00    -0.000 C 
BRANCH  12  13
ATOM     13  C   UNL     1       2.843 -35.799  18.844  1.00  0.00    -0.000 C 
BRANCH  13  14
ATOM     14  C   UNL     1       2.759 -36.833  17.701  1.00  0.00    -0.000 C 
BRANCH  14  15
ATOM     15  C   UNL     1       3.884 -37.876  17.779  1.00  0.00    -0.003 C 
ATOM     16  C   UNL     1       5.072 -37.346  18.578  1.00  0.00     0.004 C 
ENDBRANCH  14  15
ENDBRANCH  13  14
ENDBRANCH  12  13
ENDBRANCH  11  12
ENDBRANCH  10  11
ENDBRANCH   1  10
TORSDOF 12
ENDMDL
MODEL 4
REMARK VINA RESULT:    -4.311      1.252      2.215
REMARK INTER + INTRA:          -8.773
REMARK INTER:                  -7.667
REMARK INTRA:                  -1.106
REMARK UNBOUND:                -1.439
REMARK SMILES CCCCCCCCCCCCCC(=O)[O-]
REMARK SMILES IDX 8 1 9 2 10 3 11 4 12 5 13 6 14 7 15 8 16 9 7 10 6 11 5 12
REMARK SMILES IDX 4 13 3 14 2 15 1 16
REMARK H PARENT
REMARK Flexibility Score: inf
ROOT
ATOM      1  C   UNL     1       0.803 -37.288  20.909  1.00  0.00     0.000 C 
ENDROOT
BRANCH   1   2
ATOM      2  C   UNL     1      -0.735 -37.326  20.968  1.00  0.00     0.000 C 
BRANCH   2   3
ATOM      3  C   UNL     1      -1.419 -35.947  20.990  1.00  0.00     0.000 C 
BRANCH   3   4
ATOM      4  C   UNL     1      -2.802 -35.975  21.658  1.00  0.00     0.000 C 
BRANCH   4   5
ATOM      5  C   UNL     1      -2.911 -34.899  22.744  1.00  0.00     0.006 C 
BRANCH   5   6
ATOM      6  C   UNL     1      -1.624 -34.073  22.831  1.00  0.00     0.053 C 
BRANCH   6   7
ATOM      7  C   UNL     1      -1.852 -32.832  23.633  1.00  0.00     0.041 C 
ATOM      8  O   UNL     1      -0.926 -32.355  24.339  1.00  0.00    -0.550 OA
ATOM      9  O   UNL     1      -3.074 -32.173  23.564  1.00  0.00    -0.550 OA
ENDBRANCH   6   7
ENDBRANCH   5   6
ENDBRANCH   4   5
ENDBRANCH   3   4
ENDBRANCH   2   3
ENDBRANCH   1   2
BRANCH   1  10
ATOM     10  C   UNL     1       1.368 -35.860  20.891  1.00  0.00     0.000 C 
BRANCH  10  11
ATOM     11  C   UNL     1       1.923 -35.507  19.505  1.00  0.00    -0.000 C 
BRANCH  11  12
ATOM     12  C   UNL     1       2.428 -36.762  18.779  1.00  0.00    -0.000 C 
BRANCH  12  13
ATOM     13  C   UNL     1       3.705 -36.505  17.960  1.00  0.00    -0.000 C 
BRANCH  13  14
ATOM     14  C   UNL     1       4.967 -37.159  18.561  1.00  0.00    -0.000 C 
BRANCH  14  15
ATOM     15  C   UNL     1       4.710 -37.737  19.961  1.00  0.00    -0.003 C 
ATOM     16  C   UNL     1       5.464 -36.951  21.029  1.00  0.00     0.004 C 
ENDBRANCH  14  15
ENDBRANCH  13  14
ENDBRANCH  12  13
ENDBRANCH  11  12
ENDBRANCH  10  11
ENDBRANCH   1  10
TORSDOF 12
ENDMDL
MODEL 5
REMARK VINA RESULT:    -4.293      1.236      2.615
REMARK INTER + INTRA:          -8.743
REMARK INTER:                  -8.020
REMARK INTRA:                  -0.723
REMARK UNBOUND:                -1.439
REMARK SMILES CCCCCCCCCCCCCC(=O)[O-]
REMARK SMILES IDX 8 1 9 2 10 3 11 4 12 5 13 6 14 7 15 8 16 9 7 10 6 11 5 12
REMARK SMILES IDX 4 13 3 14 2 15 1 16
REMARK H PARENT
REMARK Flexibility Score: inf
ROOT
ATOM      1  C   UNL     1       0.944 -36.018  20.793  1.00  0.00     0.000 C 
ENDROOT
BRANCH   1   2
ATOM      2  C   UNL     1      -0.367 -36.811  20.943  1.00  0.00     0.000 C 
BRANCH   2   3
ATOM      3  C   UNL     1      -1.652 -35.981  20.769  1.00  0.00     0.000 C 
BRANCH   3   4
ATOM      4  C   UNL     1      -2.184 -35.417  22.095  1.00  0.00     0.000 C 
BRANCH   4   5
ATOM      5  C   UNL     1      -1.443 -34.133  22.484  1.00  0.00     0.006 C 
BRANCH   5   6
ATOM      6  C   UNL     1      -2.234 -33.333  23.523  1.00  0.00     0.053 C 
BRANCH   6   7
ATOM      7  C   UNL     1      -1.386 -32.249  24.107  1.00  0.00     0.041 C 
ATOM      8  O   UNL     1      -0.170 -32.461  24.356  1.00  0.00    -0.550 OA
ATOM      9  O   UNL     1      -1.924 -30.988  24.330  1.00  0.00    -0.550 OA
ENDBRANCH   6   7
ENDBRANCH   5   6
ENDBRANCH   4   5
ENDBRANCH   3   4
ENDBRANCH   2   3
ENDBRANCH   1   2
BRANCH   1  10
ATOM     10  C   UNL     1       2.144 -36.711  21.456  1.00  0.00     0.000 C 
BRANCH  10  11
ATOM     11  C   UNL     1       3.399 -35.833  21.375  1.00  0.00    -0.000 C 
BRANCH  11  12
ATOM     12  C   UNL     1       4.657 -36.689  21.175  1.00  0.00    -0.000 C 
BRANCH  12  13
ATOM     13  C   UNL     1       4.499 -37.734  20.056  1.00  0.00    -0.000 C 
BRANCH  13  14
ATOM     14  C   UNL     1       4.921 -37.216  18.665  1.00  0.00    -0.000 C 
BRANCH  14  15
ATOM     15  C   UNL     1       3.864 -36.287  18.048  1.00  0.00    -0.003 C 
ATOM     16  C   UNL     1       2.772 -37.086  17.342  1.00  0.00     0.004 C 
ENDBRANCH  14  15
ENDBRANCH  13  14
ENDBRANCH  12  13
ENDBRANCH  11  12
ENDBRANCH  10  11
ENDBRANCH   1  10
TORSDOF 12
ENDMDL
MODEL 6
REMARK VINA RESULT:    -4.259      3.000      6.234
REMARK INTER + INTRA:          -8.685
REMARK INTER:                  -7.365
REMARK INTRA:                  -1.320
REMARK UNBOUND:                -1.439
REMARK SMILES CCCCCCCCCCCCCC(=O)[O-]
REMARK SMILES IDX 8 1 9 2 10 3 11 4 12 5 13 6 14 7 15 8 16 9 7 10 6 11 5 12
REMARK SMILES IDX 4 13 3 14 2 15 1 16
REMARK H PARENT
REMARK Flexibility Score: inf
ROOT
ATOM      1  C   UNL     1       1.826 -35.863  19.475  1.00  0.00     0.000 C 
ENDROOT
BRANCH   1   2
ATOM      2  C   UNL     1       2.180 -37.098  18.628  1.00  0.00     0.000 C 
BRANCH   2   3
ATOM      3  C   UNL     1       3.408 -36.932  17.715  1.00  0.00     0.000 C 
BRANCH   3   4
ATOM      4  C   UNL     1       4.684 -36.569  18.488  1.00  0.00     0.000 C 
BRANCH   4   5
ATOM      5  C   UNL     1       5.073 -37.686  19.463  1.00  0.00     0.006 C 
BRANCH   5   6
ATOM      6  C   UNL     1       5.798 -37.120  20.687  1.00  0.00     0.053 C 
BRANCH   6   7
ATOM      7  C   UNL     1       4.813 -36.714  21.737  1.00  0.00     0.041 C 
ATOM      8  O   UNL     1       4.323 -37.576  22.513  1.00  0.00    -0.550 OA
ATOM      9  O   UNL     1       4.471 -35.376  21.891  1.00  0.00    -0.550 OA
ENDBRANCH   6   7
ENDBRANCH   5   6
ENDBRANCH   4   5
ENDBRANCH   3   4
ENDBRANCH   2   3
ENDBRANCH   1   2
BRANCH   1  10
ATOM     10  C   UNL     1       1.242 -36.224  20.849  1.00  0.00     0.000 C 
BRANCH  10  11
ATOM     11  C   UNL     1       0.987 -37.732  20.958  1.00  0.00    -0.000 C 
BRANCH  11  12
ATOM     12  C   UNL     1      -0.506 -38.050  20.802  1.00  0.00    -0.000 C 
BRANCH  12  13
ATOM     13  C   UNL     1      -1.373 -36.788  20.643  1.00  0.00    -0.000 C 
BRANCH  13  14
ATOM     14  C   UNL     1      -2.820 -36.965  21.149  1.00  0.00    -0.000 C 
BRANCH  14  15
ATOM     15  C   UNL     1      -3.231 -35.856  22.129  1.00  0.00    -0.003 C 
ATOM     16  C   UNL     1      -2.095 -34.860  22.342  1.00  0.00     0.004 C 
ENDBRANCH  14  15
ENDBRANCH  13  14
ENDBRANCH  12  13
ENDBRANCH  11  12
ENDBRANCH  10  11
ENDBRANCH   1  10
TORSDOF 12
ENDMDL
MODEL 7
REMARK VINA RESULT:    -4.236      3.405      6.784
REMARK INTER + INTRA:          -8.645
REMARK INTER:                  -7.559
REMARK INTRA:                  -1.087
REMARK UNBOUND:                -1.439
REMARK SMILES CCCCCCCCCCCCCC(=O)[O-]
REMARK SMILES IDX 8 1 9 2 10 3 11 4 12 5 13 6 14 7 15 8 16 9 7 10 6 11 5 12
REMARK SMILES IDX 4 13 3 14 2 15 1 16
REMARK H PARENT
REMARK Flexibility Score: inf
ROOT
ATOM      1  C   UNL     1       0.161 -36.011  21.181  1.00  0.00     0.000 C 
ENDROOT
BRANCH   1   2
ATOM      2  C   UNL     1       0.347 -37.528  20.994  1.00  0.00     0.000 C 
BRANCH   2   3
ATOM      3  C   UNL     1       1.297 -37.931  19.851  1.00  0.00     0.000 C 
BRANCH   3   4
ATOM      4  C   UNL     1       2.016 -36.730  19.219  1.00  0.00     0.000 C 
BRANCH   4   5
ATOM      5  C   UNL     1       3.516 -36.757  19.538  1.00  0.00     0.006 C 
BRANCH   5   6
ATOM      6  C   UNL     1       3.835 -35.890  20.760  1.00  0.00     0.053 C 
BRANCH   6   7
ATOM      7  C   UNL     1       4.196 -36.748  21.930  1.00  0.00     0.041 C 
ATOM      8  O   UNL     1       4.488 -37.961  21.761  1.00  0.00    -0.550 OA
ATOM      9  O   UNL     1       4.259 -36.197  23.204  1.00  0.00    -0.550 OA
ENDBRANCH   6   7
ENDBRANCH   5   6
ENDBRANCH   4   5
ENDBRANCH   3   4
ENDBRANCH   2   3
ENDBRANCH   1   2
BRANCH   1  10
ATOM     10  C   UNL     1      -1.253 -35.531  20.823  1.00  0.00     0.000 C 
BRANCH  10  11
ATOM     11  C   UNL     1      -2.287 -36.080  21.814  1.00  0.00    -0.000 C 
BRANCH  11  12
ATOM     12  C   UNL     1      -3.247 -37.058  21.122  1.00  0.00    -0.000 C 
BRANCH  12  13
ATOM     13  C   UNL     1      -2.958 -37.217  19.619  1.00  0.00    -0.000 C 
BRANCH  13  14
ATOM     14  C   UNL     1      -4.031 -38.033  18.866  1.00  0.00    -0.000 C 
BRANCH  14  15
ATOM     15  C   UNL     1      -4.407 -37.394  17.521  1.00  0.00    -0.003 C 
ATOM     16  C   UNL     1      -4.470 -35.874  17.631  1.00  0.00     0.004 C 
ENDBRANCH  14  15
ENDBRANCH  13  14
ENDBRANCH  12  13
ENDBRANCH  11  12
ENDBRANCH  10  11
ENDBRANCH   1  10
TORSDOF 12
ENDMDL
MODEL 8
REMARK VINA RESULT:    -4.195      2.594      4.033
REMARK INTER + INTRA:          -8.576
REMARK INTER:                  -7.034
REMARK INTRA:                  -1.542
REMARK UNBOUND:                -1.439
REMARK SMILES CCCCCCCCCCCCCC(=O)[O-]
REMARK SMILES IDX 8 1 9 2 10 3 11 4 12 5 13 6 14 7 15 8 16 9 7 10 6 11 5 12
REMARK SMILES IDX 4 13 3 14 2 15 1 16
REMARK H PARENT
REMARK Flexibility Score: inf
ROOT
ATOM      1  C   UNL     1       3.510 -35.554  21.698  1.00  0.00     0.000 C 
ENDROOT
BRANCH   1   2
ATOM      2  C   UNL     1       2.107 -36.112  21.401  1.00  0.00     0.000 C 
BRANCH   2   3
ATOM      3  C   UNL     1       2.059 -37.617  21.081  1.00  0.00     0.000 C 
BRANCH   3   4
ATOM      4  C   UNL     1       0.704 -38.066  20.514  1.00  0.00     0.000 C 
BRANCH   4   5
ATOM      5  C   UNL     1      -0.437 -37.204  21.066  1.00  0.00     0.006 C 
BRANCH   5   6
ATOM      6  C   UNL     1      -1.801 -37.790  20.690  1.00  0.00     0.053 C 
BRANCH   6   7
ATOM      7  C   UNL     1      -2.827 -36.706  20.592  1.00  0.00     0.041 C 
ATOM      8  O   UNL     1      -3.397 -36.472  19.495  1.00  0.00    -0.550 OA
ATOM      9  O   UNL     1      -3.189 -35.986  21.724  1.00  0.00    -0.550 OA
ENDBRANCH   6   7
ENDBRANCH   5   6
ENDBRANCH   4   5
ENDBRANCH   3   4
ENDBRANCH   2   3
ENDBRANCH   1   2
BRANCH   1  10
ATOM     10  C   UNL     1       4.196 -36.254  22.880  1.00  0.00     0.000 C 
BRANCH  10  11
ATOM     11  C   UNL     1       5.526 -36.884  22.448  1.00  0.00    -0.000 C 
BRANCH  11  12
ATOM     12  C   UNL     1       5.737 -36.739  20.935  1.00  0.00    -0.000 C 
BRANCH  12  13
ATOM     13  C   UNL     1       5.733 -38.090  20.199  1.00  0.00    -0.000 C 
BRANCH  13  14
ATOM     14  C   UNL     1       4.955 -38.066  18.866  1.00  0.00    -0.000 C 
BRANCH  14  15
ATOM     15  C   UNL     1       4.650 -36.635  18.400  1.00  0.00    -0.003 C 
ATOM     16  C   UNL     1       3.314 -36.567  17.665  1.00  0.00     0.004 C 
ENDBRANCH  14  15
ENDBRANCH  13  14
ENDBRANCH  12  13
ENDBRANCH  11  12
ENDBRANCH  10  11
ENDBRANCH   1  10
TORSDOF 12
ENDMDL
MODEL 9
REMARK VINA RESULT:    -4.162      3.530      4.342
REMARK INTER + INTRA:          -8.520
REMARK INTER:                  -7.536
REMARK INTRA:                  -0.984
REMARK UNBOUND:                -1.439
REMARK SMILES CCCCCCCCCCCCCC(=O)[O-]
REMARK SMILES IDX 8 1 9 2 10 3 11 4 12 5 13 6 14 7 15 8 16 9 7 10 6 11 5 12
REMARK SMILES IDX 4 13 3 14 2 15 1 16
REMARK H PARENT
REMARK Flexibility Score: inf
ROOT
ATOM      1  C   UNL     1       1.319 -36.225  20.902  1.00  0.00     0.000 C 
ENDROOT
BRANCH   1   2
ATOM      2  C   UNL     1       0.279 -37.350  20.757  1.00  0.00     0.000 C 
BRANCH   2   3
ATOM      3  C   UNL     1      -1.188 -36.882  20.741  1.00  0.00     0.000 C 
BRANCH   3   4
ATOM      4  C   UNL     1      -2.182 -38.014  21.040  1.00  0.00     0.000 C 
BRANCH   4   5
ATOM      5  C   UNL     1      -3.333 -38.017  20.028  1.00  0.00     0.006 C 
BRANCH   5   6
ATOM      6  C   UNL     1      -3.480 -36.648  19.357  1.00  0.00     0.053 C 
BRANCH   6   7
ATOM      7  C   UNL     1      -4.105 -36.791  18.006  1.00  0.00     0.041 C 
ATOM      8  O   UNL     1      -4.654 -35.802  17.454  1.00  0.00    -0.550 OA
ATOM      9  O   UNL     1      -4.039 -38.005  17.334  1.00  0.00    -0.550 OA
ENDBRANCH   6   7
ENDBRANCH   5   6
ENDBRANCH   4   5
ENDBRANCH   3   4
ENDBRANCH   2   3
ENDBRANCH   1   2
BRANCH   1  10
ATOM     10  C   UNL     1       2.018 -35.879  19.579  1.00  0.00     0.000 C 
BRANCH  10  11
ATOM     11  C   UNL     1       2.034 -37.088  18.635  1.00  0.00    -0.000 C 
BRANCH  11  12
ATOM     12  C   UNL     1       3.201 -36.995  17.643  1.00  0.00    -0.000 C 
BRANCH  12  13
ATOM     13  C   UNL     1       4.413 -37.846  18.063  1.00  0.00    -0.000 C 
BRANCH  13  14
ATOM     14  C   UNL     1       5.426 -37.084  18.944  1.00  0.00    -0.000 C 
BRANCH  14  15
ATOM     15  C   UNL     1       5.454 -37.613  20.386  1.00  0.00    -0.003 C 
ATOM     16  C   UNL     1       5.066 -36.523  21.380  1.00  0.00     0.004 C 
ENDBRANCH  14  15
ENDBRANCH  13  14
ENDBRANCH  12  13
ENDBRANCH  11  12
ENDBRANCH  10  11
ENDBRANCH   1  10
TORSDOF 12
ENDMDL
