MODEL 1
REMARK VINA RESULT:    -4.387      0.000      0.000
REMARK INTER + INTRA:          -9.359
REMARK INTER:                  -7.977
REMARK INTRA:                  -1.382
REMARK UNBOUND:                -1.382
REMARK SMILES CCCCCCCCCCCCCCCC(=O)[O-]
REMARK SMILES IDX 9 1 10 2 11 3 12 4 13 5 14 6 15 7 16 8 17 9 18 10 8 11 7 12
REMARK SMILES IDX 6 13 5 14 4 15 3 16 2 17 1 18
REMARK H PARENT
REMARK Flexibility Score: inf
ROOT
ATOM      1  C   UNL     1      -4.323  35.267  21.805  1.00  0.00     0.000 C 
ENDROOT
BRANCH   1   2
ATOM      2  C   UNL     1      -4.636  34.519  23.112  1.00  0.00     0.000 C 
BRANCH   2   3
ATOM      3  C   UNL     1      -6.051  34.814  23.643  1.00  0.00     0.000 C 
BRANCH   3   4
ATOM      4  C   UNL     1      -6.125  35.892  24.742  1.00  0.00     0.000 C 
BRANCH   4   5
ATOM      5  C   UNL     1      -4.786  36.574  25.085  1.00  0.00     0.000 C 
BRANCH   5   6
ATOM      6  C   UNL     1      -4.624  38.001  24.529  1.00  0.00     0.006 C 
BRANCH   6   7
ATOM      7  C   UNL     1      -5.647  38.334  23.436  1.00  0.00     0.053 C 
BRANCH   7   8
ATOM      8  C   UNL     1      -5.024  39.191  22.380  1.00  0.00     0.041 C 
ATOM      9  O   UNL     1      -5.520  40.314  22.102  1.00  0.00    -0.550 OA
ATOM     10  O   UNL     1      -3.865  38.771  21.738  1.00  0.00    -0.550 OA
ENDBRANCH   7   8
ENDBRANCH   6   7
ENDBRANCH   5   6
ENDBRANCH   4   5
ENDBRANCH   3   4
ENDBRANCH   2   3
ENDBRANCH   1   2
BRANCH   1  11
ATOM     11  C   UNL     1      -5.595  35.676  21.042  1.00  0.00     0.000 C 
BRANCH  11  12
ATOM     12  C   UNL     1      -5.292  36.188  19.624  1.00  0.00    -0.000 C 
BRANCH  12  13
ATOM     13  C   UNL     1      -3.782  36.301  19.340  1.00  0.00    -0.000 C 
BRANCH  13  14
ATOM     14  C   UNL     1      -3.403  37.250  18.185  1.00  0.00    -0.000 C 
BRANCH  14  15
ATOM     15  C   UNL     1      -2.049  36.953  17.512  1.00  0.00    -0.000 C 
BRANCH  15  16
ATOM     16  C   UNL     1      -2.094  36.845  15.975  1.00  0.00    -0.000 C 
BRANCH  16  17
ATOM     17  C   UNL     1      -3.476  36.502  15.393  1.00  0.00    -0.003 C 
ATOM     18  C   UNL     1      -3.827  37.335  14.160  1.00  0.00     0.004 C 
ENDBRANCH  16  17
ENDBRANCH  15  16
ENDBRANCH  14  15
ENDBRANCH  13  14
ENDBRANCH  12  13
ENDBRANCH  11  12
ENDBRANCH   1  11
TORSDOF 14
ENDMDL
MODEL 2
REMARK VINA RESULT:    -4.303      1.846      3.092
REMARK INTER + INTRA:          -9.206
REMARK INTER:                  -8.184
REMARK INTRA:                  -1.022
REMARK UNBOUND:                -1.382
REMARK SMILES CCCCCCCCCCCCCCCC(=O)[O-]
REMARK SMILES IDX 9 1 10 2 11 3 12 4 13 5 14 6 15 7 16 8 17 9 18 10 8 11 7 12
REMARK SMILES IDX 6 13 5 14 4 15 3 16 2 17 1 18
REMARK H PARENT
REMARK Flexibility Score: inf
ROOT
ATOM      1  C   UNL     1      -4.463  38.570  21.278  1.00  0.00     0.000 C 
ENDROOT
BRANCH   1   2
ATOM      2  C   UNL     1      -5.380  39.520  22.068  1.00  0.00     0.000 C 
BRANCH   2   3
ATOM      3  C   UNL     1      -5.272  39.323  23.591  1.00  0.00     0.000 C 
BRANCH   3   4
ATOM      4  C   UNL     1      -4.331  38.186  24.037  1.00  0.00     0.000 C 
BRANCH   4   5
ATOM      5  C   UNL     1      -4.815  37.373  25.254  1.00  0.00     0.000 C 
BRANCH   5   6
ATOM      6  C   UNL     1      -5.974  36.401  24.966  1.00  0.00     0.006 C 
BRANCH   6   7
ATOM      7  C   UNL     1      -6.125  36.080  23.474  1.00  0.00     0.053 C 
BRANCH   7   8
ATOM      8  C   UNL     1      -5.275  34.907  23.103  1.00  0.00     0.041 C 
ATOM      9  O   UNL     1      -5.533  33.766  23.569  1.00  0.00    -0.550 OA
ATOM     10  O   UNL     1      -4.229  35.063  22.201  1.00  0.00    -0.550 OA
ENDBRANCH   7   8
ENDBRANCH   6   7
ENDBRANCH   5   6
ENDBRANCH   4   5
ENDBRANCH   3   4
ENDBRANCH   2   3
ENDBRANCH   1   2
BRANCH   1  11
ATOM     11  C   UNL     1      -5.240  37.701  20.275  1.00  0.00     0.000 C 
BRANCH  11  12
ATOM     12  C   UNL     1      -4.312  36.890  19.356  1.00  0.00    -0.000 C 
BRANCH  12  13
ATOM     13  C   UNL     1      -3.062  37.680  18.924  1.00  0.00    -0.000 C 
BRANCH  13  14
ATOM     14  C   UNL     1      -2.205  37.003  17.835  1.00  0.00    -0.000 C 
BRANCH  14  15
ATOM     15  C   UNL     1      -3.002  36.290  16.725  1.00  0.00    -0.000 C 
BRANCH  15  16
ATOM     16  C   UNL     1      -2.279  36.185  15.368  1.00  0.00    -0.000 C 
BRANCH  16  17
ATOM     17  C   UNL     1      -3.038  36.801  14.181  1.00  0.00    -0.003 C 
ATOM     18  C   UNL     1      -3.907  37.993  14.582  1.00  0.00     0.004 C 
ENDBRANCH  16  17
ENDBRANCH  15  16
ENDBRANCH  14  15
ENDBRANCH  13  14
ENDBRANCH  12  13
ENDBRANCH  11  12
ENDBRANCH   1  11
TORSDOF 14
ENDMDL
MODEL 3
REMARK VINA RESULT:    -4.247      2.875      6.924
REMARK INTER + INTRA:          -9.105
REMARK INTER:                  -7.456
REMARK INTRA:                  -1.650
REMARK UNBOUND:                -1.382
REMARK SMILES CCCCCCCCCCCCCCCC(=O)[O-]
REMARK SMILES IDX 9 1 10 2 11 3 12 4 13 5 14 6 15 7 16 8 17 9 18 10 8 11 7 12
REMARK SMILES IDX 6 13 5 14 4 15 3 16 2 17 1 18
REMARK H PARENT
REMARK Flexibility Score: inf
ROOT
ATOM      1  C   UNL     1      -4.317  35.438  21.498  1.00  0.00     0.000 C 
ENDROOT
BRANCH   1   2
ATOM      2  C   UNL     1      -5.465  35.729  20.516  1.00  0.00     0.000 C 
BRANCH   2   3
ATOM      3  C   UNL     1      -5.106  36.812  19.483  1.00  0.00     0.000 C 
BRANCH   3   4
ATOM      4  C   UNL     1      -3.627  37.246  19.479  1.00  0.00     0.000 C 
BRANCH   4   5
ATOM      5  C   UNL     1      -3.041  37.568  18.090  1.00  0.00     0.000 C 
BRANCH   5   6
ATOM      6  C   UNL     1      -2.575  36.343  17.283  1.00  0.00     0.006 C 
BRANCH   6   7
ATOM      7  C   UNL     1      -3.534  35.981  16.142  1.00  0.00     0.053 C 
BRANCH   7   8
ATOM      8  C   UNL     1      -3.048  36.553  14.849  1.00  0.00     0.041 C 
ATOM      9  O   UNL     1      -1.861  36.357  14.477  1.00  0.00    -0.550 OA
ATOM     10  O   UNL     1      -3.919  37.259  14.029  1.00  0.00    -0.550 OA
ENDBRANCH   7   8
ENDBRANCH   6   7
ENDBRANCH   5   6
ENDBRANCH   4   5
ENDBRANCH   3   4
ENDBRANCH   2   3
ENDBRANCH   1   2
BRANCH   1  11
ATOM     11  C   UNL     1      -4.796  34.709  22.764  1.00  0.00     0.000 C 
BRANCH  11  12
ATOM     12  C   UNL     1      -6.121  35.274  23.304  1.00  0.00    -0.000 C 
BRANCH  12  13
ATOM     13  C   UNL     1      -6.125  35.421  24.837  1.00  0.00    -0.000 C 
BRANCH  13  14
ATOM     14  C   UNL     1      -6.052  36.872  25.355  1.00  0.00    -0.000 C 
BRANCH  14  15
ATOM     15  C   UNL     1      -4.633  37.472  25.422  1.00  0.00    -0.000 C 
BRANCH  15  16
ATOM     16  C   UNL     1      -4.237  38.344  24.215  1.00  0.00    -0.000 C 
BRANCH  16  17
ATOM     17  C   UNL     1      -5.406  39.077  23.535  1.00  0.00    -0.003 C 
ATOM     18  C   UNL     1      -5.146  39.375  22.058  1.00  0.00     0.004 C 
ENDBRANCH  16  17
ENDBRANCH  15  16
ENDBRANCH  14  15
ENDBRANCH  13  14
ENDBRANCH  12  13
ENDBRANCH  11  12
ENDBRANCH   1  11
TORSDOF 14
ENDMDL
MODEL 4
REMARK VINA RESULT:    -4.221      1.764      6.149
REMARK INTER + INTRA:          -9.057
REMARK INTER:                  -7.453
REMARK INTRA:                  -1.604
REMARK UNBOUND:                -1.382
REMARK SMILES CCCCCCCCCCCCCCCC(=O)[O-]
REMARK SMILES IDX 9 1 10 2 11 3 12 4 13 5 14 6 15 7 16 8 17 9 18 10 8 11 7 12
REMARK SMILES IDX 6 13 5 14 4 15 3 16 2 17 1 18
REMARK H PARENT
REMARK Flexibility Score: inf
ROOT
ATOM      1  C   UNL     1      -4.259  35.700  21.995  1.00  0.00     0.000 C 
ENDROOT
BRANCH   1   2
ATOM      2  C   UNL     1      -4.018  35.342  20.519  1.00  0.00     0.000 C 
BRANCH   2   3
ATOM      3  C   UNL     1      -5.286  35.481  19.658  1.00  0.00     0.000 C 
BRANCH   3   4
ATOM      4  C   UNL     1      -5.212  34.809  18.272  1.00  0.00     0.000 C 
BRANCH   4   5
ATOM      5  C   UNL     1      -3.875  34.987  17.526  1.00  0.00     0.000 C 
BRANCH   5   6
ATOM      6  C   UNL     1      -3.604  36.412  17.012  1.00  0.00     0.006 C 
BRANCH   6   7
ATOM      7  C   UNL     1      -2.117  36.784  17.041  1.00  0.00     0.053 C 
BRANCH   7   8
ATOM      8  C   UNL     1      -1.768  37.444  18.336  1.00  0.00     0.041 C 
ATOM      9  O   UNL     1      -2.675  37.924  19.067  1.00  0.00    -0.550 OA
ATOM     10  O   UNL     1      -0.446  37.486  18.763  1.00  0.00    -0.550 OA
ENDBRANCH   7   8
ENDBRANCH   6   7
ENDBRANCH   5   6
ENDBRANCH   4   5
ENDBRANCH   3   4
ENDBRANCH   2   3
ENDBRANCH   1   2
BRANCH   1  11
ATOM     11  C   UNL     1      -5.719  35.478  22.425  1.00  0.00     0.000 C 
BRANCH  11  12
ATOM     12  C   UNL     1      -5.840  35.043  23.895  1.00  0.00    -0.000 C 
BRANCH  12  13
ATOM     13  C   UNL     1      -6.124  36.222  24.844  1.00  0.00    -0.000 C 
BRANCH  13  14
ATOM     14  C   UNL     1      -4.872  36.893  25.445  1.00  0.00    -0.000 C 
BRANCH  14  15
ATOM     15  C   UNL     1      -4.326  38.093  24.646  1.00  0.00    -0.000 C 
BRANCH  15  16
ATOM     16  C   UNL     1      -5.359  38.801  23.747  1.00  0.00    -0.000 C 
BRANCH  16  17
ATOM     17  C   UNL     1      -4.778  39.433  22.470  1.00  0.00    -0.003 C 
ATOM     18  C   UNL     1      -5.505  38.989  21.201  1.00  0.00     0.004 C 
ENDBRANCH  16  17
ENDBRANCH  15  16
ENDBRANCH  14  15
ENDBRANCH  13  14
ENDBRANCH  12  13
ENDBRANCH  11  12
ENDBRANCH   1  11
TORSDOF 14
ENDMDL
MODEL 5
REMARK VINA RESULT:    -4.069      1.008      2.133
REMARK INTER + INTRA:          -8.782
REMARK INTER:                  -7.813
REMARK INTRA:                  -0.968
REMARK UNBOUND:                -1.382
REMARK SMILES CCCCCCCCCCCCCCCC(=O)[O-]
REMARK SMILES IDX 9 1 10 2 11 3 12 4 13 5 14 6 15 7 16 8 17 9 18 10 8 11 7 12
REMARK SMILES IDX 6 13 5 14 4 15 3 16 2 17 1 18
REMARK H PARENT
REMARK Flexibility Score: inf
ROOT
ATOM      1  C   UNL     1      -4.930  34.883  18.885  1.00  0.00     0.000 C 
ENDROOT
BRANCH   1   2
ATOM      2  C   UNL     1      -6.121  34.799  19.855  1.00  0.00     0.000 C 
BRANCH   2   3
ATOM      3  C   UNL     1      -5.940  35.688  21.099  1.00  0.00     0.000 C 
BRANCH   3   4
ATOM      4  C   UNL     1      -5.161  35.037  22.259  1.00  0.00     0.000 C 
BRANCH   4   5
ATOM      5  C   UNL     1      -5.778  35.236  23.658  1.00  0.00     0.000 C 
BRANCH   5   6
ATOM      6  C   UNL     1      -6.078  36.699  24.032  1.00  0.00     0.006 C 
BRANCH   6   7
ATOM      7  C   UNL     1      -4.812  37.556  24.148  1.00  0.00     0.053 C 
BRANCH   7   8
ATOM      8  C   UNL     1      -4.816  38.637  23.116  1.00  0.00     0.041 C 
ATOM      9  O   UNL     1      -5.397  39.731  23.346  1.00  0.00    -0.550 OA
ATOM     10  O   UNL     1      -4.136  38.458  21.918  1.00  0.00    -0.550 OA
ENDBRANCH   7   8
ENDBRANCH   6   7
ENDBRANCH   5   6
ENDBRANCH   4   5
ENDBRANCH   3   4
ENDBRANCH   2   3
ENDBRANCH   1   2
BRANCH   1  11
ATOM     11  C   UNL     1      -4.525  36.334  18.575  1.00  0.00     0.000 C 
BRANCH  11  12
ATOM     12  C   UNL     1      -3.090  36.654  19.025  1.00  0.00    -0.000 C 
BRANCH  12  13
ATOM     13  C   UNL     1      -2.387  37.668  18.103  1.00  0.00    -0.000 C 
BRANCH  13  14
ATOM     14  C   UNL     1      -1.551  37.047  16.965  1.00  0.00    -0.000 C 
BRANCH  14  15
ATOM     15  C   UNL     1      -2.264  35.943  16.159  1.00  0.00    -0.000 C 
BRANCH  15  16
ATOM     16  C   UNL     1      -2.310  36.176  14.636  1.00  0.00    -0.000 C 
BRANCH  16  17
ATOM     17  C   UNL     1      -3.630  36.766  14.112  1.00  0.00    -0.003 C 
ATOM     18  C   UNL     1      -3.848  38.216  14.544  1.00  0.00     0.004 C 
ENDBRANCH  16  17
ENDBRANCH  15  16
ENDBRANCH  14  15
ENDBRANCH  13  14
ENDBRANCH  12  13
ENDBRANCH  11  12
ENDBRANCH   1  11
TORSDOF 14
ENDMDL
MODEL 6
REMARK VINA RESULT:    -3.981      2.925      6.952
REMARK INTER + INTRA:          -8.621
REMARK INTER:                  -7.342
REMARK INTRA:                  -1.278
REMARK UNBOUND:                -1.382
REMARK SMILES CCCCCCCCCCCCCCCC(=O)[O-]
REMARK SMILES IDX 9 1 10 2 11 3 12 4 13 5 14 6 15 7 16 8 17 9 18 10 8 11 7 12
REMARK SMILES IDX 6 13 5 14 4 15 3 16 2 17 1 18
REMARK H PARENT
REMARK Flexibility Score: inf
ROOT
ATOM      1  C   UNL     1      -4.560  36.006  20.902  1.00  0.00     0.000 C 
ENDROOT
BRANCH   1   2
ATOM      2  C   UNL     1      -5.916  35.457  20.426  1.00  0.00     0.000 C 
BRANCH   2   3
ATOM      3  C   UNL     1      -5.932  35.130  18.922  1.00  0.00     0.000 C 
BRANCH   3   4
ATOM      4  C   UNL     1      -4.595  34.613  18.352  1.00  0.00     0.000 C 
BRANCH   4   5
ATOM      5  C   UNL     1      -4.090  35.347  17.094  1.00  0.00     0.000 C 
BRANCH   5   6
ATOM      6  C   UNL     1      -3.031  36.433  17.358  1.00  0.00     0.006 C 
BRANCH   6   7
ATOM      7  C   UNL     1      -3.078  37.573  16.332  1.00  0.00     0.053 C 
BRANCH   7   8
ATOM      8  C   UNL     1      -3.100  37.024  14.942  1.00  0.00     0.041 C 
ATOM      9  O   UNL     1      -2.166  36.281  14.539  1.00  0.00    -0.550 OA
ATOM     10  O   UNL     1      -4.177  37.290  14.105  1.00  0.00    -0.550 OA
ENDBRANCH   7   8
ENDBRANCH   6   7
ENDBRANCH   5   6
ENDBRANCH   4   5
ENDBRANCH   3   4
ENDBRANCH   2   3
ENDBRANCH   1   2
BRANCH   1  11
ATOM     11  C   UNL     1      -4.375  37.494  20.560  1.00  0.00     0.000 C 
BRANCH  11  12
ATOM     12  C   UNL     1      -5.554  38.359  21.036  1.00  0.00    -0.000 C 
BRANCH  12  13
ATOM     13  C   UNL     1      -5.261  39.090  22.361  1.00  0.00    -0.000 C 
BRANCH  13  14
ATOM     14  C   UNL     1      -4.271  38.370  23.299  1.00  0.00    -0.000 C 
BRANCH  14  15
ATOM     15  C   UNL     1      -4.896  37.768  24.573  1.00  0.00    -0.000 C 
BRANCH  15  16
ATOM     16  C   UNL     1      -6.125  36.869  24.333  1.00  0.00    -0.000 C 
BRANCH  16  17
ATOM     17  C   UNL     1      -5.969  35.419  24.822  1.00  0.00    -0.003 C 
ATOM     18  C   UNL     1      -5.640  34.441  23.695  1.00  0.00     0.004 C 
ENDBRANCH  16  17
ENDBRANCH  15  16
ENDBRANCH  14  15
ENDBRANCH  13  14
ENDBRANCH  12  13
ENDBRANCH  11  12
ENDBRANCH   1  11
TORSDOF 14
ENDMDL
MODEL 7
REMARK VINA RESULT:    -3.885      1.751      6.597
REMARK INTER + INTRA:          -8.447
REMARK INTER:                  -7.130
REMARK INTRA:                  -1.317
REMARK UNBOUND:                -1.382
REMARK SMILES CCCCCCCCCCCCCCCC(=O)[O-]
REMARK SMILES IDX 9 1 10 2 11 3 12 4 13 5 14 6 15 7 16 8 17 9 18 10 8 11 7 12
REMARK SMILES IDX 6 13 5 14 4 15 3 16 2 17 1 18
REMARK H PARENT
REMARK Flexibility Score: inf
ROOT
ATOM      1  C   UNL     1      -5.346  37.656  20.084  1.00  0.00     0.000 C 
ENDROOT
BRANCH   1   2
ATOM      2  C   UNL     1      -5.656  36.167  19.858  1.00  0.00     0.000 C 
BRANCH   2   3
ATOM      3  C   UNL     1      -4.442  35.379  19.332  1.00  0.00     0.000 C 
BRANCH   3   4
ATOM      4  C   UNL     1      -4.619  34.767  17.928  1.00  0.00     0.000 C 
BRANCH   4   5
ATOM      5  C   UNL     1      -3.686  35.335  16.840  1.00  0.00     0.000 C 
BRANCH   5   6
ATOM      6  C   UNL     1      -3.293  36.812  17.030  1.00  0.00     0.006 C 
BRANCH   6   7
ATOM      7  C   UNL     1      -1.774  37.023  17.071  1.00  0.00     0.053 C 
BRANCH   7   8
ATOM      8  C   UNL     1      -1.348  37.491  18.426  1.00  0.00     0.041 C 
ATOM      9  O   UNL     1      -0.127  37.651  18.686  1.00  0.00    -0.550 OA
ATOM     10  O   UNL     1      -2.302  37.799  19.388  1.00  0.00    -0.550 OA
ENDBRANCH   7   8
ENDBRANCH   6   7
ENDBRANCH   5   6
ENDBRANCH   4   5
ENDBRANCH   3   4
ENDBRANCH   2   3
ENDBRANCH   1   2
BRANCH   1  11
ATOM     11  C   UNL     1      -5.509  38.074  21.556  1.00  0.00     0.000 C 
BRANCH  11  12
ATOM     12  C   UNL     1      -4.274  38.814  22.097  1.00  0.00    -0.000 C 
BRANCH  12  13
ATOM     13  C   UNL     1      -4.226  38.845  23.637  1.00  0.00    -0.000 C 
BRANCH  13  14
ATOM     14  C   UNL     1      -5.401  38.137  24.342  1.00  0.00    -0.000 C 
BRANCH  14  15
ATOM     15  C   UNL     1      -5.046  36.801  25.023  1.00  0.00    -0.000 C 
BRANCH  15  16
ATOM     16  C   UNL     1      -6.125  35.706  24.912  1.00  0.00    -0.000 C 
BRANCH  16  17
ATOM     17  C   UNL     1      -6.095  34.900  23.602  1.00  0.00    -0.003 C 
ATOM     18  C   UNL     1      -4.713  34.874  22.949  1.00  0.00     0.004 C 
ENDBRANCH  16  17
ENDBRANCH  15  16
ENDBRANCH  14  15
ENDBRANCH  13  14
ENDBRANCH  12  13
ENDBRANCH  11  12
ENDBRANCH   1  11
TORSDOF 14
ENDMDL
MODEL 8
REMARK VINA RESULT:    -3.870      2.042      2.958
REMARK INTER + INTRA:          -8.419
REMARK INTER:                  -7.344
REMARK INTRA:                  -1.075
REMARK UNBOUND:                -1.382
REMARK SMILES CCCCCCCCCCCCCCCC(=O)[O-]
REMARK SMILES IDX 9 1 10 2 11 3 12 4 13 5 14 6 15 7 16 8 17 9 18 10 8 11 7 12
REMARK SMILES IDX 6 13 5 14 4 15 3 16 2 17 1 18
REMARK H PARENT
REMARK Flexibility Score: inf
ROOT
ATOM      1  C   UNL     1      -6.013  34.713  19.113  1.00  0.00     0.000 C 
ENDROOT
BRANCH   1   2
ATOM      2  C   UNL     1      -5.910  35.376  20.497  1.00  0.00     0.000 C 
BRANCH   2   3
ATOM      3  C   UNL     1      -5.640  36.888  20.415  1.00  0.00     0.000 C 
BRANCH   3   4
ATOM      4  C   UNL     1      -4.397  37.373  21.187  1.00  0.00     0.000 C 
BRANCH   4   5
ATOM      5  C   UNL     1      -4.495  38.801  21.760  1.00  0.00     0.000 C 
BRANCH   5   6
ATOM      6  C   UNL     1      -4.363  38.896  23.291  1.00  0.00     0.006 C 
BRANCH   6   7
ATOM      7  C   UNL     1      -5.528  38.228  24.032  1.00  0.00     0.053 C 
BRANCH   7   8
ATOM      8  C   UNL     1      -5.055  37.008  24.757  1.00  0.00     0.041 C 
ATOM      9  O   UNL     1      -5.310  35.862  24.302  1.00  0.00    -0.550 OA
ATOM     10  O   UNL     1      -4.290  37.137  25.909  1.00  0.00    -0.550 OA
ENDBRANCH   7   8
ENDBRANCH   6   7
ENDBRANCH   5   6
ENDBRANCH   4   5
ENDBRANCH   3   4
ENDBRANCH   2   3
ENDBRANCH   1   2
BRANCH   1  11
ATOM     11  C   UNL     1      -4.634  34.424  18.495  1.00  0.00     0.000 C 
BRANCH  11  12
ATOM     12  C   UNL     1      -4.263  35.426  17.389  1.00  0.00    -0.000 C 
BRANCH  12  13
ATOM     13  C   UNL     1      -3.370  36.573  17.899  1.00  0.00    -0.000 C 
BRANCH  13  14
ATOM     14  C   UNL     1      -2.332  37.095  16.885  1.00  0.00    -0.000 C 
BRANCH  14  15
ATOM     15  C   UNL     1      -2.021  36.137  15.718  1.00  0.00    -0.000 C 
BRANCH  15  16
ATOM     16  C   UNL     1      -2.398  36.668  14.321  1.00  0.00    -0.000 C 
BRANCH  16  17
ATOM     17  C   UNL     1      -3.896  36.956  14.121  1.00  0.00    -0.003 C 
ATOM     18  C   UNL     1      -4.235  38.443  14.216  1.00  0.00     0.004 C 
ENDBRANCH  16  17
ENDBRANCH  15  16
ENDBRANCH  14  15
ENDBRANCH  13  14
ENDBRANCH  12  13
ENDBRANCH  11  12
ENDBRANCH   1  11
TORSDOF 14
ENDMDL
MODEL 9
REMARK VINA RESULT:    -3.576      2.733      6.817
REMARK INTER + INTRA:          -7.884
REMARK INTER:                  -6.707
REMARK INTRA:                  -1.177
REMARK UNBOUND:                -1.382
REMARK SMILES CCCCCCCCCCCCCCCC(=O)[O-]
REMARK SMILES IDX 9 1 10 2 11 3 12 4 13 5 14 6 15 7 16 8 17 9 18 10 8 11 7 12
REMARK SMILES IDX 6 13 5 14 4 15 3 16 2 17 1 18
REMARK H PARENT
REMARK Flexibility Score: inf
ROOT
ATOM      1  C   UNL     1      -4.081  38.626  21.429  1.00  0.00     0.000 C 
ENDROOT
BRANCH   1   2
ATOM      2  C   UNL     1      -5.349  37.935  20.899  1.00  0.00     0.000 C 
BRANCH   2   3
ATOM      3  C   UNL     1      -5.138  37.280  19.522  1.00  0.00     0.000 C 
BRANCH   3   4
ATOM      4  C   UNL     1      -3.727  36.708  19.279  1.00  0.00     0.000 C 
BRANCH   4   5
ATOM      5  C   UNL     1      -2.814  37.569  18.384  1.00  0.00     0.000 C 
BRANCH   5   6
ATOM      6  C   UNL     1      -2.169  36.819  17.204  1.00  0.00     0.006 C 
BRANCH   6   7
ATOM      7  C   UNL     1      -3.201  36.176  16.270  1.00  0.00     0.053 C 
BRANCH   7   8
ATOM      8  C   UNL     1      -3.127  36.789  14.908  1.00  0.00     0.041 C 
ATOM      9  O   UNL     1      -2.366  36.298  14.033  1.00  0.00    -0.550 OA
ATOM     10  O   UNL     1      -3.937  37.872  14.588  1.00  0.00    -0.550 OA
ENDBRANCH   7   8
ENDBRANCH   6   7
ENDBRANCH   5   6
ENDBRANCH   4   5
ENDBRANCH   3   4
ENDBRANCH   2   3
ENDBRANCH   1   2
BRANCH   1  11
ATOM     11  C   UNL     1      -4.246  39.131  22.873  1.00  0.00     0.000 C 
BRANCH  11  12
ATOM     12  C   UNL     1      -5.414  38.449  23.605  1.00  0.00    -0.000 C 
BRANCH  12  13
ATOM     13  C   UNL     1      -4.960  37.659  24.847  1.00  0.00    -0.000 C 
BRANCH  13  14
ATOM     14  C   UNL     1      -5.730  36.347  25.104  1.00  0.00    -0.000 C 
BRANCH  14  15
ATOM     15  C   UNL     1      -6.125  35.562  23.838  1.00  0.00    -0.000 C 
BRANCH  15  16
ATOM     16  C   UNL     1      -5.078  34.540  23.352  1.00  0.00    -0.000 C 
BRANCH  16  17
ATOM     17  C   UNL     1      -4.571  34.768  21.918  1.00  0.00    -0.003 C 
ATOM     18  C   UNL     1      -3.155  34.237  21.694  1.00  0.00     0.004 C 
ENDBRANCH  16  17
ENDBRANCH  15  16
ENDBRANCH  14  15
ENDBRANCH  13  14
ENDBRANCH  12  13
ENDBRANCH  11  12
ENDBRANCH   1  11
TORSDOF 14
ENDMDL
