MODEL 1
REMARK VINA RESULT:    -4.018      0.000      0.000
REMARK INTER + INTRA:          -9.481
REMARK INTER:                  -7.307
REMARK INTRA:                  -2.173
REMARK UNBOUND:                -2.173
REMARK SMILES CCCCCCCCCCCCCCCC(=O)[O-]
REMARK SMILES IDX 9 1 10 2 11 3 12 4 13 5 14 6 15 7 16 8 17 9 18 10 8 11 7 12
REMARK SMILES IDX 6 13 5 14 4 15 3 16 2 17 1 18
REMARK H PARENT
REMARK Flexibility Score: inf
ROOT
ATOM      1  C   UNL     1     -41.925   8.227   9.894  1.00  0.00     0.000 C 
ENDROOT
BRANCH   1   2
ATOM      2  C   UNL     1     -43.124   8.885  10.607  1.00  0.00     0.000 C 
BRANCH   2   3
ATOM      3  C   UNL     1     -44.188   9.482   9.670  1.00  0.00     0.000 C 
BRANCH   3   4
ATOM      4  C   UNL     1     -44.625   8.504   8.565  1.00  0.00     0.000 C 
BRANCH   4   5
ATOM      5  C   UNL     1     -44.229   8.989   7.162  1.00  0.00     0.000 C 
BRANCH   5   6
ATOM      6  C   UNL     1     -43.185   8.082   6.492  1.00  0.00     0.006 C 
BRANCH   6   7
ATOM      7  C   UNL     1     -43.698   7.551   5.151  1.00  0.00     0.053 C 
BRANCH   7   8
ATOM      8  C   UNL     1     -43.972   6.082   5.239  1.00  0.00     0.041 C 
ATOM      9  O   UNL     1     -44.779   5.639   6.098  1.00  0.00    -0.550 OA
ATOM     10  O   UNL     1     -43.293   5.198   4.411  1.00  0.00    -0.550 OA
ENDBRANCH   7   8
ENDBRANCH   6   7
ENDBRANCH   5   6
ENDBRANCH   4   5
ENDBRANCH   3   4
ENDBRANCH   2   3
ENDBRANCH   1   2
BRANCH   1  11
ATOM     11  C   UNL     1     -41.148   7.233  10.782  1.00  0.00     0.000 C 
BRANCH  11  12
ATOM     12  C   UNL     1     -41.486   5.770  10.447  1.00  0.00    -0.000 C 
BRANCH  12  13
ATOM     13  C   UNL     1     -42.287   5.636   9.143  1.00  0.00    -0.000 C 
BRANCH  13  14
ATOM     14  C   UNL     1     -43.623   4.908   9.358  1.00  0.00    -0.000 C 
BRANCH  14  15
ATOM     15  C   UNL     1     -44.277   5.338  10.679  1.00  0.00    -0.000 C 
BRANCH  15  16
ATOM     16  C   UNL     1     -45.765   5.686  10.518  1.00  0.00    -0.000 C 
BRANCH  16  17
ATOM     17  C   UNL     1     -46.301   5.363   9.115  1.00  0.00    -0.003 C 
ATOM     18  C   UNL     1     -47.631   4.619   9.194  1.00  0.00     0.004 C 
ENDBRANCH  16  17
ENDBRANCH  15  16
ENDBRANCH  14  15
ENDBRANCH  13  14
ENDBRANCH  12  13
ENDBRANCH  11  12
ENDBRANCH   1  11
TORSDOF 14
ENDMDL
MODEL 2
REMARK VINA RESULT:    -3.946      1.357      3.584
REMARK INTER + INTRA:          -9.349
REMARK INTER:                  -7.124
REMARK INTRA:                  -2.225
REMARK UNBOUND:                -2.173
REMARK SMILES CCCCCCCCCCCCCCCC(=O)[O-]
REMARK SMILES IDX 9 1 10 2 11 3 12 4 13 5 14 6 15 7 16 8 17 9 18 10 8 11 7 12
REMARK SMILES IDX 6 13 5 14 4 15 3 16 2 17 1 18
REMARK H PARENT
REMARK Flexibility Score: inf
ROOT
ATOM      1  C   UNL     1     -41.168   6.718  10.572  1.00  0.00     0.000 C 
ENDROOT
BRANCH   1   2
ATOM      2  C   UNL     1     -42.151   5.610  11.004  1.00  0.00     0.000 C 
BRANCH   2   3
ATOM      3  C   UNL     1     -42.967   4.984   9.860  1.00  0.00     0.000 C 
BRANCH   3   4
ATOM      4  C   UNL     1     -44.482   5.195  10.027  1.00  0.00     0.000 C 
BRANCH   4   5
ATOM      5  C   UNL     1     -45.172   5.573   8.706  1.00  0.00     0.000 C 
BRANCH   5   6
ATOM      6  C   UNL     1     -44.205   5.581   7.512  1.00  0.00     0.006 C 
BRANCH   6   7
ATOM      7  C   UNL     1     -44.919   6.020   6.230  1.00  0.00     0.053 C 
BRANCH   7   8
ATOM      8  C   UNL     1     -43.927   6.267   5.137  1.00  0.00     0.041 C 
ATOM      9  O   UNL     1     -43.651   7.444   4.785  1.00  0.00    -0.550 OA
ATOM     10  O   UNL     1     -43.351   5.195   4.467  1.00  0.00    -0.550 OA
ENDBRANCH   7   8
ENDBRANCH   6   7
ENDBRANCH   5   6
ENDBRANCH   4   5
ENDBRANCH   3   4
ENDBRANCH   2   3
ENDBRANCH   1   2
BRANCH   1  11
ATOM     11  C   UNL     1     -41.851   7.908   9.867  1.00  0.00     0.000 C 
BRANCH  11  12
ATOM     12  C   UNL     1     -41.653   7.868   8.341  1.00  0.00    -0.000 C 
BRANCH  12  13
ATOM     13  C   UNL     1     -41.772   9.258   7.697  1.00  0.00    -0.000 C 
BRANCH  13  14
ATOM     14  C   UNL     1     -43.015  10.017   8.189  1.00  0.00    -0.000 C 
BRANCH  14  15
ATOM     15  C   UNL     1     -44.300   9.373   7.651  1.00  0.00    -0.000 C 
BRANCH  15  16
ATOM     16  C   UNL     1     -45.517   9.636   8.552  1.00  0.00    -0.000 C 
BRANCH  16  17
ATOM     17  C   UNL     1     -45.126   9.912  10.011  1.00  0.00    -0.003 C 
ATOM     18  C   UNL     1     -45.215   8.641  10.852  1.00  0.00     0.004 C 
ENDBRANCH  16  17
ENDBRANCH  15  16
ENDBRANCH  14  15
ENDBRANCH  13  14
ENDBRANCH  12  13
ENDBRANCH  11  12
ENDBRANCH   1  11
TORSDOF 14
ENDMDL
MODEL 3
REMARK VINA RESULT:    -3.932      2.453      4.851
REMARK INTER + INTRA:          -9.323
REMARK INTER:                  -7.215
REMARK INTRA:                  -2.108
REMARK UNBOUND:                -2.173
REMARK SMILES CCCCCCCCCCCCCCCC(=O)[O-]
REMARK SMILES IDX 9 1 10 2 11 3 12 4 13 5 14 6 15 7 16 8 17 9 18 10 8 11 7 12
REMARK SMILES IDX 6 13 5 14 4 15 3 16 2 17 1 18
REMARK H PARENT
REMARK Flexibility Score: inf
ROOT
ATOM      1  C   UNL     1     -43.475   8.511   5.957  1.00  0.00     0.000 C 
ENDROOT
BRANCH   1   2
ATOM      2  C   UNL     1     -43.703   7.518   4.799  1.00  0.00     0.000 C 
BRANCH   2   3
ATOM      3  C   UNL     1     -43.800   6.042   5.218  1.00  0.00     0.000 C 
BRANCH   3   4
ATOM      4  C   UNL     1     -43.994   5.865   6.734  1.00  0.00     0.000 C 
BRANCH   4   5
ATOM      5  C   UNL     1     -45.349   5.229   7.083  1.00  0.00     0.000 C 
BRANCH   5   6
ATOM      6  C   UNL     1     -45.908   5.722   8.427  1.00  0.00     0.006 C 
BRANCH   6   7
ATOM      7  C   UNL     1     -45.424   7.142   8.736  1.00  0.00     0.053 C 
BRANCH   7   8
ATOM      8  C   UNL     1     -45.427   7.387  10.212  1.00  0.00     0.041 C 
ATOM      9  O   UNL     1     -45.803   6.483  11.004  1.00  0.00    -0.550 OA
ATOM     10  O   UNL     1     -45.068   8.633  10.710  1.00  0.00    -0.550 OA
ENDBRANCH   7   8
ENDBRANCH   6   7
ENDBRANCH   5   6
ENDBRANCH   4   5
ENDBRANCH   3   4
ENDBRANCH   2   3
ENDBRANCH   1   2
BRANCH   1  11
ATOM     11  C   UNL     1     -42.250   9.426   5.754  1.00  0.00     0.000 C 
BRANCH  11  12
ATOM     12  C   UNL     1     -41.357   9.484   7.006  1.00  0.00    -0.000 C 
BRANCH  12  13
ATOM     13  C   UNL     1     -41.766   8.451   8.068  1.00  0.00    -0.000 C 
BRANCH  13  14
ATOM     14  C   UNL     1     -41.775   9.051   9.482  1.00  0.00    -0.000 C 
BRANCH  14  15
ATOM     15  C   UNL     1     -41.579   7.958  10.543  1.00  0.00    -0.000 C 
BRANCH  15  16
ATOM     16  C   UNL     1     -41.233   6.592   9.930  1.00  0.00    -0.000 C 
BRANCH  16  17
ATOM     17  C   UNL     1     -41.734   5.416  10.782  1.00  0.00    -0.003 C 
ATOM     18  C   UNL     1     -42.858   4.666  10.073  1.00  0.00     0.004 C 
ENDBRANCH  16  17
ENDBRANCH  15  16
ENDBRANCH  14  15
ENDBRANCH  13  14
ENDBRANCH  12  13
ENDBRANCH  11  12
ENDBRANCH   1  11
TORSDOF 14
ENDMDL
MODEL 4
REMARK VINA RESULT:    -3.897      1.205      2.970
REMARK INTER + INTRA:          -9.259
REMARK INTER:                  -7.005
REMARK INTRA:                  -2.255
REMARK UNBOUND:                -2.173
REMARK SMILES CCCCCCCCCCCCCCCC(=O)[O-]
REMARK SMILES IDX 9 1 10 2 11 3 12 4 13 5 14 6 15 7 16 8 17 9 18 10 8 11 7 12
REMARK SMILES IDX 6 13 5 14 4 15 3 16 2 17 1 18
REMARK H PARENT
REMARK Flexibility Score: inf
ROOT
ATOM      1  C   UNL     1     -41.102   7.986  10.845  1.00  0.00     0.000 C 
ENDROOT
BRANCH   1   2
ATOM      2  C   UNL     1     -41.202   6.773   9.898  1.00  0.00     0.000 C 
BRANCH   2   3
ATOM      3  C   UNL     1     -42.017   5.588  10.445  1.00  0.00     0.000 C 
BRANCH   3   4
ATOM      4  C   UNL     1     -42.749   4.809   9.338  1.00  0.00     0.000 C 
BRANCH   4   5
ATOM      5  C   UNL     1     -42.803   5.583   8.012  1.00  0.00     0.000 C 
BRANCH   5   6
ATOM      6  C   UNL     1     -43.993   5.170   7.131  1.00  0.00     0.006 C 
BRANCH   6   7
ATOM      7  C   UNL     1     -44.541   6.369   6.352  1.00  0.00     0.053 C 
BRANCH   7   8
ATOM      8  C   UNL     1     -43.837   6.508   5.039  1.00  0.00     0.041 C 
ATOM      9  O   UNL     1     -43.644   7.647   4.540  1.00  0.00    -0.550 OA
ATOM     10  O   UNL     1     -43.445   5.374   4.338  1.00  0.00    -0.550 OA
ENDBRANCH   7   8
ENDBRANCH   6   7
ENDBRANCH   5   6
ENDBRANCH   4   5
ENDBRANCH   3   4
ENDBRANCH   2   3
ENDBRANCH   1   2
BRANCH   1  11
ATOM     11  C   UNL     1     -42.450   8.698  11.082  1.00  0.00     0.000 C 
BRANCH  11  12
ATOM     12  C   UNL     1     -42.690   9.835  10.073  1.00  0.00    -0.000 C 
BRANCH  12  13
ATOM     13  C   UNL     1     -43.586   9.402   8.903  1.00  0.00    -0.000 C 
BRANCH  13  14
ATOM     14  C   UNL     1     -45.058   9.268   9.322  1.00  0.00    -0.000 C 
BRANCH  14  15
ATOM     15  C   UNL     1     -45.510   7.802   9.283  1.00  0.00    -0.000 C 
BRANCH  15  16
ATOM     16  C   UNL     1     -45.506   7.143  10.671  1.00  0.00    -0.000 C 
BRANCH  16  17
ATOM     17  C   UNL     1     -45.830   5.642  10.616  1.00  0.00    -0.003 C 
ATOM     18  C   UNL     1     -46.698   5.313   9.405  1.00  0.00     0.004 C 
ENDBRANCH  16  17
ENDBRANCH  15  16
ENDBRANCH  14  15
ENDBRANCH  13  14
ENDBRANCH  12  13
ENDBRANCH  11  12
ENDBRANCH   1  11
TORSDOF 14
ENDMDL
MODEL 5
REMARK VINA RESULT:    -3.833      1.337      3.749
REMARK INTER + INTRA:          -9.143
REMARK INTER:                  -6.678
REMARK INTRA:                  -2.465
REMARK UNBOUND:                -2.173
REMARK SMILES CCCCCCCCCCCCCCCC(=O)[O-]
REMARK SMILES IDX 9 1 10 2 11 3 12 4 13 5 14 6 15 7 16 8 17 9 18 10 8 11 7 12
REMARK SMILES IDX 6 13 5 14 4 15 3 16 2 17 1 18
REMARK H PARENT
REMARK Flexibility Score: inf
ROOT
ATOM      1  C   UNL     1     -45.367   8.829   9.516  1.00  0.00     0.000 C 
ENDROOT
BRANCH   1   2
ATOM      2  C   UNL     1     -45.186   7.848  10.693  1.00  0.00     0.000 C 
BRANCH   2   3
ATOM      3  C   UNL     1     -44.838   6.406  10.288  1.00  0.00     0.000 C 
BRANCH   3   4
ATOM      4  C   UNL     1     -46.080   5.573   9.927  1.00  0.00     0.000 C 
BRANCH   4   5
ATOM      5  C   UNL     1     -46.234   5.375   8.410  1.00  0.00     0.000 C 
BRANCH   5   6
ATOM      6  C   UNL     1     -44.922   5.606   7.644  1.00  0.00     0.006 C 
BRANCH   6   7
ATOM      7  C   UNL     1     -45.104   6.660   6.548  1.00  0.00     0.053 C 
BRANCH   7   8
ATOM      8  C   UNL     1     -44.090   6.469   5.464  1.00  0.00     0.041 C 
ATOM      9  O   UNL     1     -43.714   7.448   4.768  1.00  0.00    -0.550 OA
ATOM     10  O   UNL     1     -43.602   5.199   5.185  1.00  0.00    -0.550 OA
ENDBRANCH   7   8
ENDBRANCH   6   7
ENDBRANCH   5   6
ENDBRANCH   4   5
ENDBRANCH   3   4
ENDBRANCH   2   3
ENDBRANCH   1   2
BRANCH   1  11
ATOM     11  C   UNL     1     -44.199   9.825   9.359  1.00  0.00     0.000 C 
BRANCH  11  12
ATOM     12  C   UNL     1     -43.435   9.618   8.039  1.00  0.00    -0.000 C 
BRANCH  12  13
ATOM     13  C   UNL     1     -42.031   9.036   8.260  1.00  0.00    -0.000 C 
BRANCH  13  14
ATOM     14  C   UNL     1     -41.686   8.910   9.751  1.00  0.00    -0.000 C 
BRANCH  14  15
ATOM     15  C   UNL     1     -41.374   7.452  10.122  1.00  0.00    -0.000 C 
BRANCH  15  16
ATOM     16  C   UNL     1     -41.407   6.512   8.907  1.00  0.00    -0.000 C 
BRANCH  16  17
ATOM     17  C   UNL     1     -41.652   5.047   9.298  1.00  0.00    -0.003 C 
ATOM     18  C   UNL     1     -41.555   4.860  10.810  1.00  0.00     0.004 C 
ENDBRANCH  16  17
ENDBRANCH  15  16
ENDBRANCH  14  15
ENDBRANCH  13  14
ENDBRANCH  12  13
ENDBRANCH  11  12
ENDBRANCH   1  11
TORSDOF 14
ENDMDL
MODEL 6
REMARK VINA RESULT:    -3.809      1.752      2.684
REMARK INTER + INTRA:          -9.100
REMARK INTER:                  -6.588
REMARK INTRA:                  -2.511
REMARK UNBOUND:                -2.173
REMARK SMILES CCCCCCCCCCCCCCCC(=O)[O-]
REMARK SMILES IDX 9 1 10 2 11 3 12 4 13 5 14 6 15 7 16 8 17 9 18 10 8 11 7 12
REMARK SMILES IDX 6 13 5 14 4 15 3 16 2 17 1 18
REMARK H PARENT
REMARK Flexibility Score: inf
ROOT
ATOM      1  C   UNL     1     -41.302   6.469   9.068  1.00  0.00     0.000 C 
ENDROOT
BRANCH   1   2
ATOM      2  C   UNL     1     -41.213   7.170  10.440  1.00  0.00     0.000 C 
BRANCH   2   3
ATOM      3  C   UNL     1     -41.798   8.592  10.482  1.00  0.00     0.000 C 
BRANCH   3   4
ATOM      4  C   UNL     1     -41.902   9.234   9.087  1.00  0.00     0.000 C 
BRANCH   4   5
ATOM      5  C   UNL     1     -43.353   9.552   8.693  1.00  0.00     0.000 C 
BRANCH   5   6
ATOM      6  C   UNL     1     -43.499   9.911   7.206  1.00  0.00     0.006 C 
BRANCH   6   7
ATOM      7  C   UNL     1     -42.609   9.018   6.335  1.00  0.00     0.053 C 
BRANCH   7   8
ATOM      8  C   UNL     1     -43.152   8.936   4.943  1.00  0.00     0.041 C 
ATOM      9  O   UNL     1     -43.205   9.966   4.221  1.00  0.00    -0.550 OA
ATOM     10  O   UNL     1     -43.654   7.733   4.463  1.00  0.00    -0.550 OA
ENDBRANCH   7   8
ENDBRANCH   6   7
ENDBRANCH   5   6
ENDBRANCH   4   5
ENDBRANCH   3   4
ENDBRANCH   2   3
ENDBRANCH   1   2
BRANCH   1  11
ATOM     11  C   UNL     1     -42.292   5.287   9.042  1.00  0.00     0.000 C 
BRANCH  11  12
ATOM     12  C   UNL     1     -42.748   4.881  10.455  1.00  0.00    -0.000 C 
BRANCH  12  13
ATOM     13  C   UNL     1     -44.273   4.955  10.623  1.00  0.00    -0.000 C 
BRANCH  13  14
ATOM     14  C   UNL     1     -44.738   6.346  11.079  1.00  0.00    -0.000 C 
BRANCH  14  15
ATOM     15  C   UNL     1     -45.506   7.063   9.959  1.00  0.00    -0.000 C 
BRANCH  15  16
ATOM     16  C   UNL     1     -45.869   6.127   8.796  1.00  0.00    -0.000 C 
BRANCH  16  17
ATOM     17  C   UNL     1     -45.221   6.551   7.469  1.00  0.00    -0.003 C 
ATOM     18  C   UNL     1     -44.996   5.346   6.560  1.00  0.00     0.004 C 
ENDBRANCH  16  17
ENDBRANCH  15  16
ENDBRANCH  14  15
ENDBRANCH  13  14
ENDBRANCH  12  13
ENDBRANCH  11  12
ENDBRANCH   1  11
TORSDOF 14
ENDMDL
MODEL 7
REMARK VINA RESULT:    -3.685      1.771      3.276
REMARK INTER + INTRA:          -8.875
REMARK INTER:                  -6.782
REMARK INTRA:                  -2.092
REMARK UNBOUND:                -2.173
REMARK SMILES CCCCCCCCCCCCCCCC(=O)[O-]
REMARK SMILES IDX 9 1 10 2 11 3 12 4 13 5 14 6 15 7 16 8 17 9 18 10 8 11 7 12
REMARK SMILES IDX 6 13 5 14 4 15 3 16 2 17 1 18
REMARK H PARENT
REMARK Flexibility Score: inf
ROOT
ATOM      1  C   UNL     1     -41.329   6.052   9.759  1.00  0.00     0.000 C 
ENDROOT
BRANCH   1   2
ATOM      2  C   UNL     1     -41.433   7.295  10.667  1.00  0.00     0.000 C 
BRANCH   2   3
ATOM      3  C   UNL     1     -41.711   8.616   9.929  1.00  0.00     0.000 C 
BRANCH   3   4
ATOM      4  C   UNL     1     -41.716   8.454   8.399  1.00  0.00     0.000 C 
BRANCH   4   5
ATOM      5  C   UNL     1     -41.353   9.756   7.669  1.00  0.00     0.000 C 
BRANCH   5   6
ATOM      6  C   UNL     1     -41.498   9.642   6.143  1.00  0.00     0.006 C 
BRANCH   6   7
ATOM      7  C   UNL     1     -42.965   9.772   5.721  1.00  0.00     0.053 C 
BRANCH   7   8
ATOM      8  C   UNL     1     -43.261   8.861   4.571  1.00  0.00     0.041 C 
ATOM      9  O   UNL     1     -43.213   9.294   3.390  1.00  0.00    -0.550 OA
ATOM     10  O   UNL     1     -43.645   7.547   4.807  1.00  0.00    -0.550 OA
ENDBRANCH   7   8
ENDBRANCH   6   7
ENDBRANCH   5   6
ENDBRANCH   4   5
ENDBRANCH   3   4
ENDBRANCH   2   3
ENDBRANCH   1   2
BRANCH   1  11
ATOM     11  C   UNL     1     -42.302   4.920  10.149  1.00  0.00     0.000 C 
BRANCH  11  12
ATOM     12  C   UNL     1     -43.530   4.867   9.224  1.00  0.00    -0.000 C 
BRANCH  12  13
ATOM     13  C   UNL     1     -44.695   5.722   9.746  1.00  0.00    -0.000 C 
BRANCH  13  14
ATOM     14  C   UNL     1     -45.579   6.250   8.606  1.00  0.00    -0.000 C 
BRANCH  14  15
ATOM     15  C   UNL     1     -44.942   7.479   7.941  1.00  0.00    -0.000 C 
BRANCH  15  16
ATOM     16  C   UNL     1     -45.844   8.722   8.004  1.00  0.00    -0.000 C 
BRANCH  16  17
ATOM     17  C   UNL     1     -45.166   9.911   8.701  1.00  0.00    -0.003 C 
ATOM     18  C   UNL     1     -45.111   9.701  10.212  1.00  0.00     0.004 C 
ENDBRANCH  16  17
ENDBRANCH  15  16
ENDBRANCH  14  15
ENDBRANCH  13  14
ENDBRANCH  12  13
ENDBRANCH  11  12
ENDBRANCH   1  11
TORSDOF 14
ENDMDL
MODEL 8
REMARK VINA RESULT:    -3.658      2.410      4.958
REMARK INTER + INTRA:          -8.825
REMARK INTER:                  -6.274
REMARK INTRA:                  -2.551
REMARK UNBOUND:                -2.173
REMARK SMILES CCCCCCCCCCCCCCCC(=O)[O-]
REMARK SMILES IDX 9 1 10 2 11 3 12 4 13 5 14 6 15 7 16 8 17 9 18 10 8 11 7 12
REMARK SMILES IDX 6 13 5 14 4 15 3 16 2 17 1 18
REMARK H PARENT
REMARK Flexibility Score: inf
ROOT
ATOM      1  C   UNL     1     -45.759   5.666  10.364  1.00  0.00     0.000 C 
ENDROOT
BRANCH   1   2
ATOM      2  C   UNL     1     -46.550   5.621   9.040  1.00  0.00     0.000 C 
BRANCH   2   3
ATOM      3  C   UNL     1     -45.849   4.881   7.889  1.00  0.00     0.000 C 
BRANCH   3   4
ATOM      4  C   UNL     1     -45.141   5.835   6.912  1.00  0.00     0.000 C 
BRANCH   4   5
ATOM      5  C   UNL     1     -43.626   5.584   6.838  1.00  0.00     0.000 C 
BRANCH   5   6
ATOM      6  C   UNL     1     -42.882   6.068   8.092  1.00  0.00     0.006 C 
BRANCH   6   7
ATOM      7  C   UNL     1     -42.117   4.918   8.754  1.00  0.00     0.053 C 
BRANCH   7   8
ATOM      8  C   UNL     1     -41.732   5.282  10.154  1.00  0.00     0.041 C 
ATOM      9  O   UNL     1     -42.102   4.565  11.120  1.00  0.00    -0.550 OA
ATOM     10  O   UNL     1     -41.014   6.446  10.396  1.00  0.00    -0.550 OA
ENDBRANCH   7   8
ENDBRANCH   6   7
ENDBRANCH   5   6
ENDBRANCH   4   5
ENDBRANCH   3   4
ENDBRANCH   2   3
ENDBRANCH   1   2
BRANCH   1  11
ATOM     11  C   UNL     1     -45.698   7.070  10.999  1.00  0.00     0.000 C 
BRANCH  11  12
ATOM     12  C   UNL     1     -44.256   7.603  11.090  1.00  0.00    -0.000 C 
BRANCH  12  13
ATOM     13  C   UNL     1     -44.036   8.850  10.220  1.00  0.00    -0.000 C 
BRANCH  13  14
ATOM     14  C   UNL     1     -45.219   9.112   9.277  1.00  0.00    -0.000 C 
BRANCH  14  15
ATOM     15  C   UNL     1     -44.745   9.235   7.821  1.00  0.00    -0.000 C 
BRANCH  15  16
ATOM     16  C   UNL     1     -43.413   9.992   7.694  1.00  0.00    -0.000 C 
BRANCH  16  17
ATOM     17  C   UNL     1     -42.471   9.363   6.655  1.00  0.00    -0.003 C 
ATOM     18  C   UNL     1     -43.235   8.957   5.398  1.00  0.00     0.004 C 
ENDBRANCH  16  17
ENDBRANCH  15  16
ENDBRANCH  14  15
ENDBRANCH  13  14
ENDBRANCH  12  13
ENDBRANCH  11  12
ENDBRANCH   1  11
TORSDOF 14
ENDMDL
