MODEL 1
REMARK VINA RESULT:    -4.669      0.000      0.000
REMARK INTER + INTRA:         -13.464
REMARK INTER:                 -10.129
REMARK INTRA:                  -3.335
REMARK UNBOUND:                -3.335
REMARK SMILES CCCCCCCCCCCCCCCCCCCCCC(=O)[O-]
REMARK SMILES IDX 12 1 11 2 10 3 9 4 8 5 7 6 6 7 5 8 4 9 3 10 2 11 1 12 13 13
REMARK SMILES IDX 14 14 15 15 16 16 17 17 18 18 19 19 20 20 21 21 22 22 23 23
REMARK SMILES IDX 24 24
REMARK H PARENT
REMARK Flexibility Score: inf
ROOT
ATOM      1  C   UNL     1       2.771 -13.063   4.006  1.00  0.00     0.000 C 
ENDROOT
BRANCH   1   2
ATOM      2  C   UNL     1       2.085 -11.760   3.561  1.00  0.00     0.000 C 
BRANCH   2   3
ATOM      3  C   UNL     1       3.084 -10.632   3.250  1.00  0.00     0.000 C 
BRANCH   3   4
ATOM      4  C   UNL     1       3.007 -10.166   1.787  1.00  0.00    -0.000 C 
BRANCH   4   5
ATOM      5  C   UNL     1       2.164 -11.111   0.912  1.00  0.00    -0.000 C 
BRANCH   5   6
ATOM      6  C   UNL     1       3.015 -11.884  -0.109  1.00  0.00    -0.000 C 
BRANCH   6   7
ATOM      7  C   UNL     1       3.162 -13.374   0.252  1.00  0.00    -0.000 C 
BRANCH   7   8
ATOM      8  C   UNL     1       4.642 -13.800   0.370  1.00  0.00    -0.000 C 
BRANCH   8   9
ATOM      9  C   UNL     1       5.628 -12.615   0.383  1.00  0.00    -0.000 C 
BRANCH   9  10
ATOM     10  C   UNL     1       6.958 -12.891   1.104  1.00  0.00    -0.000 C 
BRANCH  10  11
ATOM     11  C   UNL     1       7.538 -14.274   0.772  1.00  0.00    -0.003 C 
ATOM     12  C   UNL     1       9.026 -14.180   0.446  1.00  0.00     0.004 C 
ENDBRANCH  10  11
ENDBRANCH   9  10
ENDBRANCH   8   9
ENDBRANCH   7   8
ENDBRANCH   6   7
ENDBRANCH   5   6
ENDBRANCH   4   5
ENDBRANCH   3   4
ENDBRANCH   2   3
ENDBRANCH   1   2
BRANCH   1  13
ATOM     13  C   UNL     1       4.311 -13.019   3.904  1.00  0.00     0.000 C 
BRANCH  13  14
ATOM     14  C   UNL     1       4.990 -14.005   4.871  1.00  0.00     0.000 C 
BRANCH  14  15
ATOM     15  C   UNL     1       4.988 -13.504   6.323  1.00  0.00     0.000 C 
BRANCH  15  16
ATOM     16  C   UNL     1       5.983 -12.352   6.556  1.00  0.00     0.000 C 
BRANCH  16  17
ATOM     17  C   UNL     1       5.333 -11.135   7.234  1.00  0.00     0.000 C 
BRANCH  17  18
ATOM     18  C   UNL     1       3.824 -11.040   6.951  1.00  0.00     0.000 C 
BRANCH  18  19
ATOM     19  C   UNL     1       3.331  -9.587   6.813  1.00  0.00     0.000 C 
BRANCH  19  20
ATOM     20  C   UNL     1       4.394  -8.579   6.341  1.00  0.00     0.006 C 
BRANCH  20  21
ATOM     21  C   UNL     1       3.789  -7.368   5.619  1.00  0.00     0.053 C 
BRANCH  21  22
ATOM     22  C   UNL     1       3.426  -6.301   6.602  1.00  0.00     0.041 C 
ATOM     23  O   UNL     1       2.484  -5.501   6.350  1.00  0.00    -0.550 OA
ATOM     24  O   UNL     1       4.091  -6.218   7.818  1.00  0.00    -0.550 OA
ENDBRANCH  21  22
ENDBRANCH  20  21
ENDBRANCH  19  20
ENDBRANCH  18  19
ENDBRANCH  17  18
ENDBRANCH  16  17
ENDBRANCH  15  16
ENDBRANCH  14  15
ENDBRANCH  13  14
ENDBRANCH   1  13
TORSDOF 20
ENDMDL
MODEL 2
REMARK VINA RESULT:    -4.474      3.761      8.042
REMARK INTER + INTRA:         -13.039
REMARK INTER:                 -10.442
REMARK INTRA:                  -2.597
REMARK UNBOUND:                -3.335
REMARK SMILES CCCCCCCCCCCCCCCCCCCCCC(=O)[O-]
REMARK SMILES IDX 12 1 11 2 10 3 9 4 8 5 7 6 6 7 5 8 4 9 3 10 2 11 1 12 13 13
REMARK SMILES IDX 14 14 15 15 16 16 17 17 18 18 19 19 20 20 21 21 22 22 23 23
REMARK SMILES IDX 24 24
REMARK H PARENT
REMARK Flexibility Score: inf
ROOT
ATOM      1  C   UNL     1       4.575 -13.432   6.398  1.00  0.00     0.000 C 
ENDROOT
BRANCH   1   2
ATOM      2  C   UNL     1       5.917 -12.687   6.513  1.00  0.00     0.000 C 
BRANCH   2   3
ATOM      3  C   UNL     1       5.800 -11.355   7.272  1.00  0.00     0.000 C 
BRANCH   3   4
ATOM      4  C   UNL     1       4.466 -10.640   7.005  1.00  0.00    -0.000 C 
BRANCH   4   5
ATOM      5  C   UNL     1       4.661  -9.203   6.489  1.00  0.00    -0.000 C 
BRANCH   5   6
ATOM      6  C   UNL     1       3.679  -8.843   5.362  1.00  0.00    -0.000 C 
BRANCH   6   7
ATOM      7  C   UNL     1       2.267  -9.405   5.606  1.00  0.00    -0.000 C 
BRANCH   7   8
ATOM      8  C   UNL     1       1.299  -8.331   6.152  1.00  0.00    -0.000 C 
BRANCH   8   9
ATOM      9  C   UNL     1       1.354  -8.171   7.684  1.00  0.00    -0.000 C 
BRANCH   9  10
ATOM     10  C   UNL     1       1.515  -6.723   8.176  1.00  0.00    -0.000 C 
BRANCH  10  11
ATOM     11  C   UNL     1       2.883  -6.123   7.817  1.00  0.00    -0.003 C 
ATOM     12  C   UNL     1       2.732  -4.962   6.837  1.00  0.00     0.004 C 
ENDBRANCH  10  11
ENDBRANCH   9  10
ENDBRANCH   8   9
ENDBRANCH   7   8
ENDBRANCH   6   7
ENDBRANCH   5   6
ENDBRANCH   4   5
ENDBRANCH   3   4
ENDBRANCH   2   3
ENDBRANCH   1   2
BRANCH   1  13
ATOM     13  C   UNL     1       4.219 -13.848   4.955  1.00  0.00     0.000 C 
BRANCH  13  14
ATOM     14  C   UNL     1       4.513 -12.734   3.934  1.00  0.00     0.000 C 
BRANCH  14  15
ATOM     15  C   UNL     1       3.276 -12.348   3.109  1.00  0.00     0.000 C 
BRANCH  15  16
ATOM     16  C   UNL     1       3.434 -10.990   2.401  1.00  0.00     0.000 C 
BRANCH  16  17
ATOM     17  C   UNL     1       4.128 -11.111   1.034  1.00  0.00     0.000 C 
BRANCH  17  18
ATOM     18  C   UNL     1       3.844 -12.459   0.348  1.00  0.00     0.000 C 
BRANCH  18  19
ATOM     19  C   UNL     1       5.117 -13.300   0.133  1.00  0.00     0.000 C 
BRANCH  19  20
ATOM     20  C   UNL     1       6.426 -12.494   0.053  1.00  0.00     0.006 C 
BRANCH  20  21
ATOM     21  C   UNL     1       7.490 -12.985   1.044  1.00  0.00     0.053 C 
BRANCH  21  22
ATOM     22  C   UNL     1       8.284 -14.103   0.448  1.00  0.00     0.041 C 
ATOM     23  O   UNL     1       9.537 -14.010   0.350  1.00  0.00    -0.550 OA
ATOM     24  O   UNL     1       7.648 -15.271   0.045  1.00  0.00    -0.550 OA
ENDBRANCH  21  22
ENDBRANCH  20  21
ENDBRANCH  19  20
ENDBRANCH  18  19
ENDBRANCH  17  18
ENDBRANCH  16  17
ENDBRANCH  15  16
ENDBRANCH  14  15
ENDBRANCH  13  14
ENDBRANCH   1  13
TORSDOF 20
ENDMDL
MODEL 3
REMARK VINA RESULT:    -4.401      3.303      7.360
REMARK INTER + INTRA:         -12.883
REMARK INTER:                  -9.417
REMARK INTRA:                  -3.466
REMARK UNBOUND:                -3.335
REMARK SMILES CCCCCCCCCCCCCCCCCCCCCC(=O)[O-]
REMARK SMILES IDX 12 1 11 2 10 3 9 4 8 5 7 6 6 7 5 8 4 9 3 10 2 11 1 12 13 13
REMARK SMILES IDX 14 14 15 15 16 16 17 17 18 18 19 19 20 20 21 21 22 22 23 23
REMARK SMILES IDX 24 24
REMARK H PARENT
REMARK Flexibility Score: inf
ROOT
ATOM      1  C   UNL     1       5.393 -12.371   6.921  1.00  0.00     0.000 C 
ENDROOT
BRANCH   1   2
ATOM      2  C   UNL     1       4.154 -11.462   6.855  1.00  0.00     0.000 C 
BRANCH   2   3
ATOM      3  C   UNL     1       4.510  -9.968   6.768  1.00  0.00     0.000 C 
BRANCH   3   4
ATOM      4  C   UNL     1       4.053  -9.330   5.447  1.00  0.00    -0.000 C 
BRANCH   4   5
ATOM      5  C   UNL     1       4.102  -7.792   5.489  1.00  0.00    -0.000 C 
BRANCH   5   6
ATOM      6  C   UNL     1       3.777  -7.229   6.882  1.00  0.00    -0.000 C 
BRANCH   6   7
ATOM      7  C   UNL     1       2.654  -6.177   6.848  1.00  0.00    -0.000 C 
BRANCH   7   8
ATOM      8  C   UNL     1       1.358  -6.687   7.519  1.00  0.00    -0.000 C 
BRANCH   8   9
ATOM      9  C   UNL     1       1.452  -8.142   8.018  1.00  0.00    -0.000 C 
BRANCH   9  10
ATOM     10  C   UNL     1       0.746  -9.177   7.127  1.00  0.00    -0.000 C 
BRANCH  10  11
ATOM     11  C   UNL     1      -0.083  -8.528   6.007  1.00  0.00    -0.003 C 
ATOM     12  C   UNL     1       0.419  -8.963   4.632  1.00  0.00     0.004 C 
ENDBRANCH  10  11
ENDBRANCH   9  10
ENDBRANCH   8   9
ENDBRANCH   7   8
ENDBRANCH   6   7
ENDBRANCH   5   6
ENDBRANCH   4   5
ENDBRANCH   3   4
ENDBRANCH   2   3
ENDBRANCH   1   2
BRANCH   1  13
ATOM     13  C   UNL     1       5.240 -13.687   6.127  1.00  0.00     0.000 C 
BRANCH  13  14
ATOM     14  C   UNL     1       4.636 -13.460   4.730  1.00  0.00     0.000 C 
BRANCH  14  15
ATOM     15  C   UNL     1       3.428 -14.369   4.454  1.00  0.00     0.000 C 
BRANCH  15  16
ATOM     16  C   UNL     1       2.324 -13.661   3.647  1.00  0.00     0.000 C 
BRANCH  16  17
ATOM     17  C   UNL     1       2.327 -12.136   3.850  1.00  0.00     0.000 C 
BRANCH  17  18
ATOM     18  C   UNL     1       2.271 -11.365   2.520  1.00  0.00     0.000 C 
BRANCH  18  19
ATOM     19  C   UNL     1       3.666 -11.106   1.919  1.00  0.00     0.000 C 
BRANCH  19  20
ATOM     20  C   UNL     1       3.985 -11.902   0.641  1.00  0.00     0.006 C 
BRANCH  20  21
ATOM     21  C   UNL     1       4.847 -13.143   0.910  1.00  0.00     0.053 C 
BRANCH  21  22
ATOM     22  C   UNL     1       6.298 -12.811   0.771  1.00  0.00     0.041 C 
ATOM     23  O   UNL     1       7.163 -13.471   1.408  1.00  0.00    -0.550 OA
ATOM     24  O   UNL     1       6.703 -11.806  -0.098  1.00  0.00    -0.550 OA
ENDBRANCH  21  22
ENDBRANCH  20  21
ENDBRANCH  19  20
ENDBRANCH  18  19
ENDBRANCH  17  18
ENDBRANCH  16  17
ENDBRANCH  15  16
ENDBRANCH  14  15
ENDBRANCH  13  14
ENDBRANCH   1  13
TORSDOF 20
ENDMDL
MODEL 4
REMARK VINA RESULT:    -4.397      3.783      7.855
REMARK INTER + INTRA:         -12.874
REMARK INTER:                  -9.734
REMARK INTRA:                  -3.140
REMARK UNBOUND:                -3.335
REMARK SMILES CCCCCCCCCCCCCCCCCCCCCC(=O)[O-]
REMARK SMILES IDX 12 1 11 2 10 3 9 4 8 5 7 6 6 7 5 8 4 9 3 10 2 11 1 12 13 13
REMARK SMILES IDX 14 14 15 15 16 16 17 17 18 18 19 19 20 20 21 21 22 22 23 23
REMARK SMILES IDX 24 24
REMARK H PARENT
REMARK Flexibility Score: inf
ROOT
ATOM      1  C   UNL     1       2.620 -12.709   3.832  1.00  0.00     0.000 C 
ENDROOT
BRANCH   1   2
ATOM      2  C   UNL     1       3.459 -13.979   4.057  1.00  0.00     0.000 C 
BRANCH   2   3
ATOM      3  C   UNL     1       4.893 -13.677   4.522  1.00  0.00     0.000 C 
BRANCH   3   4
ATOM      4  C   UNL     1       5.046 -13.758   6.049  1.00  0.00    -0.000 C 
BRANCH   4   5
ATOM      5  C   UNL     1       5.659 -12.480   6.647  1.00  0.00    -0.000 C 
BRANCH   5   6
ATOM      6  C   UNL     1       4.593 -11.452   7.062  1.00  0.00    -0.000 C 
BRANCH   6   7
ATOM      7  C   UNL     1       5.045 -10.001   6.821  1.00  0.00    -0.000 C 
BRANCH   7   8
ATOM      8  C   UNL     1       3.946  -9.155   6.138  1.00  0.00    -0.000 C 
BRANCH   8   9
ATOM      9  C   UNL     1       2.639  -9.069   6.950  1.00  0.00    -0.000 C 
BRANCH   9  10
ATOM     10  C   UNL     1       1.424  -8.551   6.162  1.00  0.00    -0.000 C 
BRANCH  10  11
ATOM     11  C   UNL     1       0.217  -9.499   6.241  1.00  0.00    -0.003 C 
ATOM     12  C   UNL     1       0.002 -10.222   4.913  1.00  0.00     0.004 C 
ENDBRANCH  10  11
ENDBRANCH   9  10
ENDBRANCH   8   9
ENDBRANCH   7   8
ENDBRANCH   6   7
ENDBRANCH   5   6
ENDBRANCH   4   5
ENDBRANCH   3   4
ENDBRANCH   2   3
ENDBRANCH   1   2
BRANCH   1  13
ATOM     13  C   UNL     1       3.467 -11.428   3.670  1.00  0.00     0.000 C 
BRANCH  13  14
ATOM     14  C   UNL     1       2.841 -10.435   2.674  1.00  0.00     0.000 C 
BRANCH  14  15
ATOM     15  C   UNL     1       1.977 -11.130   1.611  1.00  0.00     0.000 C 
BRANCH  15  16
ATOM     16  C   UNL     1       2.754 -11.424   0.314  1.00  0.00     0.000 C 
BRANCH  16  17
ATOM     17  C   UNL     1       2.928 -12.930   0.056  1.00  0.00     0.000 C 
BRANCH  17  18
ATOM     18  C   UNL     1       4.351 -13.421   0.376  1.00  0.00     0.000 C 
BRANCH  18  19
ATOM     19  C   UNL     1       5.354 -12.267   0.564  1.00  0.00     0.000 C 
BRANCH  19  20
ATOM     20  C   UNL     1       6.736 -12.493  -0.077  1.00  0.00     0.006 C 
BRANCH  20  21
ATOM     21  C   UNL     1       7.783 -12.996   0.926  1.00  0.00     0.053 C 
BRANCH  21  22
ATOM     22  C   UNL     1       8.383 -14.282   0.456  1.00  0.00     0.041 C 
ATOM     23  O   UNL     1       7.654 -15.296   0.283  1.00  0.00    -0.550 OA
ATOM     24  O   UNL     1       9.738 -14.351   0.159  1.00  0.00    -0.550 OA
ENDBRANCH  21  22
ENDBRANCH  20  21
ENDBRANCH  19  20
ENDBRANCH  18  19
ENDBRANCH  17  18
ENDBRANCH  16  17
ENDBRANCH  15  16
ENDBRANCH  14  15
ENDBRANCH  13  14
ENDBRANCH   1  13
TORSDOF 20
ENDMDL
MODEL 5
REMARK VINA RESULT:    -4.395      4.174      5.895
REMARK INTER + INTRA:         -12.869
REMARK INTER:                 -10.192
REMARK INTRA:                  -2.677
REMARK UNBOUND:                -3.335
REMARK SMILES CCCCCCCCCCCCCCCCCCCCCC(=O)[O-]
REMARK SMILES IDX 12 1 11 2 10 3 9 4 8 5 7 6 6 7 5 8 4 9 3 10 2 11 1 12 13 13
REMARK SMILES IDX 14 14 15 15 16 16 17 17 18 18 19 19 20 20 21 21 22 22 23 23
REMARK SMILES IDX 24 24
REMARK H PARENT
REMARK Flexibility Score: inf
ROOT
ATOM      1  C   UNL     1       4.055 -10.690   6.901  1.00  0.00     0.000 C 
ENDROOT
BRANCH   1   2
ATOM      2  C   UNL     1       3.901  -9.246   6.392  1.00  0.00     0.000 C 
BRANCH   2   3
ATOM      3  C   UNL     1       3.291  -9.168   4.982  1.00  0.00     0.000 C 
BRANCH   3   4
ATOM      4  C   UNL     1       3.614 -10.407   4.132  1.00  0.00    -0.000 C 
BRANCH   4   5
ATOM      5  C   UNL     1       2.743 -10.496   2.866  1.00  0.00    -0.000 C 
BRANCH   5   6
ATOM      6  C   UNL     1       3.579 -10.623   1.582  1.00  0.00    -0.000 C 
BRANCH   6   7
ATOM      7  C   UNL     1       3.264 -11.908   0.796  1.00  0.00    -0.000 C 
BRANCH   7   8
ATOM      8  C   UNL     1       4.536 -12.549   0.196  1.00  0.00    -0.000 C 
BRANCH   8   9
ATOM      9  C   UNL     1       5.179 -13.614   1.106  1.00  0.00    -0.000 C 
BRANCH   9  10
ATOM     10  C   UNL     1       6.540 -13.216   1.702  1.00  0.00    -0.000 C 
BRANCH  10  11
ATOM     11  C   UNL     1       7.571 -12.837   0.628  1.00  0.00    -0.003 C 
ATOM     12  C   UNL     1       8.741 -13.817   0.622  1.00  0.00     0.004 C 
ENDBRANCH  10  11
ENDBRANCH   9  10
ENDBRANCH   8   9
ENDBRANCH   7   8
ENDBRANCH   6   7
ENDBRANCH   5   6
ENDBRANCH   4   5
ENDBRANCH   3   4
ENDBRANCH   2   3
ENDBRANCH   1   2
BRANCH   1  13
ATOM     13  C   UNL     1       5.487 -11.036   7.362  1.00  0.00     0.000 C 
BRANCH  13  14
ATOM     14  C   UNL     1       6.053 -12.270   6.636  1.00  0.00     0.000 C 
BRANCH  14  15
ATOM     15  C   UNL     1       4.984 -13.341   6.373  1.00  0.00     0.000 C 
BRANCH  15  16
ATOM     16  C   UNL     1       4.926 -13.772   4.896  1.00  0.00     0.000 C 
BRANCH  16  17
ATOM     17  C   UNL     1       3.721 -14.677   4.590  1.00  0.00     0.000 C 
BRANCH  17  18
ATOM     18  C   UNL     1       2.598 -13.931   3.849  1.00  0.00     0.000 C 
BRANCH  18  19
ATOM     19  C   UNL     1       1.902 -14.800   2.785  1.00  0.00     0.000 C 
BRANCH  19  20
ATOM     20  C   UNL     1       1.543 -16.227   3.239  1.00  0.00     0.006 C 
BRANCH  20  21
ATOM     21  C   UNL     1       0.500 -16.250   4.365  1.00  0.00     0.053 C 
BRANCH  21  22
ATOM     22  C   UNL     1       0.097 -17.656   4.675  1.00  0.00     0.041 C 
ATOM     23  O   UNL     1      -0.045 -18.495   3.745  1.00  0.00    -0.550 OA
ATOM     24  O   UNL     1      -0.076 -18.056   5.995  1.00  0.00    -0.550 OA
ENDBRANCH  21  22
ENDBRANCH  20  21
ENDBRANCH  19  20
ENDBRANCH  18  19
ENDBRANCH  17  18
ENDBRANCH  16  17
ENDBRANCH  15  16
ENDBRANCH  14  15
ENDBRANCH  13  14
ENDBRANCH   1  13
TORSDOF 20
ENDMDL
MODEL 6
REMARK VINA RESULT:    -4.378      3.823      6.571
REMARK INTER + INTRA:         -12.832
REMARK INTER:                  -9.936
REMARK INTRA:                  -2.896
REMARK UNBOUND:                -3.335
REMARK SMILES CCCCCCCCCCCCCCCCCCCCCC(=O)[O-]
REMARK SMILES IDX 12 1 11 2 10 3 9 4 8 5 7 6 6 7 5 8 4 9 3 10 2 11 1 12 13 13
REMARK SMILES IDX 14 14 15 15 16 16 17 17 18 18 19 19 20 20 21 21 22 22 23 23
REMARK SMILES IDX 24 24
REMARK H PARENT
REMARK Flexibility Score: inf
ROOT
ATOM      1  C   UNL     1       5.516 -11.153   7.274  1.00  0.00     0.000 C 
ENDROOT
BRANCH   1   2
ATOM      2  C   UNL     1       4.151 -10.531   6.933  1.00  0.00     0.000 C 
BRANCH   2   3
ATOM      3  C   UNL     1       4.272  -9.178   6.211  1.00  0.00     0.000 C 
BRANCH   3   4
ATOM      4  C   UNL     1       3.363  -9.087   4.975  1.00  0.00    -0.000 C 
BRANCH   4   5
ATOM      5  C   UNL     1       2.629 -10.409   4.687  1.00  0.00    -0.000 C 
BRANCH   5   6
ATOM      6  C   UNL     1       1.630 -10.288   3.524  1.00  0.00    -0.000 C 
BRANCH   6   7
ATOM      7  C   UNL     1       1.949  -9.105   2.592  1.00  0.00    -0.000 C 
BRANCH   7   8
ATOM      8  C   UNL     1       1.638  -9.428   1.114  1.00  0.00    -0.000 C 
BRANCH   8   9
ATOM      9  C   UNL     1       2.117 -10.826   0.673  1.00  0.00    -0.000 C 
BRANCH   9  10
ATOM     10  C   UNL     1       1.353 -11.422  -0.521  1.00  0.00    -0.000 C 
BRANCH  10  11
ATOM     11  C   UNL     1       0.474 -12.619  -0.125  1.00  0.00    -0.003 C 
ATOM     12  C   UNL     1       1.025 -13.316   1.116  1.00  0.00     0.004 C 
ENDBRANCH  10  11
ENDBRANCH   9  10
ENDBRANCH   8   9
ENDBRANCH   7   8
ENDBRANCH   6   7
ENDBRANCH   5   6
ENDBRANCH   4   5
ENDBRANCH   3   4
ENDBRANCH   2   3
ENDBRANCH   1   2
BRANCH   1  13
ATOM     13  C   UNL     1       5.911 -12.326   6.351  1.00  0.00     0.000 C 
BRANCH  13  14
ATOM     14  C   UNL     1       4.930 -13.508   6.455  1.00  0.00     0.000 C 
BRANCH  14  15
ATOM     15  C   UNL     1       4.221 -13.806   5.124  1.00  0.00     0.000 C 
BRANCH  15  16
ATOM     16  C   UNL     1       5.102 -13.494   3.900  1.00  0.00     0.000 C 
BRANCH  16  17
ATOM     17  C   UNL     1       4.310 -12.853   2.748  1.00  0.00     0.000 C 
BRANCH  17  18
ATOM     18  C   UNL     1       4.775 -13.347   1.367  1.00  0.00     0.000 C 
BRANCH  18  19
ATOM     19  C   UNL     1       5.436 -12.239   0.527  1.00  0.00     0.000 C 
BRANCH  19  20
ATOM     20  C   UNL     1       6.779 -12.624  -0.121  1.00  0.00     0.006 C 
BRANCH  20  21
ATOM     21  C   UNL     1       7.841 -13.037   0.907  1.00  0.00     0.053 C 
BRANCH  21  22
ATOM     22  C   UNL     1       8.501 -14.314   0.493  1.00  0.00     0.041 C 
ATOM     23  O   UNL     1       7.844 -15.389   0.475  1.00  0.00    -0.550 OA
ATOM     24  O   UNL     1       9.827 -14.311   0.081  1.00  0.00    -0.550 OA
ENDBRANCH  21  22
ENDBRANCH  20  21
ENDBRANCH  19  20
ENDBRANCH  18  19
ENDBRANCH  17  18
ENDBRANCH  16  17
ENDBRANCH  15  16
ENDBRANCH  14  15
ENDBRANCH  13  14
ENDBRANCH   1  13
TORSDOF 20
ENDMDL
MODEL 7
REMARK VINA RESULT:    -4.354      3.796      6.970
REMARK INTER + INTRA:         -12.781
REMARK INTER:                  -9.934
REMARK INTRA:                  -2.846
REMARK UNBOUND:                -3.335
REMARK SMILES CCCCCCCCCCCCCCCCCCCCCC(=O)[O-]
REMARK SMILES IDX 12 1 11 2 10 3 9 4 8 5 7 6 6 7 5 8 4 9 3 10 2 11 1 12 13 13
REMARK SMILES IDX 14 14 15 15 16 16 17 17 18 18 19 19 20 20 21 21 22 22 23 23
REMARK SMILES IDX 24 24
REMARK H PARENT
REMARK Flexibility Score: inf
ROOT
ATOM      1  C   UNL     1       3.845 -10.877   6.753  1.00  0.00     0.000 C 
ENDROOT
BRANCH   1   2
ATOM      2  C   UNL     1       5.353 -11.095   6.967  1.00  0.00     0.000 C 
BRANCH   2   3
ATOM      3  C   UNL     1       5.764 -12.575   6.878  1.00  0.00     0.000 C 
BRANCH   3   4
ATOM      4  C   UNL     1       4.734 -13.426   6.119  1.00  0.00    -0.000 C 
BRANCH   4   5
ATOM      5  C   UNL     1       5.179 -13.746   4.681  1.00  0.00    -0.000 C 
BRANCH   5   6
ATOM      6  C   UNL     1       3.995 -14.063   3.753  1.00  0.00    -0.000 C 
BRANCH   6   7
ATOM      7  C   UNL     1       2.684 -13.407   4.223  1.00  0.00    -0.000 C 
BRANCH   7   8
ATOM      8  C   UNL     1       1.438 -14.152   3.693  1.00  0.00    -0.000 C 
BRANCH   8   9
ATOM      9  C   UNL     1       1.218 -15.531   4.345  1.00  0.00    -0.000 C 
BRANCH   9  10
ATOM     10  C   UNL     1       0.999 -16.686   3.354  1.00  0.00    -0.000 C 
BRANCH  10  11
ATOM     11  C   UNL     1       0.265 -17.879   3.986  1.00  0.00    -0.003 C 
ATOM     12  C   UNL     1       0.327 -17.815   5.510  1.00  0.00     0.004 C 
ENDBRANCH  10  11
ENDBRANCH   9  10
ENDBRANCH   8   9
ENDBRANCH   7   8
ENDBRANCH   6   7
ENDBRANCH   5   6
ENDBRANCH   4   5
ENDBRANCH   3   4
ENDBRANCH   2   3
ENDBRANCH   1   2
BRANCH   1  13
ATOM     13  C   UNL     1       3.517  -9.684   5.829  1.00  0.00     0.000 C 
BRANCH  13  14
ATOM     14  C   UNL     1       3.516 -10.079   4.341  1.00  0.00     0.000 C 
BRANCH  14  15
ATOM     15  C   UNL     1       2.362  -9.433   3.559  1.00  0.00     0.000 C 
BRANCH  15  16
ATOM     16  C   UNL     1       2.489  -9.636   2.038  1.00  0.00     0.000 C 
BRANCH  16  17
ATOM     17  C   UNL     1       1.714 -10.867   1.538  1.00  0.00     0.000 C 
BRANCH  17  18
ATOM     18  C   UNL     1       2.604 -11.843   0.750  1.00  0.00     0.000 C 
BRANCH  18  19
ATOM     19  C   UNL     1       4.108 -11.565   0.935  1.00  0.00     0.000 C 
BRANCH  19  20
ATOM     20  C   UNL     1       5.042 -12.709   0.502  1.00  0.00     0.006 C 
BRANCH  20  21
ATOM     21  C   UNL     1       6.468 -12.231   0.196  1.00  0.00     0.053 C 
BRANCH  21  22
ATOM     22  C   UNL     1       7.464 -13.277   0.584  1.00  0.00     0.041 C 
ATOM     23  O   UNL     1       8.693 -12.996   0.628  1.00  0.00    -0.550 OA
ATOM     24  O   UNL     1       7.036 -14.548   0.945  1.00  0.00    -0.550 OA
ENDBRANCH  21  22
ENDBRANCH  20  21
ENDBRANCH  19  20
ENDBRANCH  18  19
ENDBRANCH  17  18
ENDBRANCH  16  17
ENDBRANCH  15  16
ENDBRANCH  14  15
ENDBRANCH  13  14
ENDBRANCH   1  13
TORSDOF 20
ENDMDL
MODEL 8
REMARK VINA RESULT:    -4.310      1.551      2.787
REMARK INTER + INTRA:         -12.685
REMARK INTER:                 -10.202
REMARK INTRA:                  -2.483
REMARK UNBOUND:                -3.335
REMARK SMILES CCCCCCCCCCCCCCCCCCCCCC(=O)[O-]
REMARK SMILES IDX 12 1 11 2 10 3 9 4 8 5 7 6 6 7 5 8 4 9 3 10 2 11 1 12 13 13
REMARK SMILES IDX 14 14 15 15 16 16 17 17 18 18 19 19 20 20 21 21 22 22 23 23
REMARK SMILES IDX 24 24
REMARK H PARENT
REMARK Flexibility Score: inf
ROOT
ATOM      1  C   UNL     1       4.701 -13.197   6.264  1.00  0.00     0.000 C 
ENDROOT
BRANCH   1   2
ATOM      2  C   UNL     1       4.892 -13.800   4.861  1.00  0.00     0.000 C 
BRANCH   2   3
ATOM      3  C   UNL     1       3.565 -14.016   4.115  1.00  0.00     0.000 C 
BRANCH   3   4
ATOM      4  C   UNL     1       2.753 -12.718   3.970  1.00  0.00    -0.000 C 
BRANCH   4   5
ATOM      5  C   UNL     1       2.566 -12.303   2.500  1.00  0.00    -0.000 C 
BRANCH   5   6
ATOM      6  C   UNL     1       3.576 -11.233   2.055  1.00  0.00    -0.000 C 
BRANCH   6   7
ATOM      7  C   UNL     1       4.383 -11.660   0.816  1.00  0.00    -0.000 C 
BRANCH   7   8
ATOM      8  C   UNL     1       5.429 -12.748   1.150  1.00  0.00    -0.000 C 
BRANCH   8   9
ATOM      9  C   UNL     1       6.695 -12.678   0.273  1.00  0.00    -0.000 C 
BRANCH   9  10
ATOM     10  C   UNL     1       8.009 -12.979   1.013  1.00  0.00    -0.000 C 
BRANCH  10  11
ATOM     11  C   UNL     1       8.832 -14.086   0.335  1.00  0.00    -0.003 C 
ATOM     12  C   UNL     1       8.056 -15.400   0.298  1.00  0.00     0.004 C 
ENDBRANCH  10  11
ENDBRANCH   9  10
ENDBRANCH   8   9
ENDBRANCH   7   8
ENDBRANCH   6   7
ENDBRANCH   5   6
ENDBRANCH   4   5
ENDBRANCH   3   4
ENDBRANCH   2   3
ENDBRANCH   1   2
BRANCH   1  13
ATOM     13  C   UNL     1       5.995 -12.612   6.869  1.00  0.00     0.000 C 
BRANCH  13  14
ATOM     14  C   UNL     1       5.854 -11.120   7.221  1.00  0.00     0.000 C 
BRANCH  14  15
ATOM     15  C   UNL     1       4.455 -10.569   6.907  1.00  0.00     0.000 C 
BRANCH  15  16
ATOM     16  C   UNL     1       4.500  -9.216   6.173  1.00  0.00     0.000 C 
BRANCH  16  17
ATOM     17  C   UNL     1       3.478  -9.128   5.028  1.00  0.00     0.000 C 
BRANCH  17  18
ATOM     18  C   UNL     1       2.050  -9.475   5.485  1.00  0.00     0.000 C 
BRANCH  18  19
ATOM     19  C   UNL     1       1.002  -8.456   5.002  1.00  0.00     0.000 C 
BRANCH  19  20
ATOM     20  C   UNL     1       0.816  -7.229   5.913  1.00  0.00     0.006 C 
BRANCH  20  21
ATOM     21  C   UNL     1       1.077  -7.540   7.393  1.00  0.00     0.053 C 
BRANCH  21  22
ATOM     22  C   UNL     1       2.027  -6.543   7.976  1.00  0.00     0.041 C 
ATOM     23  O   UNL     1       3.110  -6.279   7.388  1.00  0.00    -0.550 OA
ATOM     24  O   UNL     1       1.696  -5.867   9.145  1.00  0.00    -0.550 OA
ENDBRANCH  21  22
ENDBRANCH  20  21
ENDBRANCH  19  20
ENDBRANCH  18  19
ENDBRANCH  17  18
ENDBRANCH  16  17
ENDBRANCH  15  16
ENDBRANCH  14  15
ENDBRANCH  13  14
ENDBRANCH   1  13
TORSDOF 20
ENDMDL
MODEL 9
REMARK VINA RESULT:    -4.276      3.904      7.677
REMARK INTER + INTRA:         -12.611
REMARK INTER:                  -9.588
REMARK INTRA:                  -3.024
REMARK UNBOUND:                -3.335
REMARK SMILES CCCCCCCCCCCCCCCCCCCCCC(=O)[O-]
REMARK SMILES IDX 12 1 11 2 10 3 9 4 8 5 7 6 6 7 5 8 4 9 3 10 2 11 1 12 13 13
REMARK SMILES IDX 14 14 15 15 16 16 17 17 18 18 19 19 20 20 21 21 22 22 23 23
REMARK SMILES IDX 24 24
REMARK H PARENT
REMARK Flexibility Score: inf
ROOT
ATOM      1  C   UNL     1       5.424 -11.878   6.770  1.00  0.00     0.000 C 
ENDROOT
BRANCH   1   2
ATOM      2  C   UNL     1       4.131 -11.053   6.894  1.00  0.00     0.000 C 
BRANCH   2   3
ATOM      3  C   UNL     1       4.175  -9.744   6.087  1.00  0.00     0.000 C 
BRANCH   3   4
ATOM      4  C   UNL     1       3.556  -9.895   4.688  1.00  0.00    -0.000 C 
BRANCH   4   5
ATOM      5  C   UNL     1       2.031 -10.093   4.738  1.00  0.00    -0.000 C 
BRANCH   5   6
ATOM      6  C   UNL     1       1.257  -8.809   4.398  1.00  0.00    -0.000 C 
BRANCH   6   7
ATOM      7  C   UNL     1       0.355  -8.339   5.553  1.00  0.00    -0.000 C 
BRANCH   7   8
ATOM      8  C   UNL     1       0.562  -9.180   6.833  1.00  0.00    -0.000 C 
BRANCH   8   9
ATOM      9  C   UNL     1       1.168  -8.383   8.005  1.00  0.00    -0.000 C 
BRANCH   9  10
ATOM     10  C   UNL     1       1.480  -6.911   7.691  1.00  0.00    -0.000 C 
BRANCH  10  11
ATOM     11  C   UNL     1       2.988  -6.621   7.640  1.00  0.00    -0.003 C 
ATOM     12  C   UNL     1       3.321  -5.652   6.509  1.00  0.00     0.004 C 
ENDBRANCH  10  11
ENDBRANCH   9  10
ENDBRANCH   8   9
ENDBRANCH   7   8
ENDBRANCH   6   7
ENDBRANCH   5   6
ENDBRANCH   4   5
ENDBRANCH   3   4
ENDBRANCH   2   3
ENDBRANCH   1   2
BRANCH   1  13
ATOM     13  C   UNL     1       5.182 -13.355   6.392  1.00  0.00     0.000 C 
BRANCH  13  14
ATOM     14  C   UNL     1       4.914 -13.538   4.887  1.00  0.00     0.000 C 
BRANCH  14  15
ATOM     15  C   UNL     1       3.547 -14.182   4.605  1.00  0.00     0.000 C 
BRANCH  15  16
ATOM     16  C   UNL     1       2.753 -13.436   3.517  1.00  0.00     0.000 C 
BRANCH  16  17
ATOM     17  C   UNL     1       3.405 -13.545   2.129  1.00  0.00     0.000 C 
BRANCH  17  18
ATOM     18  C   UNL     1       3.770 -12.170   1.541  1.00  0.00     0.000 C 
BRANCH  18  19
ATOM     19  C   UNL     1       5.086 -12.190   0.742  1.00  0.00     0.000 C 
BRANCH  19  20
ATOM     20  C   UNL     1       6.231 -12.991   1.390  1.00  0.00     0.006 C 
BRANCH  20  21
ATOM     21  C   UNL     1       7.577 -12.787   0.682  1.00  0.00     0.053 C 
BRANCH  21  22
ATOM     22  C   UNL     1       8.165 -14.104   0.286  1.00  0.00     0.041 C 
ATOM     23  O   UNL     1       9.329 -14.415   0.655  1.00  0.00    -0.550 OA
ATOM     24  O   UNL     1       7.411 -15.010  -0.449  1.00  0.00    -0.550 OA
ENDBRANCH  21  22
ENDBRANCH  20  21
ENDBRANCH  19  20
ENDBRANCH  18  19
ENDBRANCH  17  18
ENDBRANCH  16  17
ENDBRANCH  15  16
ENDBRANCH  14  15
ENDBRANCH  13  14
ENDBRANCH   1  13
TORSDOF 20
ENDMDL
