MODEL 1
REMARK VINA RESULT:    -2.842      0.000      0.000
REMARK INTER + INTRA:          -6.819
REMARK INTER:                  -4.835
REMARK INTRA:                  -1.984
REMARK UNBOUND:                -1.984
REMARK SMILES CCCCCCCCCCCCCC(=O)[O-]
REMARK SMILES IDX 8 1 9 2 10 3 11 4 12 5 13 6 14 7 15 8 16 9 7 10 6 11 5 12
REMARK SMILES IDX 4 13 3 14 2 15 1 16
REMARK H PARENT
REMARK Flexibility Score: inf
ROOT
ATOM      1  C   UNL     1      22.780  66.797  18.330  1.00  0.00     0.000 C 
ENDROOT
BRANCH   1   2
ATOM      2  C   UNL     1      22.285  68.144  18.878  1.00  0.00     0.000 C 
BRANCH   2   3
ATOM      3  C   UNL     1      22.714  69.338  18.009  1.00  0.00     0.000 C 
BRANCH   3   4
ATOM      4  C   UNL     1      21.543  70.250  17.589  1.00  0.00     0.000 C 
BRANCH   4   5
ATOM      5  C   UNL     1      21.497  70.471  16.066  1.00  0.00     0.006 C 
BRANCH   5   6
ATOM      6  C   UNL     1      21.672  71.947  15.686  1.00  0.00     0.053 C 
BRANCH   6   7
ATOM      7  C   UNL     1      22.969  72.190  14.978  1.00  0.00     0.041 C 
ATOM      8  O   UNL     1      23.865  72.889  15.520  1.00  0.00    -0.550 OA
ATOM      9  O   UNL     1      23.202  71.615  13.736  1.00  0.00    -0.550 OA
ENDBRANCH   6   7
ENDBRANCH   5   6
ENDBRANCH   4   5
ENDBRANCH   3   4
ENDBRANCH   2   3
ENDBRANCH   1   2
BRANCH   1  10
ATOM     10  C   UNL     1      23.125  66.903  16.840  1.00  0.00     0.000 C 
BRANCH  10  11
ATOM     11  C   UNL     1      22.145  66.081  15.989  1.00  0.00    -0.000 C 
BRANCH  11  12
ATOM     12  C   UNL     1      20.915  66.893  15.553  1.00  0.00    -0.000 C 
BRANCH  12  13
ATOM     13  C   UNL     1      19.648  66.514  16.340  1.00  0.00    -0.000 C 
BRANCH  13  14
ATOM     14  C   UNL     1      19.053  67.704  17.109  1.00  0.00    -0.000 C 
BRANCH  14  15
ATOM     15  C   UNL     1      18.686  67.346  18.557  1.00  0.00    -0.003 C 
ATOM     16  C   UNL     1      19.162  65.942  18.913  1.00  0.00     0.004 C 
ENDBRANCH  14  15
ENDBRANCH  13  14
ENDBRANCH  12  13
ENDBRANCH  11  12
ENDBRANCH  10  11
ENDBRANCH   1  10
TORSDOF 12
ENDMDL
MODEL 2
REMARK VINA RESULT:    -2.738      1.649      3.195
REMARK INTER + INTRA:          -6.642
REMARK INTER:                  -4.568
REMARK INTRA:                  -2.074
REMARK UNBOUND:                -1.984
REMARK SMILES CCCCCCCCCCCCCC(=O)[O-]
REMARK SMILES IDX 8 1 9 2 10 3 11 4 12 5 13 6 14 7 15 8 16 9 7 10 6 11 5 12
REMARK SMILES IDX 4 13 3 14 2 15 1 16
REMARK H PARENT
REMARK Flexibility Score: inf
ROOT
ATOM      1  C   UNL     1      21.769  65.903  14.741  1.00  0.00     0.000 C 
ENDROOT
BRANCH   1   2
ATOM      2  C   UNL     1      20.321  65.641  15.177  1.00  0.00     0.000 C 
BRANCH   2   3
ATOM      3  C   UNL     1      19.518  66.935  15.396  1.00  0.00     0.000 C 
BRANCH   3   4
ATOM      4  C   UNL     1      20.401  68.180  15.618  1.00  0.00     0.000 C 
BRANCH   4   5
ATOM      5  C   UNL     1      20.261  68.744  17.044  1.00  0.00     0.006 C 
BRANCH   5   6
ATOM      6  C   UNL     1      20.568  70.246  17.107  1.00  0.00     0.053 C 
BRANCH   6   7
ATOM      7  C   UNL     1      22.042  70.513  17.128  1.00  0.00     0.041 C 
ATOM      8  O   UNL     1      22.554  71.302  16.290  1.00  0.00    -0.550 OA
ATOM      9  O   UNL     1      22.844  69.918  18.093  1.00  0.00    -0.550 OA
ENDBRANCH   6   7
ENDBRANCH   5   6
ENDBRANCH   4   5
ENDBRANCH   3   4
ENDBRANCH   2   3
ENDBRANCH   1   2
BRANCH   1  10
ATOM     10  C   UNL     1      22.763  65.322  15.753  1.00  0.00     0.000 C 
BRANCH  10  11
ATOM     11  C   UNL     1      23.458  66.440  16.546  1.00  0.00    -0.000 C 
BRANCH  11  12
ATOM     12  C   UNL     1      23.125  66.397  18.045  1.00  0.00    -0.000 C 
BRANCH  12  13
ATOM     13  C   UNL     1      22.091  65.310  18.390  1.00  0.00    -0.000 C 
BRANCH  13  14
ATOM     14  C   UNL     1      20.873  65.872  19.141  1.00  0.00    -0.000 C 
BRANCH  14  15
ATOM     15  C   UNL     1      19.559  65.201  18.719  1.00  0.00    -0.003 C 
ATOM     16  C   UNL     1      18.358  66.071  19.075  1.00  0.00     0.004 C 
ENDBRANCH  14  15
ENDBRANCH  13  14
ENDBRANCH  12  13
ENDBRANCH  11  12
ENDBRANCH  10  11
ENDBRANCH   1  10
TORSDOF 12
ENDMDL
MODEL 3
REMARK VINA RESULT:    -2.701      3.069      5.237
REMARK INTER + INTRA:          -6.580
REMARK INTER:                  -4.459
REMARK INTRA:                  -2.121
REMARK UNBOUND:                -1.984
REMARK SMILES CCCCCCCCCCCCCC(=O)[O-]
REMARK SMILES IDX 8 1 9 2 10 3 11 4 12 5 13 6 14 7 15 8 16 9 7 10 6 11 5 12
REMARK SMILES IDX 4 13 3 14 2 15 1 16
REMARK H PARENT
REMARK Flexibility Score: inf
ROOT
ATOM      1  C   UNL     1      23.217  66.084  17.661  1.00  0.00     0.000 C 
ENDROOT
BRANCH   1   2
ATOM      2  C   UNL     1      23.091  66.360  16.155  1.00  0.00     0.000 C 
BRANCH   2   3
ATOM      3  C   UNL     1      21.868  65.674  15.522  1.00  0.00     0.000 C 
BRANCH   3   4
ATOM      4  C   UNL     1      20.855  66.661  14.907  1.00  0.00     0.000 C 
BRANCH   4   5
ATOM      5  C   UNL     1      19.463  66.544  15.554  1.00  0.00     0.006 C 
BRANCH   5   6
ATOM      6  C   UNL     1      19.277  67.528  16.716  1.00  0.00     0.053 C 
BRANCH   6   7
ATOM      7  C   UNL     1      19.194  66.823  18.035  1.00  0.00     0.041 C 
ATOM      8  O   UNL     1      19.158  65.565  18.078  1.00  0.00    -0.550 OA
ATOM      9  O   UNL     1      19.191  67.553  19.216  1.00  0.00    -0.550 OA
ENDBRANCH   6   7
ENDBRANCH   5   6
ENDBRANCH   4   5
ENDBRANCH   3   4
ENDBRANCH   2   3
ENDBRANCH   1   2
BRANCH   1  10
ATOM     10  C   UNL     1      22.750  67.292  18.482  1.00  0.00     0.000 C 
BRANCH  10  11
ATOM     11  C   UNL     1      22.754  68.571  17.631  1.00  0.00    -0.000 C 
BRANCH  11  12
ATOM     12  C   UNL     1      22.018  69.736  18.310  1.00  0.00    -0.000 C 
BRANCH  12  13
ATOM     13  C   UNL     1      21.333  70.672  17.299  1.00  0.00    -0.000 C 
BRANCH  13  14
ATOM     14  C   UNL     1      21.716  70.352  15.845  1.00  0.00    -0.000 C 
BRANCH  14  15
ATOM     15  C   UNL     1      20.515  70.415  14.891  1.00  0.00    -0.003 C 
ATOM     16  C   UNL     1      20.931  70.081  13.461  1.00  0.00     0.004 C 
ENDBRANCH  14  15
ENDBRANCH  13  14
ENDBRANCH  12  13
ENDBRANCH  11  12
ENDBRANCH  10  11
ENDBRANCH   1  10
TORSDOF 12
ENDMDL
MODEL 4
REMARK VINA RESULT:    -2.694      2.352      4.620
REMARK INTER + INTRA:          -6.568
REMARK INTER:                  -4.779
REMARK INTRA:                  -1.789
REMARK UNBOUND:                -1.984
REMARK SMILES CCCCCCCCCCCCCC(=O)[O-]
REMARK SMILES IDX 8 1 9 2 10 3 11 4 12 5 13 6 14 7 15 8 16 9 7 10 6 11 5 12
REMARK SMILES IDX 4 13 3 14 2 15 1 16
REMARK H PARENT
REMARK Flexibility Score: inf
ROOT
ATOM      1  C   UNL     1      21.510  65.909  19.004  1.00  0.00     0.000 C 
ENDROOT
BRANCH   1   2
ATOM      2  C   UNL     1      20.426  65.063  18.319  1.00  0.00     0.000 C 
BRANCH   2   3
ATOM      3  C   UNL     1      19.034  65.713  18.378  1.00  0.00     0.000 C 
BRANCH   3   4
ATOM      4  C   UNL     1      19.049  67.159  18.915  1.00  0.00     0.000 C 
BRANCH   4   5
ATOM      5  C   UNL     1      18.670  68.185  17.832  1.00  0.00     0.006 C 
BRANCH   5   6
ATOM      6  C   UNL     1      19.084  67.727  16.427  1.00  0.00     0.053 C 
BRANCH   6   7
ATOM      7  C   UNL     1      18.738  68.747  15.385  1.00  0.00     0.041 C 
ATOM      8  O   UNL     1      18.109  69.790  15.705  1.00  0.00    -0.550 OA
ATOM      9  O   UNL     1      19.141  68.562  14.069  1.00  0.00    -0.550 OA
ENDBRANCH   6   7
ENDBRANCH   5   6
ENDBRANCH   4   5
ENDBRANCH   3   4
ENDBRANCH   2   3
ENDBRANCH   1   2
BRANCH   1  10
ATOM     10  C   UNL     1      22.668  66.200  18.043  1.00  0.00     0.000 C 
BRANCH  10  11
ATOM     11  C   UNL     1      22.641  67.665  17.577  1.00  0.00    -0.000 C 
BRANCH  11  12
ATOM     12  C   UNL     1      22.402  68.648  18.733  1.00  0.00    -0.000 C 
BRANCH  12  13
ATOM     13  C   UNL     1      22.532  70.118  18.295  1.00  0.00    -0.000 C 
BRANCH  13  14
ATOM     14  C   UNL     1      21.457  70.526  17.275  1.00  0.00    -0.000 C 
BRANCH  14  15
ATOM     15  C   UNL     1      22.031  71.347  16.111  1.00  0.00    -0.003 C 
ATOM     16  C   UNL     1      21.884  70.601  14.788  1.00  0.00     0.004 C 
ENDBRANCH  14  15
ENDBRANCH  13  14
ENDBRANCH  12  13
ENDBRANCH  11  12
ENDBRANCH  10  11
ENDBRANCH   1  10
TORSDOF 12
ENDMDL
MODEL 5
REMARK VINA RESULT:    -2.686      3.286      5.082
REMARK INTER + INTRA:          -6.555
REMARK INTER:                  -4.469
REMARK INTRA:                  -2.086
REMARK UNBOUND:                -1.984
REMARK SMILES CCCCCCCCCCCCCC(=O)[O-]
REMARK SMILES IDX 8 1 9 2 10 3 11 4 12 5 13 6 14 7 15 8 16 9 7 10 6 11 5 12
REMARK SMILES IDX 4 13 3 14 2 15 1 16
REMARK H PARENT
REMARK Flexibility Score: inf
ROOT
ATOM      1  C   UNL     1      22.520  65.193  15.810  1.00  0.00     0.000 C 
ENDROOT
BRANCH   1   2
ATOM      2  C   UNL     1      23.265  66.417  16.363  1.00  0.00     0.000 C 
BRANCH   2   3
ATOM      3  C   UNL     1      23.148  66.547  17.891  1.00  0.00     0.000 C 
BRANCH   3   4
ATOM      4  C   UNL     1      22.471  67.855  18.350  1.00  0.00     0.000 C 
BRANCH   4   5
ATOM      5  C   UNL     1      21.235  67.591  19.230  1.00  0.00     0.006 C 
BRANCH   5   6
ATOM      6  C   UNL     1      20.710  66.157  19.078  1.00  0.00     0.053 C 
BRANCH   6   7
ATOM      7  C   UNL     1      19.249  66.132  18.746  1.00  0.00     0.041 C 
ATOM      8  O   UNL     1      18.724  65.088  18.278  1.00  0.00    -0.550 OA
ATOM      9  O   UNL     1      18.461  67.250  18.986  1.00  0.00    -0.550 OA
ENDBRANCH   6   7
ENDBRANCH   5   6
ENDBRANCH   4   5
ENDBRANCH   3   4
ENDBRANCH   2   3
ENDBRANCH   1   2
BRANCH   1  10
ATOM     10  C   UNL     1      21.072  65.547  15.450  1.00  0.00     0.000 C 
BRANCH  10  11
ATOM     11  C   UNL     1      20.963  67.007  14.983  1.00  0.00    -0.000 C 
BRANCH  11  12
ATOM     12  C   UNL     1      19.712  67.711  15.530  1.00  0.00    -0.000 C 
BRANCH  12  13
ATOM     13  C   UNL     1      19.808  69.244  15.437  1.00  0.00    -0.000 C 
BRANCH  13  14
ATOM     14  C   UNL     1      19.709  69.926  16.811  1.00  0.00    -0.000 C 
BRANCH  14  15
ATOM     15  C   UNL     1      20.942  70.781  17.134  1.00  0.00    -0.003 C 
ATOM     16  C   UNL     1      21.931  70.782  15.973  1.00  0.00     0.004 C 
ENDBRANCH  14  15
ENDBRANCH  13  14
ENDBRANCH  12  13
ENDBRANCH  11  12
ENDBRANCH  10  11
ENDBRANCH   1  10
TORSDOF 12
ENDMDL
MODEL 6
REMARK VINA RESULT:    -2.671      3.091      5.222
REMARK INTER + INTRA:          -6.530
REMARK INTER:                  -4.787
REMARK INTRA:                  -1.743
REMARK UNBOUND:                -1.984
REMARK SMILES CCCCCCCCCCCCCC(=O)[O-]
REMARK SMILES IDX 8 1 9 2 10 3 11 4 12 5 13 6 14 7 15 8 16 9 7 10 6 11 5 12
REMARK SMILES IDX 4 13 3 14 2 15 1 16
REMARK H PARENT
REMARK Flexibility Score: inf
ROOT
ATOM      1  C   UNL     1      22.100  68.585  18.797  1.00  0.00     0.000 C 
ENDROOT
BRANCH   1   2
ATOM      2  C   UNL     1      22.804  67.569  17.886  1.00  0.00     0.000 C 
BRANCH   2   3
ATOM      3  C   UNL     1      22.049  66.233  17.784  1.00  0.00     0.000 C 
BRANCH   3   4
ATOM      4  C   UNL     1      21.264  65.867  19.061  1.00  0.00     0.000 C 
BRANCH   4   5
ATOM      5  C   UNL     1      19.790  65.540  18.762  1.00  0.00     0.006 C 
BRANCH   5   6
ATOM      6  C   UNL     1      19.171  66.515  17.752  1.00  0.00     0.053 C 
BRANCH   6   7
ATOM      7  C   UNL     1      18.460  67.644  18.433  1.00  0.00     0.041 C 
ATOM      8  O   UNL     1      18.136  68.672  17.782  1.00  0.00    -0.550 OA
ATOM      9  O   UNL     1      18.123  67.545  19.777  1.00  0.00    -0.550 OA
ENDBRANCH   6   7
ENDBRANCH   5   6
ENDBRANCH   4   5
ENDBRANCH   3   4
ENDBRANCH   2   3
ENDBRANCH   1   2
BRANCH   1  10
ATOM     10  C   UNL     1      22.392  70.021  18.348  1.00  0.00     0.000 C 
BRANCH  10  11
ATOM     11  C   UNL     1      21.320  70.518  17.365  1.00  0.00    -0.000 C 
BRANCH  11  12
ATOM     12  C   UNL     1      21.916  70.995  16.032  1.00  0.00    -0.000 C 
BRANCH  12  13
ATOM     13  C   UNL     1      21.560  70.065  14.858  1.00  0.00    -0.000 C 
BRANCH  13  14
ATOM     14  C   UNL     1      20.576  68.957  15.262  1.00  0.00    -0.000 C 
BRANCH  14  15
ATOM     15  C   UNL     1      20.860  67.627  14.549  1.00  0.00    -0.003 C 
ATOM     16  C   UNL     1      20.306  67.634  13.128  1.00  0.00     0.004 C 
ENDBRANCH  14  15
ENDBRANCH  13  14
ENDBRANCH  12  13
ENDBRANCH  11  12
ENDBRANCH  10  11
ENDBRANCH   1  10
TORSDOF 12
ENDMDL
MODEL 7
REMARK VINA RESULT:    -2.669      1.360      2.824
REMARK INTER + INTRA:          -6.525
REMARK INTER:                  -4.647
REMARK INTRA:                  -1.878
REMARK UNBOUND:                -1.984
REMARK SMILES CCCCCCCCCCCCCC(=O)[O-]
REMARK SMILES IDX 8 1 9 2 10 3 11 4 12 5 13 6 14 7 15 8 16 9 7 10 6 11 5 12
REMARK SMILES IDX 4 13 3 14 2 15 1 16
REMARK H PARENT
REMARK Flexibility Score: inf
ROOT
ATOM      1  C   UNL     1      22.481  69.836  18.262  1.00  0.00     0.000 C 
ENDROOT
BRANCH   1   2
ATOM      2  C   UNL     1      22.070  70.397  16.893  1.00  0.00     0.000 C 
BRANCH   2   3
ATOM      3  C   UNL     1      20.705  71.105  16.922  1.00  0.00     0.000 C 
BRANCH   3   4
ATOM      4  C   UNL     1      20.511  72.122  15.778  1.00  0.00     0.000 C 
BRANCH   4   5
ATOM      5  C   UNL     1      21.389  71.796  14.556  1.00  0.00     0.006 C 
BRANCH   5   6
ATOM      6  C   UNL     1      22.091  73.040  13.996  1.00  0.00     0.053 C 
BRANCH   6   7
ATOM      7  C   UNL     1      23.157  73.541  14.921  1.00  0.00     0.041 C 
ATOM      8  O   UNL     1      24.072  72.768  15.310  1.00  0.00    -0.550 OA
ATOM      9  O   UNL     1      23.161  74.870  15.324  1.00  0.00    -0.550 OA
ENDBRANCH   6   7
ENDBRANCH   5   6
ENDBRANCH   4   5
ENDBRANCH   3   4
ENDBRANCH   2   3
ENDBRANCH   1   2
BRANCH   1  10
ATOM     10  C   UNL     1      22.348  68.309  18.294  1.00  0.00     0.000 C 
BRANCH  10  11
ATOM     11  C   UNL     1      21.343  67.868  19.369  1.00  0.00    -0.000 C 
BRANCH  11  12
ATOM     12  C   UNL     1      19.944  67.596  18.795  1.00  0.00    -0.000 C 
BRANCH  12  13
ATOM     13  C   UNL     1      19.990  67.076  17.347  1.00  0.00    -0.000 C 
BRANCH  13  14
ATOM     14  C   UNL     1      19.053  67.854  16.410  1.00  0.00    -0.000 C 
BRANCH  14  15
ATOM     15  C   UNL     1      19.673  68.101  15.027  1.00  0.00    -0.003 C 
ATOM     16  C   UNL     1      21.041  67.436  14.912  1.00  0.00     0.004 C 
ENDBRANCH  14  15
ENDBRANCH  13  14
ENDBRANCH  12  13
ENDBRANCH  11  12
ENDBRANCH  10  11
ENDBRANCH   1  10
TORSDOF 12
ENDMDL
MODEL 8
REMARK VINA RESULT:    -2.633      1.360      2.155
REMARK INTER + INTRA:          -6.465
REMARK INTER:                  -4.741
REMARK INTRA:                  -1.724
REMARK UNBOUND:                -1.984
REMARK SMILES CCCCCCCCCCCCCC(=O)[O-]
REMARK SMILES IDX 8 1 9 2 10 3 11 4 12 5 13 6 14 7 15 8 16 9 7 10 6 11 5 12
REMARK SMILES IDX 4 13 3 14 2 15 1 16
REMARK H PARENT
REMARK Flexibility Score: inf
ROOT
ATOM      1  C   UNL     1      22.870  67.613  17.872  1.00  0.00     0.000 C 
ENDROOT
BRANCH   1   2
ATOM      2  C   UNL     1      22.045  68.609  18.701  1.00  0.00     0.000 C 
BRANCH   2   3
ATOM      3  C   UNL     1      22.386  70.075  18.384  1.00  0.00     0.000 C 
BRANCH   3   4
ATOM      4  C   UNL     1      22.295  70.422  16.884  1.00  0.00     0.000 C 
BRANCH   4   5
ATOM      5  C   UNL     1      20.972  71.125  16.530  1.00  0.00     0.006 C 
BRANCH   5   6
ATOM      6  C   UNL     1      21.083  71.961  15.248  1.00  0.00     0.053 C 
BRANCH   6   7
ATOM      7  C   UNL     1      21.667  71.172  14.117  1.00  0.00     0.041 C 
ATOM      8  O   UNL     1      21.023  70.213  13.615  1.00  0.00    -0.550 OA
ATOM      9  O   UNL     1      22.908  71.516  13.596  1.00  0.00    -0.550 OA
ENDBRANCH   6   7
ENDBRANCH   5   6
ENDBRANCH   4   5
ENDBRANCH   3   4
ENDBRANCH   2   3
ENDBRANCH   1   2
BRANCH   1  10
ATOM     10  C   UNL     1      22.628  66.174  18.343  1.00  0.00     0.000 C 
BRANCH  10  11
ATOM     11  C   UNL     1      21.282  66.054  19.076  1.00  0.00    -0.000 C 
BRANCH  11  12
ATOM     12  C   UNL     1      20.338  65.038  18.416  1.00  0.00    -0.000 C 
BRANCH  12  13
ATOM     13  C   UNL     1      19.133  65.709  17.732  1.00  0.00    -0.000 C 
BRANCH  13  14
ATOM     14  C   UNL     1      19.433  66.125  16.283  1.00  0.00    -0.000 C 
BRANCH  14  15
ATOM     15  C   UNL     1      19.519  67.648  16.113  1.00  0.00    -0.003 C 
ATOM     16  C   UNL     1      18.696  68.368  17.177  1.00  0.00     0.004 C 
ENDBRANCH  14  15
ENDBRANCH  13  14
ENDBRANCH  12  13
ENDBRANCH  11  12
ENDBRANCH  10  11
ENDBRANCH   1  10
TORSDOF 12
ENDMDL
MODEL 9
REMARK VINA RESULT:    -2.599      2.900      4.970
REMARK INTER + INTRA:          -6.407
REMARK INTER:                  -4.608
REMARK INTRA:                  -1.798
REMARK UNBOUND:                -1.984
REMARK SMILES CCCCCCCCCCCCCC(=O)[O-]
REMARK SMILES IDX 8 1 9 2 10 3 11 4 12 5 13 6 14 7 15 8 16 9 7 10 6 11 5 12
REMARK SMILES IDX 4 13 3 14 2 15 1 16
REMARK H PARENT
REMARK Flexibility Score: inf
ROOT
ATOM      1  C   UNL     1      19.983  67.419  18.697  1.00  0.00     0.000 C 
ENDROOT
BRANCH   1   2
ATOM      2  C   UNL     1      19.363  66.017  18.791  1.00  0.00     0.000 C 
BRANCH   2   3
ATOM      3  C   UNL     1      19.111  65.381  17.413  1.00  0.00     0.000 C 
BRANCH   3   4
ATOM      4  C   UNL     1      19.861  66.082  16.261  1.00  0.00     0.000 C 
BRANCH   4   5
ATOM      5  C   UNL     1      20.887  65.154  15.587  1.00  0.00     0.006 C 
BRANCH   5   6
ATOM      6  C   UNL     1      22.000  65.936  14.877  1.00  0.00     0.053 C 
BRANCH   6   7
ATOM      7  C   UNL     1      23.354  65.363  15.167  1.00  0.00     0.041 C 
ATOM      8  O   UNL     1      23.733  65.205  16.357  1.00  0.00    -0.550 OA
ATOM      9  O   UNL     1      24.182  64.971  14.123  1.00  0.00    -0.550 OA
ENDBRANCH   6   7
ENDBRANCH   5   6
ENDBRANCH   4   5
ENDBRANCH   3   4
ENDBRANCH   2   3
ENDBRANCH   1   2
BRANCH   1  10
ATOM     10  C   UNL     1      21.265  67.510  19.532  1.00  0.00     0.000 C 
BRANCH  10  11
ATOM     11  C   UNL     1      22.509  67.528  18.630  1.00  0.00    -0.000 C 
BRANCH  11  12
ATOM     12  C   UNL     1      22.382  68.525  17.468  1.00  0.00    -0.000 C 
BRANCH  12  13
ATOM     13  C   UNL     1      22.348  69.988  17.946  1.00  0.00    -0.000 C 
BRANCH  13  14
ATOM     14  C   UNL     1      21.280  70.821  17.220  1.00  0.00    -0.000 C 
BRANCH  14  15
ATOM     15  C   UNL     1      20.553  70.024  16.127  1.00  0.00    -0.003 C 
ATOM     16  C   UNL     1      19.043  70.039  16.348  1.00  0.00     0.004 C 
ENDBRANCH  14  15
ENDBRANCH  13  14
ENDBRANCH  12  13
ENDBRANCH  11  12
ENDBRANCH  10  11
ENDBRANCH   1  10
TORSDOF 12
ENDMDL
