MODEL 1
REMARK VINA RESULT:    -3.970      0.000      0.000
REMARK INTER + INTRA:         -10.552
REMARK INTER:                  -7.683
REMARK INTRA:                  -2.869
REMARK UNBOUND:                -2.869
REMARK SMILES CCCCCCCCCCCCCCCCCC(=O)[O-]
REMARK SMILES IDX 10 1 11 2 12 3 13 4 14 5 15 6 16 7 17 8 18 9 19 10 20 11
REMARK SMILES IDX 9 12 8 13 7 14 6 15 5 16 4 17 3 18 2 19 1 20
REMARK H PARENT
REMARK Flexibility Score: inf
ROOT
ATOM      1  C   UNL     1     105.414  97.711  92.378  1.00  0.00     0.000 C 
ENDROOT
BRANCH   1   2
ATOM      2  C   UNL     1     106.255  96.569  91.779  1.00  0.00     0.000 C 
BRANCH   2   3
ATOM      3  C   UNL     1     105.395  95.337  91.429  1.00  0.00     0.000 C 
BRANCH   3   4
ATOM      4  C   UNL     1     105.377  95.006  89.926  1.00  0.00     0.000 C 
BRANCH   4   5
ATOM      5  C   UNL     1     103.963  94.730  89.388  1.00  0.00     0.000 C 
BRANCH   5   6
ATOM      6  C   UNL     1     102.913  94.669  90.516  1.00  0.00     0.000 C 
BRANCH   6   7
ATOM      7  C   UNL     1     101.824  95.749  90.403  1.00  0.00     0.006 C 
BRANCH   7   8
ATOM      8  C   UNL     1     101.824  96.722  91.587  1.00  0.00     0.053 C 
BRANCH   8   9
ATOM      9  C   UNL     1     100.431  97.181  91.885  1.00  0.00     0.041 C 
ATOM     10  O   UNL     1      99.500  96.343  92.004  1.00  0.00    -0.550 OA
ATOM     11  O   UNL     1     100.153  98.539  91.982  1.00  0.00    -0.550 OA
ENDBRANCH   8   9
ENDBRANCH   7   8
ENDBRANCH   6   7
ENDBRANCH   5   6
ENDBRANCH   4   5
ENDBRANCH   3   4
ENDBRANCH   2   3
ENDBRANCH   1   2
BRANCH   1  12
ATOM     12  C   UNL     1     106.276  98.890  92.855  1.00  0.00     0.000 C 
BRANCH  12  13
ATOM     13  C   UNL     1     107.781  98.607  92.730  1.00  0.00    -0.000 C 
BRANCH  13  14
ATOM     14  C   UNL     1     108.493  99.737  91.977  1.00  0.00    -0.000 C 
BRANCH  14  15
ATOM     15  C   UNL     1     108.689  99.373  90.497  1.00  0.00    -0.000 C 
BRANCH  15  16
ATOM     16  C   UNL     1     107.964 100.339  89.546  1.00  0.00    -0.000 C 
BRANCH  16  17
ATOM     17  C   UNL     1     106.472 100.004  89.390  1.00  0.00    -0.000 C 
BRANCH  17  18
ATOM     18  C   UNL     1     106.232  98.633  88.730  1.00  0.00    -0.000 C 
BRANCH  18  19
ATOM     19  C   UNL     1     104.762  98.319  88.399  1.00  0.00    -0.003 C 
ATOM     20  C   UNL     1     103.776  98.992  89.352  1.00  0.00     0.004 C 
ENDBRANCH  18  19
ENDBRANCH  17  18
ENDBRANCH  16  17
ENDBRANCH  15  16
ENDBRANCH  14  15
ENDBRANCH  13  14
ENDBRANCH  12  13
ENDBRANCH   1  12
TORSDOF 16
ENDMDL
MODEL 2
REMARK VINA RESULT:    -3.930      1.937      4.696
REMARK INTER + INTRA:         -10.475
REMARK INTER:                  -7.901
REMARK INTRA:                  -2.574
REMARK UNBOUND:                -2.869
REMARK SMILES CCCCCCCCCCCCCCCCCC(=O)[O-]
REMARK SMILES IDX 10 1 11 2 12 3 13 4 14 5 15 6 16 7 17 8 18 9 19 10 20 11
REMARK SMILES IDX 9 12 8 13 7 14 6 15 5 16 4 17 3 18 2 19 1 20
REMARK H PARENT
REMARK Flexibility Score: inf
ROOT
ATOM      1  C   UNL     1     108.599  99.403  91.839  1.00  0.00     0.000 C 
ENDROOT
BRANCH   1   2
ATOM      2  C   UNL     1     109.105 100.042  90.534  1.00  0.00     0.000 C 
BRANCH   2   3
ATOM      3  C   UNL     1     108.290  99.580  89.307  1.00  0.00     0.000 C 
BRANCH   3   4
ATOM      4  C   UNL     1     106.881 100.196  89.238  1.00  0.00     0.000 C 
BRANCH   4   5
ATOM      5  C   UNL     1     105.837  99.240  88.636  1.00  0.00     0.000 C 
BRANCH   5   6
ATOM      6  C   UNL     1     106.291  97.767  88.701  1.00  0.00     0.000 C 
BRANCH   6   7
ATOM      7  C   UNL     1     105.139  96.760  88.539  1.00  0.00     0.006 C 
BRANCH   7   8
ATOM      8  C   UNL     1     105.210  95.606  89.545  1.00  0.00     0.053 C 
BRANCH   8   9
ATOM      9  C   UNL     1     103.952  94.797  89.501  1.00  0.00     0.041 C 
ATOM     10  O   UNL     1     102.918  95.263  88.954  1.00  0.00    -0.550 OA
ATOM     11  O   UNL     1     103.907  93.549  90.108  1.00  0.00    -0.550 OA
ENDBRANCH   8   9
ENDBRANCH   7   8
ENDBRANCH   6   7
ENDBRANCH   5   6
ENDBRANCH   4   5
ENDBRANCH   3   4
ENDBRANCH   2   3
ENDBRANCH   1   2
BRANCH   1  12
ATOM     12  C   UNL     1     108.593  97.868  91.781  1.00  0.00     0.000 C 
BRANCH  12  13
ATOM     13  C   UNL     1     107.252  97.267  92.232  1.00  0.00    -0.000 C 
BRANCH  13  14
ATOM     14  C   UNL     1     106.419  98.299  93.002  1.00  0.00    -0.000 C 
BRANCH  14  15
ATOM     15  C   UNL     1     105.207  98.754  92.176  1.00  0.00    -0.000 C 
BRANCH  15  16
ATOM     16  C   UNL     1     103.979  97.850  92.375  1.00  0.00    -0.000 C 
BRANCH  16  17
ATOM     17  C   UNL     1     102.955  97.988  91.236  1.00  0.00    -0.000 C 
BRANCH  17  18
ATOM     18  C   UNL     1     101.500  97.841  91.719  1.00  0.00    -0.000 C 
BRANCH  18  19
ATOM     19  C   UNL     1     100.940  96.407  91.669  1.00  0.00    -0.003 C 
ATOM     20  C   UNL     1      99.438  96.341  91.944  1.00  0.00     0.004 C 
ENDBRANCH  18  19
ENDBRANCH  17  18
ENDBRANCH  16  17
ENDBRANCH  15  16
ENDBRANCH  14  15
ENDBRANCH  13  14
ENDBRANCH  12  13
ENDBRANCH   1  12
TORSDOF 16
ENDMDL
MODEL 3
REMARK VINA RESULT:    -3.918      8.093     11.421
REMARK INTER + INTRA:         -10.451
REMARK INTER:                  -7.500
REMARK INTRA:                  -2.950
REMARK UNBOUND:                -2.869
REMARK SMILES CCCCCCCCCCCCCCCCCC(=O)[O-]
REMARK SMILES IDX 10 1 11 2 12 3 13 4 14 5 15 6 16 7 17 8 18 9 19 10 20 11
REMARK SMILES IDX 9 12 8 13 7 14 6 15 5 16 4 17 3 18 2 19 1 20
REMARK H PARENT
REMARK Flexibility Score: inf
ROOT
ATOM      1  C   UNL     1      93.182 102.714  91.876  1.00  0.00     0.000 C 
ENDROOT
BRANCH   1   2
ATOM      2  C   UNL     1      92.494 102.878  90.509  1.00  0.00     0.000 C 
BRANCH   2   3
ATOM      3  C   UNL     1      93.510 102.903  89.347  1.00  0.00     0.000 C 
BRANCH   3   4
ATOM      4  C   UNL     1      93.355 101.726  88.369  1.00  0.00     0.000 C 
BRANCH   4   5
ATOM      5  C   UNL     1      92.198 100.784  88.742  1.00  0.00     0.000 C 
BRANCH   5   6
ATOM      6  C   UNL     1      92.688  99.354  89.050  1.00  0.00     0.000 C 
BRANCH   6   7
ATOM      7  C   UNL     1      91.981  98.707  90.254  1.00  0.00     0.006 C 
BRANCH   7   8
ATOM      8  C   UNL     1      90.939  99.627  90.898  1.00  0.00     0.053 C 
BRANCH   8   9
ATOM      9  C   UNL     1      90.987  99.507  92.389  1.00  0.00     0.041 C 
ATOM     10  O   UNL     1      91.915  98.860  92.943  1.00  0.00    -0.550 OA
ATOM     11  O   UNL     1      89.981 100.067  93.165  1.00  0.00    -0.550 OA
ENDBRANCH   8   9
ENDBRANCH   7   8
ENDBRANCH   6   7
ENDBRANCH   5   6
ENDBRANCH   4   5
ENDBRANCH   3   4
ENDBRANCH   2   3
ENDBRANCH   1   2
BRANCH   1  12
ATOM     12  C   UNL     1      94.625 102.201  91.752  1.00  0.00     0.000 C 
BRANCH  12  13
ATOM     13  C   UNL     1      94.715 100.670  91.848  1.00  0.00    -0.000 C 
BRANCH  13  14
ATOM     14  C   UNL     1      95.916 100.139  91.057  1.00  0.00    -0.000 C 
BRANCH  14  15
ATOM     15  C   UNL     1      97.069  99.757  91.998  1.00  0.00    -0.000 C 
BRANCH  15  16
ATOM     16  C   UNL     1      98.408 100.390  91.584  1.00  0.00    -0.000 C 
BRANCH  16  17
ATOM     17  C   UNL     1      98.368 101.927  91.615  1.00  0.00    -0.000 C 
BRANCH  17  18
ATOM     18  C   UNL     1      98.636 102.560  90.237  1.00  0.00    -0.000 C 
BRANCH  18  19
ATOM     19  C   UNL     1      97.406 103.194  89.562  1.00  0.00    -0.003 C 
ATOM     20  C   UNL     1      96.980 102.466  88.287  1.00  0.00     0.004 C 
ENDBRANCH  18  19
ENDBRANCH  17  18
ENDBRANCH  16  17
ENDBRANCH  15  16
ENDBRANCH  14  15
ENDBRANCH  13  14
ENDBRANCH  12  13
ENDBRANCH   1  12
TORSDOF 16
ENDMDL
MODEL 4
REMARK VINA RESULT:    -3.907      8.420     11.497
REMARK INTER + INTRA:         -10.431
REMARK INTER:                  -7.804
REMARK INTRA:                  -2.627
REMARK UNBOUND:                -2.869
REMARK SMILES CCCCCCCCCCCCCCCCCC(=O)[O-]
REMARK SMILES IDX 10 1 11 2 12 3 13 4 14 5 15 6 16 7 17 8 18 9 19 10 20 11
REMARK SMILES IDX 9 12 8 13 7 14 6 15 5 16 4 17 3 18 2 19 1 20
REMARK H PARENT
REMARK Flexibility Score: inf
ROOT
ATOM      1  C   UNL     1      96.547 103.892  88.940  1.00  0.00     0.000 C 
ENDROOT
BRANCH   1   2
ATOM      2  C   UNL     1      95.618 104.908  89.629  1.00  0.00     0.000 C 
BRANCH   2   3
ATOM      3  C   UNL     1      94.352 104.240  90.205  1.00  0.00     0.000 C 
BRANCH   3   4
ATOM      4  C   UNL     1      93.786 103.122  89.313  1.00  0.00     0.000 C 
BRANCH   4   5
ATOM      5  C   UNL     1      92.497 102.500  89.875  1.00  0.00     0.000 C 
BRANCH   5   6
ATOM      6  C   UNL     1      92.503 102.441  91.416  1.00  0.00     0.000 C 
BRANCH   6   7
ATOM      7  C   UNL     1      92.044 101.087  91.983  1.00  0.00     0.006 C 
BRANCH   7   8
ATOM      8  C   UNL     1      90.536 100.859  91.835  1.00  0.00     0.053 C 
BRANCH   8   9
ATOM      9  C   UNL     1      90.263  99.471  91.347  1.00  0.00     0.041 C 
ATOM     10  O   UNL     1      90.177  99.238  90.113  1.00  0.00    -0.550 OA
ATOM     11  O   UNL     1      90.054  98.443  92.258  1.00  0.00    -0.550 OA
ENDBRANCH   8   9
ENDBRANCH   7   8
ENDBRANCH   6   7
ENDBRANCH   5   6
ENDBRANCH   4   5
ENDBRANCH   3   4
ENDBRANCH   2   3
ENDBRANCH   1   2
BRANCH   1  12
ATOM     12  C   UNL     1      98.028 104.289  89.034  1.00  0.00     0.000 C 
BRANCH  12  13
ATOM     13  C   UNL     1      98.857 103.282  89.846  1.00  0.00    -0.000 C 
BRANCH  13  14
ATOM     14  C   UNL     1      98.522 101.841  89.442  1.00  0.00    -0.000 C 
BRANCH  14  15
ATOM     15  C   UNL     1      98.420 100.933  90.676  1.00  0.00    -0.000 C 
BRANCH  15  16
ATOM     16  C   UNL     1      97.646 101.587  91.832  1.00  0.00    -0.000 C 
BRANCH  16  17
ATOM     17  C   UNL     1      96.123 101.452  91.674  1.00  0.00    -0.000 C 
BRANCH  17  18
ATOM     18  C   UNL     1      95.685 100.027  91.287  1.00  0.00    -0.000 C 
BRANCH  18  19
ATOM     19  C   UNL     1      95.143  99.879  89.854  1.00  0.00    -0.003 C 
ATOM     20  C   UNL     1      93.924  98.961  89.766  1.00  0.00     0.004 C 
ENDBRANCH  18  19
ENDBRANCH  17  18
ENDBRANCH  16  17
ENDBRANCH  15  16
ENDBRANCH  14  15
ENDBRANCH  13  14
ENDBRANCH  12  13
ENDBRANCH   1  12
TORSDOF 16
ENDMDL
MODEL 5
REMARK VINA RESULT:    -3.894      3.394      7.362
REMARK INTER + INTRA:         -10.406
REMARK INTER:                  -8.125
REMARK INTRA:                  -2.281
REMARK UNBOUND:                -2.869
REMARK SMILES CCCCCCCCCCCCCCCCCC(=O)[O-]
REMARK SMILES IDX 10 1 11 2 12 3 13 4 14 5 15 6 16 7 17 8 18 9 19 10 20 11
REMARK SMILES IDX 9 12 8 13 7 14 6 15 5 16 4 17 3 18 2 19 1 20
REMARK H PARENT
REMARK Flexibility Score: inf
ROOT
ATOM      1  C   UNL     1     100.833  96.713  91.615  1.00  0.00     0.000 C 
ENDROOT
BRANCH   1   2
ATOM      2  C   UNL     1     101.303  97.689  90.522  1.00  0.00     0.000 C 
BRANCH   2   3
ATOM      3  C   UNL     1     102.816  97.980  90.614  1.00  0.00     0.000 C 
BRANCH   3   4
ATOM      4  C   UNL     1     103.369  97.910  92.048  1.00  0.00     0.000 C 
BRANCH   4   5
ATOM      5  C   UNL     1     104.859  98.281  92.135  1.00  0.00     0.000 C 
BRANCH   5   6
ATOM      6  C   UNL     1     105.459  98.609  90.753  1.00  0.00     0.000 C 
BRANCH   6   7
ATOM      7  C   UNL     1     106.795  99.368  90.826  1.00  0.00     0.006 C 
BRANCH   7   8
ATOM      8  C   UNL     1     107.979  98.458  91.171  1.00  0.00     0.053 C 
BRANCH   8   9
ATOM      9  C   UNL     1     108.676  98.951  92.400  1.00  0.00     0.041 C 
ATOM     10  O   UNL     1     109.086 100.140  92.461  1.00  0.00    -0.550 OA
ATOM     11  O   UNL     1     108.916  98.085  93.459  1.00  0.00    -0.550 OA
ENDBRANCH   8   9
ENDBRANCH   7   8
ENDBRANCH   6   7
ENDBRANCH   5   6
ENDBRANCH   4   5
ENDBRANCH   3   4
ENDBRANCH   2   3
ENDBRANCH   1   2
BRANCH   1  12
ATOM     12  C   UNL     1      99.608  95.891  91.183  1.00  0.00     0.000 C 
BRANCH  12  13
ATOM     13  C   UNL     1      99.388  95.917  89.663  1.00  0.00    -0.000 C 
BRANCH  13  14
ATOM     14  C   UNL     1      98.655  94.656  89.191  1.00  0.00    -0.000 C 
BRANCH  14  15
ATOM     15  C   UNL     1      99.550  93.416  89.327  1.00  0.00    -0.000 C 
BRANCH  15  16
ATOM     16  C   UNL     1     100.880  93.556  88.569  1.00  0.00    -0.000 C 
BRANCH  16  17
ATOM     17  C   UNL     1     102.101  93.285  89.464  1.00  0.00    -0.000 C 
BRANCH  17  18
ATOM     18  C   UNL     1     103.096  94.459  89.490  1.00  0.00    -0.000 C 
BRANCH  18  19
ATOM     19  C   UNL     1     104.081  94.451  90.674  1.00  0.00    -0.003 C 
ATOM     20  C   UNL     1     105.468  94.976  90.303  1.00  0.00     0.004 C 
ENDBRANCH  18  19
ENDBRANCH  17  18
ENDBRANCH  16  17
ENDBRANCH  15  16
ENDBRANCH  14  15
ENDBRANCH  13  14
ENDBRANCH  12  13
ENDBRANCH   1  12
TORSDOF 16
ENDMDL
MODEL 6
REMARK VINA RESULT:    -3.892      8.767     11.536
REMARK INTER + INTRA:         -10.401
REMARK INTER:                  -7.765
REMARK INTRA:                  -2.636
REMARK UNBOUND:                -2.869
REMARK SMILES CCCCCCCCCCCCCCCCCC(=O)[O-]
REMARK SMILES IDX 10 1 11 2 12 3 13 4 14 5 15 6 16 7 17 8 18 9 19 10 20 11
REMARK SMILES IDX 9 12 8 13 7 14 6 15 5 16 4 17 3 18 2 19 1 20
REMARK H PARENT
REMARK Flexibility Score: inf
ROOT
ATOM      1  C   UNL     1      94.505 103.743  91.425  1.00  0.00     0.000 C 
ENDROOT
BRANCH   1   2
ATOM      2  C   UNL     1      93.460 102.616  91.501  1.00  0.00     0.000 C 
BRANCH   2   3
ATOM      3  C   UNL     1      92.322 102.809  90.476  1.00  0.00     0.000 C 
BRANCH   3   4
ATOM      4  C   UNL     1      92.395 101.837  89.286  1.00  0.00     0.000 C 
BRANCH   4   5
ATOM      5  C   UNL     1      93.226 100.578  89.589  1.00  0.00     0.000 C 
BRANCH   5   6
ATOM      6  C   UNL     1      92.338  99.345  89.856  1.00  0.00     0.000 C 
BRANCH   6   7
ATOM      7  C   UNL     1      92.652  98.638  91.185  1.00  0.00     0.006 C 
BRANCH   7   8
ATOM      8  C   UNL     1      92.275  99.477  92.411  1.00  0.00     0.053 C 
BRANCH   8   9
ATOM      9  C   UNL     1      90.795  99.695  92.459  1.00  0.00     0.041 C 
ATOM     10  O   UNL     1      90.330 100.844  92.678  1.00  0.00    -0.550 OA
ATOM     11  O   UNL     1      89.929  98.619  92.310  1.00  0.00    -0.550 OA
ENDBRANCH   8   9
ENDBRANCH   7   8
ENDBRANCH   6   7
ENDBRANCH   5   6
ENDBRANCH   4   5
ENDBRANCH   3   4
ENDBRANCH   2   3
ENDBRANCH   1   2
BRANCH   1  12
ATOM     12  C   UNL     1      94.521 104.441  90.056  1.00  0.00     0.000 C 
BRANCH  12  13
ATOM     13  C   UNL     1      95.696 103.985  89.177  1.00  0.00    -0.000 C 
BRANCH  13  14
ATOM     14  C   UNL     1      96.742 105.098  89.037  1.00  0.00    -0.000 C 
BRANCH  14  15
ATOM     15  C   UNL     1      98.164 104.537  89.176  1.00  0.00    -0.000 C 
BRANCH  15  16
ATOM     16  C   UNL     1      98.193 103.002  89.254  1.00  0.00    -0.000 C 
BRANCH  16  17
ATOM     17  C   UNL     1      98.863 102.489  90.539  1.00  0.00    -0.000 C 
BRANCH  17  18
ATOM     18  C   UNL     1      97.869 101.823  91.508  1.00  0.00    -0.000 C 
BRANCH  18  19
ATOM     19  C   UNL     1      96.870 100.853  90.851  1.00  0.00    -0.003 C 
ATOM     20  C   UNL     1      96.057 100.050  91.866  1.00  0.00     0.004 C 
ENDBRANCH  18  19
ENDBRANCH  17  18
ENDBRANCH  16  17
ENDBRANCH  15  16
ENDBRANCH  14  15
ENDBRANCH  13  14
ENDBRANCH  12  13
ENDBRANCH   1  12
TORSDOF 16
ENDMDL
MODEL 7
REMARK VINA RESULT:    -3.890      1.024      2.800
REMARK INTER + INTRA:         -10.397
REMARK INTER:                  -7.884
REMARK INTRA:                  -2.513
REMARK UNBOUND:                -2.869
REMARK SMILES CCCCCCCCCCCCCCCCCC(=O)[O-]
REMARK SMILES IDX 10 1 11 2 12 3 13 4 14 5 15 6 16 7 17 8 18 9 19 10 20 11
REMARK SMILES IDX 9 12 8 13 7 14 6 15 5 16 4 17 3 18 2 19 1 20
REMARK H PARENT
REMARK Flexibility Score: inf
ROOT
ATOM      1  C   UNL     1     105.268  98.450  88.564  1.00  0.00     0.000 C 
ENDROOT
BRANCH   1   2
ATOM      2  C   UNL     1     105.740  96.986  88.552  1.00  0.00     0.000 C 
BRANCH   2   3
ATOM      3  C   UNL     1     104.563  95.995  88.680  1.00  0.00     0.000 C 
BRANCH   3   4
ATOM      4  C   UNL     1     104.806  94.883  89.715  1.00  0.00     0.000 C 
BRANCH   4   5
ATOM      5  C   UNL     1     103.507  94.202  90.180  1.00  0.00     0.000 C 
BRANCH   5   6
ATOM      6  C   UNL     1     102.338  95.201  90.303  1.00  0.00     0.000 C 
BRANCH   6   7
ATOM      7  C   UNL     1     102.308  95.952  91.645  1.00  0.00     0.006 C 
BRANCH   7   8
ATOM      8  C   UNL     1     101.534  97.273  91.571  1.00  0.00     0.053 C 
BRANCH   8   9
ATOM      9  C   UNL     1     100.068  97.011  91.428  1.00  0.00     0.041 C 
ATOM     10  O   UNL     1      99.483  96.229  92.223  1.00  0.00    -0.550 OA
ATOM     11  O   UNL     1      99.356  97.592  90.386  1.00  0.00    -0.550 OA
ENDBRANCH   8   9
ENDBRANCH   7   8
ENDBRANCH   6   7
ENDBRANCH   5   6
ENDBRANCH   4   5
ENDBRANCH   3   4
ENDBRANCH   2   3
ENDBRANCH   1   2
BRANCH   1  12
ATOM     12  C   UNL     1     106.434  99.446  88.464  1.00  0.00     0.000 C 
BRANCH  12  13
ATOM     13  C   UNL     1     107.650  99.014  89.299  1.00  0.00    -0.000 C 
BRANCH  13  14
ATOM     14  C   UNL     1     108.196 100.186  90.123  1.00  0.00    -0.000 C 
BRANCH  14  15
ATOM     15  C   UNL     1     108.578  99.731  91.540  1.00  0.00    -0.000 C 
BRANCH  15  16
ATOM     16  C   UNL     1     108.698  98.203  91.661  1.00  0.00    -0.000 C 
BRANCH  16  17
ATOM     17  C   UNL     1     107.765  97.623  92.737  1.00  0.00    -0.000 C 
BRANCH  17  18
ATOM     18  C   UNL     1     106.455  97.063  92.154  1.00  0.00    -0.000 C 
BRANCH  18  19
ATOM     19  C   UNL     1     105.235  97.992  92.285  1.00  0.00    -0.003 C 
ATOM     20  C   UNL     1     105.385  99.025  93.402  1.00  0.00     0.004 C 
ENDBRANCH  18  19
ENDBRANCH  17  18
ENDBRANCH  16  17
ENDBRANCH  15  16
ENDBRANCH  14  15
ENDBRANCH  13  14
ENDBRANCH  12  13
ENDBRANCH   1  12
TORSDOF 16
ENDMDL
MODEL 8
REMARK VINA RESULT:    -3.879      8.428     11.040
REMARK INTER + INTRA:         -10.375
REMARK INTER:                  -7.833
REMARK INTRA:                  -2.542
REMARK UNBOUND:                -2.869
REMARK SMILES CCCCCCCCCCCCCCCCCC(=O)[O-]
REMARK SMILES IDX 10 1 11 2 12 3 13 4 14 5 15 6 16 7 17 8 18 9 19 10 20 11
REMARK SMILES IDX 9 12 8 13 7 14 6 15 5 16 4 17 3 18 2 19 1 20
REMARK H PARENT
REMARK Flexibility Score: inf
ROOT
ATOM      1  C   UNL     1      97.613 101.594  91.671  1.00  0.00     0.000 C 
ENDROOT
BRANCH   1   2
ATOM      2  C   UNL     1      97.041 100.179  91.874  1.00  0.00     0.000 C 
BRANCH   2   3
ATOM      3  C   UNL     1      95.551 100.093  91.479  1.00  0.00     0.000 C 
BRANCH   3   4
ATOM      4  C   UNL     1      95.328  99.777  89.990  1.00  0.00     0.000 C 
BRANCH   4   5
ATOM      5  C   UNL     1      93.850  99.863  89.573  1.00  0.00     0.000 C 
BRANCH   5   6
ATOM      6  C   UNL     1      93.189  98.472  89.482  1.00  0.00     0.000 C 
BRANCH   6   7
ATOM      7  C   UNL     1      92.153  98.209  90.588  1.00  0.00     0.006 C 
BRANCH   7   8
ATOM      8  C   UNL     1      91.407  99.476  91.020  1.00  0.00     0.053 C 
BRANCH   8   9
ATOM      9  C   UNL     1      91.440  99.620  92.509  1.00  0.00     0.041 C 
ATOM     10  O   UNL     1      90.447 100.091  93.122  1.00  0.00    -0.550 OA
ATOM     11  O   UNL     1      92.587  99.280  93.214  1.00  0.00    -0.550 OA
ENDBRANCH   8   9
ENDBRANCH   7   8
ENDBRANCH   6   7
ENDBRANCH   5   6
ENDBRANCH   4   5
ENDBRANCH   3   4
ENDBRANCH   2   3
ENDBRANCH   1   2
BRANCH   1  12
ATOM     12  C   UNL     1      98.472 101.705  90.402  1.00  0.00     0.000 C 
BRANCH  12  13
ATOM     13  C   UNL     1      98.577 103.150  89.888  1.00  0.00    -0.000 C 
BRANCH  13  14
ATOM     14  C   UNL     1      97.397 103.495  88.972  1.00  0.00    -0.000 C 
BRANCH  14  15
ATOM     15  C   UNL     1      96.961 104.955  89.162  1.00  0.00    -0.000 C 
BRANCH  15  16
ATOM     16  C   UNL     1      95.461 105.092  89.471  1.00  0.00    -0.000 C 
BRANCH  16  17
ATOM     17  C   UNL     1      94.800 103.742  89.795  1.00  0.00    -0.000 C 
BRANCH  17  18
ATOM     18  C   UNL     1      94.488 103.573  91.293  1.00  0.00    -0.000 C 
BRANCH  18  19
ATOM     19  C   UNL     1      93.130 102.920  91.605  1.00  0.00    -0.003 C 
ATOM     20  C   UNL     1      92.164 102.951  90.422  1.00  0.00     0.004 C 
ENDBRANCH  18  19
ENDBRANCH  17  18
ENDBRANCH  16  17
ENDBRANCH  15  16
ENDBRANCH  14  15
ENDBRANCH  13  14
ENDBRANCH  12  13
ENDBRANCH   1  12
TORSDOF 16
ENDMDL
MODEL 9
REMARK VINA RESULT:    -3.817      8.704     13.677
REMARK INTER + INTRA:         -10.256
REMARK INTER:                  -7.614
REMARK INTRA:                  -2.642
REMARK UNBOUND:                -2.869
REMARK SMILES CCCCCCCCCCCCCCCCCC(=O)[O-]
REMARK SMILES IDX 10 1 11 2 12 3 13 4 14 5 15 6 16 7 17 8 18 9 19 10 20 11
REMARK SMILES IDX 9 12 8 13 7 14 6 15 5 16 4 17 3 18 2 19 1 20
REMARK H PARENT
REMARK Flexibility Score: inf
ROOT
ATOM      1  C   UNL     1      91.899 100.279  88.441  1.00  0.00     0.000 C 
ENDROOT
BRANCH   1   2
ATOM      2  C   UNL     1      92.655 101.613  88.573  1.00  0.00     0.000 C 
BRANCH   2   3
ATOM      3  C   UNL     1      92.365 102.314  89.917  1.00  0.00     0.000 C 
BRANCH   3   4
ATOM      4  C   UNL     1      93.180 103.602  90.126  1.00  0.00     0.000 C 
BRANCH   4   5
ATOM      5  C   UNL     1      94.572 103.341  90.725  1.00  0.00     0.000 C 
BRANCH   5   6
ATOM      6  C   UNL     1      94.523 102.337  91.895  1.00  0.00     0.000 C 
BRANCH   6   7
ATOM      7  C   UNL     1      95.369 101.074  91.658  1.00  0.00     0.006 C 
BRANCH   7   8
ATOM      8  C   UNL     1      96.291 101.195  90.440  1.00  0.00     0.053 C 
BRANCH   8   9
ATOM      9  C   UNL     1      97.712 101.364  90.876  1.00  0.00     0.041 C 
ATOM     10  O   UNL     1      97.982 101.582  92.086  1.00  0.00    -0.550 OA
ATOM     11  O   UNL     1      98.736 101.330  89.938  1.00  0.00    -0.550 OA
ENDBRANCH   8   9
ENDBRANCH   7   8
ENDBRANCH   6   7
ENDBRANCH   5   6
ENDBRANCH   4   5
ENDBRANCH   3   4
ENDBRANCH   2   3
ENDBRANCH   1   2
BRANCH   1  12
ATOM     12  C   UNL     1      92.725  99.082  88.938  1.00  0.00     0.000 C 
BRANCH  12  13
ATOM     13  C   UNL     1      91.844  97.908  89.392  1.00  0.00    -0.000 C 
BRANCH  13  14
ATOM     14  C   UNL     1      90.432  98.020  88.805  1.00  0.00    -0.000 C 
BRANCH  14  15
ATOM     15  C   UNL     1      89.373  98.042  89.918  1.00  0.00    -0.000 C 
BRANCH  15  16
ATOM     16  C   UNL     1      89.986  98.214  91.317  1.00  0.00    -0.000 C 
BRANCH  16  17
ATOM     17  C   UNL     1      89.570  99.534  91.986  1.00  0.00    -0.000 C 
BRANCH  17  18
ATOM     18  C   UNL     1      90.769 100.341  92.516  1.00  0.00    -0.000 C 
BRANCH  18  19
ATOM     19  C   UNL     1      92.109  99.582  92.529  1.00  0.00    -0.003 C 
ATOM     20  C   UNL     1      92.590  99.239  93.938  1.00  0.00     0.004 C 
ENDBRANCH  18  19
ENDBRANCH  17  18
ENDBRANCH  16  17
ENDBRANCH  15  16
ENDBRANCH  14  15
ENDBRANCH  13  14
ENDBRANCH  12  13
ENDBRANCH   1  12
TORSDOF 16
ENDMDL
