MODEL 1
REMARK VINA RESULT:    -5.530      0.000      0.000
REMARK INTER + INTRA:         -10.628
REMARK INTER:                  -9.087
REMARK INTRA:                  -1.541
REMARK UNBOUND:                -1.541
REMARK SMILES C[C@@H]1O[C@H](OC[C@@H]2O[C@@H](Oc3c(-c4ccc(O)c(O)c4)oc4cc(O)cc(O)c4c3=O)[C@H](O)[C@@H](O)[C@H]2O)[C@H](O)[C@@H](O)[C@@H]1O
REMARK SMILES IDX 7 1 36 2 34 3 32 4 9 5 8 6 6 7 5 8 4 9 1 10 2 11 42 12 3 13
REMARK SMILES IDX 40 14 38 15 43 16 41 18 39 20 37 22 35 24 10 26 11 27 12 28
REMARK SMILES IDX 30 29 21 30 29 31 31 32 22 33 27 34 23 35 26 36 24 37 13 38
REMARK SMILES IDX 20 39 14 40 18 41 15 42 16 43 19 44 17 46 28 48 25 50 33 52
REMARK H PARENT 43 17 41 19 39 21 37 23 35 25 19 45 17 47 28 49 25 51 33 53
REMARK Flexibility Score: inf
ROOT
ATOM      1  C   UNL     1      -3.084  16.034   0.630  1.00  0.00     0.180 C 
ATOM      2  C   UNL     1      -3.453  16.403  -0.845  1.00  0.00     0.177 C 
ATOM      3  C   UNL     1      -2.479  15.646  -1.716  1.00  0.00     0.180 C 
ATOM      4  C   UNL     1      -1.005  15.972  -1.294  1.00  0.00     0.214 C 
ATOM      5  C   UNL     1      -0.825  16.080   0.290  1.00  0.00     0.339 C 
ATOM      6  O   UNL     1      -1.880  16.713   0.946  1.00  0.00    -0.332 OA
ENDROOT
BRANCH   1   7
ATOM      7  C   UNL     1      -4.244  16.145   1.737  1.00  0.00     0.198 C 
BRANCH   7   8
ATOM      8  O   UNL     1      -3.841  15.956   3.116  1.00  0.00    -0.347 OA
BRANCH   8   9
ATOM      9  C   UNL     1      -4.591  16.727   4.147  1.00  0.00     0.281 C 
ATOM     10  C   UNL     1      -6.125  14.090   3.668  1.00  0.00     0.041 C 
ATOM     11  C   UNL     1      -5.926  14.877   4.960  1.00  0.00     0.150 C 
ATOM     12  C   UNL     1      -4.777  14.380   5.995  1.00  0.00     0.174 C 
ATOM     13  O   UNL     1      -5.934  16.254   4.398  1.00  0.00    -0.344 OA
ATOM     14  C   UNL     1      -3.416  15.241   5.773  1.00  0.00     0.179 C 
ATOM     15  C   UNL     1      -3.838  16.693   5.467  1.00  0.00     0.202 C 
BRANCH  12  16
ATOM     16  O   UNL     1      -4.783  13.065   6.667  1.00  0.00    -0.388 OA
ATOM     17  H   UNL     1      -4.102  13.054   7.457  1.00  0.00     0.211 HD
ENDBRANCH  12  16
BRANCH  14  18
ATOM     18  O   UNL     1      -2.562  15.078   6.895  1.00  0.00    -0.387 OA
ATOM     19  H   UNL     1      -3.149  14.741   7.594  1.00  0.00     0.211 HD
ENDBRANCH  14  18
BRANCH  15  20
ATOM     20  O   UNL     1      -2.853  17.684   5.849  1.00  0.00    -0.385 OA
ATOM     21  H   UNL     1      -1.986  17.649   5.318  1.00  0.00     0.211 HD
ENDBRANCH  15  20
ENDBRANCH   8   9
ENDBRANCH   7   8
ENDBRANCH   1   7
BRANCH   2  22
ATOM     22  O   UNL     1      -4.795  16.192  -1.311  1.00  0.00    -0.387 OA
ATOM     23  H   UNL     1      -5.237  17.123  -1.413  1.00  0.00     0.211 HD
ENDBRANCH   2  22
BRANCH   3  24
ATOM     24  O   UNL     1      -2.825  14.269  -1.643  1.00  0.00    -0.387 OA
ATOM     25  H   UNL     1      -2.836  13.992  -0.701  1.00  0.00     0.211 HD
ENDBRANCH   3  24
BRANCH   5  26
ATOM     26  O   UNL     1      -0.558  14.750   0.814  1.00  0.00    -0.454 OA
BRANCH  26  27
ATOM     27  C   UNL     1       0.069  14.468   1.989  1.00  0.00     0.214 A 
ATOM     28  C   UNL     1       1.434  14.817   2.134  1.00  0.00     0.180 A 
ATOM     29  C   UNL     1      -0.594  13.867   3.079  1.00  0.00     0.239 A 
ATOM     30  O   UNL     1       2.038  14.685   3.294  1.00  0.00    -0.452 OA
ATOM     31  C   UNL     1       0.160  13.641   4.307  1.00  0.00     0.111 A 
ATOM     32  O   UNL     1      -1.802  13.576   2.984  1.00  0.00    -0.285 OA
ATOM     33  C   UNL     1       1.477  14.136   4.346  1.00  0.00     0.146 A 
ATOM     34  C   UNL     1      -0.375  12.873   5.355  1.00  0.00     0.134 A 
ATOM     35  C   UNL     1       2.215  13.971   5.534  1.00  0.00     0.094 A 
ATOM     36  C   UNL     1       0.416  12.723   6.550  1.00  0.00     0.093 A 
ATOM     37  C   UNL     1       1.689  13.288   6.631  1.00  0.00     0.123 A 
BRANCH  28  38
ATOM     38  C   UNL     1       2.143  15.402   0.991  1.00  0.00     0.025 A 
ATOM     39  C   UNL     1       2.967  16.539   1.237  1.00  0.00     0.062 A 
ATOM     40  C   UNL     1       2.180  14.778  -0.236  1.00  0.00     0.016 A 
ATOM     41  C   UNL     1       3.672  17.098   0.189  1.00  0.00     0.158 A 
ATOM     42  C   UNL     1       2.868  15.364  -1.298  1.00  0.00     0.051 A 
ATOM     43  C   UNL     1       3.651  16.539  -1.092  1.00  0.00     0.157 A 
BRANCH  41  44
ATOM     44  O   UNL     1       4.445  18.267   0.451  1.00  0.00    -0.504 OA
ATOM     45  H   UNL     1       4.500  18.666   1.374  1.00  0.00     0.293 HD
ENDBRANCH  41  44
BRANCH  43  46
ATOM     46  O   UNL     1       4.367  17.092  -2.124  1.00  0.00    -0.504 OA
ATOM     47  H   UNL     1       5.319  16.778  -2.339  1.00  0.00     0.293 HD
ENDBRANCH  43  46
ENDBRANCH  28  38
BRANCH  34  48
ATOM     48  O   UNL     1      -1.552  12.177   5.226  1.00  0.00    -0.507 OA
ATOM     49  H   UNL     1      -2.296  12.496   4.595  1.00  0.00     0.293 HD
ENDBRANCH  34  48
BRANCH  37  50
ATOM     50  O   UNL     1       2.415  13.147   7.817  1.00  0.00    -0.508 OA
ATOM     51  H   UNL     1       3.430  13.173   7.825  1.00  0.00     0.293 HD
ENDBRANCH  37  50
ENDBRANCH  26  27
ENDBRANCH   5  26
BRANCH   4  52
ATOM     52  O   UNL     1      -0.575  17.155  -1.818  1.00  0.00    -0.384 OA
ATOM     53  H   UNL     1      -0.050  17.659  -1.082  1.00  0.00     0.211 HD
ENDBRANCH   4  52
TORSDOF 16
ENDMDL
MODEL 2
REMARK VINA RESULT:    -3.956      2.340      5.702
REMARK INTER + INTRA:          -8.041
REMARK INTER:                  -6.473
REMARK INTRA:                  -1.568
REMARK UNBOUND:                -1.541
REMARK SMILES C[C@@H]1O[C@H](OC[C@@H]2O[C@@H](Oc3c(-c4ccc(O)c(O)c4)oc4cc(O)cc(O)c4c3=O)[C@H](O)[C@@H](O)[C@H]2O)[C@H](O)[C@@H](O)[C@@H]1O
REMARK SMILES IDX 7 1 36 2 34 3 32 4 9 5 8 6 6 7 5 8 4 9 1 10 2 11 42 12 3 13
REMARK SMILES IDX 40 14 38 15 43 16 41 18 39 20 37 22 35 24 10 26 11 27 12 28
REMARK SMILES IDX 30 29 21 30 29 31 31 32 22 33 27 34 23 35 26 36 24 37 13 38
REMARK SMILES IDX 20 39 14 40 18 41 15 42 16 43 19 44 17 46 28 48 25 50 33 52
REMARK H PARENT 43 17 41 19 39 21 37 23 35 25 19 45 17 47 28 49 25 51 33 53
REMARK Flexibility Score: inf
ROOT
ATOM      1  C   UNL     1       0.236  13.862  -0.231  1.00  0.00     0.180 C 
ATOM      2  C   UNL     1       1.310  14.562  -1.127  1.00  0.00     0.177 C 
ATOM      3  C   UNL     1       2.068  15.494  -0.211  1.00  0.00     0.180 C 
ATOM      4  C   UNL     1       1.076  16.460   0.524  1.00  0.00     0.214 C 
ATOM      5  C   UNL     1      -0.275  15.735   0.974  1.00  0.00     0.339 C 
ATOM      6  O   UNL     1      -0.772  14.820   0.047  1.00  0.00    -0.332 OA
ENDROOT
BRANCH   1   7
ATOM      7  C   UNL     1      -0.300  12.421  -0.701  1.00  0.00     0.198 C 
BRANCH   7   8
ATOM      8  O   UNL     1      -1.731  12.206  -0.618  1.00  0.00    -0.347 OA
BRANCH   8   9
ATOM      9  C   UNL     1      -2.532  12.540  -1.830  1.00  0.00     0.281 C 
ATOM     10  C   UNL     1      -4.112  10.421  -0.234  1.00  0.00     0.041 C 
ATOM     11  C   UNL     1      -4.625  11.608  -1.045  1.00  0.00     0.150 C 
ATOM     12  C   UNL     1      -5.039  12.962  -0.251  1.00  0.00     0.174 C 
ATOM     13  O   UNL     1      -3.601  11.612  -2.124  1.00  0.00    -0.344 OA
ATOM     14  C   UNL     1      -3.811  14.027  -0.285  1.00  0.00     0.179 C 
ATOM     15  C   UNL     1      -3.152  13.920  -1.675  1.00  0.00     0.202 C 
BRANCH  12  16
ATOM     16  O   UNL     1      -6.125  13.035   0.747  1.00  0.00    -0.388 OA
ATOM     17  H   UNL     1      -7.023  13.309   0.294  1.00  0.00     0.211 HD
ENDBRANCH  12  16
BRANCH  14  18
ATOM     18  O   UNL     1      -4.289  15.316   0.065  1.00  0.00    -0.387 OA
ATOM     19  H   UNL     1      -5.030  15.139   0.671  1.00  0.00     0.211 HD
ENDBRANCH  14  18
BRANCH  15  20
ATOM     20  O   UNL     1      -2.503  15.139  -2.113  1.00  0.00    -0.385 OA
ATOM     21  H   UNL     1      -2.580  15.328  -3.110  1.00  0.00     0.211 HD
ENDBRANCH  15  20
ENDBRANCH   8   9
ENDBRANCH   7   8
ENDBRANCH   1   7
BRANCH   2  22
ATOM     22  O   UNL     1       2.231  13.760  -1.882  1.00  0.00    -0.387 OA
ATOM     23  H   UNL     1       2.912  14.404  -2.324  1.00  0.00     0.211 HD
ENDBRANCH   2  22
BRANCH   3  24
ATOM     24  O   UNL     1       2.859  14.688   0.655  1.00  0.00    -0.387 OA
ATOM     25  H   UNL     1       3.488  15.264   1.140  1.00  0.00     0.211 HD
ENDBRANCH   3  24
BRANCH   5  26
ATOM     26  O   UNL     1      -0.064  15.143   2.285  1.00  0.00    -0.454 OA
BRANCH  26  27
ATOM     27  C   UNL     1      -1.035  14.858   3.196  1.00  0.00     0.214 A 
ATOM     28  C   UNL     1      -0.697  14.085   4.333  1.00  0.00     0.180 A 
ATOM     29  C   UNL     1      -2.359  15.326   3.066  1.00  0.00     0.239 A 
ATOM     30  O   UNL     1      -1.568  13.902   5.301  1.00  0.00    -0.452 OA
ATOM     31  C   UNL     1      -3.315  14.996   4.119  1.00  0.00     0.111 A 
ATOM     32  O   UNL     1      -2.673  16.031   2.088  1.00  0.00    -0.285 OA
ATOM     33  C   UNL     1      -2.813  14.314   5.243  1.00  0.00     0.146 A 
ATOM     34  C   UNL     1      -4.686  15.256   3.959  1.00  0.00     0.134 A 
ATOM     35  C   UNL     1      -3.703  14.019   6.293  1.00  0.00     0.094 A 
ATOM     36  C   UNL     1      -5.563  14.933   5.056  1.00  0.00     0.093 A 
ATOM     37  C   UNL     1      -5.059  14.338   6.213  1.00  0.00     0.123 A 
BRANCH  28  38
ATOM     38  C   UNL     1       0.666  13.557   4.454  1.00  0.00     0.025 A 
ATOM     39  C   UNL     1       1.299  13.085   3.268  1.00  0.00     0.062 A 
ATOM     40  C   UNL     1       1.393  13.684   5.618  1.00  0.00     0.016 A 
ATOM     41  C   UNL     1       2.594  12.608   3.340  1.00  0.00     0.158 A 
ATOM     42  C   UNL     1       2.687  13.173   5.693  1.00  0.00     0.051 A 
ATOM     43  C   UNL     1       3.322  12.637   4.533  1.00  0.00     0.157 A 
BRANCH  41  44
ATOM     44  O   UNL     1       3.184  12.091   2.150  1.00  0.00    -0.504 OA
ATOM     45  H   UNL     1       2.774  12.255   1.245  1.00  0.00     0.293 HD
ENDBRANCH  41  44
BRANCH  43  46
ATOM     46  O   UNL     1       4.613  12.176   4.592  1.00  0.00    -0.504 OA
ATOM     47  H   UNL     1       5.079  11.790   3.766  1.00  0.00     0.293 HD
ENDBRANCH  43  46
ENDBRANCH  28  38
BRANCH  34  48
ATOM     48  O   UNL     1      -5.217  15.689   2.768  1.00  0.00    -0.507 OA
ATOM     49  H   UNL     1      -6.179  15.459   2.496  1.00  0.00     0.293 HD
ENDBRANCH  34  48
BRANCH  37  50
ATOM     50  O   UNL     1      -5.936  14.065   7.267  1.00  0.00    -0.508 OA
ATOM     51  H   UNL     1      -5.822  13.245   7.854  1.00  0.00     0.293 HD
ENDBRANCH  37  50
ENDBRANCH  26  27
ENDBRANCH   5  26
BRANCH   4  52
ATOM     52  O   UNL     1       0.711  17.511  -0.265  1.00  0.00    -0.384 OA
ATOM     53  H   UNL     1      -0.315  17.470  -0.398  1.00  0.00     0.211 HD
ENDBRANCH   4  52
TORSDOF 16
ENDMDL
MODEL 3
REMARK VINA RESULT:    -3.471      1.977      7.060
REMARK INTER + INTRA:          -7.244
REMARK INTER:                  -6.415
REMARK INTRA:                  -0.829
REMARK UNBOUND:                -1.541
REMARK SMILES C[C@@H]1O[C@H](OC[C@@H]2O[C@@H](Oc3c(-c4ccc(O)c(O)c4)oc4cc(O)cc(O)c4c3=O)[C@H](O)[C@@H](O)[C@H]2O)[C@H](O)[C@@H](O)[C@@H]1O
REMARK SMILES IDX 7 1 36 2 34 3 32 4 9 5 8 6 6 7 5 8 4 9 1 10 2 11 42 12 3 13
REMARK SMILES IDX 40 14 38 15 43 16 41 18 39 20 37 22 35 24 10 26 11 27 12 28
REMARK SMILES IDX 30 29 21 30 29 31 31 32 22 33 27 34 23 35 26 36 24 37 13 38
REMARK SMILES IDX 20 39 14 40 18 41 15 42 16 43 19 44 17 46 28 48 25 50 33 52
REMARK H PARENT 43 17 41 19 39 21 37 23 35 25 19 45 17 47 28 49 25 51 33 53
REMARK Flexibility Score: inf
ROOT
ATOM      1  C   UNL     1      -3.737  16.081   1.193  1.00  0.00     0.180 C 
ATOM      2  C   UNL     1      -5.295  16.212   1.140  1.00  0.00     0.177 C 
ATOM      3  C   UNL     1      -5.778  15.976   2.551  1.00  0.00     0.180 C 
ATOM      4  C   UNL     1      -5.240  14.605   3.087  1.00  0.00     0.214 C 
ATOM      5  C   UNL     1      -3.733  14.315   2.643  1.00  0.00     0.339 C 
ATOM      6  O   UNL     1      -3.435  14.703   1.338  1.00  0.00    -0.332 OA
ENDROOT
BRANCH   1   7
ATOM      7  C   UNL     1      -2.886  16.854   0.070  1.00  0.00     0.198 C 
BRANCH   7   8
ATOM      8  O   UNL     1      -1.573  16.317  -0.230  1.00  0.00    -0.347 OA
BRANCH   8   9
ATOM      9  C   UNL     1      -1.333  15.875  -1.633  1.00  0.00     0.281 C 
ATOM     10  C   UNL     1       1.425  16.375  -0.336  1.00  0.00     0.041 C 
ATOM     11  C   UNL     1       1.006  15.313  -1.349  1.00  0.00     0.150 C 
ATOM     12  C   UNL     1       0.679  13.818  -0.807  1.00  0.00     0.174 C 
ATOM     13  O   UNL     1       0.009  16.105  -2.118  1.00  0.00    -0.344 OA
ATOM     14  C   UNL     1      -0.925  13.637  -0.606  1.00  0.00     0.179 C 
ATOM     15  C   UNL     1      -1.618  14.387  -1.761  1.00  0.00     0.202 C 
BRANCH  12  16
ATOM     16  O   UNL     1       1.666  12.948  -0.138  1.00  0.00    -0.388 OA
ATOM     17  H   UNL     1       1.957  12.170  -0.769  1.00  0.00     0.211 HD
ENDBRANCH  12  16
BRANCH  14  18
ATOM     18  O   UNL     1      -1.237  12.256  -0.503  1.00  0.00    -0.387 OA
ATOM     19  H   UNL     1      -0.676  11.939   0.226  1.00  0.00     0.211 HD
ENDBRANCH  14  18
BRANCH  15  20
ATOM     20  O   UNL     1      -2.917  13.852  -2.114  1.00  0.00    -0.385 OA
ATOM     21  H   UNL     1      -3.224  14.066  -3.060  1.00  0.00     0.211 HD
ENDBRANCH  15  20
ENDBRANCH   8   9
ENDBRANCH   7   8
ENDBRANCH   1   7
BRANCH   2  22
ATOM     22  O   UNL     1      -5.884  17.411   0.613  1.00  0.00    -0.387 OA
ATOM     23  H   UNL     1      -6.377  17.882   1.393  1.00  0.00     0.211 HD
ENDBRANCH   2  22
BRANCH   3  24
ATOM     24  O   UNL     1      -5.395  17.106   3.325  1.00  0.00    -0.387 OA
ATOM     25  H   UNL     1      -4.733  17.628   2.823  1.00  0.00     0.211 HD
ENDBRANCH   3  24
BRANCH   5  26
ATOM     26  O   UNL     1      -2.841  14.914   3.622  1.00  0.00    -0.454 OA
BRANCH  26  27
ATOM     27  C   UNL     1      -1.612  14.447   3.972  1.00  0.00     0.214 A 
ATOM     28  C   UNL     1      -1.481  13.702   5.169  1.00  0.00     0.180 A 
ATOM     29  C   UNL     1      -0.467  14.651   3.175  1.00  0.00     0.239 A 
ATOM     30  O   UNL     1      -0.343  13.120   5.473  1.00  0.00    -0.452 OA
ATOM     31  C   UNL     1       0.798  14.075   3.621  1.00  0.00     0.111 A 
ATOM     32  O   UNL     1      -0.563  15.279   2.104  1.00  0.00    -0.285 OA
ATOM     33  C   UNL     1       0.758  13.268   4.773  1.00  0.00     0.146 A 
ATOM     34  C   UNL     1       2.008  14.403   2.987  1.00  0.00     0.134 A 
ATOM     35  C   UNL     1       1.954  12.664   5.204  1.00  0.00     0.094 A 
ATOM     36  C   UNL     1       3.210  13.768   3.463  1.00  0.00     0.093 A 
ATOM     37  C   UNL     1       3.165  12.894   4.550  1.00  0.00     0.123 A 
BRANCH  28  38
ATOM     38  C   UNL     1      -2.658  13.523   6.027  1.00  0.00     0.025 A 
ATOM     39  C   UNL     1      -2.762  12.303   6.757  1.00  0.00     0.062 A 
ATOM     40  C   UNL     1      -3.535  14.554   6.280  1.00  0.00     0.016 A 
ATOM     41  C   UNL     1      -3.843  12.113   7.597  1.00  0.00     0.158 A 
ATOM     42  C   UNL     1      -4.640  14.346   7.103  1.00  0.00     0.051 A 
ATOM     43  C   UNL     1      -4.801  13.110   7.799  1.00  0.00     0.157 A 
BRANCH  41  44
ATOM     44  O   UNL     1      -3.952  10.864   8.274  1.00  0.00    -0.504 OA
ATOM     45  H   UNL     1      -4.754  10.639   8.841  1.00  0.00     0.293 HD
ENDBRANCH  41  44
BRANCH  43  46
ATOM     46  O   UNL     1      -5.863  12.919   8.647  1.00  0.00    -0.504 OA
ATOM     47  H   UNL     1      -6.824  12.871   8.295  1.00  0.00     0.293 HD
ENDBRANCH  43  46
ENDBRANCH  28  38
BRANCH  34  48
ATOM     48  O   UNL     1       2.089  15.382   2.026  1.00  0.00    -0.507 OA
ATOM     49  H   UNL     1       2.888  15.435   1.383  1.00  0.00     0.293 HD
ENDBRANCH  34  48
BRANCH  37  50
ATOM     50  O   UNL     1       4.347  12.275   4.966  1.00  0.00    -0.508 OA
ATOM     51  H   UNL     1       4.941  11.771   4.314  1.00  0.00     0.293 HD
ENDBRANCH  37  50
ENDBRANCH  26  27
ENDBRANCH   5  26
BRANCH   4  52
ATOM     52  O   UNL     1      -5.988  13.555   2.641  1.00  0.00    -0.384 OA
ATOM     53  H   UNL     1      -6.414  13.827   1.738  1.00  0.00     0.211 HD
ENDBRANCH   4  52
TORSDOF 16
ENDMDL
MODEL 4
REMARK VINA RESULT:    -3.250      1.948      3.190
REMARK INTER + INTRA:          -6.881
REMARK INTER:                  -6.956
REMARK INTRA:                   0.075
REMARK UNBOUND:                -1.541
REMARK SMILES C[C@@H]1O[C@H](OC[C@@H]2O[C@@H](Oc3c(-c4ccc(O)c(O)c4)oc4cc(O)cc(O)c4c3=O)[C@H](O)[C@@H](O)[C@H]2O)[C@H](O)[C@@H](O)[C@@H]1O
REMARK SMILES IDX 7 1 36 2 34 3 32 4 9 5 8 6 6 7 5 8 4 9 1 10 2 11 42 12 3 13
REMARK SMILES IDX 40 14 38 15 43 16 41 18 39 20 37 22 35 24 10 26 11 27 12 28
REMARK SMILES IDX 30 29 21 30 29 31 31 32 22 33 27 34 23 35 26 36 24 37 13 38
REMARK SMILES IDX 20 39 14 40 18 41 15 42 16 43 19 44 17 46 28 48 25 50 33 52
REMARK H PARENT 43 17 41 19 39 21 37 23 35 25 19 45 17 47 28 49 25 51 33 53
REMARK Flexibility Score: inf
ROOT
ATOM      1  C   UNL     1      -2.113  14.381  -1.506  1.00  0.00     0.180 C 
ATOM      2  C   UNL     1      -2.178  12.858  -1.858  1.00  0.00     0.177 C 
ATOM      3  C   UNL     1      -1.476  12.143  -0.728  1.00  0.00     0.180 C 
ATOM      4  C   UNL     1      -0.033  12.723  -0.530  1.00  0.00     0.214 C 
ATOM      5  C   UNL     1       0.024  14.311  -0.699  1.00  0.00     0.339 C 
ATOM      6  O   UNL     1      -0.778  14.808  -1.725  1.00  0.00    -0.332 OA
ENDROOT
BRANCH   1   7
ATOM      7  C   UNL     1      -3.248  15.336  -2.125  1.00  0.00     0.198 C 
BRANCH   7   8
ATOM      8  O   UNL     1      -4.572  15.223  -1.546  1.00  0.00    -0.347 OA
BRANCH   8   9
ATOM      9  C   UNL     1      -5.179  16.474  -1.010  1.00  0.00     0.281 C 
ATOM     10  C   UNL     1      -5.767  14.219   1.017  1.00  0.00     0.041 C 
ATOM     11  C   UNL     1      -5.458  15.693   1.266  1.00  0.00     0.150 C 
ATOM     12  C   UNL     1      -3.945  16.101   1.692  1.00  0.00     0.174 C 
ATOM     13  O   UNL     1      -6.121  16.276   0.069  1.00  0.00    -0.344 OA
ATOM     14  C   UNL     1      -3.112  16.596   0.385  1.00  0.00     0.179 C 
ATOM     15  C   UNL     1      -4.086  17.400  -0.499  1.00  0.00     0.202 C 
BRANCH  12  16
ATOM     16  O   UNL     1      -3.281  15.639   2.927  1.00  0.00    -0.388 OA
ATOM     17  H   UNL     1      -3.988  15.376   3.648  1.00  0.00     0.211 HD
ENDBRANCH  12  16
BRANCH  14  18
ATOM     18  O   UNL     1      -1.948  17.294   0.800  1.00  0.00    -0.387 OA
ATOM     19  H   UNL     1      -1.953  18.105   0.263  1.00  0.00     0.211 HD
ENDBRANCH  14  18
BRANCH  15  20
ATOM     20  O   UNL     1      -3.441  18.401  -1.324  1.00  0.00    -0.385 OA
ATOM     21  H   UNL     1      -2.599  18.084  -1.798  1.00  0.00     0.211 HD
ENDBRANCH  15  20
ENDBRANCH   8   9
ENDBRANCH   7   8
ENDBRANCH   1   7
BRANCH   2  22
ATOM     22  O   UNL     1      -3.452  12.246  -2.110  1.00  0.00    -0.387 OA
ATOM     23  H   UNL     1      -3.364  11.697  -2.984  1.00  0.00     0.211 HD
ENDBRANCH   2  22
BRANCH   3  24
ATOM     24  O   UNL     1      -2.313  12.236   0.418  1.00  0.00    -0.387 OA
ATOM     25  H   UNL     1      -2.793  11.387   0.532  1.00  0.00     0.211 HD
ENDBRANCH   3  24
BRANCH   5  26
ATOM     26  O   UNL     1      -0.272  14.922   0.587  1.00  0.00    -0.454 OA
BRANCH  26  27
ATOM     27  C   UNL     1       0.341  14.630   1.767  1.00  0.00     0.214 A 
ATOM     28  C   UNL     1       1.679  15.050   1.963  1.00  0.00     0.180 A 
ATOM     29  C   UNL     1      -0.314  13.947   2.813  1.00  0.00     0.239 A 
ATOM     30  O   UNL     1       2.259  14.908   3.134  1.00  0.00    -0.452 OA
ATOM     31  C   UNL     1       0.420  13.717   4.053  1.00  0.00     0.111 A 
ATOM     32  O   UNL     1      -1.499  13.592   2.674  1.00  0.00    -0.285 OA
ATOM     33  C   UNL     1       1.704  14.285   4.148  1.00  0.00     0.146 A 
ATOM     34  C   UNL     1      -0.095  12.877   5.055  1.00  0.00     0.134 A 
ATOM     35  C   UNL     1       2.419  14.116   5.349  1.00  0.00     0.094 A 
ATOM     36  C   UNL     1       0.672  12.726   6.265  1.00  0.00     0.093 A 
ATOM     37  C   UNL     1       1.907  13.360   6.404  1.00  0.00     0.123 A 
BRANCH  28  38
ATOM     38  C   UNL     1       2.381  15.721   0.864  1.00  0.00     0.025 A 
ATOM     39  C   UNL     1       3.192  16.847   1.189  1.00  0.00     0.062 A 
ATOM     40  C   UNL     1       2.426  15.184  -0.403  1.00  0.00     0.016 A 
ATOM     41  C   UNL     1       3.891  17.486   0.183  1.00  0.00     0.158 A 
ATOM     42  C   UNL     1       3.107  15.849  -1.421  1.00  0.00     0.051 A 
ATOM     43  C   UNL     1       3.876  17.016  -1.133  1.00  0.00     0.157 A 
BRANCH  41  44
ATOM     44  O   UNL     1       4.651  18.642   0.525  1.00  0.00    -0.504 OA
ATOM     45  H   UNL     1       5.614  18.740   0.251  1.00  0.00     0.293 HD
ENDBRANCH  41  44
BRANCH  43  46
ATOM     46  O   UNL     1       4.587  17.647  -2.124  1.00  0.00    -0.504 OA
ATOM     47  H   UNL     1       4.621  17.270  -3.077  1.00  0.00     0.293 HD
ENDBRANCH  43  46
ENDBRANCH  28  38
BRANCH  34  48
ATOM     48  O   UNL     1      -1.226  12.120   4.867  1.00  0.00    -0.507 OA
ATOM     49  H   UNL     1      -2.098  12.325   5.369  1.00  0.00     0.293 HD
ENDBRANCH  34  48
BRANCH  37  50
ATOM     50  O   UNL     1       2.609  13.213   7.604  1.00  0.00    -0.508 OA
ATOM     51  H   UNL     1       2.216  12.706   8.390  1.00  0.00     0.293 HD
ENDBRANCH  37  50
ENDBRANCH  26  27
ENDBRANCH   5  26
BRANCH   4  52
ATOM     52  O   UNL     1       0.852  12.202  -1.427  1.00  0.00    -0.384 OA
ATOM     53  H   UNL     1       1.692  11.895  -0.906  1.00  0.00     0.211 HD
ENDBRANCH   4  52
TORSDOF 16
ENDMDL
MODEL 5
REMARK VINA RESULT:    -3.200      1.926      5.450
REMARK INTER + INTRA:          -6.798
REMARK INTER:                  -6.162
REMARK INTRA:                  -0.637
REMARK UNBOUND:                -1.541
REMARK SMILES C[C@@H]1O[C@H](OC[C@@H]2O[C@@H](Oc3c(-c4ccc(O)c(O)c4)oc4cc(O)cc(O)c4c3=O)[C@H](O)[C@@H](O)[C@H]2O)[C@H](O)[C@@H](O)[C@@H]1O
REMARK SMILES IDX 7 1 36 2 34 3 32 4 9 5 8 6 6 7 5 8 4 9 1 10 2 11 42 12 3 13
REMARK SMILES IDX 40 14 38 15 43 16 41 18 39 20 37 22 35 24 10 26 11 27 12 28
REMARK SMILES IDX 30 29 21 30 29 31 31 32 22 33 27 34 23 35 26 36 24 37 13 38
REMARK SMILES IDX 20 39 14 40 18 41 15 42 16 43 19 44 17 46 28 48 25 50 33 52
REMARK H PARENT 43 17 41 19 39 21 37 23 35 25 19 45 17 47 28 49 25 51 33 53
REMARK Flexibility Score: inf
ROOT
ATOM      1  C   UNL     1       0.239  15.851  -0.227  1.00  0.00     0.180 C 
ATOM      2  C   UNL     1       1.761  15.774  -0.581  1.00  0.00     0.177 C 
ATOM      3  C   UNL     1       2.355  14.764   0.371  1.00  0.00     0.180 C 
ATOM      4  C   UNL     1       2.033  15.158   1.853  1.00  0.00     0.214 C 
ATOM      5  C   UNL     1       0.551  15.729   2.033  1.00  0.00     0.339 C 
ATOM      6  O   UNL     1       0.126  16.559   0.997  1.00  0.00    -0.332 OA
ENDROOT
BRANCH   1   7
ATOM      7  C   UNL     1      -0.771  16.321  -1.386  1.00  0.00     0.198 C 
BRANCH   7   8
ATOM      8  O   UNL     1      -2.090  15.720  -1.375  1.00  0.00    -0.347 OA
BRANCH   8   9
ATOM      9  C   UNL     1      -2.598  15.240  -0.058  1.00  0.00     0.281 C 
ATOM     10  C   UNL     1      -4.941  16.651  -1.494  1.00  0.00     0.041 C 
ATOM     11  C   UNL     1      -4.955  15.423  -0.588  1.00  0.00     0.150 C 
ATOM     12  C   UNL     1      -5.010  13.955  -1.280  1.00  0.00     0.174 C 
ATOM     13  O   UNL     1      -3.864  15.810   0.346  1.00  0.00    -0.344 OA
ATOM     14  C   UNL     1      -3.513  13.328  -1.376  1.00  0.00     0.179 C 
ATOM     15  C   UNL     1      -2.765  13.729  -0.089  1.00  0.00     0.202 C 
BRANCH  12  16
ATOM     16  O   UNL     1      -6.125  13.481  -2.124  1.00  0.00    -0.388 OA
ATOM     17  H   UNL     1      -5.773  12.858  -2.882  1.00  0.00     0.211 HD
ENDBRANCH  12  16
BRANCH  14  18
ATOM     18  O   UNL     1      -3.598  11.933  -1.622  1.00  0.00    -0.387 OA
ATOM     19  H   UNL     1      -4.467  11.680  -1.267  1.00  0.00     0.211 HD
ENDBRANCH  14  18
BRANCH  15  20
ATOM     20  O   UNL     1      -1.719  12.804   0.295  1.00  0.00    -0.385 OA
ATOM     21  H   UNL     1      -1.229  12.367  -0.482  1.00  0.00     0.211 HD
ENDBRANCH  15  20
ENDBRANCH   8   9
ENDBRANCH   7   8
ENDBRANCH   1   7
BRANCH   2  22
ATOM     22  O   UNL     1       2.157  15.471  -1.928  1.00  0.00    -0.387 OA
ATOM     23  H   UNL     1       1.597  16.073  -2.558  1.00  0.00     0.211 HD
ENDBRANCH   2  22
BRANCH   3  24
ATOM     24  O   UNL     1       1.878  13.481  -0.017  1.00  0.00    -0.387 OA
ATOM     25  H   UNL     1       2.575  12.814   0.160  1.00  0.00     0.211 HD
ENDBRANCH   3  24
BRANCH   5  26
ATOM     26  O   UNL     1      -0.349  14.610   2.258  1.00  0.00    -0.454 OA
BRANCH  26  27
ATOM     27  C   UNL     1      -1.064  14.378   3.393  1.00  0.00     0.214 A 
ATOM     28  C   UNL     1      -0.419  13.760   4.491  1.00  0.00     0.180 A 
ATOM     29  C   UNL     1      -2.416  14.755   3.529  1.00  0.00     0.239 A 
ATOM     30  O   UNL     1      -1.032  13.642   5.647  1.00  0.00    -0.452 OA
ATOM     31  C   UNL     1      -3.082  14.495   4.801  1.00  0.00     0.111 A 
ATOM     32  O   UNL     1      -2.997  15.324   2.585  1.00  0.00    -0.285 OA
ATOM     33  C   UNL     1      -2.288  13.975   5.840  1.00  0.00     0.146 A 
ATOM     34  C   UNL     1      -4.470  14.660   4.940  1.00  0.00     0.134 A 
ATOM     35  C   UNL     1      -2.892  13.754   7.092  1.00  0.00     0.094 A 
ATOM     36  C   UNL     1      -5.049  14.417   6.236  1.00  0.00     0.093 A 
ATOM     37  C   UNL     1      -4.252  13.986   7.297  1.00  0.00     0.123 A 
BRANCH  28  38
ATOM     38  C   UNL     1       0.975  13.325   4.344  1.00  0.00     0.025 A 
ATOM     39  C   UNL     1       1.957  13.973   5.149  1.00  0.00     0.062 A 
ATOM     40  C   UNL     1       1.313  12.210   3.610  1.00  0.00     0.016 A 
ATOM     41  C   UNL     1       3.275  13.568   5.057  1.00  0.00     0.158 A 
ATOM     42  C   UNL     1       2.648  11.826   3.496  1.00  0.00     0.051 A 
ATOM     43  C   UNL     1       3.660  12.499   4.245  1.00  0.00     0.157 A 
BRANCH  41  44
ATOM     44  O   UNL     1       4.245  14.268   5.833  1.00  0.00    -0.504 OA
ATOM     45  H   UNL     1       4.776  13.807   6.553  1.00  0.00     0.293 HD
ENDBRANCH  41  44
BRANCH  43  46
ATOM     46  O   UNL     1       4.969  12.093   4.171  1.00  0.00    -0.504 OA
ATOM     47  H   UNL     1       5.723  12.759   3.976  1.00  0.00     0.293 HD
ENDBRANCH  43  46
ENDBRANCH  28  38
BRANCH  34  48
ATOM     48  O   UNL     1      -5.288  14.923   3.867  1.00  0.00    -0.507 OA
ATOM     49  H   UNL     1      -6.184  15.411   3.984  1.00  0.00     0.293 HD
ENDBRANCH  34  48
BRANCH  37  50
ATOM     50  O   UNL     1      -4.845  13.788   8.548  1.00  0.00    -0.508 OA
ATOM     51  H   UNL     1      -5.523  14.443   8.924  1.00  0.00     0.293 HD
ENDBRANCH  37  50
ENDBRANCH  26  27
ENDBRANCH   5  26
BRANCH   4  52
ATOM     52  O   UNL     1       2.881  16.118   2.321  1.00  0.00    -0.384 OA
ATOM     53  H   UNL     1       3.052  15.932   3.325  1.00  0.00     0.211 HD
ENDBRANCH   4  52
TORSDOF 16
ENDMDL
MODEL 6
REMARK VINA RESULT:    -3.083      2.134      6.496
REMARK INTER + INTRA:          -6.606
REMARK INTER:                  -6.959
REMARK INTRA:                   0.352
REMARK UNBOUND:                -1.541
REMARK SMILES C[C@@H]1O[C@H](OC[C@@H]2O[C@@H](Oc3c(-c4ccc(O)c(O)c4)oc4cc(O)cc(O)c4c3=O)[C@H](O)[C@@H](O)[C@H]2O)[C@H](O)[C@@H](O)[C@@H]1O
REMARK SMILES IDX 7 1 36 2 34 3 32 4 9 5 8 6 6 7 5 8 4 9 1 10 2 11 42 12 3 13
REMARK SMILES IDX 40 14 38 15 43 16 41 18 39 20 37 22 35 24 10 26 11 27 12 28
REMARK SMILES IDX 30 29 21 30 29 31 31 32 22 33 27 34 23 35 26 36 24 37 13 38
REMARK SMILES IDX 20 39 14 40 18 41 15 42 16 43 19 44 17 46 28 48 25 50 33 52
REMARK H PARENT 43 17 41 19 39 21 37 23 35 25 19 45 17 47 28 49 25 51 33 53
REMARK Flexibility Score: inf
ROOT
ATOM      1  C   UNL     1      -4.798  14.844   2.429  1.00  0.00     0.180 C 
ATOM      2  C   UNL     1      -4.948  16.400   2.481  1.00  0.00     0.177 C 
ATOM      3  C   UNL     1      -3.556  16.942   2.707  1.00  0.00     0.180 C 
ATOM      4  C   UNL     1      -2.919  16.288   3.982  1.00  0.00     0.214 C 
ATOM      5  C   UNL     1      -3.260  14.732   4.115  1.00  0.00     0.339 C 
ATOM      6  O   UNL     1      -4.564  14.398   3.754  1.00  0.00    -0.332 OA
ENDROOT
BRANCH   1   7
ATOM      7  C   UNL     1      -5.909  14.017   1.613  1.00  0.00     0.198 C 
BRANCH   7   8
ATOM      8  O   UNL     1      -6.125  14.411   0.235  1.00  0.00    -0.347 OA
BRANCH   8   9
ATOM      9  C   UNL     1      -5.797  13.402  -0.811  1.00  0.00     0.281 C 
ATOM     10  C   UNL     1      -5.025  16.176  -1.928  1.00  0.00     0.041 C 
ATOM     11  C   UNL     1      -4.340  14.825  -2.122  1.00  0.00     0.150 C 
ATOM     12  C   UNL     1      -3.036  14.486  -1.215  1.00  0.00     0.174 C 
ATOM     13  O   UNL     1      -5.544  13.952  -2.124  1.00  0.00    -0.344 OA
ATOM     14  C   UNL     1      -3.470  13.591   0.072  1.00  0.00     0.179 C 
ATOM     15  C   UNL     1      -4.565  12.613  -0.399  1.00  0.00     0.202 C 
BRANCH  12  16
ATOM     16  O   UNL     1      -1.777  15.254  -1.259  1.00  0.00    -0.388 OA
ATOM     17  H   UNL     1      -1.519  15.481  -2.244  1.00  0.00     0.211 HD
ENDBRANCH  12  16
BRANCH  14  18
ATOM     18  O   UNL     1      -2.318  12.989   0.642  1.00  0.00    -0.387 OA
ATOM     19  H   UNL     1      -2.205  13.448   1.492  1.00  0.00     0.211 HD
ENDBRANCH  14  18
BRANCH  15  20
ATOM     20  O   UNL     1      -4.624  11.385   0.367  1.00  0.00    -0.385 OA
ATOM     21  H   UNL     1      -3.720  10.965   0.571  1.00  0.00     0.211 HD
ENDBRANCH  15  20
ENDBRANCH   8   9
ENDBRANCH   7   8
ENDBRANCH   1   7
BRANCH   2  22
ATOM     22  O   UNL     1      -5.569  17.087   1.383  1.00  0.00    -0.387 OA
ATOM     23  H   UNL     1      -4.822  17.334   0.710  1.00  0.00     0.211 HD
ENDBRANCH   2  22
BRANCH   3  24
ATOM     24  O   UNL     1      -2.821  16.738   1.507  1.00  0.00    -0.387 OA
ATOM     25  H   UNL     1      -2.336  17.563   1.287  1.00  0.00     0.211 HD
ENDBRANCH   3  24
BRANCH   5  26
ATOM     26  O   UNL     1      -2.263  13.978   3.372  1.00  0.00    -0.454 OA
BRANCH  26  27
ATOM     27  C   UNL     1      -0.916  14.049   3.549  1.00  0.00     0.214 A 
ATOM     28  C   UNL     1      -0.351  13.489   4.721  1.00  0.00     0.180 A 
ATOM     29  C   UNL     1      -0.055  14.634   2.597  1.00  0.00     0.239 A 
ATOM     30  O   UNL     1       0.953  13.417   4.865  1.00  0.00    -0.452 OA
ATOM     31  C   UNL     1       1.379  14.625   2.865  1.00  0.00     0.111 A 
ATOM     32  O   UNL     1      -0.526  15.109   1.546  1.00  0.00    -0.285 OA
ATOM     33  C   UNL     1       1.808  13.939   4.016  1.00  0.00     0.146 A 
ATOM     34  C   UNL     1       2.271  15.360   2.065  1.00  0.00     0.134 A 
ATOM     35  C   UNL     1       3.190  13.877   4.278  1.00  0.00     0.094 A 
ATOM     36  C   UNL     1       3.676  15.274   2.371  1.00  0.00     0.093 A 
ATOM     37  C   UNL     1       4.118  14.521   3.459  1.00  0.00     0.123 A 
BRANCH  28  38
ATOM     38  C   UNL     1      -1.242  12.918   5.736  1.00  0.00     0.025 A 
ATOM     39  C   UNL     1      -2.404  13.664   6.090  1.00  0.00     0.062 A 
ATOM     40  C   UNL     1      -1.086  11.629   6.197  1.00  0.00     0.016 A 
ATOM     41  C   UNL     1      -3.281  13.143   7.022  1.00  0.00     0.158 A 
ATOM     42  C   UNL     1      -1.955  11.121   7.159  1.00  0.00     0.051 A 
ATOM     43  C   UNL     1      -3.093  11.874   7.578  1.00  0.00     0.157 A 
BRANCH  41  44
ATOM     44  O   UNL     1      -4.405  13.933   7.398  1.00  0.00    -0.504 OA
ATOM     45  H   UNL     1      -4.301  14.769   7.950  1.00  0.00     0.293 HD
ENDBRANCH  41  44
BRANCH  43  46
ATOM     46  O   UNL     1      -3.977  11.357   8.491  1.00  0.00    -0.504 OA
ATOM     47  H   UNL     1      -3.744  10.529   9.048  1.00  0.00     0.293 HD
ENDBRANCH  43  46
ENDBRANCH  28  38
BRANCH  34  48
ATOM     48  O   UNL     1       1.837  16.232   1.096  1.00  0.00    -0.507 OA
ATOM     49  H   UNL     1       2.483  16.881   0.632  1.00  0.00     0.293 HD
ENDBRANCH  34  48
BRANCH  37  50
ATOM     50  O   UNL     1       5.491  14.438   3.708  1.00  0.00    -0.508 OA
ATOM     51  H   UNL     1       5.997  15.198   4.152  1.00  0.00     0.293 HD
ENDBRANCH  37  50
ENDBRANCH  26  27
ENDBRANCH   5  26
BRANCH   4  52
ATOM     52  O   UNL     1      -3.352  16.883   5.130  1.00  0.00    -0.384 OA
ATOM     53  H   UNL     1      -2.543  16.966   5.771  1.00  0.00     0.211 HD
ENDBRANCH   4  52
TORSDOF 16
ENDMDL
MODEL 7
REMARK VINA RESULT:    -3.027      1.926      6.599
REMARK INTER + INTRA:          -6.516
REMARK INTER:                  -5.051
REMARK INTRA:                  -1.465
REMARK UNBOUND:                -1.541
REMARK SMILES C[C@@H]1O[C@H](OC[C@@H]2O[C@@H](Oc3c(-c4ccc(O)c(O)c4)oc4cc(O)cc(O)c4c3=O)[C@H](O)[C@@H](O)[C@H]2O)[C@H](O)[C@@H](O)[C@@H]1O
REMARK SMILES IDX 7 1 36 2 34 3 32 4 9 5 8 6 6 7 5 8 4 9 1 10 2 11 42 12 3 13
REMARK SMILES IDX 40 14 38 15 43 16 41 18 39 20 37 22 35 24 10 26 11 27 12 28
REMARK SMILES IDX 30 29 21 30 29 31 31 32 22 33 27 34 23 35 26 36 24 37 13 38
REMARK SMILES IDX 20 39 14 40 18 41 15 42 16 43 19 44 17 46 28 48 25 50 33 52
REMARK H PARENT 43 17 41 19 39 21 37 23 35 25 19 45 17 47 28 49 25 51 33 53
REMARK Flexibility Score: inf
ROOT
ATOM      1  C   UNL     1       2.208  15.212   0.724  1.00  0.00     0.180 C 
ATOM      2  C   UNL     1       2.432  14.890  -0.791  1.00  0.00     0.177 C 
ATOM      3  C   UNL     1       1.058  14.883  -1.418  1.00  0.00     0.180 C 
ATOM      4  C   UNL     1       0.117  13.889  -0.655  1.00  0.00     0.214 C 
ATOM      5  C   UNL     1       0.329  13.928   0.928  1.00  0.00     0.339 C 
ATOM      6  O   UNL     1       1.660  14.051   1.326  1.00  0.00    -0.332 OA
ENDROOT
BRANCH   1   7
ATOM      7  C   UNL     1       3.424  15.891   1.527  1.00  0.00     0.198 C 
BRANCH   7   8
ATOM      8  O   UNL     1       3.602  15.472   2.903  1.00  0.00    -0.347 OA
BRANCH   8   9
ATOM      9  C   UNL     1       4.643  14.437   3.160  1.00  0.00     0.281 C 
ATOM     10  C   UNL     1       4.637  16.360   5.576  1.00  0.00     0.041 C 
ATOM     11  C   UNL     1       4.866  14.852   5.536  1.00  0.00     0.150 C 
ATOM     12  C   UNL     1       3.627  13.874   5.919  1.00  0.00     0.174 C 
ATOM     13  O   UNL     1       5.565  14.757   4.226  1.00  0.00    -0.344 OA
ATOM     14  C   UNL     1       2.885  13.359   4.567  1.00  0.00     0.179 C 
ATOM     15  C   UNL     1       3.980  13.114   3.509  1.00  0.00     0.202 C 
BRANCH  12  16
ATOM     16  O   UNL     1       2.972  13.850   7.242  1.00  0.00    -0.388 OA
ATOM     17  H   UNL     1       2.078  14.387   7.219  1.00  0.00     0.211 HD
ENDBRANCH  12  16
BRANCH  14  18
ATOM     18  O   UNL     1       2.069  12.238   4.870  1.00  0.00    -0.387 OA
ATOM     19  H   UNL     1       2.232  11.619   4.138  1.00  0.00     0.211 HD
ENDBRANCH  14  18
BRANCH  15  20
ATOM     20  O   UNL     1       3.629  12.113   2.522  1.00  0.00    -0.385 OA
ATOM     21  H   UNL     1       3.046  11.356   2.871  1.00  0.00     0.211 HD
ENDBRANCH  15  20
ENDBRANCH   8   9
ENDBRANCH   7   8
ENDBRANCH   1   7
BRANCH   2  22
ATOM     22  O   UNL     1       3.320  15.712  -1.564  1.00  0.00    -0.387 OA
ATOM     23  H   UNL     1       3.530  15.202  -2.440  1.00  0.00     0.211 HD
ENDBRANCH   2  22
BRANCH   3  24
ATOM     24  O   UNL     1       0.598  16.228  -1.449  1.00  0.00    -0.387 OA
ATOM     25  H   UNL     1       1.165  16.745  -2.061  1.00  0.00     0.211 HD
ENDBRANCH   3  24
BRANCH   5  26
ATOM     26  O   UNL     1      -0.518  14.972   1.481  1.00  0.00    -0.454 OA
BRANCH  26  27
ATOM     27  C   UNL     1      -1.335  14.846   2.562  1.00  0.00     0.214 A 
ATOM     28  C   UNL     1      -2.660  15.338   2.477  1.00  0.00     0.180 A 
ATOM     29  C   UNL     1      -0.922  14.220   3.757  1.00  0.00     0.239 A 
ATOM     30  O   UNL     1      -3.519  15.116   3.447  1.00  0.00    -0.452 OA
ATOM     31  C   UNL     1      -1.888  14.103   4.845  1.00  0.00     0.111 A 
ATOM     32  O   UNL     1       0.230  13.756   3.845  1.00  0.00    -0.285 OA
ATOM     33  C   UNL     1      -3.200  14.538   4.581  1.00  0.00     0.146 A 
ATOM     34  C   UNL     1      -1.491  13.674   6.122  1.00  0.00     0.134 A 
ATOM     35  C   UNL     1      -4.163  14.398   5.598  1.00  0.00     0.094 A 
ATOM     36  C   UNL     1      -2.507  13.551   7.136  1.00  0.00     0.093 A 
ATOM     37  C   UNL     1      -3.830  13.895   6.856  1.00  0.00     0.123 A 
BRANCH  28  38
ATOM     38  C   UNL     1      -3.084  16.030   1.255  1.00  0.00     0.025 A 
ATOM     39  C   UNL     1      -4.387  15.744   0.753  1.00  0.00     0.062 A 
ATOM     40  C   UNL     1      -2.348  17.059   0.712  1.00  0.00     0.016 A 
ATOM     41  C   UNL     1      -4.830  16.400  -0.380  1.00  0.00     0.158 A 
ATOM     42  C   UNL     1      -2.785  17.695  -0.449  1.00  0.00     0.051 A 
ATOM     43  C   UNL     1      -4.060  17.382  -1.008  1.00  0.00     0.157 A 
BRANCH  41  44
ATOM     44  O   UNL     1      -6.115  16.056  -0.892  1.00  0.00    -0.504 OA
ATOM     45  H   UNL     1      -6.262  15.883  -1.873  1.00  0.00     0.293 HD
ENDBRANCH  41  44
BRANCH  43  46
ATOM     46  O   UNL     1      -4.514  18.040  -2.124  1.00  0.00    -0.504 OA
ATOM     47  H   UNL     1      -4.015  17.982  -3.017  1.00  0.00     0.293 HD
ENDBRANCH  43  46
ENDBRANCH  28  38
BRANCH  34  48
ATOM     48  O   UNL     1      -0.171  13.489   6.456  1.00  0.00    -0.507 OA
ATOM     49  H   UNL     1       0.587  13.850   5.865  1.00  0.00     0.293 HD
ENDBRANCH  34  48
BRANCH  37  50
ATOM     50  O   UNL     1      -4.794  13.735   7.855  1.00  0.00    -0.508 OA
ATOM     51  H   UNL     1      -5.457  12.966   7.836  1.00  0.00     0.293 HD
ENDBRANCH  37  50
ENDBRANCH  26  27
ENDBRANCH   5  26
BRANCH   4  52
ATOM     52  O   UNL     1       0.316  12.597  -1.045  1.00  0.00    -0.384 OA
ATOM     53  H   UNL     1       1.121  12.581  -1.695  1.00  0.00     0.211 HD
ENDBRANCH   4  52
TORSDOF 16
ENDMDL
MODEL 8
REMARK VINA RESULT:    -3.019      1.891      6.355
REMARK INTER + INTRA:          -6.502
REMARK INTER:                  -4.924
REMARK INTRA:                  -1.577
REMARK UNBOUND:                -1.541
REMARK SMILES C[C@@H]1O[C@H](OC[C@@H]2O[C@@H](Oc3c(-c4ccc(O)c(O)c4)oc4cc(O)cc(O)c4c3=O)[C@H](O)[C@@H](O)[C@H]2O)[C@H](O)[C@@H](O)[C@@H]1O
REMARK SMILES IDX 7 1 36 2 34 3 32 4 9 5 8 6 6 7 5 8 4 9 1 10 2 11 42 12 3 13
REMARK SMILES IDX 40 14 38 15 43 16 41 18 39 20 37 22 35 24 10 26 11 27 12 28
REMARK SMILES IDX 30 29 21 30 29 31 31 32 22 33 27 34 23 35 26 36 24 37 13 38
REMARK SMILES IDX 20 39 14 40 18 41 15 42 16 43 19 44 17 46 28 48 25 50 33 52
REMARK H PARENT 43 17 41 19 39 21 37 23 35 25 19 45 17 47 28 49 25 51 33 53
REMARK Flexibility Score: inf
ROOT
ATOM      1  C   UNL     1       0.372  13.137   5.191  1.00  0.00     0.180 C 
ATOM      2  C   UNL     1       1.679  12.661   5.906  1.00  0.00     0.177 C 
ATOM      3  C   UNL     1       2.819  13.311   5.159  1.00  0.00     0.180 C 
ATOM      4  C   UNL     1       2.731  12.971   3.631  1.00  0.00     0.214 C 
ATOM      5  C   UNL     1       1.232  12.988   3.079  1.00  0.00     0.339 C 
ATOM      6  O   UNL     1       0.292  12.446   3.955  1.00  0.00    -0.332 OA
ENDROOT
BRANCH   1   7
ATOM      7  C   UNL     1      -0.984  13.156   6.054  1.00  0.00     0.198 C 
BRANCH   7   8
ATOM      8  O   UNL     1      -2.093  13.907   5.498  1.00  0.00    -0.347 OA
BRANCH   8   9
ATOM      9  C   UNL     1      -2.713  14.938   6.378  1.00  0.00     0.281 C 
ATOM     10  C   UNL     1      -2.777  16.028   3.489  1.00  0.00     0.041 C 
ATOM     11  C   UNL     1      -3.798  16.192   4.612  1.00  0.00     0.150 C 
ATOM     12  C   UNL     1      -5.109  15.234   4.608  1.00  0.00     0.174 C 
ATOM     13  O   UNL     1      -2.865  16.240   5.770  1.00  0.00    -0.344 OA
ATOM     14  C   UNL     1      -4.874  13.963   5.595  1.00  0.00     0.179 C 
ATOM     15  C   UNL     1      -4.092  14.475   6.821  1.00  0.00     0.202 C 
BRANCH  12  16
ATOM     16  O   UNL     1      -6.125  15.229   3.537  1.00  0.00    -0.388 OA
ATOM     17  H   UNL     1      -6.814  14.460   3.687  1.00  0.00     0.211 HD
ENDBRANCH  12  16
BRANCH  14  18
ATOM     18  O   UNL     1      -6.120  13.347   5.881  1.00  0.00    -0.387 OA
ATOM     19  H   UNL     1      -6.707  13.653   5.168  1.00  0.00     0.211 HD
ENDBRANCH  14  18
BRANCH  15  20
ATOM     20  O   UNL     1      -4.326  13.710   8.029  1.00  0.00    -0.385 OA
ATOM     21  H   UNL     1      -4.294  14.251   8.890  1.00  0.00     0.211 HD
ENDBRANCH  15  20
ENDBRANCH   8   9
ENDBRANCH   7   8
ENDBRANCH   1   7
BRANCH   2  22
ATOM     22  O   UNL     1       1.830  12.878   7.318  1.00  0.00    -0.387 OA
ATOM     23  H   UNL     1       1.763  11.955   7.782  1.00  0.00     0.211 HD
ENDBRANCH   2  22
BRANCH   3  24
ATOM     24  O   UNL     1       2.786  14.701   5.459  1.00  0.00    -0.387 OA
ATOM     25  H   UNL     1       2.842  15.209   4.622  1.00  0.00     0.211 HD
ENDBRANCH   3  24
BRANCH   5  26
ATOM     26  O   UNL     1       0.904  14.346   2.677  1.00  0.00    -0.454 OA
BRANCH  26  27
ATOM     27  C   UNL     1       1.571  15.085   1.749  1.00  0.00     0.214 A 
ATOM     28  C   UNL     1       1.184  14.984   0.390  1.00  0.00     0.180 A 
ATOM     29  C   UNL     1       2.616  15.968   2.090  1.00  0.00     0.239 A 
ATOM     30  O   UNL     1       1.710  15.778  -0.515  1.00  0.00    -0.452 OA
ATOM     31  C   UNL     1       3.242  16.743   1.023  1.00  0.00     0.111 A 
ATOM     32  O   UNL     1       2.956  16.094   3.281  1.00  0.00    -0.285 OA
ATOM     33  C   UNL     1       2.683  16.623  -0.263  1.00  0.00     0.146 A 
ATOM     34  C   UNL     1       4.410  17.487   1.257  1.00  0.00     0.134 A 
ATOM     35  C   UNL     1       3.238  17.391  -1.304  1.00  0.00     0.094 A 
ATOM     36  C   UNL     1       4.949  18.254   0.163  1.00  0.00     0.093 A 
ATOM     37  C   UNL     1       4.347  18.211  -1.095  1.00  0.00     0.123 A 
BRANCH  28  38
ATOM     38  C   UNL     1       0.128  14.035   0.021  1.00  0.00     0.025 A 
ATOM     39  C   UNL     1      -1.182  14.277   0.525  1.00  0.00     0.062 A 
ATOM     40  C   UNL     1       0.331  13.057  -0.928  1.00  0.00     0.016 A 
ATOM     41  C   UNL     1      -2.207  13.419   0.173  1.00  0.00     0.158 A 
ATOM     42  C   UNL     1      -0.698  12.176  -1.255  1.00  0.00     0.051 A 
ATOM     43  C   UNL     1      -2.006  12.359  -0.715  1.00  0.00     0.157 A 
BRANCH  41  44
ATOM     44  O   UNL     1      -3.497  13.652   0.734  1.00  0.00    -0.504 OA
ATOM     45  H   UNL     1      -4.243  12.984   0.634  1.00  0.00     0.293 HD
ENDBRANCH  41  44
BRANCH  43  46
ATOM     46  O   UNL     1      -3.033  11.522  -1.072  1.00  0.00    -0.504 OA
ATOM     47  H   UNL     1      -3.032  11.031  -1.971  1.00  0.00     0.293 HD
ENDBRANCH  43  46
ENDBRANCH  28  38
BRANCH  34  48
ATOM     48  O   UNL     1       5.104  17.410   2.441  1.00  0.00    -0.507 OA
ATOM     49  H   UNL     1       5.222  18.230   3.047  1.00  0.00     0.293 HD
ENDBRANCH  34  48
BRANCH  37  50
ATOM     50  O   UNL     1       4.882  18.990  -2.125  1.00  0.00    -0.508 OA
ATOM     51  H   UNL     1       4.350  19.198  -2.965  1.00  0.00     0.293 HD
ENDBRANCH  37  50
ENDBRANCH  26  27
ENDBRANCH   5  26
BRANCH   4  52
ATOM     52  O   UNL     1       3.237  11.735   3.355  1.00  0.00    -0.384 OA
ATOM     53  H   UNL     1       3.104  11.141   4.191  1.00  0.00     0.211 HD
ENDBRANCH   4  52
TORSDOF 16
ENDMDL
