MODEL 1
REMARK VINA RESULT:    -4.871      0.000      0.000
REMARK INTER + INTRA:         -12.064
REMARK INTER:                  -9.428
REMARK INTRA:                  -2.636
REMARK UNBOUND:                -2.636
REMARK SMILES CCCCCCCCCCCCCCCCCC(=O)[O-]
REMARK SMILES IDX 10 1 11 2 12 3 13 4 14 5 15 6 16 7 17 8 18 9 19 10 20 11
REMARK SMILES IDX 9 12 8 13 7 14 6 15 5 16 4 17 3 18 2 19 1 20
REMARK H PARENT
REMARK Flexibility Score: inf
ROOT
ATOM      1  C   UNL     1      46.370  46.305  10.600  1.00  0.00     0.000 C 
ENDROOT
BRANCH   1   2
ATOM      2  C   UNL     1      44.870  46.001  10.807  1.00  0.00     0.000 C 
BRANCH   2   3
ATOM      3  C   UNL     1      44.042  47.276  11.053  1.00  0.00     0.000 C 
BRANCH   3   4
ATOM      4  C   UNL     1      42.531  47.040  10.899  1.00  0.00     0.000 C 
BRANCH   4   5
ATOM      5  C   UNL     1      41.723  47.563  12.099  1.00  0.00     0.000 C 
BRANCH   5   6
ATOM      6  C   UNL     1      42.575  48.385  13.084  1.00  0.00     0.000 C 
BRANCH   6   7
ATOM      7  C   UNL     1      42.229  49.886  13.164  1.00  0.00     0.006 C 
BRANCH   7   8
ATOM      8  C   UNL     1      40.726  50.195  13.063  1.00  0.00     0.053 C 
BRANCH   8   9
ATOM      9  C   UNL     1      40.259  51.082  14.175  1.00  0.00     0.041 C 
ATOM     10  O   UNL     1      40.981  51.257  15.192  1.00  0.00    -0.550 OA
ATOM     11  O   UNL     1      39.024  51.718  14.090  1.00  0.00    -0.550 OA
ENDBRANCH   8   9
ENDBRANCH   7   8
ENDBRANCH   6   7
ENDBRANCH   5   6
ENDBRANCH   4   5
ENDBRANCH   3   4
ENDBRANCH   2   3
ENDBRANCH   1   2
BRANCH   1  12
ATOM     12  C   UNL     1      46.645  47.681   9.957  1.00  0.00     0.000 C 
BRANCH  12  13
ATOM     13  C   UNL     1      47.654  48.569  10.711  1.00  0.00    -0.000 C 
BRANCH  13  14
ATOM     14  C   UNL     1      47.282  50.063  10.770  1.00  0.00    -0.000 C 
BRANCH  14  15
ATOM     15  C   UNL     1      45.979  50.322  11.547  1.00  0.00    -0.000 C 
BRANCH  15  16
ATOM     16  C   UNL     1      45.021  51.264  10.791  1.00  0.00    -0.000 C 
BRANCH  16  17
ATOM     17  C   UNL     1      44.181  50.568   9.699  1.00  0.00    -0.000 C 
BRANCH  17  18
ATOM     18  C   UNL     1      42.689  50.931   9.781  1.00  0.00    -0.000 C 
BRANCH  18  19
ATOM     19  C   UNL     1      41.861  50.107   8.784  1.00  0.00    -0.003 C 
ATOM     20  C   UNL     1      42.760  49.226   7.918  1.00  0.00     0.004 C 
ENDBRANCH  18  19
ENDBRANCH  17  18
ENDBRANCH  16  17
ENDBRANCH  15  16
ENDBRANCH  14  15
ENDBRANCH  13  14
ENDBRANCH  12  13
ENDBRANCH   1  12
TORSDOF 16
ENDMDL
MODEL 2
REMARK VINA RESULT:    -4.867      1.337      3.476
REMARK INTER + INTRA:         -12.055
REMARK INTER:                  -9.522
REMARK INTRA:                  -2.533
REMARK UNBOUND:                -2.636
REMARK SMILES CCCCCCCCCCCCCCCCCC(=O)[O-]
REMARK SMILES IDX 10 1 11 2 12 3 13 4 14 5 15 6 16 7 17 8 18 9 19 10 20 11
REMARK SMILES IDX 9 12 8 13 7 14 6 15 5 16 4 17 3 18 2 19 1 20
REMARK H PARENT
REMARK Flexibility Score: inf
ROOT
ATOM      1  C   UNL     1      46.899  49.597   9.998  1.00  0.00     0.000 C 
ENDROOT
BRANCH   1   2
ATOM      2  C   UNL     1      46.823  50.582  11.185  1.00  0.00     0.000 C 
BRANCH   2   3
ATOM      3  C   UNL     1      45.396  50.716  11.746  1.00  0.00     0.000 C 
BRANCH   3   4
ATOM      4  C   UNL     1      44.316  50.530  10.668  1.00  0.00     0.000 C 
BRANCH   4   5
ATOM      5  C   UNL     1      43.003  49.962  11.236  1.00  0.00     0.000 C 
BRANCH   5   6
ATOM      6  C   UNL     1      43.160  49.396  12.660  1.00  0.00     0.000 C 
BRANCH   6   7
ATOM      7  C   UNL     1      42.062  49.813  13.661  1.00  0.00     0.006 C 
BRANCH   7   8
ATOM      8  C   UNL     1      40.719  50.182  13.010  1.00  0.00     0.053 C 
BRANCH   8   9
ATOM      9  C   UNL     1      39.872  51.028  13.910  1.00  0.00     0.041 C 
ATOM     10  O   UNL     1      40.259  51.294  15.078  1.00  0.00    -0.550 OA
ATOM     11  O   UNL     1      38.652  51.524  13.457  1.00  0.00    -0.550 OA
ENDBRANCH   8   9
ENDBRANCH   7   8
ENDBRANCH   6   7
ENDBRANCH   5   6
ENDBRANCH   4   5
ENDBRANCH   3   4
ENDBRANCH   2   3
ENDBRANCH   1   2
BRANCH   1  12
ATOM     12  C   UNL     1      47.257  48.153  10.407  1.00  0.00     0.000 C 
BRANCH  12  13
ATOM     13  C   UNL     1      46.920  47.071   9.361  1.00  0.00    -0.000 C 
BRANCH  13  14
ATOM     14  C   UNL     1      45.568  46.364   9.575  1.00  0.00    -0.000 C 
BRANCH  14  15
ATOM     15  C   UNL     1      44.988  46.602  10.980  1.00  0.00    -0.000 C 
BRANCH  15  16
ATOM     16  C   UNL     1      43.526  46.126  11.101  1.00  0.00    -0.000 C 
BRANCH  16  17
ATOM     17  C   UNL     1      42.625  46.549   9.922  1.00  0.00    -0.000 C 
BRANCH  17  18
ATOM     18  C   UNL     1      41.160  46.751  10.341  1.00  0.00    -0.000 C 
BRANCH  18  19
ATOM     19  C   UNL     1      40.969  46.483  11.841  1.00  0.00    -0.003 C 
ATOM     20  C   UNL     1      39.559  46.860  12.292  1.00  0.00     0.004 C 
ENDBRANCH  18  19
ENDBRANCH  17  18
ENDBRANCH  16  17
ENDBRANCH  15  16
ENDBRANCH  14  15
ENDBRANCH  13  14
ENDBRANCH  12  13
ENDBRANCH   1  12
TORSDOF 16
ENDMDL
MODEL 3
REMARK VINA RESULT:    -4.811      2.603      4.768
REMARK INTER + INTRA:         -11.947
REMARK INTER:                 -10.057
REMARK INTRA:                  -1.890
REMARK UNBOUND:                -2.636
REMARK SMILES CCCCCCCCCCCCCCCCCC(=O)[O-]
REMARK SMILES IDX 10 1 11 2 12 3 13 4 14 5 15 6 16 7 17 8 18 9 19 10 20 11
REMARK SMILES IDX 9 12 8 13 7 14 6 15 5 16 4 17 3 18 2 19 1 20
REMARK H PARENT
REMARK Flexibility Score: inf
ROOT
ATOM      1  C   UNL     1      47.087  49.542  10.164  1.00  0.00     0.000 C 
ENDROOT
BRANCH   1   2
ATOM      2  C   UNL     1      47.357  48.069  10.540  1.00  0.00     0.000 C 
BRANCH   2   3
ATOM      3  C   UNL     1      46.472  47.090   9.747  1.00  0.00     0.000 C 
BRANCH   3   4
ATOM      4  C   UNL     1      46.334  45.724  10.437  1.00  0.00     0.000 C 
BRANCH   4   5
ATOM      5  C   UNL     1      44.875  45.379  10.785  1.00  0.00     0.000 C 
BRANCH   5   6
ATOM      6  C   UNL     1      43.992  46.627  10.972  1.00  0.00     0.000 C 
BRANCH   6   7
ATOM      7  C   UNL     1      42.744  46.693  10.068  1.00  0.00     0.006 C 
BRANCH   7   8
ATOM      8  C   UNL     1      41.414  46.795  10.831  1.00  0.00     0.053 C 
BRANCH   8   9
ATOM      9  C   UNL     1      40.325  46.007  10.171  1.00  0.00     0.041 C 
ATOM     10  O   UNL     1      39.185  45.932  10.703  1.00  0.00    -0.550 OA
ATOM     11  O   UNL     1      40.567  45.353   8.966  1.00  0.00    -0.550 OA
ENDBRANCH   8   9
ENDBRANCH   7   8
ENDBRANCH   6   7
ENDBRANCH   5   6
ENDBRANCH   4   5
ENDBRANCH   3   4
ENDBRANCH   2   3
ENDBRANCH   1   2
BRANCH   1  12
ATOM     12  C   UNL     1      46.853  50.463  11.380  1.00  0.00     0.000 C 
BRANCH  12  13
ATOM     13  C   UNL     1      45.421  51.015  11.520  1.00  0.00    -0.000 C 
BRANCH  13  14
ATOM     14  C   UNL     1      44.421  50.492  10.471  1.00  0.00    -0.000 C 
BRANCH  14  15
ATOM     15  C   UNL     1      43.029  50.212  11.064  1.00  0.00    -0.000 C 
BRANCH  15  16
ATOM     16  C   UNL     1      43.100  49.721  12.524  1.00  0.00    -0.000 C 
BRANCH  16  17
ATOM     17  C   UNL     1      41.776  49.865  13.304  1.00  0.00    -0.000 C 
BRANCH  17  18
ATOM     18  C   UNL     1      41.947  50.641  14.620  1.00  0.00    -0.000 C 
BRANCH  18  19
ATOM     19  C   UNL     1      40.648  51.358  15.014  1.00  0.00    -0.003 C 
ATOM     20  C   UNL     1      39.595  51.237  13.914  1.00  0.00     0.004 C 
ENDBRANCH  18  19
ENDBRANCH  17  18
ENDBRANCH  16  17
ENDBRANCH  15  16
ENDBRANCH  14  15
ENDBRANCH  13  14
ENDBRANCH  12  13
ENDBRANCH   1  12
TORSDOF 16
ENDMDL
MODEL 4
REMARK VINA RESULT:    -4.718      3.172      4.375
REMARK INTER + INTRA:         -11.766
REMARK INTER:                  -9.487
REMARK INTRA:                  -2.280
REMARK UNBOUND:                -2.636
REMARK SMILES CCCCCCCCCCCCCCCCCC(=O)[O-]
REMARK SMILES IDX 10 1 11 2 12 3 13 4 14 5 15 6 16 7 17 8 18 9 19 10 20 11
REMARK SMILES IDX 9 12 8 13 7 14 6 15 5 16 4 17 3 18 2 19 1 20
REMARK H PARENT
REMARK Flexibility Score: inf
ROOT
ATOM      1  C   UNL     1      44.252  45.601   9.765  1.00  0.00     0.000 C 
ENDROOT
BRANCH   1   2
ATOM      2  C   UNL     1      43.452  46.676  10.532  1.00  0.00     0.000 C 
BRANCH   2   3
ATOM      3  C   UNL     1      43.609  46.546  12.059  1.00  0.00     0.000 C 
BRANCH   3   4
ATOM      4  C   UNL     1      42.392  47.084  12.827  1.00  0.00     0.000 C 
BRANCH   4   5
ATOM      5  C   UNL     1      41.360  47.760  11.907  1.00  0.00     0.000 C 
BRANCH   5   6
ATOM      6  C   UNL     1      39.950  47.155  12.039  1.00  0.00     0.000 C 
BRANCH   6   7
ATOM      7  C   UNL     1      39.785  45.733  11.462  1.00  0.00     0.006 C 
BRANCH   7   8
ATOM      8  C   UNL     1      39.012  45.675  10.135  1.00  0.00     0.053 C 
BRANCH   8   9
ATOM      9  C   UNL     1      39.925  45.507   8.960  1.00  0.00     0.041 C 
ATOM     10  O   UNL     1      40.069  44.375   8.425  1.00  0.00    -0.550 OA
ATOM     11  O   UNL     1      40.618  46.602   8.452  1.00  0.00    -0.550 OA
ENDBRANCH   8   9
ENDBRANCH   7   8
ENDBRANCH   6   7
ENDBRANCH   5   6
ENDBRANCH   4   5
ENDBRANCH   3   4
ENDBRANCH   2   3
ENDBRANCH   1   2
BRANCH   1  12
ATOM     12  C   UNL     1      45.650  45.324  10.355  1.00  0.00     0.000 C 
BRANCH  12  13
ATOM     13  C   UNL     1      46.807  46.107   9.702  1.00  0.00    -0.000 C 
BRANCH  13  14
ATOM     14  C   UNL     1      47.023  47.526  10.262  1.00  0.00    -0.000 C 
BRANCH  14  15
ATOM     15  C   UNL     1      46.781  48.623   9.211  1.00  0.00    -0.000 C 
BRANCH  15  16
ATOM     16  C   UNL     1      47.123  50.031   9.742  1.00  0.00    -0.000 C 
BRANCH  16  17
ATOM     17  C   UNL     1      47.045  50.163  11.277  1.00  0.00    -0.000 C 
BRANCH  17  18
ATOM     18  C   UNL     1      45.845  51.008  11.736  1.00  0.00    -0.000 C 
BRANCH  18  19
ATOM     19  C   UNL     1      44.574  50.154  11.846  1.00  0.00    -0.003 C 
ATOM     20  C   UNL     1      43.619  50.436  10.687  1.00  0.00     0.004 C 
ENDBRANCH  18  19
ENDBRANCH  17  18
ENDBRANCH  16  17
ENDBRANCH  15  16
ENDBRANCH  14  15
ENDBRANCH  13  14
ENDBRANCH  12  13
ENDBRANCH   1  12
TORSDOF 16
ENDMDL
MODEL 5
REMARK VINA RESULT:    -4.689      0.864      3.509
REMARK INTER + INTRA:         -11.712
REMARK INTER:                  -9.267
REMARK INTRA:                  -2.445
REMARK UNBOUND:                -2.636
REMARK SMILES CCCCCCCCCCCCCCCCCC(=O)[O-]
REMARK SMILES IDX 10 1 11 2 12 3 13 4 14 5 15 6 16 7 17 8 18 9 19 10 20 11
REMARK SMILES IDX 9 12 8 13 7 14 6 15 5 16 4 17 3 18 2 19 1 20
REMARK H PARENT
REMARK Flexibility Score: inf
ROOT
ATOM      1  C   UNL     1      42.228  50.022   8.937  1.00  0.00     0.000 C 
ENDROOT
BRANCH   1   2
ATOM      2  C   UNL     1      42.685  48.714   8.256  1.00  0.00     0.000 C 
BRANCH   2   3
ATOM      3  C   UNL     1      43.213  47.680   9.268  1.00  0.00     0.000 C 
BRANCH   3   4
ATOM      4  C   UNL     1      42.474  47.737  10.614  1.00  0.00     0.000 C 
BRANCH   4   5
ATOM      5  C   UNL     1      43.421  47.980  11.802  1.00  0.00     0.000 C 
BRANCH   5   6
ATOM      6  C   UNL     1      42.677  48.358  13.096  1.00  0.00     0.000 C 
BRANCH   6   7
ATOM      7  C   UNL     1      42.253  49.838  13.204  1.00  0.00     0.006 C 
BRANCH   7   8
ATOM      8  C   UNL     1      40.772  50.097  12.886  1.00  0.00     0.053 C 
BRANCH   8   9
ATOM      9  C   UNL     1      40.117  50.959  13.921  1.00  0.00     0.041 C 
ATOM     10  O   UNL     1      38.953  51.403  13.732  1.00  0.00    -0.550 OA
ATOM     11  O   UNL     1      40.792  51.272  15.098  1.00  0.00    -0.550 OA
ENDBRANCH   8   9
ENDBRANCH   7   8
ENDBRANCH   6   7
ENDBRANCH   5   6
ENDBRANCH   4   5
ENDBRANCH   3   4
ENDBRANCH   2   3
ENDBRANCH   1   2
BRANCH   1  12
ATOM     12  C   UNL     1      43.280  51.150   8.894  1.00  0.00     0.000 C 
BRANCH  12  13
ATOM     13  C   UNL     1      44.261  51.181  10.084  1.00  0.00    -0.000 C 
BRANCH  13  14
ATOM     14  C   UNL     1      45.675  51.689   9.743  1.00  0.00    -0.000 C 
BRANCH  14  15
ATOM     15  C   UNL     1      46.691  50.548   9.567  1.00  0.00    -0.000 C 
BRANCH  15  16
ATOM     16  C   UNL     1      46.895  49.738  10.863  1.00  0.00    -0.000 C 
BRANCH  16  17
ATOM     17  C   UNL     1      47.323  48.273  10.632  1.00  0.00    -0.000 C 
BRANCH  17  18
ATOM     18  C   UNL     1      46.731  47.681   9.342  1.00  0.00    -0.000 C 
BRANCH  18  19
ATOM     19  C   UNL     1      46.713  46.147   9.392  1.00  0.00    -0.003 C 
ATOM     20  C   UNL     1      46.230  45.646  10.752  1.00  0.00     0.004 C 
ENDBRANCH  18  19
ENDBRANCH  17  18
ENDBRANCH  16  17
ENDBRANCH  15  16
ENDBRANCH  14  15
ENDBRANCH  13  14
ENDBRANCH  12  13
ENDBRANCH   1  12
TORSDOF 16
ENDMDL
MODEL 6
REMARK VINA RESULT:    -4.677      3.504      6.478
REMARK INTER + INTRA:         -11.687
REMARK INTER:                  -9.337
REMARK INTRA:                  -2.351
REMARK UNBOUND:                -2.636
REMARK SMILES CCCCCCCCCCCCCCCCCC(=O)[O-]
REMARK SMILES IDX 10 1 11 2 12 3 13 4 14 5 15 6 16 7 17 8 18 9 19 10 20 11
REMARK SMILES IDX 9 12 8 13 7 14 6 15 5 16 4 17 3 18 2 19 1 20
REMARK H PARENT
REMARK Flexibility Score: inf
ROOT
ATOM      1  C   UNL     1      42.215  49.569   9.321  1.00  0.00     0.000 C 
ENDROOT
BRANCH   1   2
ATOM      2  C   UNL     1      43.087  50.806   9.626  1.00  0.00     0.000 C 
BRANCH   2   3
ATOM      3  C   UNL     1      44.453  50.426  10.226  1.00  0.00     0.000 C 
BRANCH   3   4
ATOM      4  C   UNL     1      45.628  51.101   9.501  1.00  0.00     0.000 C 
BRANCH   4   5
ATOM      5  C   UNL     1      46.888  50.218   9.464  1.00  0.00     0.000 C 
BRANCH   5   6
ATOM      6  C   UNL     1      47.107  49.429  10.767  1.00  0.00     0.000 C 
BRANCH   6   7
ATOM      7  C   UNL     1      47.115  47.893  10.615  1.00  0.00     0.006 C 
BRANCH   7   8
ATOM      8  C   UNL     1      46.696  47.392   9.224  1.00  0.00     0.053 C 
BRANCH   8   9
ATOM      9  C   UNL     1      47.016  45.943   9.028  1.00  0.00     0.041 C 
ATOM     10  O   UNL     1      46.923  45.137   9.991  1.00  0.00    -0.550 OA
ATOM     11  O   UNL     1      47.418  45.479   7.778  1.00  0.00    -0.550 OA
ENDBRANCH   8   9
ENDBRANCH   7   8
ENDBRANCH   6   7
ENDBRANCH   5   6
ENDBRANCH   4   5
ENDBRANCH   3   4
ENDBRANCH   2   3
ENDBRANCH   1   2
BRANCH   1  12
ATOM     12  C   UNL     1      43.007  48.246   9.256  1.00  0.00     0.000 C 
BRANCH  12  13
ATOM     13  C   UNL     1      42.345  47.047   9.964  1.00  0.00    -0.000 C 
BRANCH  13  14
ATOM     14  C   UNL     1      42.878  46.758  11.380  1.00  0.00    -0.000 C 
BRANCH  14  15
ATOM     15  C   UNL     1      42.012  47.392  12.483  1.00  0.00    -0.000 C 
BRANCH  15  16
ATOM     16  C   UNL     1      42.761  48.498  13.254  1.00  0.00    -0.000 C 
BRANCH  16  17
ATOM     17  C   UNL     1      42.091  49.886  13.177  1.00  0.00    -0.000 C 
BRANCH  17  18
ATOM     18  C   UNL     1      40.606  49.804  12.787  1.00  0.00    -0.000 C 
BRANCH  18  19
ATOM     19  C   UNL     1      39.789  50.906  13.477  1.00  0.00    -0.003 C 
ATOM     20  C   UNL     1      40.436  51.329  14.794  1.00  0.00     0.004 C 
ENDBRANCH  18  19
ENDBRANCH  17  18
ENDBRANCH  16  17
ENDBRANCH  15  16
ENDBRANCH  14  15
ENDBRANCH  13  14
ENDBRANCH  12  13
ENDBRANCH   1  12
TORSDOF 16
ENDMDL
MODEL 7
REMARK VINA RESULT:    -4.655      3.348      6.230
REMARK INTER + INTRA:         -11.645
REMARK INTER:                  -8.809
REMARK INTRA:                  -2.836
REMARK UNBOUND:                -2.636
REMARK SMILES CCCCCCCCCCCCCCCCCC(=O)[O-]
REMARK SMILES IDX 10 1 11 2 12 3 13 4 14 5 15 6 16 7 17 8 18 9 19 10 20 11
REMARK SMILES IDX 9 12 8 13 7 14 6 15 5 16 4 17 3 18 2 19 1 20
REMARK H PARENT
REMARK Flexibility Score: inf
ROOT
ATOM      1  C   UNL     1      43.551  50.211   9.887  1.00  0.00     0.000 C 
ENDROOT
BRANCH   1   2
ATOM      2  C   UNL     1      44.171  51.207   8.883  1.00  0.00     0.000 C 
BRANCH   2   3
ATOM      3  C   UNL     1      45.537  51.740   9.354  1.00  0.00     0.000 C 
BRANCH   3   4
ATOM      4  C   UNL     1      45.655  51.796  10.885  1.00  0.00     0.000 C 
BRANCH   4   5
ATOM      5  C   UNL     1      46.856  50.995  11.417  1.00  0.00     0.000 C 
BRANCH   5   6
ATOM      6  C   UNL     1      47.454  50.041  10.366  1.00  0.00     0.000 C 
BRANCH   6   7
ATOM      7  C   UNL     1      47.217  48.538  10.629  1.00  0.00     0.006 C 
BRANCH   7   8
ATOM      8  C   UNL     1      46.586  47.782   9.449  1.00  0.00     0.053 C 
BRANCH   8   9
ATOM      9  C   UNL     1      46.891  46.316   9.493  1.00  0.00     0.041 C 
ATOM     10  O   UNL     1      47.423  45.749   8.502  1.00  0.00    -0.550 OA
ATOM     11  O   UNL     1      46.588  45.574  10.631  1.00  0.00    -0.550 OA
ENDBRANCH   8   9
ENDBRANCH   7   8
ENDBRANCH   6   7
ENDBRANCH   5   6
ENDBRANCH   4   5
ENDBRANCH   3   4
ENDBRANCH   2   3
ENDBRANCH   1   2
BRANCH   1  12
ATOM     12  C   UNL     1      42.092  50.537  10.269  1.00  0.00     0.000 C 
BRANCH  12  13
ATOM     13  C   UNL     1      41.632  49.992  11.636  1.00  0.00    -0.000 C 
BRANCH  13  14
ATOM     14  C   UNL     1      42.753  49.845  12.683  1.00  0.00    -0.000 C 
BRANCH  14  15
ATOM     15  C   UNL     1      42.784  48.450  13.330  1.00  0.00    -0.000 C 
BRANCH  15  16
ATOM     16  C   UNL     1      42.181  47.364  12.416  1.00  0.00    -0.000 C 
BRANCH  16  17
ATOM     17  C   UNL     1      43.229  46.494  11.692  1.00  0.00    -0.000 C 
BRANCH  17  18
ATOM     18  C   UNL     1      43.079  46.537  10.163  1.00  0.00    -0.000 C 
BRANCH  18  19
ATOM     19  C   UNL     1      41.633  46.853   9.755  1.00  0.00    -0.003 C 
ATOM     20  C   UNL     1      41.567  47.378   8.322  1.00  0.00     0.004 C 
ENDBRANCH  18  19
ENDBRANCH  17  18
ENDBRANCH  16  17
ENDBRANCH  15  16
ENDBRANCH  14  15
ENDBRANCH  13  14
ENDBRANCH  12  13
ENDBRANCH   1  12
TORSDOF 16
ENDMDL
MODEL 8
REMARK VINA RESULT:    -4.654      2.513      4.843
REMARK INTER + INTRA:         -11.642
REMARK INTER:                  -9.167
REMARK INTRA:                  -2.476
REMARK UNBOUND:                -2.636
REMARK SMILES CCCCCCCCCCCCCCCCCC(=O)[O-]
REMARK SMILES IDX 10 1 11 2 12 3 13 4 14 5 15 6 16 7 17 8 18 9 19 10 20 11
REMARK SMILES IDX 9 12 8 13 7 14 6 15 5 16 4 17 3 18 2 19 1 20
REMARK H PARENT
REMARK Flexibility Score: inf
ROOT
ATOM      1  C   UNL     1      47.752  50.272  10.583  1.00  0.00     0.000 C 
ENDROOT
BRANCH   1   2
ATOM      2  C   UNL     1      46.691  51.036  11.404  1.00  0.00     0.000 C 
BRANCH   2   3
ATOM      3  C   UNL     1      45.638  51.718  10.511  1.00  0.00     0.000 C 
BRANCH   3   4
ATOM      4  C   UNL     1      44.245  51.085  10.648  1.00  0.00     0.000 C 
BRANCH   4   5
ATOM      5  C   UNL     1      44.103  50.235  11.923  1.00  0.00     0.000 C 
BRANCH   5   6
ATOM      6  C   UNL     1      42.876  49.306  11.892  1.00  0.00     0.000 C 
BRANCH   6   7
ATOM      7  C   UNL     1      42.748  48.340  13.089  1.00  0.00     0.006 C 
BRANCH   7   8
ATOM      8  C   UNL     1      42.373  46.900  12.704  1.00  0.00     0.053 C 
BRANCH   8   9
ATOM      9  C   UNL     1      41.196  46.855  11.778  1.00  0.00     0.041 C 
ATOM     10  O   UNL     1      41.340  46.467  10.589  1.00  0.00    -0.550 OA
ATOM     11  O   UNL     1      39.937  47.241  12.230  1.00  0.00    -0.550 OA
ENDBRANCH   8   9
ENDBRANCH   7   8
ENDBRANCH   6   7
ENDBRANCH   5   6
ENDBRANCH   4   5
ENDBRANCH   3   4
ENDBRANCH   2   3
ENDBRANCH   1   2
BRANCH   1  12
ATOM     12  C   UNL     1      47.530  48.746  10.543  1.00  0.00     0.000 C 
BRANCH  12  13
ATOM     13  C   UNL     1      46.855  48.213   9.263  1.00  0.00    -0.000 C 
BRANCH  13  14
ATOM     14  C   UNL     1      45.378  47.810   9.431  1.00  0.00    -0.000 C 
BRANCH  14  15
ATOM     15  C   UNL     1      45.183  46.678  10.455  1.00  0.00    -0.000 C 
BRANCH  15  16
ATOM     16  C   UNL     1      44.644  45.386   9.808  1.00  0.00    -0.000 C 
BRANCH  16  17
ATOM     17  C   UNL     1      44.601  45.423   8.266  1.00  0.00    -0.000 C 
BRANCH  17  18
ATOM     18  C   UNL     1      45.273  44.196   7.627  1.00  0.00    -0.000 C 
BRANCH  18  19
ATOM     19  C   UNL     1      46.627  43.898   8.288  1.00  0.00    -0.003 C 
ATOM     20  C   UNL     1      47.674  44.936   7.890  1.00  0.00     0.004 C 
ENDBRANCH  18  19
ENDBRANCH  17  18
ENDBRANCH  16  17
ENDBRANCH  15  16
ENDBRANCH  14  15
ENDBRANCH  13  14
ENDBRANCH  12  13
ENDBRANCH   1  12
TORSDOF 16
ENDMDL
MODEL 9
REMARK VINA RESULT:    -4.624      3.882      6.607
REMARK INTER + INTRA:         -11.585
REMARK INTER:                  -9.674
REMARK INTRA:                  -1.911
REMARK UNBOUND:                -2.636
REMARK SMILES CCCCCCCCCCCCCCCCCC(=O)[O-]
REMARK SMILES IDX 10 1 11 2 12 3 13 4 14 5 15 6 16 7 17 8 18 9 19 10 20 11
REMARK SMILES IDX 9 12 8 13 7 14 6 15 5 16 4 17 3 18 2 19 1 20
REMARK H PARENT
REMARK Flexibility Score: inf
ROOT
ATOM      1  C   UNL     1      42.662  48.778  10.724  1.00  0.00     0.000 C 
ENDROOT
BRANCH   1   2
ATOM      2  C   UNL     1      43.350  50.155  10.851  1.00  0.00     0.000 C 
BRANCH   2   3
ATOM      3  C   UNL     1      44.516  50.136  11.856  1.00  0.00     0.000 C 
BRANCH   3   4
ATOM      4  C   UNL     1      45.756  50.882  11.338  1.00  0.00     0.000 C 
BRANCH   4   5
ATOM      5  C   UNL     1      46.903  49.930  10.956  1.00  0.00     0.000 C 
BRANCH   5   6
ATOM      6  C   UNL     1      46.814  49.436   9.500  1.00  0.00     0.000 C 
BRANCH   6   7
ATOM      7  C   UNL     1      46.336  47.979   9.326  1.00  0.00     0.006 C 
BRANCH   7   8
ATOM      8  C   UNL     1      46.755  47.035  10.464  1.00  0.00     0.053 C 
BRANCH   8   9
ATOM      9  C   UNL     1      46.372  45.614  10.186  1.00  0.00     0.041 C 
ATOM     10  O   UNL     1      45.297  45.145  10.645  1.00  0.00    -0.550 OA
ATOM     11  O   UNL     1      47.204  44.805   9.417  1.00  0.00    -0.550 OA
ENDBRANCH   8   9
ENDBRANCH   7   8
ENDBRANCH   6   7
ENDBRANCH   5   6
ENDBRANCH   4   5
ENDBRANCH   3   4
ENDBRANCH   2   3
ENDBRANCH   1   2
BRANCH   1  12
ATOM     12  C   UNL     1      43.144  47.741  11.760  1.00  0.00     0.000 C 
BRANCH  12  13
ATOM     13  C   UNL     1      42.029  46.913  12.429  1.00  0.00    -0.000 C 
BRANCH  13  14
ATOM     14  C   UNL     1      40.602  47.244  11.951  1.00  0.00    -0.000 C 
BRANCH  14  15
ATOM     15  C   UNL     1      39.762  45.987  11.670  1.00  0.00    -0.000 C 
BRANCH  15  16
ATOM     16  C   UNL     1      39.402  45.842  10.177  1.00  0.00    -0.000 C 
BRANCH  16  17
ATOM     17  C   UNL     1      40.623  45.716   9.242  1.00  0.00    -0.000 C 
BRANCH  17  18
ATOM     18  C   UNL     1      40.356  46.292   7.842  1.00  0.00    -0.000 C 
BRANCH  18  19
ATOM     19  C   UNL     1      38.881  46.130   7.446  1.00  0.00    -0.003 C 
ATOM     20  C   UNL     1      38.708  46.195   5.929  1.00  0.00     0.004 C 
ENDBRANCH  18  19
ENDBRANCH  17  18
ENDBRANCH  16  17
ENDBRANCH  15  16
ENDBRANCH  14  15
ENDBRANCH  13  14
ENDBRANCH  12  13
ENDBRANCH   1  12
TORSDOF 16
ENDMDL
