MODEL 1
REMARK VINA RESULT:    -5.428      0.000      0.000
REMARK INTER + INTRA:          -6.667
REMARK INTER:                  -6.381
REMARK INTRA:                  -0.287
REMARK UNBOUND:                -0.287
REMARK SMILES O=c1c(O)c(-c2ccc(O)cc2)oc2cc(O)cc(O)c12
REMARK SMILES IDX 5 1 3 2 2 3 1 4 21 5 19 6 18 7 16 8 15 9 14 10 13 11 6 12
REMARK SMILES IDX 7 13 8 14 9 15 12 16 11 17 10 18 4 20 20 22 17 24
REMARK H PARENT 10 19 4 21 20 23 17 25
REMARK Flexibility Score: inf
ROOT
ATOM      1  C   UNL     1      -4.730  84.872  -8.867  1.00  0.00     0.180 A 
ATOM      2  C   UNL     1      -5.906  84.961  -9.632  1.00  0.00     0.208 A 
ATOM      3  C   UNL     1      -6.391  86.229  -9.991  1.00  0.00     0.238 A 
ATOM      4  O   UNL     1      -7.473  86.304 -10.629  1.00  0.00    -0.285 OA
ATOM      5  C   UNL     1      -5.686  87.391  -9.596  1.00  0.00     0.111 A 
ATOM      6  C   UNL     1      -6.063  88.724  -9.938  1.00  0.00     0.134 A 
ATOM      7  C   UNL     1      -5.366  89.803  -9.382  1.00  0.00     0.093 A 
ATOM      8  C   UNL     1      -4.266  89.600  -8.551  1.00  0.00     0.123 A 
ATOM      9  C   UNL     1      -3.851  88.300  -8.258  1.00  0.00     0.094 A 
ATOM     10  C   UNL     1      -4.549  87.203  -8.767  1.00  0.00     0.146 A 
ATOM     11  O   UNL     1      -4.128  85.983  -8.455  1.00  0.00    -0.452 OA
ENDROOT
BRANCH   1  12
ATOM     12  C   UNL     1      -4.144  83.572  -8.470  1.00  0.00     0.021 A 
ATOM     13  C   UNL     1      -4.568  82.955  -7.281  1.00  0.00     0.016 A 
ATOM     14  C   UNL     1      -4.011  81.737  -6.877  1.00  0.00     0.047 A 
ATOM     15  C   UNL     1      -3.014  81.130  -7.645  1.00  0.00     0.115 A 
ATOM     16  C   UNL     1      -3.125  82.966  -9.229  1.00  0.00     0.016 A 
ATOM     17  C   UNL     1      -2.569  81.750  -8.821  1.00  0.00     0.047 A 
BRANCH  15  18
ATOM     18  O   UNL     1      -2.468  79.918  -7.231  1.00  0.00    -0.508 OA
ATOM     19  H   UNL     1      -1.492  79.837  -6.972  1.00  0.00     0.293 HD
ENDBRANCH  15  18
ENDBRANCH   1  12
BRANCH   2  20
ATOM     20  O   UNL     1      -6.598  83.802  -9.993  1.00  0.00    -0.502 OA
ATOM     21  H   UNL     1      -6.406  83.299 -10.851  1.00  0.00     0.293 HD
ENDBRANCH   2  20
BRANCH   6  22
ATOM     22  O   UNL     1      -7.091  89.038 -10.833  1.00  0.00    -0.507 OA
ATOM     23  H   UNL     1      -7.567  89.926 -10.872  1.00  0.00     0.293 HD
ENDBRANCH   6  22
BRANCH   8  24
ATOM     24  O   UNL     1      -3.586  90.697  -8.029  1.00  0.00    -0.508 OA
ATOM     25  H   UNL     1      -2.709  91.016  -8.427  1.00  0.00     0.293 HD
ENDBRANCH   8  24
TORSDOF 5
ENDMDL
MODEL 2
REMARK VINA RESULT:    -5.400      2.002      7.409
REMARK INTER + INTRA:          -6.633
REMARK INTER:                  -6.355
REMARK INTRA:                  -0.278
REMARK UNBOUND:                -0.287
REMARK SMILES O=c1c(O)c(-c2ccc(O)cc2)oc2cc(O)cc(O)c12
REMARK SMILES IDX 5 1 3 2 2 3 1 4 21 5 19 6 18 7 16 8 15 9 14 10 13 11 6 12
REMARK SMILES IDX 7 13 8 14 9 15 12 16 11 17 10 18 4 20 20 22 17 24
REMARK H PARENT 10 19 4 21 20 23 17 25
REMARK Flexibility Score: inf
ROOT
ATOM      1  C   UNL     1      -4.406  88.357  -8.518  1.00  0.00     0.180 A 
ATOM      2  C   UNL     1      -3.286  88.048  -7.726  1.00  0.00     0.208 A 
ATOM      3  C   UNL     1      -2.844  86.717  -7.661  1.00  0.00     0.238 A 
ATOM      4  O   UNL     1      -1.875  86.439  -6.908  1.00  0.00    -0.285 OA
ATOM      5  C   UNL     1      -3.515  85.715  -8.401  1.00  0.00     0.111 A 
ATOM      6  C   UNL     1      -3.130  84.341  -8.441  1.00  0.00     0.134 A 
ATOM      7  C   UNL     1      -3.945  83.414  -9.101  1.00  0.00     0.093 A 
ATOM      8  C   UNL     1      -5.094  83.818  -9.778  1.00  0.00     0.123 A 
ATOM      9  C   UNL     1      -5.449  85.168  -9.795  1.00  0.00     0.094 A 
ATOM     10  C   UNL     1      -4.676  86.111  -9.115  1.00  0.00     0.146 A 
ATOM     11  O   UNL     1      -5.054  87.383  -9.148  1.00  0.00    -0.452 OA
ENDROOT
BRANCH   1  12
ATOM     12  C   UNL     1      -4.916  89.740  -8.657  1.00  0.00     0.021 A 
ATOM     13  C   UNL     1      -4.472  90.538  -9.724  1.00  0.00     0.016 A 
ATOM     14  C   UNL     1      -4.925  91.854  -9.861  1.00  0.00     0.047 A 
ATOM     15  C   UNL     1      -5.814  92.393  -8.926  1.00  0.00     0.115 A 
ATOM     16  C   UNL     1      -5.795  90.294  -7.708  1.00  0.00     0.016 A 
ATOM     17  C   UNL     1      -6.245  91.611  -7.846  1.00  0.00     0.047 A 
BRANCH  15  18
ATOM     18  O   UNL     1      -6.258  93.705  -9.075  1.00  0.00    -0.508 OA
ATOM     19  H   UNL     1      -7.139  93.918  -9.526  1.00  0.00     0.293 HD
ENDBRANCH  15  18
ENDBRANCH   1  12
BRANCH   2  20
ATOM     20  O   UNL     1      -2.651  89.050  -6.987  1.00  0.00    -0.502 OA
ATOM     21  H   UNL     1      -2.438  89.961  -7.376  1.00  0.00     0.293 HD
ENDBRANCH   2  20
BRANCH   6  22
ATOM     22  O   UNL     1      -1.951  83.845  -7.875  1.00  0.00    -0.507 OA
ATOM     23  H   UNL     1      -1.240  83.339  -8.380  1.00  0.00     0.293 HD
ENDBRANCH   6  22
BRANCH   8  24
ATOM     24  O   UNL     1      -5.873  82.870 -10.438  1.00  0.00    -0.508 OA
ATOM     25  H   UNL     1      -5.911  82.827 -11.450  1.00  0.00     0.293 HD
ENDBRANCH   8  24
TORSDOF 5
ENDMDL
MODEL 3
REMARK VINA RESULT:    -5.108     11.251     13.529
REMARK INTER + INTRA:          -6.291
REMARK INTER:                  -6.182
REMARK INTRA:                  -0.108
REMARK UNBOUND:                -0.287
REMARK SMILES O=c1c(O)c(-c2ccc(O)cc2)oc2cc(O)cc(O)c12
REMARK SMILES IDX 5 1 3 2 2 3 1 4 21 5 19 6 18 7 16 8 15 9 14 10 13 11 6 12
REMARK SMILES IDX 7 13 8 14 9 15 12 16 11 17 10 18 4 20 20 22 17 24
REMARK H PARENT 10 19 4 21 20 23 17 25
REMARK Flexibility Score: inf
ROOT
ATOM      1  C   UNL     1      -3.314  91.799 -19.321  1.00  0.00     0.180 A 
ATOM      2  C   UNL     1      -2.565  90.934 -20.137  1.00  0.00     0.208 A 
ATOM      3  C   UNL     1      -2.507  91.179 -21.519  1.00  0.00     0.238 A 
ATOM      4  O   UNL     1      -1.881  90.371 -22.251  1.00  0.00    -0.285 OA
ATOM      5  C   UNL     1      -3.185  92.296 -22.064  1.00  0.00     0.111 A 
ATOM      6  C   UNL     1      -3.163  92.664 -23.443  1.00  0.00     0.134 A 
ATOM      7  C   UNL     1      -3.976  93.711 -23.892  1.00  0.00     0.093 A 
ATOM      8  C   UNL     1      -4.760  94.447 -23.004  1.00  0.00     0.123 A 
ATOM      9  C   UNL     1      -4.744  94.134 -21.644  1.00  0.00     0.094 A 
ATOM     10  C   UNL     1      -3.971  93.071 -21.171  1.00  0.00     0.146 A 
ATOM     11  O   UNL     1      -3.993  92.800 -19.872  1.00  0.00    -0.452 OA
ENDROOT
BRANCH   1  12
ATOM     12  C   UNL     1      -3.402  91.620 -17.854  1.00  0.00     0.021 A 
ATOM     13  C   UNL     1      -2.235  91.698 -17.075  1.00  0.00     0.016 A 
ATOM     14  C   UNL     1      -2.293  91.509 -15.691  1.00  0.00     0.047 A 
ATOM     15  C   UNL     1      -3.513  91.226 -15.070  1.00  0.00     0.115 A 
ATOM     16  C   UNL     1      -4.624  91.314 -17.226  1.00  0.00     0.016 A 
ATOM     17  C   UNL     1      -4.679  91.125 -15.841  1.00  0.00     0.047 A 
BRANCH  15  18
ATOM     18  O   UNL     1      -3.556  91.042 -13.690  1.00  0.00    -0.508 OA
ATOM     19  H   UNL     1      -2.925  90.404 -13.221  1.00  0.00     0.293 HD
ENDBRANCH  15  18
ENDBRANCH   1  12
BRANCH   2  20
ATOM     20  O   UNL     1      -1.922  89.825 -19.581  1.00  0.00    -0.502 OA
ATOM     21  H   UNL     1      -1.830  89.694 -18.580  1.00  0.00     0.293 HD
ENDBRANCH   2  20
BRANCH   6  22
ATOM     22  O   UNL     1      -2.345  92.054 -24.399  1.00  0.00    -0.507 OA
ATOM     23  H   UNL     1      -2.607  91.891 -25.359  1.00  0.00     0.293 HD
ENDBRANCH   6  22
BRANCH   8  24
ATOM     24  O   UNL     1      -5.545  95.493 -23.483  1.00  0.00    -0.508 OA
ATOM     25  H   UNL     1      -6.315  95.328 -24.122  1.00  0.00     0.293 HD
ENDBRANCH   8  24
TORSDOF 5
ENDMDL
MODEL 4
REMARK VINA RESULT:    -5.094      1.658      6.682
REMARK INTER + INTRA:          -6.274
REMARK INTER:                  -6.292
REMARK INTRA:                   0.018
REMARK UNBOUND:                -0.287
REMARK SMILES O=c1c(O)c(-c2ccc(O)cc2)oc2cc(O)cc(O)c12
REMARK SMILES IDX 5 1 3 2 2 3 1 4 21 5 19 6 18 7 16 8 15 9 14 10 13 11 6 12
REMARK SMILES IDX 7 13 8 14 9 15 12 16 11 17 10 18 4 20 20 22 17 24
REMARK H PARENT 10 19 4 21 20 23 17 25
REMARK Flexibility Score: inf
ROOT
ATOM      1  C   UNL     1      -5.133  88.074  -9.154  1.00  0.00     0.180 A 
ATOM      2  C   UNL     1      -6.370  87.624  -9.649  1.00  0.00     0.208 A 
ATOM      3  C   UNL     1      -6.574  86.245  -9.821  1.00  0.00     0.238 A 
ATOM      4  O   UNL     1      -7.663  85.853 -10.315  1.00  0.00    -0.285 OA
ATOM      5  C   UNL     1      -5.547  85.333  -9.481  1.00  0.00     0.111 A 
ATOM      6  C   UNL     1      -5.659  83.914  -9.576  1.00  0.00     0.134 A 
ATOM      7  C   UNL     1      -4.534  83.114  -9.338  1.00  0.00     0.093 A 
ATOM      8  C   UNL     1      -3.321  83.676  -8.943  1.00  0.00     0.123 A 
ATOM      9  C   UNL     1      -3.216  85.059  -8.789  1.00  0.00     0.094 A 
ATOM     10  C   UNL     1      -4.310  85.885  -9.056  1.00  0.00     0.146 A 
ATOM     11  O   UNL     1      -4.166  87.197  -8.907  1.00  0.00    -0.452 OA
ENDROOT
BRANCH   1  12
ATOM     12  C   UNL     1      -4.851  89.508  -8.922  1.00  0.00     0.021 A 
ATOM     13  C   UNL     1      -5.017  90.425  -9.974  1.00  0.00     0.016 A 
ATOM     14  C   UNL     1      -4.735  91.782  -9.782  1.00  0.00     0.047 A 
ATOM     15  C   UNL     1      -4.269  92.236  -8.545  1.00  0.00     0.115 A 
ATOM     16  C   UNL     1      -4.362  89.968  -7.685  1.00  0.00     0.016 A 
ATOM     17  C   UNL     1      -4.079  91.324  -7.497  1.00  0.00     0.047 A 
BRANCH  15  18
ATOM     18  O   UNL     1      -3.992  93.589  -8.368  1.00  0.00    -0.508 OA
ATOM     19  H   UNL     1      -4.726  94.257  -8.164  1.00  0.00     0.293 HD
ENDBRANCH  15  18
ENDBRANCH   1  12
BRANCH   2  20
ATOM     20  O   UNL     1      -7.362  88.543  -9.998  1.00  0.00    -0.502 OA
ATOM     21  H   UNL     1      -7.238  89.222 -10.740  1.00  0.00     0.293 HD
ENDBRANCH   2  20
BRANCH   6  22
ATOM     22  O   UNL     1      -6.850  83.243  -9.873  1.00  0.00    -0.507 OA
ATOM     23  H   UNL     1      -6.907  82.290 -10.195  1.00  0.00     0.293 HD
ENDBRANCH   6  22
BRANCH   8  24
ATOM     24  O   UNL     1      -2.227  82.849  -8.699  1.00  0.00    -0.508 OA
ATOM     25  H   UNL     1      -1.316  83.230  -8.470  1.00  0.00     0.293 HD
ENDBRANCH   8  24
TORSDOF 5
ENDMDL
MODEL 5
REMARK VINA RESULT:    -5.064      3.094      8.240
REMARK INTER + INTRA:          -6.239
REMARK INTER:                  -5.958
REMARK INTRA:                  -0.281
REMARK UNBOUND:                -0.287
REMARK SMILES O=c1c(O)c(-c2ccc(O)cc2)oc2cc(O)cc(O)c12
REMARK SMILES IDX 5 1 3 2 2 3 1 4 21 5 19 6 18 7 16 8 15 9 14 10 13 11 6 12
REMARK SMILES IDX 7 13 8 14 9 15 12 16 11 17 10 18 4 20 20 22 17 24
REMARK H PARENT 10 19 4 21 20 23 17 25
REMARK Flexibility Score: inf
ROOT
ATOM      1  C   UNL     1      -4.935  90.770  -8.258  1.00  0.00     0.180 A 
ATOM      2  C   UNL     1      -3.861  90.064  -7.688  1.00  0.00     0.208 A 
ATOM      3  C   UNL     1      -3.757  88.682  -7.915  1.00  0.00     0.238 A 
ATOM      4  O   UNL     1      -2.826  88.047  -7.357  1.00  0.00    -0.285 OA
ATOM      5  C   UNL     1      -4.717  88.027  -8.724  1.00  0.00     0.111 A 
ATOM      6  C   UNL     1      -4.687  86.639  -9.054  1.00  0.00     0.134 A 
ATOM      7  C   UNL     1      -5.759  86.072  -9.753  1.00  0.00     0.093 A 
ATOM      8  C   UNL     1      -6.828  86.853 -10.190  1.00  0.00     0.123 A 
ATOM      9  C   UNL     1      -6.839  88.223  -9.924  1.00  0.00     0.094 A 
ATOM     10  C   UNL     1      -5.801  88.811  -9.198  1.00  0.00     0.146 A 
ATOM     11  O   UNL     1      -5.855  90.115  -8.957  1.00  0.00    -0.452 OA
ENDROOT
BRANCH   1  12
ATOM     12  C   UNL     1      -5.099  92.231  -8.084  1.00  0.00     0.021 A 
ATOM     13  C   UNL     1      -6.035  92.717  -7.156  1.00  0.00     0.016 A 
ATOM     14  C   UNL     1      -6.221  94.094  -6.992  1.00  0.00     0.047 A 
ATOM     15  C   UNL     1      -5.488  95.000  -7.763  1.00  0.00     0.115 A 
ATOM     16  C   UNL     1      -4.378  93.148  -8.872  1.00  0.00     0.016 A 
ATOM     17  C   UNL     1      -4.568  94.524  -8.707  1.00  0.00     0.047 A 
BRANCH  15  18
ATOM     18  O   UNL     1      -5.683  96.368  -7.589  1.00  0.00    -0.508 OA
ATOM     19  H   UNL     1      -5.007  97.046  -7.919  1.00  0.00     0.293 HD
ENDBRANCH  15  18
ENDBRANCH   1  12
BRANCH   2  20
ATOM     20  O   UNL     1      -2.938  90.727  -6.875  1.00  0.00    -0.502 OA
ATOM     21  H   UNL     1      -2.480  90.276  -6.092  1.00  0.00     0.293 HD
ENDBRANCH   2  20
BRANCH   6  22
ATOM     22  O   UNL     1      -3.622  85.787  -8.745  1.00  0.00    -0.507 OA
ATOM     23  H   UNL     1      -3.453  84.896  -9.185  1.00  0.00     0.293 HD
ENDBRANCH   6  22
BRANCH   8  24
ATOM     24  O   UNL     1      -7.870  86.257 -10.897  1.00  0.00    -0.508 OA
ATOM     25  H   UNL     1      -8.037  86.469 -11.874  1.00  0.00     0.293 HD
ENDBRANCH   8  24
TORSDOF 5
ENDMDL
MODEL 6
REMARK VINA RESULT:    -4.995      8.027     10.934
REMARK INTER + INTRA:          -6.158
REMARK INTER:                  -5.880
REMARK INTRA:                  -0.277
REMARK UNBOUND:                -0.287
REMARK SMILES O=c1c(O)c(-c2ccc(O)cc2)oc2cc(O)cc(O)c12
REMARK SMILES IDX 5 1 3 2 2 3 1 4 21 5 19 6 18 7 16 8 15 9 14 10 13 11 6 12
REMARK SMILES IDX 7 13 8 14 9 15 12 16 11 17 10 18 4 20 20 22 17 24
REMARK H PARENT 10 19 4 21 20 23 17 25
REMARK Flexibility Score: inf
ROOT
ATOM      1  C   UNL     1      -4.129  92.081 -15.595  1.00  0.00     0.180 A 
ATOM      2  C   UNL     1      -3.011  91.508 -16.225  1.00  0.00     0.208 A 
ATOM      3  C   UNL     1      -2.849  91.674 -17.610  1.00  0.00     0.238 A 
ATOM      4  O   UNL     1      -1.875  91.113 -18.176  1.00  0.00    -0.285 OA
ATOM      5  C   UNL     1      -3.797  92.424 -18.345  1.00  0.00     0.111 A 
ATOM      6  C   UNL     1      -3.712  92.690 -19.744  1.00  0.00     0.134 A 
ATOM      7  C   UNL     1      -4.775  93.332 -20.392  1.00  0.00     0.093 A 
ATOM      8  C   UNL     1      -5.889  93.776 -19.681  1.00  0.00     0.123 A 
ATOM      9  C   UNL     1      -5.956  93.574 -18.302  1.00  0.00     0.094 A 
ATOM     10  C   UNL     1      -4.929  92.904 -17.634  1.00  0.00     0.146 A 
ATOM     11  O   UNL     1      -5.037  92.723 -16.323  1.00  0.00    -0.452 OA
ENDROOT
BRANCH   1  12
ATOM     12  C   UNL     1      -4.356  91.971 -14.137  1.00  0.00     0.021 A 
ATOM     13  C   UNL     1      -5.011  90.839 -13.621  1.00  0.00     0.016 A 
ATOM     14  C   UNL     1      -5.254  90.725 -12.249  1.00  0.00     0.047 A 
ATOM     15  C   UNL     1      -4.862  91.746 -11.377  1.00  0.00     0.115 A 
ATOM     16  C   UNL     1      -3.981  93.003 -13.257  1.00  0.00     0.016 A 
ATOM     17  C   UNL     1      -4.228  92.888 -11.885  1.00  0.00     0.047 A 
BRANCH  15  18
ATOM     18  O   UNL     1      -5.111  91.619 -10.013  1.00  0.00    -0.508 OA
ATOM     19  H   UNL     1      -4.378  91.362  -9.363  1.00  0.00     0.293 HD
ENDBRANCH  15  18
ENDBRANCH   1  12
BRANCH   2  20
ATOM     20  O   UNL     1      -2.098  90.753 -15.484  1.00  0.00    -0.502 OA
ATOM     21  H   UNL     1      -2.286  90.449 -14.536  1.00  0.00     0.293 HD
ENDBRANCH   2  20
BRANCH   6  22
ATOM     22  O   UNL     1      -2.602  92.372 -20.533  1.00  0.00    -0.507 OA
ATOM     23  H   UNL     1      -2.646  91.910 -21.428  1.00  0.00     0.293 HD
ENDBRANCH   6  22
BRANCH   8  24
ATOM     24  O   UNL     1      -6.921  94.425 -20.355  1.00  0.00    -0.508 OA
ATOM     25  H   UNL     1      -7.556  95.052 -19.875  1.00  0.00     0.293 HD
ENDBRANCH   8  24
TORSDOF 5
ENDMDL
MODEL 7
REMARK VINA RESULT:    -4.957      5.507      9.575
REMARK INTER + INTRA:          -6.113
REMARK INTER:                  -5.885
REMARK INTRA:                  -0.228
REMARK UNBOUND:                -0.287
REMARK SMILES O=c1c(O)c(-c2ccc(O)cc2)oc2cc(O)cc(O)c12
REMARK SMILES IDX 5 1 3 2 2 3 1 4 21 5 19 6 18 7 16 8 15 9 14 10 13 11 6 12
REMARK SMILES IDX 7 13 8 14 9 15 12 16 11 17 10 18 4 20 20 22 17 24
REMARK H PARENT 10 19 4 21 20 23 17 25
REMARK Flexibility Score: inf
ROOT
ATOM      1  C   UNL     1      -4.419  91.878 -13.735  1.00  0.00     0.180 A 
ATOM      2  C   UNL     1      -4.152  92.657 -12.595  1.00  0.00     0.208 A 
ATOM      3  C   UNL     1      -4.655  92.240 -11.352  1.00  0.00     0.238 A 
ATOM      4  O   UNL     1      -4.460  92.969 -10.346  1.00  0.00    -0.285 OA
ATOM      5  C   UNL     1      -5.404  91.042 -11.261  1.00  0.00     0.111 A 
ATOM      6  C   UNL     1      -5.928  90.504 -10.048  1.00  0.00     0.134 A 
ATOM      7  C   UNL     1      -6.765  89.382 -10.094  1.00  0.00     0.093 A 
ATOM      8  C   UNL     1      -7.044  88.741 -11.300  1.00  0.00     0.123 A 
ATOM      9  C   UNL     1      -6.489  89.223 -12.485  1.00  0.00     0.094 A 
ATOM     10  C   UNL     1      -5.680  90.362 -12.476  1.00  0.00     0.146 A 
ATOM     11  O   UNL     1      -5.180  90.795 -13.627  1.00  0.00    -0.452 OA
ENDROOT
BRANCH   1  12
ATOM     12  C   UNL     1      -3.902  92.238 -15.074  1.00  0.00     0.021 A 
ATOM     13  C   UNL     1      -4.521  93.270 -15.800  1.00  0.00     0.016 A 
ATOM     14  C   UNL     1      -4.063  93.612 -17.077  1.00  0.00     0.047 A 
ATOM     15  C   UNL     1      -2.993  92.917 -17.650  1.00  0.00     0.115 A 
ATOM     16  C   UNL     1      -2.839  91.530 -15.664  1.00  0.00     0.016 A 
ATOM     17  C   UNL     1      -2.384  91.872 -16.942  1.00  0.00     0.047 A 
BRANCH  15  18
ATOM     18  O   UNL     1      -2.547  93.268 -18.921  1.00  0.00    -0.508 OA
ATOM     19  H   UNL     1      -1.695  92.880 -19.310  1.00  0.00     0.293 HD
ENDBRANCH  15  18
ENDBRANCH   1  12
BRANCH   2  20
ATOM     20  O   UNL     1      -3.429  93.847 -12.711  1.00  0.00    -0.502 OA
ATOM     21  H   UNL     1      -2.456  93.867 -12.993  1.00  0.00     0.293 HD
ENDBRANCH   2  20
BRANCH   6  22
ATOM     22  O   UNL     1      -5.636  91.013  -8.778  1.00  0.00    -0.507 OA
ATOM     23  H   UNL     1      -6.322  91.368  -8.130  1.00  0.00     0.293 HD
ENDBRANCH   6  22
BRANCH   8  24
ATOM     24  O   UNL     1      -7.868  87.618 -11.306  1.00  0.00    -0.508 OA
ATOM     25  H   UNL     1      -7.734  86.858 -10.649  1.00  0.00     0.293 HD
ENDBRANCH   8  24
TORSDOF 5
ENDMDL
MODEL 8
REMARK VINA RESULT:    -4.955      6.086     10.306
REMARK INTER + INTRA:          -6.111
REMARK INTER:                  -5.837
REMARK INTRA:                  -0.273
REMARK UNBOUND:                -0.287
REMARK SMILES O=c1c(O)c(-c2ccc(O)cc2)oc2cc(O)cc(O)c12
REMARK SMILES IDX 5 1 3 2 2 3 1 4 21 5 19 6 18 7 16 8 15 9 14 10 13 11 6 12
REMARK SMILES IDX 7 13 8 14 9 15 12 16 11 17 10 18 4 20 20 22 17 24
REMARK H PARENT 10 19 4 21 20 23 17 25
REMARK Flexibility Score: inf
ROOT
ATOM      1  C   UNL     1      -5.695  91.858 -14.887  1.00  0.00     0.180 A 
ATOM      2  C   UNL     1      -4.887  92.591 -14.000  1.00  0.00     0.208 A 
ATOM      3  C   UNL     1      -4.788  92.173 -12.663  1.00  0.00     0.238 A 
ATOM      4  O   UNL     1      -4.107  92.864 -11.863  1.00  0.00    -0.285 OA
ATOM      5  C   UNL     1      -5.485  91.018 -12.233  1.00  0.00     0.111 A 
ATOM      6  C   UNL     1      -5.425  90.480 -10.913  1.00  0.00     0.134 A 
ATOM      7  C   UNL     1      -6.258  89.410 -10.565  1.00  0.00     0.093 A 
ATOM      8  C   UNL     1      -7.099  88.816 -11.505  1.00  0.00     0.123 A 
ATOM      9  C   UNL     1      -7.122  89.296 -12.815  1.00  0.00     0.094 A 
ATOM     10  C   UNL     1      -6.330  90.385 -13.183  1.00  0.00     0.146 A 
ATOM     11  O   UNL     1      -6.389  90.818 -14.437  1.00  0.00    -0.452 OA
ENDROOT
BRANCH   1  12
ATOM     12  C   UNL     1      -5.830  92.222 -16.315  1.00  0.00     0.021 A 
ATOM     13  C   UNL     1      -4.841  91.821 -17.228  1.00  0.00     0.016 A 
ATOM     14  C   UNL     1      -4.938  92.173 -18.579  1.00  0.00     0.047 A 
ATOM     15  C   UNL     1      -6.014  92.942 -19.029  1.00  0.00     0.115 A 
ATOM     16  C   UNL     1      -6.901  93.013 -16.771  1.00  0.00     0.016 A 
ATOM     17  C   UNL     1      -6.995  93.365 -18.121  1.00  0.00     0.047 A 
BRANCH  15  18
ATOM     18  O   UNL     1      -6.099  93.285 -20.377  1.00  0.00    -0.508 OA
ATOM     19  H   UNL     1      -5.767  92.663 -21.103  1.00  0.00     0.293 HD
ENDBRANCH  15  18
ENDBRANCH   1  12
BRANCH   2  20
ATOM     20  O   UNL     1      -4.225  93.740 -14.440  1.00  0.00    -0.502 OA
ATOM     21  H   UNL     1      -3.348  93.703 -14.946  1.00  0.00     0.293 HD
ENDBRANCH   2  20
BRANCH   6  22
ATOM     22  O   UNL     1      -4.552  90.940  -9.922  1.00  0.00    -0.507 OA
ATOM     23  H   UNL     1      -4.635  91.826  -9.450  1.00  0.00     0.293 HD
ENDBRANCH   6  22
BRANCH   8  24
ATOM     24  O   UNL     1      -7.903  87.742 -11.127  1.00  0.00    -0.508 OA
ATOM     25  H   UNL     1      -7.527  86.805 -11.038  1.00  0.00     0.293 HD
ENDBRANCH   8  24
TORSDOF 5
ENDMDL
MODEL 9
REMARK VINA RESULT:    -4.950      7.053     10.634
REMARK INTER + INTRA:          -6.104
REMARK INTER:                  -5.818
REMARK INTRA:                  -0.287
REMARK UNBOUND:                -0.287
REMARK SMILES O=c1c(O)c(-c2ccc(O)cc2)oc2cc(O)cc(O)c12
REMARK SMILES IDX 5 1 3 2 2 3 1 4 21 5 19 6 18 7 16 8 15 9 14 10 13 11 6 12
REMARK SMILES IDX 7 13 8 14 9 15 12 16 11 17 10 18 4 20 20 22 17 24
REMARK H PARENT 10 19 4 21 20 23 17 25
REMARK Flexibility Score: inf
ROOT
ATOM      1  C   UNL     1      -4.100  92.352 -15.662  1.00  0.00     0.180 A 
ATOM      2  C   UNL     1      -4.690  91.076 -15.668  1.00  0.00     0.208 A 
ATOM      3  C   UNL     1      -5.153  90.534 -14.457  1.00  0.00     0.238 A 
ATOM      4  O   UNL     1      -5.630  89.370 -14.460  1.00  0.00    -0.285 OA
ATOM      5  C   UNL     1      -5.036  91.281 -13.261  1.00  0.00     0.111 A 
ATOM      6  C   UNL     1      -5.507  90.848 -11.986  1.00  0.00     0.134 A 
ATOM      7  C   UNL     1      -5.220  91.611 -10.847  1.00  0.00     0.093 A 
ATOM      8  C   UNL     1      -4.538  92.822 -10.945  1.00  0.00     0.123 A 
ATOM      9  C   UNL     1      -4.125  93.285 -12.195  1.00  0.00     0.094 A 
ATOM     10  C   UNL     1      -4.364  92.528 -13.344  1.00  0.00     0.146 A 
ATOM     11  O   UNL     1      -3.944  93.000 -14.512  1.00  0.00    -0.452 OA
ENDROOT
BRANCH   1  12
ATOM     12  C   UNL     1      -3.610  93.000 -16.900  1.00  0.00     0.021 A 
ATOM     13  C   UNL     1      -4.479  93.816 -17.644  1.00  0.00     0.016 A 
ATOM     14  C   UNL     1      -4.043  94.420 -18.828  1.00  0.00     0.047 A 
ATOM     15  C   UNL     1      -2.742  94.203 -19.291  1.00  0.00     0.115 A 
ATOM     16  C   UNL     1      -2.308  92.770 -17.381  1.00  0.00     0.016 A 
ATOM     17  C   UNL     1      -1.876  93.373 -18.566  1.00  0.00     0.047 A 
BRANCH  15  18
ATOM     18  O   UNL     1      -2.321  94.811 -20.471  1.00  0.00    -0.508 OA
ATOM     19  H   UNL     1      -2.984  95.172 -21.147  1.00  0.00     0.293 HD
ENDBRANCH  15  18
ENDBRANCH   1  12
BRANCH   2  20
ATOM     20  O   UNL     1      -4.776  90.347 -16.857  1.00  0.00    -0.502 OA
ATOM     21  H   UNL     1      -4.655  90.775 -17.767  1.00  0.00     0.293 HD
ENDBRANCH   2  20
BRANCH   6  22
ATOM     22  O   UNL     1      -6.278  89.698 -11.789  1.00  0.00    -0.507 OA
ATOM     23  H   UNL     1      -6.236  88.872 -12.365  1.00  0.00     0.293 HD
ENDBRANCH   6  22
BRANCH   8  24
ATOM     24  O   UNL     1      -4.284  93.563  -9.793  1.00  0.00    -0.508 OA
ATOM     25  H   UNL     1      -4.548  94.540  -9.722  1.00  0.00     0.293 HD
ENDBRANCH   8  24
TORSDOF 5
ENDMDL
