MODEL 1
REMARK VINA RESULT:    -7.253      0.000      0.000
REMARK INTER + INTRA:         -17.925
REMARK INTER:                 -15.732
REMARK INTRA:                  -2.193
REMARK UNBOUND:                -2.193
REMARK SMILES CCCCCCCCCCCCCCCCCCCCCC(=O)[O-]
REMARK SMILES IDX 12 1 11 2 10 3 9 4 8 5 7 6 6 7 5 8 4 9 3 10 2 11 1 12 13 13
REMARK SMILES IDX 14 14 15 15 16 16 17 17 18 18 19 19 20 20 21 21 22 22 23 23
REMARK SMILES IDX 24 24
REMARK H PARENT
REMARK Flexibility Score: inf
ROOT
ATOM      1  C   UNL     1      13.714  70.544  74.707  1.00  0.00     0.000 C 
ENDROOT
BRANCH   1   2
ATOM      2  C   UNL     1      14.167  69.673  73.526  1.00  0.00     0.000 C 
BRANCH   2   3
ATOM      3  C   UNL     1      14.764  70.501  72.375  1.00  0.00     0.000 C 
BRANCH   3   4
ATOM      4  C   UNL     1      14.404  71.993  72.471  1.00  0.00    -0.000 C 
BRANCH   4   5
ATOM      5  C   UNL     1      15.626  72.914  72.308  1.00  0.00    -0.000 C 
BRANCH   5   6
ATOM      6  C   UNL     1      16.966  72.188  72.076  1.00  0.00    -0.000 C 
BRANCH   6   7
ATOM      7  C   UNL     1      18.169  73.110  71.799  1.00  0.00    -0.000 C 
BRANCH   7   8
ATOM      8  C   UNL     1      19.549  72.434  71.923  1.00  0.00    -0.000 C 
BRANCH   8   9
ATOM      9  C   UNL     1      19.555  70.912  71.673  1.00  0.00    -0.000 C 
BRANCH   9  10
ATOM     10  C   UNL     1      20.879  70.349  71.125  1.00  0.00    -0.000 C 
BRANCH  10  11
ATOM     11  C   UNL     1      20.742  69.777  69.706  1.00  0.00    -0.003 C 
ATOM     12  C   UNL     1      19.858  68.534  69.699  1.00  0.00     0.004 C 
ENDBRANCH  10  11
ENDBRANCH   9  10
ENDBRANCH   8   9
ENDBRANCH   7   8
ENDBRANCH   6   7
ENDBRANCH   5   6
ENDBRANCH   4   5
ENDBRANCH   3   4
ENDBRANCH   2   3
ENDBRANCH   1   2
BRANCH   1  13
ATOM     13  C   UNL     1      14.128  69.915  76.046  1.00  0.00     0.000 C 
BRANCH  13  14
ATOM     14  C   UNL     1      15.312  70.641  76.712  1.00  0.00     0.000 C 
BRANCH  14  15
ATOM     15  C   UNL     1      16.243  71.394  75.744  1.00  0.00     0.000 C 
BRANCH  15  16
ATOM     16  C   UNL     1      17.644  71.634  76.324  1.00  0.00     0.000 C 
BRANCH  16  17
ATOM     17  C   UNL     1      18.729  71.240  75.310  1.00  0.00     0.000 C 
BRANCH  17  18
ATOM     18  C   UNL     1      19.946  70.578  75.977  1.00  0.00     0.000 C 
BRANCH  18  19
ATOM     19  C   UNL     1      19.720  70.308  77.474  1.00  0.00     0.000 C 
BRANCH  19  20
ATOM     20  C   UNL     1      20.030  68.853  77.861  1.00  0.00     0.006 C 
BRANCH  20  21
ATOM     21  C   UNL     1      20.371  68.700  79.348  1.00  0.00     0.053 C 
BRANCH  21  22
ATOM     22  C   UNL     1      19.186  68.191  80.107  1.00  0.00     0.041 C 
ATOM     23  O   UNL     1      18.058  68.122  79.551  1.00  0.00    -0.550 OA
ATOM     24  O   UNL     1      19.337  67.746  81.415  1.00  0.00    -0.550 OA
ENDBRANCH  21  22
ENDBRANCH  20  21
ENDBRANCH  19  20
ENDBRANCH  18  19
ENDBRANCH  17  18
ENDBRANCH  16  17
ENDBRANCH  15  16
ENDBRANCH  14  15
ENDBRANCH  13  14
ENDBRANCH   1  13
TORSDOF 20
ENDMDL
MODEL 2
REMARK VINA RESULT:    -7.178      3.443      6.822
REMARK INTER + INTRA:         -17.763
REMARK INTER:                 -14.921
REMARK INTRA:                  -2.842
REMARK UNBOUND:                -2.193
REMARK SMILES CCCCCCCCCCCCCCCCCCCCCC(=O)[O-]
REMARK SMILES IDX 12 1 11 2 10 3 9 4 8 5 7 6 6 7 5 8 4 9 3 10 2 11 1 12 13 13
REMARK SMILES IDX 14 14 15 15 16 16 17 17 18 18 19 19 20 20 21 21 22 22 23 23
REMARK SMILES IDX 24 24
REMARK H PARENT
REMARK Flexibility Score: inf
ROOT
ATOM      1  C   UNL     1      19.518  70.143  77.155  1.00  0.00     0.000 C 
ENDROOT
BRANCH   1   2
ATOM      2  C   UNL     1      18.934  71.453  76.604  1.00  0.00     0.000 C 
BRANCH   2   3
ATOM      3  C   UNL     1      17.397  71.447  76.569  1.00  0.00     0.000 C 
BRANCH   3   4
ATOM      4  C   UNL     1      16.834  71.917  75.218  1.00  0.00    -0.000 C 
BRANCH   4   5
ATOM      5  C   UNL     1      17.757  71.578  74.035  1.00  0.00    -0.000 C 
BRANCH   5   6
ATOM      6  C   UNL     1      17.078  71.589  72.651  1.00  0.00    -0.000 C 
BRANCH   6   7
ATOM      7  C   UNL     1      16.221  72.834  72.354  1.00  0.00    -0.000 C 
BRANCH   7   8
ATOM      8  C   UNL     1      14.708  72.566  72.224  1.00  0.00    -0.000 C 
BRANCH   8   9
ATOM      9  C   UNL     1      14.289  71.093  72.401  1.00  0.00    -0.000 C 
BRANCH   9  10
ATOM     10  C   UNL     1      13.482  70.796  73.679  1.00  0.00    -0.000 C 
BRANCH  10  11
ATOM     11  C   UNL     1      14.070  69.639  74.500  1.00  0.00    -0.003 C 
ATOM     12  C   UNL     1      13.997  69.934  75.995  1.00  0.00     0.004 C 
ENDBRANCH  10  11
ENDBRANCH   9  10
ENDBRANCH   8   9
ENDBRANCH   7   8
ENDBRANCH   6   7
ENDBRANCH   5   6
ENDBRANCH   4   5
ENDBRANCH   3   4
ENDBRANCH   2   3
ENDBRANCH   1   2
BRANCH   1  13
ATOM     13  C   UNL     1      20.792  69.746  76.395  1.00  0.00     0.000 C 
BRANCH  13  14
ATOM     14  C   UNL     1      21.035  70.602  75.137  1.00  0.00     0.000 C 
BRANCH  14  15
ATOM     15  C   UNL     1      22.326  70.274  74.365  1.00  0.00     0.000 C 
BRANCH  15  16
ATOM     16  C   UNL     1      23.349  71.419  74.393  1.00  0.00     0.000 C 
BRANCH  16  17
ATOM     17  C   UNL     1      22.730  72.716  73.849  1.00  0.00     0.000 C 
BRANCH  17  18
ATOM     18  C   UNL     1      22.499  72.667  72.330  1.00  0.00     0.000 C 
BRANCH  18  19
ATOM     19  C   UNL     1      21.008  72.583  71.966  1.00  0.00     0.000 C 
BRANCH  19  20
ATOM     20  C   UNL     1      20.751  71.680  70.749  1.00  0.00     0.006 C 
BRANCH  20  21
ATOM     21  C   UNL     1      20.306  70.268  71.149  1.00  0.00     0.053 C 
BRANCH  21  22
ATOM     22  C   UNL     1      20.464  69.324  69.999  1.00  0.00     0.041 C 
ATOM     23  O   UNL     1      20.238  68.094  70.151  1.00  0.00    -0.550 OA
ATOM     24  O   UNL     1      20.811  69.809  68.744  1.00  0.00    -0.550 OA
ENDBRANCH  21  22
ENDBRANCH  20  21
ENDBRANCH  19  20
ENDBRANCH  18  19
ENDBRANCH  17  18
ENDBRANCH  16  17
ENDBRANCH  15  16
ENDBRANCH  14  15
ENDBRANCH  13  14
ENDBRANCH   1  13
TORSDOF 20
ENDMDL
MODEL 3
REMARK VINA RESULT:    -7.030      3.076      6.780
REMARK INTER + INTRA:         -17.442
REMARK INTER:                 -15.082
REMARK INTRA:                  -2.359
REMARK UNBOUND:                -2.193
REMARK SMILES CCCCCCCCCCCCCCCCCCCCCC(=O)[O-]
REMARK SMILES IDX 12 1 11 2 10 3 9 4 8 5 7 6 6 7 5 8 4 9 3 10 2 11 1 12 13 13
REMARK SMILES IDX 14 14 15 15 16 16 17 17 18 18 19 19 20 20 21 21 22 22 23 23
REMARK SMILES IDX 24 24
REMARK H PARENT
REMARK Flexibility Score: inf
ROOT
ATOM      1  C   UNL     1      14.949  70.501  76.552  1.00  0.00     0.000 C 
ENDROOT
BRANCH   1   2
ATOM      2  C   UNL     1      16.164  71.126  75.850  1.00  0.00     0.000 C 
BRANCH   2   3
ATOM      3  C   UNL     1      17.295  71.482  76.830  1.00  0.00     0.000 C 
BRANCH   3   4
ATOM      4  C   UNL     1      17.003  71.014  78.266  1.00  0.00    -0.000 C 
BRANCH   4   5
ATOM      5  C   UNL     1      17.997  71.584  79.293  1.00  0.00    -0.000 C 
BRANCH   5   6
ATOM      6  C   UNL     1      18.288  70.667  80.499  1.00  0.00    -0.000 C 
BRANCH   6   7
ATOM      7  C   UNL     1      19.681  70.010  80.498  1.00  0.00    -0.000 C 
BRANCH   7   8
ATOM      8  C   UNL     1      19.728  68.587  79.908  1.00  0.00    -0.000 C 
BRANCH   8   9
ATOM      9  C   UNL     1      19.708  68.517  78.368  1.00  0.00    -0.000 C 
BRANCH   9  10
ATOM     10  C   UNL     1      20.954  69.099  77.675  1.00  0.00    -0.000 C 
BRANCH  10  11
ATOM     11  C   UNL     1      20.608  69.947  76.443  1.00  0.00    -0.003 C 
ATOM     12  C   UNL     1      21.812  70.081  75.514  1.00  0.00     0.004 C 
ENDBRANCH  10  11
ENDBRANCH   9  10
ENDBRANCH   8   9
ENDBRANCH   7   8
ENDBRANCH   6   7
ENDBRANCH   5   6
ENDBRANCH   4   5
ENDBRANCH   3   4
ENDBRANCH   2   3
ENDBRANCH   1   2
BRANCH   1  13
ATOM     13  C   UNL     1      14.004  69.845  75.535  1.00  0.00     0.000 C 
BRANCH  13  14
ATOM     14  C   UNL     1      13.762  70.716  74.288  1.00  0.00     0.000 C 
BRANCH  14  15
ATOM     15  C   UNL     1      14.044  70.021  72.943  1.00  0.00     0.000 C 
BRANCH  15  16
ATOM     16  C   UNL     1      15.318  70.536  72.257  1.00  0.00     0.000 C 
BRANCH  16  17
ATOM     17  C   UNL     1      15.414  72.065  72.362  1.00  0.00     0.000 C 
BRANCH  17  18
ATOM     18  C   UNL     1      16.811  72.595  72.001  1.00  0.00     0.000 C 
BRANCH  18  19
ATOM     19  C   UNL     1      17.936  71.778  72.659  1.00  0.00     0.000 C 
BRANCH  19  20
ATOM     20  C   UNL     1      19.259  71.869  71.882  1.00  0.00     0.006 C 
BRANCH  20  21
ATOM     21  C   UNL     1      20.232  70.741  72.244  1.00  0.00     0.053 C 
BRANCH  21  22
ATOM     22  C   UNL     1      20.723  70.057  71.007  1.00  0.00     0.041 C 
ATOM     23  O   UNL     1      20.741  68.799  70.942  1.00  0.00    -0.550 OA
ATOM     24  O   UNL     1      21.115  70.808  69.906  1.00  0.00    -0.550 OA
ENDBRANCH  21  22
ENDBRANCH  20  21
ENDBRANCH  19  20
ENDBRANCH  18  19
ENDBRANCH  17  18
ENDBRANCH  16  17
ENDBRANCH  15  16
ENDBRANCH  14  15
ENDBRANCH  13  14
ENDBRANCH   1  13
TORSDOF 20
ENDMDL
MODEL 4
REMARK VINA RESULT:    -6.943      3.150      5.949
REMARK INTER + INTRA:         -17.253
REMARK INTER:                 -14.711
REMARK INTRA:                  -2.542
REMARK UNBOUND:                -2.193
REMARK SMILES CCCCCCCCCCCCCCCCCCCCCC(=O)[O-]
REMARK SMILES IDX 12 1 11 2 10 3 9 4 8 5 7 6 6 7 5 8 4 9 3 10 2 11 1 12 13 13
REMARK SMILES IDX 14 14 15 15 16 16 17 17 18 18 19 19 20 20 21 21 22 22 23 23
REMARK SMILES IDX 24 24
REMARK H PARENT
REMARK Flexibility Score: inf
ROOT
ATOM      1  C   UNL     1      17.445  69.733  79.297  1.00  0.00     0.000 C 
ENDROOT
BRANCH   1   2
ATOM      2  C   UNL     1      16.585  70.755  78.539  1.00  0.00     0.000 C 
BRANCH   2   3
ATOM      3  C   UNL     1      17.182  71.132  77.172  1.00  0.00     0.000 C 
BRANCH   3   4
ATOM      4  C   UNL     1      16.150  71.062  76.035  1.00  0.00    -0.000 C 
BRANCH   4   5
ATOM      5  C   UNL     1      14.761  70.607  76.517  1.00  0.00    -0.000 C 
BRANCH   5   6
ATOM      6  C   UNL     1      13.941  69.804  75.486  1.00  0.00    -0.000 C 
BRANCH   6   7
ATOM      7  C   UNL     1      14.442  69.906  74.033  1.00  0.00    -0.000 C 
BRANCH   7   8
ATOM      8  C   UNL     1      13.670  70.905  73.148  1.00  0.00    -0.000 C 
BRANCH   8   9
ATOM      9  C   UNL     1      14.293  72.312  73.054  1.00  0.00    -0.000 C 
BRANCH   9  10
ATOM     10  C   UNL     1      15.507  72.423  72.113  1.00  0.00    -0.000 C 
BRANCH  10  11
ATOM     11  C   UNL     1      16.828  72.634  72.867  1.00  0.00    -0.003 C 
ATOM     12  C   UNL     1      17.862  73.321  71.980  1.00  0.00     0.004 C 
ENDBRANCH  10  11
ENDBRANCH   9  10
ENDBRANCH   8   9
ENDBRANCH   7   8
ENDBRANCH   6   7
ENDBRANCH   5   6
ENDBRANCH   4   5
ENDBRANCH   3   4
ENDBRANCH   2   3
ENDBRANCH   1   2
BRANCH   1  13
ATOM     13  C   UNL     1      18.839  70.303  79.599  1.00  0.00     0.000 C 
BRANCH  13  14
ATOM     14  C   UNL     1      19.977  69.328  79.242  1.00  0.00     0.000 C 
BRANCH  14  15
ATOM     15  C   UNL     1      20.064  68.943  77.754  1.00  0.00     0.000 C 
BRANCH  15  16
ATOM     16  C   UNL     1      21.476  69.104  77.173  1.00  0.00     0.000 C 
BRANCH  16  17
ATOM     17  C   UNL     1      21.494  70.171  76.068  1.00  0.00     0.000 C 
BRANCH  17  18
ATOM     18  C   UNL     1      20.468  69.887  74.959  1.00  0.00     0.000 C 
BRANCH  18  19
ATOM     19  C   UNL     1      19.816  71.172  74.421  1.00  0.00     0.000 C 
BRANCH  19  20
ATOM     20  C   UNL     1      20.846  72.278  74.138  1.00  0.00     0.006 C 
BRANCH  20  21
ATOM     21  C   UNL     1      21.561  72.085  72.796  1.00  0.00     0.053 C 
BRANCH  21  22
ATOM     22  C   UNL     1      23.040  71.981  73.001  1.00  0.00     0.041 C 
ATOM     23  O   UNL     1      23.785  72.968  72.761  1.00  0.00    -0.550 OA
ATOM     24  O   UNL     1      23.591  70.809  73.504  1.00  0.00    -0.550 OA
ENDBRANCH  21  22
ENDBRANCH  20  21
ENDBRANCH  19  20
ENDBRANCH  18  19
ENDBRANCH  17  18
ENDBRANCH  16  17
ENDBRANCH  15  16
ENDBRANCH  14  15
ENDBRANCH  13  14
ENDBRANCH   1  13
TORSDOF 20
ENDMDL
MODEL 5
REMARK VINA RESULT:    -6.913      3.122      6.153
REMARK INTER + INTRA:         -17.189
REMARK INTER:                 -14.950
REMARK INTRA:                  -2.239
REMARK UNBOUND:                -2.193
REMARK SMILES CCCCCCCCCCCCCCCCCCCCCC(=O)[O-]
REMARK SMILES IDX 12 1 11 2 10 3 9 4 8 5 7 6 6 7 5 8 4 9 3 10 2 11 1 12 13 13
REMARK SMILES IDX 14 14 15 15 16 16 17 17 18 18 19 19 20 20 21 21 22 22 23 23
REMARK SMILES IDX 24 24
REMARK H PARENT
REMARK Flexibility Score: inf
ROOT
ATOM      1  C   UNL     1      13.860  70.630  74.149  1.00  0.00     0.000 C 
ENDROOT
BRANCH   1   2
ATOM      2  C   UNL     1      13.969  69.763  75.412  1.00  0.00     0.000 C 
BRANCH   2   3
ATOM      3  C   UNL     1      14.848  70.406  76.498  1.00  0.00     0.000 C 
BRANCH   3   4
ATOM      4  C   UNL     1      16.064  71.145  75.913  1.00  0.00    -0.000 C 
BRANCH   4   5
ATOM      5  C   UNL     1      17.093  71.543  76.986  1.00  0.00    -0.000 C 
BRANCH   5   6
ATOM      6  C   UNL     1      16.707  71.173  78.432  1.00  0.00    -0.000 C 
BRANCH   6   7
ATOM      7  C   UNL     1      17.518  70.017  79.049  1.00  0.00    -0.000 C 
BRANCH   7   8
ATOM      8  C   UNL     1      19.047  70.207  79.016  1.00  0.00    -0.000 C 
BRANCH   8   9
ATOM      9  C   UNL     1      19.863  69.046  79.620  1.00  0.00    -0.000 C 
BRANCH   9  10
ATOM     10  C   UNL     1      21.117  68.648  78.820  1.00  0.00    -0.000 C 
BRANCH  10  11
ATOM     11  C   UNL     1      21.025  69.032  77.336  1.00  0.00    -0.003 C 
ATOM     12  C   UNL     1      22.372  69.521  76.811  1.00  0.00     0.004 C 
ENDBRANCH  10  11
ENDBRANCH   9  10
ENDBRANCH   8   9
ENDBRANCH   7   8
ENDBRANCH   6   7
ENDBRANCH   5   6
ENDBRANCH   4   5
ENDBRANCH   3   4
ENDBRANCH   2   3
ENDBRANCH   1   2
BRANCH   1  13
ATOM     13  C   UNL     1      14.440  69.901  72.929  1.00  0.00     0.000 C 
BRANCH  13  14
ATOM     14  C   UNL     1      15.312  70.811  72.042  1.00  0.00     0.000 C 
BRANCH  14  15
ATOM     15  C   UNL     1      15.701  72.160  72.676  1.00  0.00     0.000 C 
BRANCH  15  16
ATOM     16  C   UNL     1      17.021  72.721  72.128  1.00  0.00     0.000 C 
BRANCH  16  17
ATOM     17  C   UNL     1      18.156  71.698  72.288  1.00  0.00     0.000 C 
BRANCH  17  18
ATOM     18  C   UNL     1      18.930  71.876  73.604  1.00  0.00     0.000 C 
BRANCH  18  19
ATOM     19  C   UNL     1      19.809  70.659  73.937  1.00  0.00     0.000 C 
BRANCH  19  20
ATOM     20  C   UNL     1      21.075  70.595  73.068  1.00  0.00     0.006 C 
BRANCH  20  21
ATOM     21  C   UNL     1      21.757  71.961  72.921  1.00  0.00     0.053 C 
BRANCH  21  22
ATOM     22  C   UNL     1      23.211  71.859  73.261  1.00  0.00     0.041 C 
ATOM     23  O   UNL     1      23.695  70.766  73.655  1.00  0.00    -0.550 OA
ATOM     24  O   UNL     1      24.043  72.960  73.093  1.00  0.00    -0.550 OA
ENDBRANCH  21  22
ENDBRANCH  20  21
ENDBRANCH  19  20
ENDBRANCH  18  19
ENDBRANCH  17  18
ENDBRANCH  16  17
ENDBRANCH  15  16
ENDBRANCH  14  15
ENDBRANCH  13  14
ENDBRANCH   1  13
TORSDOF 20
ENDMDL
MODEL 6
REMARK VINA RESULT:    -6.890      1.415      3.403
REMARK INTER + INTRA:         -17.139
REMARK INTER:                 -14.415
REMARK INTRA:                  -2.724
REMARK UNBOUND:                -2.193
REMARK SMILES CCCCCCCCCCCCCCCCCCCCCC(=O)[O-]
REMARK SMILES IDX 12 1 11 2 10 3 9 4 8 5 7 6 6 7 5 8 4 9 3 10 2 11 1 12 13 13
REMARK SMILES IDX 14 14 15 15 16 16 17 17 18 18 19 19 20 20 21 21 22 22 23 23
REMARK SMILES IDX 24 24
REMARK H PARENT
REMARK Flexibility Score: inf
ROOT
ATOM      1  C   UNL     1      16.351  71.146  71.993  1.00  0.00     0.000 C 
ENDROOT
BRANCH   1   2
ATOM      2  C   UNL     1      17.117  72.476  71.954  1.00  0.00     0.000 C 
BRANCH   2   3
ATOM      3  C   UNL     1      18.052  72.656  73.162  1.00  0.00     0.000 C 
BRANCH   3   4
ATOM      4  C   UNL     1      18.470  71.316  73.791  1.00  0.00    -0.000 C 
BRANCH   4   5
ATOM      5  C   UNL     1      19.508  71.481  74.916  1.00  0.00    -0.000 C 
BRANCH   5   6
ATOM      6  C   UNL     1      20.541  70.342  75.025  1.00  0.00    -0.000 C 
BRANCH   6   7
ATOM      7  C   UNL     1      21.891  70.617  74.333  1.00  0.00    -0.000 C 
BRANCH   7   8
ATOM      8  C   UNL     1      21.967  70.171  72.859  1.00  0.00    -0.000 C 
BRANCH   8   9
ATOM      9  C   UNL     1      21.807  71.304  71.825  1.00  0.00    -0.000 C 
BRANCH   9  10
ATOM     10  C   UNL     1      20.696  71.080  70.783  1.00  0.00    -0.000 C 
BRANCH  10  11
ATOM     11  C   UNL     1      20.119  69.657  70.823  1.00  0.00    -0.003 C 
ATOM     12  C   UNL     1      20.354  68.933  69.500  1.00  0.00     0.004 C 
ENDBRANCH  10  11
ENDBRANCH   9  10
ENDBRANCH   8   9
ENDBRANCH   7   8
ENDBRANCH   6   7
ENDBRANCH   5   6
ENDBRANCH   4   5
ENDBRANCH   3   4
ENDBRANCH   2   3
ENDBRANCH   1   2
BRANCH   1  13
ATOM     13  C   UNL     1      14.910  71.355  72.481  1.00  0.00     0.000 C 
BRANCH  13  14
ATOM     14  C   UNL     1      14.383  70.178  73.325  1.00  0.00     0.000 C 
BRANCH  14  15
ATOM     15  C   UNL     1      13.587  70.581  74.580  1.00  0.00     0.000 C 
BRANCH  15  16
ATOM     16  C   UNL     1      14.225  70.077  75.883  1.00  0.00     0.000 C 
BRANCH  16  17
ATOM     17  C   UNL     1      15.546  70.809  76.161  1.00  0.00     0.000 C 
BRANCH  17  18
ATOM     18  C   UNL     1      15.924  70.799  77.651  1.00  0.00     0.000 C 
BRANCH  18  19
ATOM     19  C   UNL     1      17.444  70.873  77.872  1.00  0.00     0.000 C 
BRANCH  19  20
ATOM     20  C   UNL     1      17.828  70.753  79.355  1.00  0.00     0.006 C 
BRANCH  20  21
ATOM     21  C   UNL     1      19.196  70.092  79.556  1.00  0.00     0.053 C 
BRANCH  21  22
ATOM     22  C   UNL     1      19.218  68.733  78.931  1.00  0.00     0.041 C 
ATOM     23  O   UNL     1      20.046  68.467  78.020  1.00  0.00    -0.550 OA
ATOM     24  O   UNL     1      18.357  67.743  79.388  1.00  0.00    -0.550 OA
ENDBRANCH  21  22
ENDBRANCH  20  21
ENDBRANCH  19  20
ENDBRANCH  18  19
ENDBRANCH  17  18
ENDBRANCH  16  17
ENDBRANCH  15  16
ENDBRANCH  14  15
ENDBRANCH  13  14
ENDBRANCH   1  13
TORSDOF 20
ENDMDL
MODEL 7
REMARK VINA RESULT:    -6.888      2.723      6.788
REMARK INTER + INTRA:         -17.134
REMARK INTER:                 -14.472
REMARK INTRA:                  -2.661
REMARK UNBOUND:                -2.193
REMARK SMILES CCCCCCCCCCCCCCCCCCCCCC(=O)[O-]
REMARK SMILES IDX 12 1 11 2 10 3 9 4 8 5 7 6 6 7 5 8 4 9 3 10 2 11 1 12 13 13
REMARK SMILES IDX 14 14 15 15 16 16 17 17 18 18 19 19 20 20 21 21 22 22 23 23
REMARK SMILES IDX 24 24
REMARK H PARENT
REMARK Flexibility Score: inf
ROOT
ATOM      1  C   UNL     1      14.184  70.605  75.855  1.00  0.00     0.000 C 
ENDROOT
BRANCH   1   2
ATOM      2  C   UNL     1      15.520  70.729  76.604  1.00  0.00     0.000 C 
BRANCH   2   3
ATOM      3  C   UNL     1      16.638  71.317  75.726  1.00  0.00     0.000 C 
BRANCH   3   4
ATOM      4  C   UNL     1      17.971  71.456  76.480  1.00  0.00    -0.000 C 
BRANCH   4   5
ATOM      5  C   UNL     1      19.190  71.107  75.608  1.00  0.00    -0.000 C 
BRANCH   5   6
ATOM      6  C   UNL     1      20.285  70.284  76.316  1.00  0.00    -0.000 C 
BRANCH   6   7
ATOM      7  C   UNL     1      19.768  69.241  77.326  1.00  0.00    -0.000 C 
BRANCH   7   8
ATOM      8  C   UNL     1      20.560  69.168  78.647  1.00  0.00    -0.000 C 
BRANCH   8   9
ATOM      9  C   UNL     1      19.727  69.403  79.923  1.00  0.00    -0.000 C 
BRANCH   9  10
ATOM     10  C   UNL     1      18.943  70.728  79.952  1.00  0.00    -0.000 C 
BRANCH  10  11
ATOM     11  C   UNL     1      17.423  70.523  79.894  1.00  0.00    -0.003 C 
ATOM     12  C   UNL     1      17.003  69.297  80.699  1.00  0.00     0.004 C 
ENDBRANCH  10  11
ENDBRANCH   9  10
ENDBRANCH   8   9
ENDBRANCH   7   8
ENDBRANCH   6   7
ENDBRANCH   5   6
ENDBRANCH   4   5
ENDBRANCH   3   4
ENDBRANCH   2   3
ENDBRANCH   1   2
BRANCH   1  13
ATOM     13  C   UNL     1      14.326  69.698  74.624  1.00  0.00     0.000 C 
BRANCH  13  14
ATOM     14  C   UNL     1      13.883  70.382  73.317  1.00  0.00     0.000 C 
BRANCH  14  15
ATOM     15  C   UNL     1      15.029  70.927  72.445  1.00  0.00     0.000 C 
BRANCH  15  16
ATOM     16  C   UNL     1      15.126  72.460  72.471  1.00  0.00     0.000 C 
BRANCH  16  17
ATOM     17  C   UNL     1      16.424  72.935  71.802  1.00  0.00     0.000 C 
BRANCH  17  18
ATOM     18  C   UNL     1      17.621  72.027  72.126  1.00  0.00     0.000 C 
BRANCH  18  19
ATOM     19  C   UNL     1      18.890  72.827  72.464  1.00  0.00     0.000 C 
BRANCH  19  20
ATOM     20  C   UNL     1      20.175  72.092  72.052  1.00  0.00     0.006 C 
BRANCH  20  21
ATOM     21  C   UNL     1      19.891  70.813  71.256  1.00  0.00     0.053 C 
BRANCH  21  22
ATOM     22  C   UNL     1      20.865  69.739  71.625  1.00  0.00     0.041 C 
ATOM     23  O   UNL     1      20.959  68.698  70.922  1.00  0.00    -0.550 OA
ATOM     24  O   UNL     1      21.706  69.909  72.718  1.00  0.00    -0.550 OA
ENDBRANCH  21  22
ENDBRANCH  20  21
ENDBRANCH  19  20
ENDBRANCH  18  19
ENDBRANCH  17  18
ENDBRANCH  16  17
ENDBRANCH  15  16
ENDBRANCH  14  15
ENDBRANCH  13  14
ENDBRANCH   1  13
TORSDOF 20
ENDMDL
MODEL 8
REMARK VINA RESULT:    -6.818      1.452      5.058
REMARK INTER + INTRA:         -16.982
REMARK INTER:                 -14.676
REMARK INTRA:                  -2.306
REMARK UNBOUND:                -2.193
REMARK SMILES CCCCCCCCCCCCCCCCCCCCCC(=O)[O-]
REMARK SMILES IDX 12 1 11 2 10 3 9 4 8 5 7 6 6 7 5 8 4 9 3 10 2 11 1 12 13 13
REMARK SMILES IDX 14 14 15 15 16 16 17 17 18 18 19 19 20 20 21 21 22 22 23 23
REMARK SMILES IDX 24 24
REMARK H PARENT
REMARK Flexibility Score: inf
ROOT
ATOM      1  C   UNL     1      20.802  69.712  71.819  1.00  0.00     0.000 C 
ENDROOT
BRANCH   1   2
ATOM      2  C   UNL     1      20.677  70.522  70.520  1.00  0.00     0.000 C 
BRANCH   2   3
ATOM      3  C   UNL     1      21.550  71.789  70.526  1.00  0.00     0.000 C 
BRANCH   3   4
ATOM      4  C   UNL     1      20.721  73.079  70.637  1.00  0.00    -0.000 C 
BRANCH   4   5
ATOM      5  C   UNL     1      19.592  72.975  71.678  1.00  0.00    -0.000 C 
BRANCH   5   6
ATOM      6  C   UNL     1      18.282  73.692  71.294  1.00  0.00    -0.000 C 
BRANCH   6   7
ATOM      7  C   UNL     1      17.014  73.144  71.978  1.00  0.00    -0.000 C 
BRANCH   7   8
ATOM      8  C   UNL     1      16.955  71.608  72.102  1.00  0.00    -0.000 C 
BRANCH   8   9
ATOM      9  C   UNL     1      15.563  71.033  72.429  1.00  0.00    -0.000 C 
BRANCH   9  10
ATOM     10  C   UNL     1      15.197  71.025  73.924  1.00  0.00    -0.000 C 
BRANCH  10  11
ATOM     11  C   UNL     1      14.160  69.950  74.279  1.00  0.00    -0.003 C 
ATOM     12  C   UNL     1      13.988  69.830  75.790  1.00  0.00     0.004 C 
ENDBRANCH  10  11
ENDBRANCH   9  10
ENDBRANCH   8   9
ENDBRANCH   7   8
ENDBRANCH   6   7
ENDBRANCH   5   6
ENDBRANCH   4   5
ENDBRANCH   3   4
ENDBRANCH   2   3
ENDBRANCH   1   2
BRANCH   1  13
ATOM     13  C   UNL     1      21.965  70.229  72.680  1.00  0.00     0.000 C 
BRANCH  13  14
ATOM     14  C   UNL     1      21.524  70.656  74.093  1.00  0.00     0.000 C 
BRANCH  14  15
ATOM     15  C   UNL     1      20.089  70.252  74.478  1.00  0.00     0.000 C 
BRANCH  15  16
ATOM     16  C   UNL     1      19.686  70.733  75.880  1.00  0.00     0.000 C 
BRANCH  16  17
ATOM     17  C   UNL     1      18.451  71.643  75.810  1.00  0.00     0.000 C 
BRANCH  17  18
ATOM     18  C   UNL     1      17.413  71.313  76.895  1.00  0.00     0.000 C 
BRANCH  18  19
ATOM     19  C   UNL     1      17.978  71.476  78.316  1.00  0.00     0.000 C 
BRANCH  19  20
ATOM     20  C   UNL     1      18.072  70.138  79.067  1.00  0.00     0.006 C 
BRANCH  20  21
ATOM     21  C   UNL     1      19.189  70.131  80.118  1.00  0.00     0.053 C 
BRANCH  21  22
ATOM     22  C   UNL     1      20.059  68.925  79.948  1.00  0.00     0.041 C 
ATOM     23  O   UNL     1      20.099  68.041  80.844  1.00  0.00    -0.550 OA
ATOM     24  O   UNL     1      20.788  68.753  78.777  1.00  0.00    -0.550 OA
ENDBRANCH  21  22
ENDBRANCH  20  21
ENDBRANCH  19  20
ENDBRANCH  18  19
ENDBRANCH  17  18
ENDBRANCH  16  17
ENDBRANCH  15  16
ENDBRANCH  14  15
ENDBRANCH  13  14
ENDBRANCH   1  13
TORSDOF 20
ENDMDL
MODEL 9
REMARK VINA RESULT:    -6.789      2.173      5.168
REMARK INTER + INTRA:         -16.919
REMARK INTER:                 -14.096
REMARK INTRA:                  -2.823
REMARK UNBOUND:                -2.193
REMARK SMILES CCCCCCCCCCCCCCCCCCCCCC(=O)[O-]
REMARK SMILES IDX 12 1 11 2 10 3 9 4 8 5 7 6 6 7 5 8 4 9 3 10 2 11 1 12 13 13
REMARK SMILES IDX 14 14 15 15 16 16 17 17 18 18 19 19 20 20 21 21 22 22 23 23
REMARK SMILES IDX 24 24
REMARK H PARENT
REMARK Flexibility Score: inf
ROOT
ATOM      1  C   UNL     1      18.843  71.124  74.095  1.00  0.00     0.000 C 
ENDROOT
BRANCH   1   2
ATOM      2  C   UNL     1      20.156  70.956  74.874  1.00  0.00     0.000 C 
BRANCH   2   3
ATOM      3  C   UNL     1      21.331  70.543  73.971  1.00  0.00     0.000 C 
BRANCH   3   4
ATOM      4  C   UNL     1      22.630  71.294  74.308  1.00  0.00    -0.000 C 
BRANCH   4   5
ATOM      5  C   UNL     1      22.745  72.645  73.581  1.00  0.00    -0.000 C 
BRANCH   5   6
ATOM      6  C   UNL     1      23.408  72.584  72.190  1.00  0.00    -0.000 C 
BRANCH   6   7
ATOM      7  C   UNL     1      22.624  73.281  71.062  1.00  0.00    -0.000 C 
BRANCH   7   8
ATOM      8  C   UNL     1      21.246  72.662  70.750  1.00  0.00    -0.000 C 
BRANCH   8   9
ATOM      9  C   UNL     1      21.284  71.209  70.236  1.00  0.00    -0.000 C 
BRANCH   9  10
ATOM     10  C   UNL     1      20.102  70.330  70.686  1.00  0.00    -0.000 C 
BRANCH  10  11
ATOM     11  C   UNL     1      20.362  68.831  70.481  1.00  0.00    -0.003 C 
ATOM     12  C   UNL     1      20.437  68.485  68.997  1.00  0.00     0.004 C 
ENDBRANCH  10  11
ENDBRANCH   9  10
ENDBRANCH   8   9
ENDBRANCH   7   8
ENDBRANCH   6   7
ENDBRANCH   5   6
ENDBRANCH   4   5
ENDBRANCH   3   4
ENDBRANCH   2   3
ENDBRANCH   1   2
BRANCH   1  13
ATOM     13  C   UNL     1      18.785  72.494  73.404  1.00  0.00     0.000 C 
BRANCH  13  14
ATOM     14  C   UNL     1      17.759  72.546  72.255  1.00  0.00     0.000 C 
BRANCH  14  15
ATOM     15  C   UNL     1      16.290  72.378  72.686  1.00  0.00     0.000 C 
BRANCH  15  16
ATOM     16  C   UNL     1      15.649  71.091  72.146  1.00  0.00     0.000 C 
BRANCH  16  17
ATOM     17  C   UNL     1      14.276  70.853  72.792  1.00  0.00     0.000 C 
BRANCH  17  18
ATOM     18  C   UNL     1      14.343  69.870  73.972  1.00  0.00     0.000 C 
BRANCH  18  19
ATOM     19  C   UNL     1      13.766  70.467  75.266  1.00  0.00     0.000 C 
BRANCH  19  20
ATOM     20  C   UNL     1      14.734  70.342  76.453  1.00  0.00     0.006 C 
BRANCH  20  21
ATOM     21  C   UNL     1      16.040  71.113  76.229  1.00  0.00     0.053 C 
BRANCH  21  22
ATOM     22  C   UNL     1      16.854  71.141  77.485  1.00  0.00     0.041 C 
ATOM     23  O   UNL     1      16.681  70.264  78.372  1.00  0.00    -0.550 OA
ATOM     24  O   UNL     1      17.839  72.106  77.654  1.00  0.00    -0.550 OA
ENDBRANCH  21  22
ENDBRANCH  20  21
ENDBRANCH  19  20
ENDBRANCH  18  19
ENDBRANCH  17  18
ENDBRANCH  16  17
ENDBRANCH  15  16
ENDBRANCH  14  15
ENDBRANCH  13  14
ENDBRANCH   1  13
TORSDOF 20
ENDMDL
