MODEL 1
REMARK VINA RESULT:    -7.958      0.000      0.000
REMARK INTER + INTRA:          -9.932
REMARK INTER:                  -9.819
REMARK INTRA:                  -0.113
REMARK UNBOUND:                -0.113
REMARK SMILES Oc1cc(O)c2cc(O)c(-c3cc(O)c(O)c(O)c3)[o+]c2c1
REMARK SMILES IDX 10 1 20 2 21 3 22 4 2 5 3 6 4 7 6 8 7 9 8 10 11 11 12 12
REMARK SMILES IDX 13 13 19 14 15 15 17 16 14 17 16 19 18 21 9 23 1 25 5 27
REMARK H PARENT 14 18 16 20 18 22 9 24 1 26 5 28
REMARK Flexibility Score: inf
ROOT
ATOM      1  C   UNL     1      17.872 -20.113   1.457  1.00  0.00     0.402 A 
ATOM      2  O   UNL     1      19.070 -19.643   1.795  1.00  0.00    -0.202 OA
ATOM      3  C   UNL     1      20.106 -19.619   0.962  1.00  0.00     0.368 A 
ATOM      4  C   UNL     1      21.325 -19.103   1.409  1.00  0.00     0.162 A 
ATOM      5  C   UNL     1      22.431 -19.063   0.555  1.00  0.00     0.128 A 
ATOM      6  C   UNL     1      22.315 -19.541  -0.753  1.00  0.00     0.093 A 
ATOM      7  C   UNL     1      21.105 -20.063  -1.225  1.00  0.00     0.136 A 
ATOM      8  C   UNL     1      19.981 -20.108  -0.360  1.00  0.00     0.125 A 
ATOM      9  C   UNL     1      18.733 -20.626  -0.743  1.00  0.00     0.078 A 
ATOM     10  C   UNL     1      17.671 -20.641   0.168  1.00  0.00     0.223 A 
ENDROOT
BRANCH   1  11
ATOM     11  C   UNL     1      16.794 -20.076   2.470  1.00  0.00     0.091 A 
ATOM     12  C   UNL     1      16.942 -20.697   3.719  1.00  0.00     0.068 A 
ATOM     13  C   UNL     1      15.905 -20.671   4.655  1.00  0.00     0.162 A 
ATOM     14  C   UNL     1      15.574 -19.458   2.157  1.00  0.00     0.068 A 
ATOM     15  C   UNL     1      14.690 -20.030   4.350  1.00  0.00     0.200 A 
ATOM     16  C   UNL     1      14.526 -19.422   3.082  1.00  0.00     0.162 A 
BRANCH  13  17
ATOM     17  O   UNL     1      16.100 -21.295   5.888  1.00  0.00    -0.504 OA
ATOM     18  H   UNL     1      17.009 -21.622   6.192  1.00  0.00     0.293 HD
ENDBRANCH  13  17
BRANCH  15  19
ATOM     19  O   UNL     1      13.682 -20.020   5.318  1.00  0.00    -0.502 OA
ATOM     20  H   UNL     1      13.258 -20.851   5.705  1.00  0.00     0.293 HD
ENDBRANCH  15  19
BRANCH  16  21
ATOM     21  O   UNL     1      13.346 -18.778   2.701  1.00  0.00    -0.504 OA
ATOM     22  H   UNL     1      12.605 -19.218   2.175  1.00  0.00     0.293 HD
ENDBRANCH  16  21
ENDBRANCH   1  11
BRANCH  10  23
ATOM     23  O   UNL     1      16.446 -21.200  -0.195  1.00  0.00    -0.500 OA
ATOM     24  H   UNL     1      16.089 -21.132  -1.141  1.00  0.00     0.294 HD
ENDBRANCH  10  23
BRANCH   5  25
ATOM     25  O   UNL     1      23.649 -18.550   0.993  1.00  0.00    -0.507 OA
ATOM     26  H   UNL     1      24.267 -18.046   0.367  1.00  0.00     0.293 HD
ENDBRANCH   5  25
BRANCH   7  27
ATOM     27  O   UNL     1      21.071 -20.517  -2.546  1.00  0.00    -0.507 OA
ATOM     28  H   UNL     1      20.553 -20.073  -3.290  1.00  0.00     0.293 HD
ENDBRANCH   7  27
TORSDOF 7
ENDMDL
MODEL 2
REMARK VINA RESULT:    -7.925      0.070      1.807
REMARK INTER + INTRA:          -9.891
REMARK INTER:                  -9.692
REMARK INTRA:                  -0.199
REMARK UNBOUND:                -0.113
REMARK SMILES Oc1cc(O)c2cc(O)c(-c3cc(O)c(O)c(O)c3)[o+]c2c1
REMARK SMILES IDX 10 1 20 2 21 3 22 4 2 5 3 6 4 7 6 8 7 9 8 10 11 11 12 12
REMARK SMILES IDX 13 13 19 14 15 15 17 16 14 17 16 19 18 21 9 23 1 25 5 27
REMARK H PARENT 14 18 16 20 18 22 9 24 1 26 5 28
REMARK Flexibility Score: inf
ROOT
ATOM      1  C   UNL     1      17.849 -20.121   1.401  1.00  0.00     0.402 A 
ATOM      2  O   UNL     1      19.032 -19.624   1.756  1.00  0.00    -0.202 OA
ATOM      3  C   UNL     1      20.085 -19.597   0.946  1.00  0.00     0.368 A 
ATOM      4  C   UNL     1      21.285 -19.051   1.409  1.00  0.00     0.162 A 
ATOM      5  C   UNL     1      22.407 -19.007   0.578  1.00  0.00     0.128 A 
ATOM      6  C   UNL     1      22.329 -19.510  -0.723  1.00  0.00     0.093 A 
ATOM      7  C   UNL     1      21.138 -20.061  -1.212  1.00  0.00     0.136 A 
ATOM      8  C   UNL     1      19.997 -20.111  -0.370  1.00  0.00     0.125 A 
ATOM      9  C   UNL     1      18.766 -20.658  -0.770  1.00  0.00     0.078 A 
ATOM     10  C   UNL     1      17.686 -20.676   0.119  1.00  0.00     0.223 A 
ENDROOT
BRANCH   1  11
ATOM     11  C   UNL     1      16.749 -20.085   2.390  1.00  0.00     0.091 A 
ATOM     12  C   UNL     1      15.544 -19.420   2.120  1.00  0.00     0.068 A 
ATOM     13  C   UNL     1      14.524 -19.377   3.074  1.00  0.00     0.162 A 
ATOM     14  C   UNL     1      16.932 -20.679   3.648  1.00  0.00     0.068 A 
ATOM     15  C   UNL     1      14.698 -19.993   4.327  1.00  0.00     0.200 A 
ATOM     16  C   UNL     1      15.921 -20.647   4.614  1.00  0.00     0.162 A 
BRANCH  13  17
ATOM     17  O   UNL     1      13.339 -18.710   2.758  1.00  0.00    -0.504 OA
ATOM     18  H   UNL     1      13.332 -17.809   2.296  1.00  0.00     0.293 HD
ENDBRANCH  13  17
BRANCH  15  19
ATOM     19  O   UNL     1      13.649 -19.935   5.249  1.00  0.00    -0.502 OA
ATOM     20  H   UNL     1      12.676 -19.851   4.995  1.00  0.00     0.293 HD
ENDBRANCH  15  19
BRANCH  16  21
ATOM     21  O   UNL     1      16.174 -21.270   5.838  1.00  0.00    -0.504 OA
ATOM     22  H   UNL     1      15.722 -22.119   6.146  1.00  0.00     0.293 HD
ENDBRANCH  16  21
ENDBRANCH   1  11
BRANCH  10  23
ATOM     23  O   UNL     1      16.479 -21.264  -0.260  1.00  0.00    -0.500 OA
ATOM     24  H   UNL     1      16.265 -22.230  -0.042  1.00  0.00     0.294 HD
ENDBRANCH  10  23
BRANCH   5  25
ATOM     25  O   UNL     1      23.607 -18.464   1.032  1.00  0.00    -0.507 OA
ATOM     26  H   UNL     1      23.736 -18.204   2.003  1.00  0.00     0.293 HD
ENDBRANCH   5  25
BRANCH   7  27
ATOM     27  O   UNL     1      21.141 -20.540  -2.525  1.00  0.00    -0.507 OA
ATOM     28  H   UNL     1      21.224 -19.958  -3.344  1.00  0.00     0.293 HD
ENDBRANCH   7  27
TORSDOF 7
ENDMDL
MODEL 3
REMARK VINA RESULT:    -7.487      1.077      7.002
REMARK INTER + INTRA:          -9.351
REMARK INTER:                  -9.202
REMARK INTRA:                  -0.149
REMARK UNBOUND:                -0.113
REMARK SMILES Oc1cc(O)c2cc(O)c(-c3cc(O)c(O)c(O)c3)[o+]c2c1
REMARK SMILES IDX 10 1 20 2 21 3 22 4 2 5 3 6 4 7 6 8 7 9 8 10 11 11 12 12
REMARK SMILES IDX 13 13 19 14 15 15 17 16 14 17 16 19 18 21 9 23 1 25 5 27
REMARK H PARENT 14 18 16 20 18 22 9 24 1 26 5 28
REMARK Flexibility Score: inf
ROOT
ATOM      1  C   UNL     1      18.309 -19.501   1.105  1.00  0.00     0.402 A 
ATOM      2  O   UNL     1      18.138 -20.048   2.306  1.00  0.00    -0.202 OA
ATOM      3  C   UNL     1      16.967 -20.077   2.934  1.00  0.00     0.368 A 
ATOM      4  C   UNL     1      16.886 -20.678   4.193  1.00  0.00     0.162 A 
ATOM      5  C   UNL     1      15.667 -20.725   4.876  1.00  0.00     0.128 A 
ATOM      6  C   UNL     1      14.524 -20.170   4.296  1.00  0.00     0.093 A 
ATOM      7  C   UNL     1      14.579 -19.563   3.035  1.00  0.00     0.136 A 
ATOM      8  C   UNL     1      15.814 -19.510   2.340  1.00  0.00     0.125 A 
ATOM      9  C   UNL     1      15.966 -18.909   1.079  1.00  0.00     0.078 A 
ATOM     10  C   UNL     1      17.219 -18.891   0.458  1.00  0.00     0.223 A 
ENDROOT
BRANCH   1  11
ATOM     11  C   UNL     1      19.661 -19.540   0.504  1.00  0.00     0.091 A 
ATOM     12  C   UNL     1      20.762 -18.945   1.139  1.00  0.00     0.068 A 
ATOM     13  C   UNL     1      22.027 -18.973   0.546  1.00  0.00     0.162 A 
ATOM     14  C   UNL     1      19.839 -20.133  -0.755  1.00  0.00     0.068 A 
ATOM     15  C   UNL     1      22.210 -19.589  -0.706  1.00  0.00     0.200 A 
ATOM     16  C   UNL     1      21.098 -20.170  -1.363  1.00  0.00     0.162 A 
BRANCH  13  17
ATOM     17  O   UNL     1      23.094 -18.375   1.217  1.00  0.00    -0.504 OA
ATOM     18  H   UNL     1      23.927 -18.890   1.478  1.00  0.00     0.293 HD
ENDBRANCH  13  17
BRANCH  15  19
ATOM     19  O   UNL     1      23.494 -19.602  -1.260  1.00  0.00    -0.502 OA
ATOM     20  H   UNL     1      23.692 -19.809  -2.227  1.00  0.00     0.293 HD
ENDBRANCH  15  19
BRANCH  16  21
ATOM     21  O   UNL     1      21.197 -20.789  -2.611  1.00  0.00    -0.504 OA
ATOM     22  H   UNL     1      21.869 -20.531  -3.319  1.00  0.00     0.293 HD
ENDBRANCH  16  21
ENDBRANCH   1  11
BRANCH  10  23
ATOM     23  O   UNL     1      17.380 -18.252  -0.771  1.00  0.00    -0.500 OA
ATOM     24  H   UNL     1      16.900 -18.571  -1.605  1.00  0.00     0.294 HD
ENDBRANCH  10  23
BRANCH   5  25
ATOM     25  O   UNL     1      15.578 -21.323   6.131  1.00  0.00    -0.507 OA
ATOM     26  H   UNL     1      16.393 -21.717   6.588  1.00  0.00     0.293 HD
ENDBRANCH   5  25
BRANCH   7  27
ATOM     27  O   UNL     1      13.390 -19.034   2.523  1.00  0.00    -0.507 OA
ATOM     28  H   UNL     1      12.841 -19.465   1.795  1.00  0.00     0.293 HD
ENDBRANCH   7  27
TORSDOF 7
ENDMDL
MODEL 4
REMARK VINA RESULT:    -7.194      1.158      7.190
REMARK INTER + INTRA:          -8.990
REMARK INTER:                  -8.702
REMARK INTRA:                  -0.288
REMARK UNBOUND:                -0.113
REMARK SMILES Oc1cc(O)c2cc(O)c(-c3cc(O)c(O)c(O)c3)[o+]c2c1
REMARK SMILES IDX 10 1 20 2 21 3 22 4 2 5 3 6 4 7 6 8 7 9 8 10 11 11 12 12
REMARK SMILES IDX 13 13 19 14 15 15 17 16 14 17 16 19 18 21 9 23 1 25 5 27
REMARK H PARENT 14 18 16 20 18 22 9 24 1 26 5 28
REMARK Flexibility Score: inf
ROOT
ATOM      1  C   UNL     1      18.502 -19.968   2.039  1.00  0.00     0.402 A 
ATOM      2  O   UNL     1      17.405 -19.261   1.776  1.00  0.00    -0.202 OA
ATOM      3  C   UNL     1      16.307 -19.314   2.522  1.00  0.00     0.368 A 
ATOM      4  C   UNL     1      15.206 -18.531   2.167  1.00  0.00     0.162 A 
ATOM      5  C   UNL     1      14.038 -18.565   2.935  1.00  0.00     0.128 A 
ATOM      6  C   UNL     1      13.973 -19.385   4.063  1.00  0.00     0.093 A 
ATOM      7  C   UNL     1      15.062 -20.179   4.441  1.00  0.00     0.136 A 
ATOM      8  C   UNL     1      16.248 -20.150   3.663  1.00  0.00     0.125 A 
ATOM      9  C   UNL     1      17.384 -20.922   3.958  1.00  0.00     0.078 A 
ATOM     10  C   UNL     1      18.516 -20.844   3.140  1.00  0.00     0.223 A 
ENDROOT
BRANCH   1  11
ATOM     11  C   UNL     1      19.667 -19.815   1.139  1.00  0.00     0.091 A 
ATOM     12  C   UNL     1      20.856 -19.215   1.578  1.00  0.00     0.068 A 
ATOM     13  C   UNL     1      21.939 -19.059   0.708  1.00  0.00     0.162 A 
ATOM     14  C   UNL     1      19.564 -20.226  -0.199  1.00  0.00     0.068 A 
ATOM     15  C   UNL     1      21.844 -19.492  -0.628  1.00  0.00     0.200 A 
ATOM     16  C   UNL     1      20.638 -20.078  -1.083  1.00  0.00     0.162 A 
BRANCH  13  17
ATOM     17  O   UNL     1      23.105 -18.463   1.190  1.00  0.00    -0.504 OA
ATOM     18  H   UNL     1      23.565 -17.702   0.704  1.00  0.00     0.293 HD
ENDBRANCH  13  17
BRANCH  15  19
ATOM     19  O   UNL     1      22.953 -19.325  -1.462  1.00  0.00    -0.502 OA
ATOM     20  H   UNL     1      23.893 -19.165  -1.130  1.00  0.00     0.293 HD
ENDBRANCH  15  19
BRANCH  16  21
ATOM     21  O   UNL     1      20.462 -20.522  -2.395  1.00  0.00    -0.504 OA
ATOM     22  H   UNL     1      19.831 -21.263  -2.663  1.00  0.00     0.293 HD
ENDBRANCH  16  21
ENDBRANCH   1  11
BRANCH  10  23
ATOM     23  O   UNL     1      19.626 -21.647   3.404  1.00  0.00    -0.500 OA
ATOM     24  H   UNL     1      19.856 -22.445   2.823  1.00  0.00     0.294 HD
ENDBRANCH  10  23
BRANCH   5  25
ATOM     25  O   UNL     1      12.937 -17.787   2.587  1.00  0.00    -0.507 OA
ATOM     26  H   UNL     1      12.648 -17.679   1.621  1.00  0.00     0.293 HD
ENDBRANCH   5  25
BRANCH   7  27
ATOM     27  O   UNL     1      14.918 -20.969   5.585  1.00  0.00    -0.507 OA
ATOM     28  H   UNL     1      15.015 -20.629   6.530  1.00  0.00     0.293 HD
ENDBRANCH   7  27
TORSDOF 7
ENDMDL
MODEL 5
REMARK VINA RESULT:    -7.147      1.210      2.752
REMARK INTER + INTRA:          -8.931
REMARK INTER:                  -8.612
REMARK INTRA:                  -0.319
REMARK UNBOUND:                -0.113
REMARK SMILES Oc1cc(O)c2cc(O)c(-c3cc(O)c(O)c(O)c3)[o+]c2c1
REMARK SMILES IDX 10 1 20 2 21 3 22 4 2 5 3 6 4 7 6 8 7 9 8 10 11 11 12 12
REMARK SMILES IDX 13 13 19 14 15 15 17 16 14 17 16 19 18 21 9 23 1 25 5 27
REMARK H PARENT 14 18 16 20 18 22 9 24 1 26 5 28
REMARK Flexibility Score: inf
ROOT
ATOM      1  C   UNL     1      17.864 -19.809   1.450  1.00  0.00     0.402 A 
ATOM      2  O   UNL     1      17.745 -20.566   0.362  1.00  0.00    -0.202 OA
ATOM      3  C   UNL     1      18.672 -20.628  -0.588  1.00  0.00     0.368 A 
ATOM      4  C   UNL     1      18.457 -21.455  -1.694  1.00  0.00     0.162 A 
ATOM      5  C   UNL     1      19.416 -21.542  -2.707  1.00  0.00     0.128 A 
ATOM      6  C   UNL     1      20.595 -20.798  -2.614  1.00  0.00     0.093 A 
ATOM      7  C   UNL     1      20.834 -19.962  -1.516  1.00  0.00     0.136 A 
ATOM      8  C   UNL     1      19.862 -19.869  -0.487  1.00  0.00     0.125 A 
ATOM      9  C   UNL     1      20.011 -19.046   0.643  1.00  0.00     0.078 A 
ATOM     10  C   UNL     1      19.006 -19.003   1.615  1.00  0.00     0.223 A 
ENDROOT
BRANCH   1  11
ATOM     11  C   UNL     1      16.767 -19.833   2.444  1.00  0.00     0.091 A 
ATOM     12  C   UNL     1      16.924 -20.455   3.692  1.00  0.00     0.068 A 
ATOM     13  C   UNL     1      15.871 -20.487   4.609  1.00  0.00     0.162 A 
ATOM     14  C   UNL     1      15.524 -19.273   2.113  1.00  0.00     0.068 A 
ATOM     15  C   UNL     1      14.631 -19.905   4.286  1.00  0.00     0.200 A 
ATOM     16  C   UNL     1      14.459 -19.296   3.020  1.00  0.00     0.162 A 
BRANCH  13  17
ATOM     17  O   UNL     1      16.075 -21.110   5.841  1.00  0.00    -0.504 OA
ATOM     18  H   UNL     1      16.956 -21.054   6.337  1.00  0.00     0.293 HD
ENDBRANCH  13  17
BRANCH  15  19
ATOM     19  O   UNL     1      13.607 -19.952   5.236  1.00  0.00    -0.502 OA
ATOM     20  H   UNL     1      12.738 -19.444   5.159  1.00  0.00     0.293 HD
ENDBRANCH  15  19
BRANCH  16  21
ATOM     21  O   UNL     1      13.257 -18.709   2.621  1.00  0.00    -0.504 OA
ATOM     22  H   UNL     1      12.349 -19.132   2.749  1.00  0.00     0.293 HD
ENDBRANCH  16  21
ENDBRANCH   1  11
BRANCH  10  23
ATOM     23  O   UNL     1      19.130 -18.150   2.711  1.00  0.00    -0.500 OA
ATOM     24  H   UNL     1      20.017 -18.013   3.181  1.00  0.00     0.294 HD
ENDBRANCH  10  23
BRANCH   5  25
ATOM     25  O   UNL     1      19.210 -22.365  -3.812  1.00  0.00    -0.507 OA
ATOM     26  H   UNL     1      18.319 -22.820  -3.974  1.00  0.00     0.293 HD
ENDBRANCH   5  25
BRANCH   7  27
ATOM     27  O   UNL     1      22.039 -19.254  -1.497  1.00  0.00    -0.507 OA
ATOM     28  H   UNL     1      22.150 -18.326  -1.116  1.00  0.00     0.293 HD
ENDBRANCH   7  27
TORSDOF 7
ENDMDL
MODEL 6
REMARK VINA RESULT:    -7.133      1.999      3.855
REMARK INTER + INTRA:          -8.914
REMARK INTER:                  -8.608
REMARK INTRA:                  -0.306
REMARK UNBOUND:                -0.113
REMARK SMILES Oc1cc(O)c2cc(O)c(-c3cc(O)c(O)c(O)c3)[o+]c2c1
REMARK SMILES IDX 10 1 20 2 21 3 22 4 2 5 3 6 4 7 6 8 7 9 8 10 11 11 12 12
REMARK SMILES IDX 13 13 19 14 15 15 17 16 14 17 16 19 18 21 9 23 1 25 5 27
REMARK H PARENT 14 18 16 20 18 22 9 24 1 26 5 28
REMARK Flexibility Score: inf
ROOT
ATOM      1  C   UNL     1      17.607 -20.842   0.955  1.00  0.00     0.402 A 
ATOM      2  O   UNL     1      17.051 -21.724   0.130  1.00  0.00    -0.202 OA
ATOM      3  C   UNL     1      17.434 -21.885  -1.133  1.00  0.00     0.368 A 
ATOM      4  C   UNL     1      16.790 -22.842  -1.922  1.00  0.00     0.162 A 
ATOM      5  C   UNL     1      17.174 -23.034  -3.252  1.00  0.00     0.128 A 
ATOM      6  C   UNL     1      18.208 -22.267  -3.794  1.00  0.00     0.093 A 
ATOM      7  C   UNL     1      18.869 -21.302  -3.025  1.00  0.00     0.136 A 
ATOM      8  C   UNL     1      18.481 -21.101  -1.675  1.00  0.00     0.125 A 
ATOM      9  C   UNL     1      19.078 -20.148  -0.833  1.00  0.00     0.078 A 
ATOM     10  C   UNL     1      18.636 -20.005   0.487  1.00  0.00     0.223 A 
ENDROOT
BRANCH   1  11
ATOM     11  C   UNL     1      17.099 -20.764   2.344  1.00  0.00     0.091 A 
ATOM     12  C   UNL     1      17.871 -21.203   3.430  1.00  0.00     0.068 A 
ATOM     13  C   UNL     1      17.367 -21.142   4.732  1.00  0.00     0.162 A 
ATOM     14  C   UNL     1      15.798 -20.296   2.577  1.00  0.00     0.068 A 
ATOM     15  C   UNL     1      16.070 -20.650   4.969  1.00  0.00     0.200 A 
ATOM     16  C   UNL     1      15.278 -20.228   3.874  1.00  0.00     0.162 A 
BRANCH  13  17
ATOM     17  O   UNL     1      18.173 -21.582   5.783  1.00  0.00    -0.504 OA
ATOM     18  H   UNL     1      19.005 -21.083   6.074  1.00  0.00     0.293 HD
ENDBRANCH  13  17
BRANCH  15  19
ATOM     19  O   UNL     1      15.609 -20.599   6.287  1.00  0.00    -0.502 OA
ATOM     20  H   UNL     1      14.806 -20.066   6.586  1.00  0.00     0.293 HD
ENDBRANCH  15  19
BRANCH  16  21
ATOM     21  O   UNL     1      13.979 -19.740   4.026  1.00  0.00    -0.504 OA
ATOM     22  H   UNL     1      13.627 -19.319   4.874  1.00  0.00     0.293 HD
ENDBRANCH  16  21
ENDBRANCH   1  11
BRANCH  10  23
ATOM     23  O   UNL     1      19.195 -19.025   1.307  1.00  0.00    -0.500 OA
ATOM     24  H   UNL     1      19.994 -19.219   1.900  1.00  0.00     0.294 HD
ENDBRANCH  10  23
BRANCH   5  25
ATOM     25  O   UNL     1      16.538 -23.986  -4.045  1.00  0.00    -0.507 OA
ATOM     26  H   UNL     1      15.641 -24.380  -3.782  1.00  0.00     0.293 HD
ENDBRANCH   5  25
BRANCH   7  27
ATOM     27  O   UNL     1      19.894 -20.578  -3.641  1.00  0.00    -0.507 OA
ATOM     28  H   UNL     1      20.703 -20.213  -3.161  1.00  0.00     0.293 HD
ENDBRANCH   7  27
TORSDOF 7
ENDMDL
MODEL 7
REMARK VINA RESULT:    -7.010      3.192      3.763
REMARK INTER + INTRA:          -8.762
REMARK INTER:                  -8.753
REMARK INTRA:                  -0.008
REMARK UNBOUND:                -0.113
REMARK SMILES Oc1cc(O)c2cc(O)c(-c3cc(O)c(O)c(O)c3)[o+]c2c1
REMARK SMILES IDX 10 1 20 2 21 3 22 4 2 5 3 6 4 7 6 8 7 9 8 10 11 11 12 12
REMARK SMILES IDX 13 13 19 14 15 15 17 16 14 17 16 19 18 21 9 23 1 25 5 27
REMARK H PARENT 14 18 16 20 18 22 9 24 1 26 5 28
REMARK Flexibility Score: inf
ROOT
ATOM      1  C   UNL     1      16.864 -21.160   1.124  1.00  0.00     0.402 A 
ATOM      2  O   UNL     1      16.537 -20.189   0.274  1.00  0.00    -0.202 OA
ATOM      3  C   UNL     1      16.757 -20.260  -1.035  1.00  0.00     0.368 A 
ATOM      4  C   UNL     1      16.374 -19.189  -1.846  1.00  0.00     0.162 A 
ATOM      5  C   UNL     1      16.591 -19.237  -3.227  1.00  0.00     0.128 A 
ATOM      6  C   UNL     1      17.192 -20.362  -3.796  1.00  0.00     0.093 A 
ATOM      7  C   UNL     1      17.584 -21.448  -3.005  1.00  0.00     0.136 A 
ATOM      8  C   UNL     1      17.369 -21.402  -1.603  1.00  0.00     0.125 A 
ATOM      9  C   UNL     1      17.742 -22.438  -0.731  1.00  0.00     0.078 A 
ATOM     10  C   UNL     1      17.501 -22.318   0.642  1.00  0.00     0.223 A 
ENDROOT
BRANCH   1  11
ATOM     11  C   UNL     1      16.558 -20.968   2.559  1.00  0.00     0.091 A 
ATOM     12  C   UNL     1      17.514 -21.229   3.552  1.00  0.00     0.068 A 
ATOM     13  C   UNL     1      17.200 -21.064   4.904  1.00  0.00     0.162 A 
ATOM     14  C   UNL     1      15.268 -20.572   2.942  1.00  0.00     0.068 A 
ATOM     15  C   UNL     1      15.913 -20.644   5.287  1.00  0.00     0.200 A 
ATOM     16  C   UNL     1      14.937 -20.401   4.291  1.00  0.00     0.162 A 
BRANCH  13  17
ATOM     17  O   UNL     1      18.185 -21.328   5.857  1.00  0.00    -0.504 OA
ATOM     18  H   UNL     1      19.148 -21.515   5.604  1.00  0.00     0.293 HD
ENDBRANCH  13  17
BRANCH  15  19
ATOM     19  O   UNL     1      15.644 -20.482   6.649  1.00  0.00    -0.502 OA
ATOM     20  H   UNL     1      16.313 -20.659   7.384  1.00  0.00     0.293 HD
ENDBRANCH  15  19
BRANCH  16  21
ATOM     21  O   UNL     1      13.636 -19.994   4.592  1.00  0.00    -0.504 OA
ATOM     22  H   UNL     1      12.955 -20.572   5.062  1.00  0.00     0.293 HD
ENDBRANCH  16  21
ENDBRANCH   1  11
BRANCH  10  23
ATOM     23  O   UNL     1      17.916 -23.324   1.515  1.00  0.00    -0.500 OA
ATOM     24  H   UNL     1      18.179 -24.244   1.180  1.00  0.00     0.294 HD
ENDBRANCH  10  23
BRANCH   5  25
ATOM     25  O   UNL     1      16.212 -18.174  -4.043  1.00  0.00    -0.507 OA
ATOM     26  H   UNL     1      15.750 -18.327  -4.932  1.00  0.00     0.293 HD
ENDBRANCH   5  25
BRANCH   7  27
ATOM     27  O   UNL     1      18.176 -22.536  -3.652  1.00  0.00    -0.507 OA
ATOM     28  H   UNL     1      18.443 -23.396  -3.196  1.00  0.00     0.293 HD
ENDBRANCH   7  27
TORSDOF 7
ENDMDL
MODEL 8
REMARK VINA RESULT:    -7.001      4.109      5.253
REMARK INTER + INTRA:          -8.751
REMARK INTER:                  -8.450
REMARK INTRA:                  -0.301
REMARK UNBOUND:                -0.113
REMARK SMILES Oc1cc(O)c2cc(O)c(-c3cc(O)c(O)c(O)c3)[o+]c2c1
REMARK SMILES IDX 10 1 20 2 21 3 22 4 2 5 3 6 4 7 6 8 7 9 8 10 11 11 12 12
REMARK SMILES IDX 13 13 19 14 15 15 17 16 14 17 16 19 18 21 9 23 1 25 5 27
REMARK H PARENT 14 18 16 20 18 22 9 24 1 26 5 28
REMARK Flexibility Score: inf
ROOT
ATOM      1  C   UNL     1      19.938 -20.114  -1.318  1.00  0.00     0.402 A 
ATOM      2  O   UNL     1      20.998 -20.571  -1.980  1.00  0.00    -0.202 OA
ATOM      3  C   UNL     1      22.251 -20.349  -1.593  1.00  0.00     0.368 A 
ATOM      4  C   UNL     1      23.299 -20.873  -2.353  1.00  0.00     0.162 A 
ATOM      5  C   UNL     1      24.626 -20.658  -1.969  1.00  0.00     0.128 A 
ATOM      6  C   UNL     1      24.904 -19.915  -0.820  1.00  0.00     0.093 A 
ATOM      7  C   UNL     1      23.872 -19.378  -0.041  1.00  0.00     0.136 A 
ATOM      8  C   UNL     1      22.524 -19.592  -0.429  1.00  0.00     0.125 A 
ATOM      9  C   UNL     1      21.425 -19.081   0.283  1.00  0.00     0.078 A 
ATOM     10  C   UNL     1      20.124 -19.330  -0.164  1.00  0.00     0.223 A 
ENDROOT
BRANCH   1  11
ATOM     11  C   UNL     1      18.592 -20.437  -1.843  1.00  0.00     0.091 A 
ATOM     12  C   UNL     1      18.059 -21.731  -1.741  1.00  0.00     0.068 A 
ATOM     13  C   UNL     1      16.796 -22.024  -2.262  1.00  0.00     0.162 A 
ATOM     14  C   UNL     1      17.854 -19.446  -2.507  1.00  0.00     0.068 A 
ATOM     15  C   UNL     1      16.045 -21.023  -2.908  1.00  0.00     0.200 A 
ATOM     16  C   UNL     1      16.588 -19.722  -3.034  1.00  0.00     0.162 A 
BRANCH  13  17
ATOM     17  O   UNL     1      16.303 -23.322  -2.131  1.00  0.00    -0.504 OA
ATOM     18  H   UNL     1      15.526 -23.548  -1.522  1.00  0.00     0.293 HD
ENDBRANCH  13  17
BRANCH  15  19
ATOM     19  O   UNL     1      14.783 -21.357  -3.406  1.00  0.00    -0.502 OA
ATOM     20  H   UNL     1      13.918 -21.201  -2.909  1.00  0.00     0.293 HD
ENDBRANCH  15  19
BRANCH  16  21
ATOM     21  O   UNL     1      15.911 -18.680  -3.671  1.00  0.00    -0.504 OA
ATOM     22  H   UNL     1      15.948 -18.503  -4.664  1.00  0.00     0.293 HD
ENDBRANCH  16  21
ENDBRANCH   1  11
BRANCH  10  23
ATOM     23  O   UNL     1      19.035 -18.782   0.513  1.00  0.00    -0.500 OA
ATOM     24  H   UNL     1      18.904 -17.780   0.589  1.00  0.00     0.294 HD
ENDBRANCH  10  23
BRANCH   5  25
ATOM     25  O   UNL     1      25.677 -21.178  -2.721  1.00  0.00    -0.507 OA
ATOM     26  H   UNL     1      26.385 -20.577  -3.127  1.00  0.00     0.293 HD
ENDBRANCH   5  25
BRANCH   7  27
ATOM     27  O   UNL     1      24.234 -18.649   1.095  1.00  0.00    -0.507 OA
ATOM     28  H   UNL     1      25.152 -18.662   1.513  1.00  0.00     0.293 HD
ENDBRANCH   7  27
TORSDOF 7
ENDMDL
MODEL 9
REMARK VINA RESULT:    -6.918      3.082      6.866
REMARK INTER + INTRA:          -8.649
REMARK INTER:                  -8.556
REMARK INTRA:                  -0.093
REMARK UNBOUND:                -0.113
REMARK SMILES Oc1cc(O)c2cc(O)c(-c3cc(O)c(O)c(O)c3)[o+]c2c1
REMARK SMILES IDX 10 1 20 2 21 3 22 4 2 5 3 6 4 7 6 8 7 9 8 10 11 11 12 12
REMARK SMILES IDX 13 13 19 14 15 15 17 16 14 17 16 19 18 21 9 23 1 25 5 27
REMARK H PARENT 14 18 16 20 18 22 9 24 1 26 5 28
REMARK Flexibility Score: inf
ROOT
ATOM      1  C   UNL     1      17.069 -21.312   1.523  1.00  0.00     0.402 A 
ATOM      2  O   UNL     1      15.953 -20.926   2.136  1.00  0.00    -0.202 OA
ATOM      3  C   UNL     1      15.880 -20.700   3.444  1.00  0.00     0.368 A 
ATOM      4  C   UNL     1      14.662 -20.294   3.996  1.00  0.00     0.162 A 
ATOM      5  C   UNL     1      14.557 -20.047   5.368  1.00  0.00     0.128 A 
ATOM      6  C   UNL     1      15.674 -20.207   6.190  1.00  0.00     0.093 A 
ATOM      7  C   UNL     1      16.906 -20.614   5.661  1.00  0.00     0.136 A 
ATOM      8  C   UNL     1      17.016 -20.868   4.270  1.00  0.00     0.125 A 
ATOM      9  C   UNL     1      18.207 -21.291   3.655  1.00  0.00     0.078 A 
ATOM     10  C   UNL     1      18.237 -21.527   2.276  1.00  0.00     0.223 A 
ENDROOT
BRANCH   1  11
ATOM     11  C   UNL     1      17.027 -21.521   0.058  1.00  0.00     0.091 A 
ATOM     12  C   UNL     1      17.440 -22.731  -0.521  1.00  0.00     0.068 A 
ATOM     13  C   UNL     1      17.415 -22.902  -1.908  1.00  0.00     0.162 A 
ATOM     14  C   UNL     1      16.621 -20.470  -0.778  1.00  0.00     0.068 A 
ATOM     15  C   UNL     1      16.985 -21.855  -2.744  1.00  0.00     0.200 A 
ATOM     16  C   UNL     1      16.589 -20.625  -2.168  1.00  0.00     0.162 A 
BRANCH  13  17
ATOM     17  O   UNL     1      17.828 -24.124  -2.439  1.00  0.00    -0.504 OA
ATOM     18  H   UNL     1      17.251 -24.956  -2.397  1.00  0.00     0.293 HD
ENDBRANCH  13  17
BRANCH  15  19
ATOM     19  O   UNL     1      16.967 -22.072  -4.125  1.00  0.00    -0.502 OA
ATOM     20  H   UNL     1      17.457 -22.823  -4.588  1.00  0.00     0.293 HD
ENDBRANCH  15  19
BRANCH  16  21
ATOM     21  O   UNL     1      16.162 -19.536  -2.931  1.00  0.00    -0.504 OA
ATOM     22  H   UNL     1      15.415 -18.913  -2.661  1.00  0.00     0.293 HD
ENDBRANCH  16  21
ENDBRANCH   1  11
BRANCH  10  23
ATOM     23  O   UNL     1      19.404 -21.995   1.673  1.00  0.00    -0.500 OA
ATOM     24  H   UNL     1      20.260 -21.451   1.674  1.00  0.00     0.294 HD
ENDBRANCH  10  23
BRANCH   5  25
ATOM     25  O   UNL     1      13.347 -19.642   5.926  1.00  0.00    -0.507 OA
ATOM     26  H   UNL     1      12.610 -20.306   6.132  1.00  0.00     0.293 HD
ENDBRANCH   5  25
BRANCH   7  27
ATOM     27  O   UNL     1      17.976 -20.748   6.550  1.00  0.00    -0.507 OA
ATOM     28  H   UNL     1      18.780 -20.139   6.571  1.00  0.00     0.293 HD
ENDBRANCH   7  27
TORSDOF 7
ENDMDL
