MODEL 1
REMARK VINA RESULT:    -7.698      0.000      0.000
REMARK INTER + INTRA:         -14.457
REMARK INTER:                 -12.648
REMARK INTRA:                  -1.809
REMARK UNBOUND:                -1.809
REMARK SMILES C[C@@H]1O[C@H](OC[C@H]2O[C@H](Oc3c(-c4ccc(O)c(O)c4)oc4cc(O)cc(O)c4c3=O)[C@H](O)[C@H](O)[C@@H]2O)[C@@H](O)[C@H](O)[C@H]1O
REMARK SMILES IDX 7 1 36 2 34 3 32 4 9 5 8 6 6 7 5 8 4 9 1 10 2 11 42 12 3 13
REMARK SMILES IDX 40 14 38 15 43 16 41 18 39 20 37 22 35 24 10 26 11 27 12 28
REMARK SMILES IDX 30 29 21 30 29 31 31 32 22 33 27 34 23 35 26 36 24 37 13 38
REMARK SMILES IDX 20 39 14 40 18 41 15 42 16 43 19 44 17 46 28 48 25 50 33 52
REMARK H PARENT 43 17 41 19 39 21 37 23 35 25 19 45 17 47 28 49 25 51 33 53
REMARK Flexibility Score: inf
ROOT
ATOM      1  C   UNL     1      26.238 -10.119  30.290  1.00  0.00     0.180 C 
ATOM      2  C   UNL     1      27.220  -9.347  31.290  1.00  0.00     0.177 C 
ATOM      3  C   UNL     1      28.776  -9.466  31.059  1.00  0.00     0.180 C 
ATOM      4  C   UNL     1      29.202  -9.781  29.561  1.00  0.00     0.214 C 
ATOM      5  C   UNL     1      28.022 -10.117  28.650  1.00  0.00     0.339 C 
ATOM      6  O   UNL     1      27.029 -10.874  29.305  1.00  0.00    -0.332 OA
ENDROOT
BRANCH   1   7
ATOM      7  C   UNL     1      25.108  -9.183  29.678  1.00  0.00     0.198 C 
BRANCH   7   8
ATOM      8  O   UNL     1      23.806  -9.913  29.562  1.00  0.00    -0.347 OA
BRANCH   8   9
ATOM      9  C   UNL     1      22.707  -9.274  30.234  1.00  0.00     0.281 C 
ATOM     10  C   UNL     1      22.380  -9.878  27.252  1.00  0.00     0.041 C 
ATOM     11  C   UNL     1      21.350  -9.405  28.301  1.00  0.00     0.150 C 
ATOM     12  C   UNL     1      20.357 -10.513  28.819  1.00  0.00     0.174 C 
ATOM     13  O   UNL     1      21.893  -8.546  29.300  1.00  0.00    -0.344 OA
ATOM     14  C   UNL     1      20.633 -11.020  30.264  1.00  0.00     0.179 C 
ATOM     15  C   UNL     1      21.640 -10.136  31.081  1.00  0.00     0.202 C 
BRANCH  12  16
ATOM     16  O   UNL     1      19.001 -10.136  28.669  1.00  0.00    -0.388 OA
ATOM     17  H   UNL     1      18.962  -9.189  28.985  1.00  0.00     0.211 HD
ENDBRANCH  12  16
BRANCH  14  18
ATOM     18  O   UNL     1      20.902 -12.409  30.339  1.00  0.00    -0.387 OA
ATOM     19  H   UNL     1      21.561 -12.635  29.629  1.00  0.00     0.211 HD
ENDBRANCH  14  18
BRANCH  15  20
ATOM     20  O   UNL     1      20.875  -9.323  32.034  1.00  0.00    -0.385 OA
ATOM     21  H   UNL     1      19.975  -9.774  32.108  1.00  0.00     0.211 HD
ENDBRANCH  15  20
ENDBRANCH   8   9
ENDBRANCH   7   8
ENDBRANCH   1   7
BRANCH   2  22
ATOM     22  O   UNL     1      26.987  -9.668  32.658  1.00  0.00    -0.387 OA
ATOM     23  H   UNL     1      26.698 -10.621  32.733  1.00  0.00     0.211 HD
ENDBRANCH   2  22
BRANCH   3  24
ATOM     24  O   UNL     1      29.438 -10.248  32.039  1.00  0.00    -0.387 OA
ATOM     25  H   UNL     1      29.308  -9.871  32.949  1.00  0.00     0.211 HD
ENDBRANCH   3  24
BRANCH   5  26
ATOM     26  O   UNL     1      28.527 -10.963  27.465  1.00  0.00    -0.454 OA
BRANCH  26  27
ATOM     27  C   UNL     1      28.201 -11.044  26.044  1.00  0.00     0.214 A 
ATOM     28  C   UNL     1      27.364 -12.008  25.470  1.00  0.00     0.180 A 
ATOM     29  C   UNL     1      29.111 -10.395  25.064  1.00  0.00     0.239 A 
ATOM     30  O   UNL     1      27.683 -12.622  24.334  1.00  0.00    -0.452 OA
ATOM     31  C   UNL     1      29.403 -11.154  23.857  1.00  0.00     0.111 A 
ATOM     32  O   UNL     1      29.870  -9.437  25.352  1.00  0.00    -0.285 OA
ATOM     33  C   UNL     1      28.791 -12.423  23.712  1.00  0.00     0.146 A 
ATOM     34  C   UNL     1      30.622 -10.973  23.139  1.00  0.00     0.134 A 
ATOM     35  C   UNL     1      29.520 -13.526  23.217  1.00  0.00     0.094 A 
ATOM     36  C   UNL     1      31.386 -12.078  22.830  1.00  0.00     0.093 A 
ATOM     37  C   UNL     1      30.894 -13.368  22.933  1.00  0.00     0.123 A 
BRANCH  28  38
ATOM     38  C   UNL     1      26.551 -12.903  26.249  1.00  0.00     0.025 A 
ATOM     39  C   UNL     1      26.896 -14.138  25.809  1.00  0.00     0.062 A 
ATOM     40  C   UNL     1      25.194 -12.661  26.500  1.00  0.00     0.016 A 
ATOM     41  C   UNL     1      25.993 -15.098  25.651  1.00  0.00     0.158 A 
ATOM     42  C   UNL     1      24.314 -13.683  26.621  1.00  0.00     0.051 A 
ATOM     43  C   UNL     1      24.647 -14.840  25.885  1.00  0.00     0.157 A 
BRANCH  41  44
ATOM     44  O   UNL     1      26.499 -16.123  24.801  1.00  0.00    -0.504 OA
ATOM     45  H   UNL     1      26.528 -15.932  23.791  1.00  0.00     0.293 HD
ENDBRANCH  41  44
BRANCH  43  46
ATOM     46  O   UNL     1      23.629 -15.400  25.059  1.00  0.00    -0.504 OA
ATOM     47  H   UNL     1      23.092 -16.215  25.379  1.00  0.00     0.293 HD
ENDBRANCH  43  46
ENDBRANCH  28  38
BRANCH  34  48
ATOM     48  O   UNL     1      31.015  -9.714  22.630  1.00  0.00    -0.507 OA
ATOM     49  H   UNL     1      31.381  -9.617  21.679  1.00  0.00     0.293 HD
ENDBRANCH  34  48
BRANCH  37  50
ATOM     50  O   UNL     1      31.767 -14.470  23.052  1.00  0.00    -0.508 OA
ATOM     51  H   UNL     1      32.717 -14.348  23.389  1.00  0.00     0.293 HD
ENDBRANCH  37  50
ENDBRANCH  26  27
ENDBRANCH   5  26
BRANCH   4  52
ATOM     52  O   UNL     1      30.217 -10.771  29.465  1.00  0.00    -0.384 OA
ATOM     53  H   UNL     1      30.542 -11.009  30.423  1.00  0.00     0.211 HD
ENDBRANCH   4  52
TORSDOF 16
ENDMDL
MODEL 2
REMARK VINA RESULT:    -7.490      2.586      9.023
REMARK INTER + INTRA:         -14.115
REMARK INTER:                 -12.202
REMARK INTRA:                  -1.913
REMARK UNBOUND:                -1.809
REMARK SMILES C[C@@H]1O[C@H](OC[C@H]2O[C@H](Oc3c(-c4ccc(O)c(O)c4)oc4cc(O)cc(O)c4c3=O)[C@H](O)[C@H](O)[C@@H]2O)[C@@H](O)[C@H](O)[C@H]1O
REMARK SMILES IDX 7 1 36 2 34 3 32 4 9 5 8 6 6 7 5 8 4 9 1 10 2 11 42 12 3 13
REMARK SMILES IDX 40 14 38 15 43 16 41 18 39 20 37 22 35 24 10 26 11 27 12 28
REMARK SMILES IDX 30 29 21 30 29 31 31 32 22 33 27 34 23 35 26 36 24 37 13 38
REMARK SMILES IDX 20 39 14 40 18 41 15 42 16 43 19 44 17 46 28 48 25 50 33 52
REMARK H PARENT 43 17 41 19 39 21 37 23 35 25 19 45 17 47 28 49 25 51 33 53
REMARK Flexibility Score: inf
ROOT
ATOM      1  C   UNL     1      30.464 -13.303  22.339  1.00  0.00     0.180 C 
ATOM      2  C   UNL     1      31.496 -12.149  21.932  1.00  0.00     0.177 C 
ATOM      3  C   UNL     1      31.269 -10.699  22.509  1.00  0.00     0.180 C 
ATOM      4  C   UNL     1      30.473 -10.648  23.883  1.00  0.00     0.214 C 
ATOM      5  C   UNL     1      29.887 -11.998  24.298  1.00  0.00     0.339 C 
ATOM      6  O   UNL     1      29.410 -12.742  23.199  1.00  0.00    -0.332 OA
ENDROOT
BRANCH   1   7
ATOM      7  C   UNL     1      31.176 -14.608  22.902  1.00  0.00     0.198 C 
BRANCH   7   8
ATOM      8  O   UNL     1      30.919 -15.788  22.018  1.00  0.00    -0.347 OA
BRANCH   8   9
ATOM      9  C   UNL     1      29.600 -15.824  21.447  1.00  0.00     0.281 C 
ATOM     10  C   UNL     1      31.659 -17.815  20.371  1.00  0.00     0.041 C 
ATOM     11  C   UNL     1      30.134 -17.721  20.139  1.00  0.00     0.150 C 
ATOM     12  C   UNL     1      29.266 -18.770  20.931  1.00  0.00     0.174 C 
ATOM     13  O   UNL     1      29.632 -16.387  20.126  1.00  0.00    -0.344 OA
ATOM     14  C   UNL     1      28.469 -18.190  22.134  1.00  0.00     0.179 C 
ATOM     15  C   UNL     1      28.404 -16.623  22.174  1.00  0.00     0.202 C 
BRANCH  12  16
ATOM     16  O   UNL     1      28.419 -19.520  20.081  1.00  0.00    -0.388 OA
ATOM     17  H   UNL     1      27.559 -19.601  20.583  1.00  0.00     0.211 HD
ENDBRANCH  12  16
BRANCH  14  18
ATOM     18  O   UNL     1      28.805 -18.780  23.378  1.00  0.00    -0.387 OA
ATOM     19  H   UNL     1      28.129 -18.491  24.049  1.00  0.00     0.211 HD
ENDBRANCH  14  18
BRANCH  15  20
ATOM     20  O   UNL     1      27.074 -16.202  21.717  1.00  0.00    -0.385 OA
ATOM     21  H   UNL     1      26.420 -16.717  22.288  1.00  0.00     0.211 HD
ENDBRANCH  15  20
ENDBRANCH   8   9
ENDBRANCH   7   8
ENDBRANCH   1   7
BRANCH   2  22
ATOM     22  O   UNL     1      31.645 -12.007  20.523  1.00  0.00    -0.387 OA
ATOM     23  H   UNL     1      32.279 -12.698  20.182  1.00  0.00     0.211 HD
ENDBRANCH   2  22
BRANCH   3  24
ATOM     24  O   UNL     1      30.834  -9.762  21.539  1.00  0.00    -0.387 OA
ATOM     25  H   UNL     1      31.436  -9.757  20.749  1.00  0.00     0.211 HD
ENDBRANCH   3  24
BRANCH   5  26
ATOM     26  O   UNL     1      28.689 -11.758  25.236  1.00  0.00    -0.454 OA
BRANCH  26  27
ATOM     27  C   UNL     1      28.331 -12.196  26.582  1.00  0.00     0.214 A 
ATOM     28  C   UNL     1      27.160 -12.889  26.913  1.00  0.00     0.180 A 
ATOM     29  C   UNL     1      28.962 -11.518  27.745  1.00  0.00     0.239 A 
ATOM     30  O   UNL     1      26.439 -12.570  27.984  1.00  0.00    -0.452 OA
ATOM     31  C   UNL     1      28.084 -11.205  28.863  1.00  0.00     0.111 A 
ATOM     32  O   UNL     1      30.069 -10.928  27.686  1.00  0.00    -0.285 OA
ATOM     33  C   UNL     1      26.723 -11.582  28.756  1.00  0.00     0.146 A 
ATOM     34  C   UNL     1      28.354 -10.115  29.741  1.00  0.00     0.134 A 
ATOM     35  C   UNL     1      25.696 -10.710  29.179  1.00  0.00     0.094 A 
ATOM     36  C   UNL     1      27.361  -9.191  29.984  1.00  0.00     0.093 A 
ATOM     37  C   UNL     1      26.038  -9.422  29.646  1.00  0.00     0.123 A 
BRANCH  28  38
ATOM     38  C   UNL     1      26.275 -13.444  25.926  1.00  0.00     0.025 A 
ATOM     39  C   UNL     1      25.048 -13.376  26.500  1.00  0.00     0.062 A 
ATOM     40  C   UNL     1      26.586 -14.602  25.201  1.00  0.00     0.016 A 
ATOM     41  C   UNL     1      24.158 -14.351  26.358  1.00  0.00     0.158 A 
ATOM     42  C   UNL     1      25.617 -15.462  24.808  1.00  0.00     0.051 A 
ATOM     43  C   UNL     1      24.487 -15.503  25.652  1.00  0.00     0.157 A 
BRANCH  41  44
ATOM     44  O   UNL     1      23.155 -14.261  27.366  1.00  0.00    -0.504 OA
ATOM     45  H   UNL     1      23.445 -14.419  28.339  1.00  0.00     0.293 HD
ENDBRANCH  41  44
BRANCH  43  46
ATOM     46  O   UNL     1      24.043 -16.788  26.081  1.00  0.00    -0.504 OA
ATOM     47  H   UNL     1      23.828 -16.959  27.071  1.00  0.00     0.293 HD
ENDBRANCH  43  46
ENDBRANCH  28  38
BRANCH  34  48
ATOM     48  O   UNL     1      29.566 -10.013  30.463  1.00  0.00    -0.507 OA
ATOM     49  H   UNL     1      29.706 -10.522  31.339  1.00  0.00     0.293 HD
ENDBRANCH  34  48
BRANCH  37  50
ATOM     50  O   UNL     1      25.133  -8.353  29.482  1.00  0.00    -0.508 OA
ATOM     51  H   UNL     1      24.525  -8.304  28.670  1.00  0.00     0.293 HD
ENDBRANCH  37  50
ENDBRANCH  26  27
ENDBRANCH   5  26
BRANCH   4  52
ATOM     52  O   UNL     1      29.481  -9.631  23.917  1.00  0.00    -0.384 OA
ATOM     53  H   UNL     1      28.666  -9.942  23.351  1.00  0.00     0.211 HD
ENDBRANCH   4  52
TORSDOF 16
ENDMDL
MODEL 3
REMARK VINA RESULT:    -7.380      4.970     11.390
REMARK INTER + INTRA:         -13.934
REMARK INTER:                 -11.987
REMARK INTRA:                  -1.948
REMARK UNBOUND:                -1.809
REMARK SMILES C[C@@H]1O[C@H](OC[C@H]2O[C@H](Oc3c(-c4ccc(O)c(O)c4)oc4cc(O)cc(O)c4c3=O)[C@H](O)[C@H](O)[C@@H]2O)[C@@H](O)[C@H](O)[C@H]1O
REMARK SMILES IDX 7 1 36 2 34 3 32 4 9 5 8 6 6 7 5 8 4 9 1 10 2 11 42 12 3 13
REMARK SMILES IDX 40 14 38 15 43 16 41 18 39 20 37 22 35 24 10 26 11 27 12 28
REMARK SMILES IDX 30 29 21 30 29 31 31 32 22 33 27 34 23 35 26 36 24 37 13 38
REMARK SMILES IDX 20 39 14 40 18 41 15 42 16 43 19 44 17 46 28 48 25 50 33 52
REMARK H PARENT 43 17 41 19 39 21 37 23 35 25 19 45 17 47 28 49 25 51 33 53
REMARK Flexibility Score: inf
ROOT
ATOM      1  C   UNL     1      30.917 -18.329  20.275  1.00  0.00     0.180 C 
ATOM      2  C   UNL     1      30.058 -19.679  20.289  1.00  0.00     0.177 C 
ATOM      3  C   UNL     1      29.024 -19.903  21.460  1.00  0.00     0.180 C 
ATOM      4  C   UNL     1      28.475 -18.568  22.124  1.00  0.00     0.214 C 
ATOM      5  C   UNL     1      29.201 -17.309  21.650  1.00  0.00     0.339 C 
ATOM      6  O   UNL     1      30.582 -17.519  21.458  1.00  0.00    -0.332 OA
ENDROOT
BRANCH   1   7
ATOM      7  C   UNL     1      30.848 -17.560  18.886  1.00  0.00     0.198 C 
BRANCH   7   8
ATOM      8  O   UNL     1      29.707 -18.052  18.051  1.00  0.00    -0.347 OA
BRANCH   8   9
ATOM      9  C   UNL     1      28.471 -17.348  18.265  1.00  0.00     0.281 C 
ATOM     10  C   UNL     1      29.182 -18.113  15.389  1.00  0.00     0.041 C 
ATOM     11  C   UNL     1      27.871 -17.555  15.986  1.00  0.00     0.150 C 
ATOM     12  C   UNL     1      26.713 -18.606  16.171  1.00  0.00     0.174 C 
ATOM     13  O   UNL     1      28.068 -16.654  17.073  1.00  0.00    -0.344 OA
ATOM     14  C   UNL     1      26.444 -19.037  17.641  1.00  0.00     0.179 C 
ATOM     15  C   UNL     1      27.139 -18.133  18.720  1.00  0.00     0.202 C 
BRANCH  12  16
ATOM     16  O   UNL     1      25.513 -18.205  15.537  1.00  0.00    -0.388 OA
ATOM     17  H   UNL     1      25.479 -17.214  15.658  1.00  0.00     0.211 HD
ENDBRANCH  12  16
BRANCH  14  18
ATOM     18  O   UNL     1      26.609 -20.426  17.869  1.00  0.00    -0.387 OA
ATOM     19  H   UNL     1      25.709 -20.851  17.850  1.00  0.00     0.211 HD
ENDBRANCH  14  18
BRANCH  15  20
ATOM     20  O   UNL     1      26.125 -17.248  19.306  1.00  0.00    -0.385 OA
ATOM     21  H   UNL     1      25.401 -17.172  18.607  1.00  0.00     0.211 HD
ENDBRANCH  15  20
ENDBRANCH   8   9
ENDBRANCH   7   8
ENDBRANCH   1   7
BRANCH   2  22
ATOM     22  O   UNL     1      30.864 -20.852  20.230  1.00  0.00    -0.387 OA
ATOM     23  H   UNL     1      31.829 -20.596  20.254  1.00  0.00     0.211 HD
ENDBRANCH   2  22
BRANCH   3  24
ATOM     24  O   UNL     1      29.418 -20.904  22.383  1.00  0.00    -0.387 OA
ATOM     25  H   UNL     1      28.666 -21.519  22.588  1.00  0.00     0.211 HD
ENDBRANCH   3  24
BRANCH   5  26
ATOM     26  O   UNL     1      29.056 -16.213  22.723  1.00  0.00    -0.454 OA
BRANCH  26  27
ATOM     27  C   UNL     1      28.314 -14.959  22.821  1.00  0.00     0.214 A 
ATOM     28  C   UNL     1      28.897 -13.689  22.903  1.00  0.00     0.180 A 
ATOM     29  C   UNL     1      26.911 -14.995  23.313  1.00  0.00     0.239 A 
ATOM     30  O   UNL     1      28.457 -12.772  23.760  1.00  0.00    -0.452 OA
ATOM     31  C   UNL     1      26.532 -13.952  24.253  1.00  0.00     0.111 A 
ATOM     32  O   UNL     1      26.176 -16.010  23.234  1.00  0.00    -0.285 OA
ATOM     33  C   UNL     1      27.513 -12.993  24.604  1.00  0.00     0.146 A 
ATOM     34  C   UNL     1      25.497 -14.153  25.213  1.00  0.00     0.134 A 
ATOM     35  C   UNL     1      27.662 -12.566  25.942  1.00  0.00     0.094 A 
ATOM     36  C   UNL     1      25.754 -13.882  26.541  1.00  0.00     0.093 A 
ATOM     37  C   UNL     1      26.865 -13.162  26.945  1.00  0.00     0.123 A 
BRANCH  28  38
ATOM     38  C   UNL     1      30.299 -13.456  22.679  1.00  0.00     0.025 A 
ATOM     39  C   UNL     1      30.429 -12.108  22.744  1.00  0.00     0.062 A 
ATOM     40  C   UNL     1      31.025 -14.128  21.687  1.00  0.00     0.016 A 
ATOM     41  C   UNL     1      31.236 -11.446  21.924  1.00  0.00     0.158 A 
ATOM     42  C   UNL     1      32.052 -13.525  21.044  1.00  0.00     0.051 A 
ATOM     43  C   UNL     1      31.936 -12.123  20.932  1.00  0.00     0.157 A 
BRANCH  41  44
ATOM     44  O   UNL     1      30.889 -10.064  21.891  1.00  0.00    -0.504 OA
ATOM     45  H   UNL     1      31.363  -9.439  22.554  1.00  0.00     0.293 HD
ENDBRANCH  41  44
BRANCH  43  46
ATOM     46  O   UNL     1      32.124 -11.556  19.637  1.00  0.00    -0.504 OA
ATOM     47  H   UNL     1      31.756 -10.620  19.423  1.00  0.00     0.293 HD
ENDBRANCH  43  46
ENDBRANCH  28  38
BRANCH  34  48
ATOM     48  O   UNL     1      24.181 -14.509  24.837  1.00  0.00    -0.507 OA
ATOM     49  H   UNL     1      23.536 -14.938  25.506  1.00  0.00     0.293 HD
ENDBRANCH  34  48
BRANCH  37  50
ATOM     50  O   UNL     1      27.356 -13.264  28.263  1.00  0.00    -0.508 OA
ATOM     51  H   UNL     1      27.511 -12.434  28.828  1.00  0.00     0.293 HD
ENDBRANCH  37  50
ENDBRANCH  26  27
ENDBRANCH   5  26
BRANCH   4  52
ATOM     52  O   UNL     1      28.432 -18.627  23.543  1.00  0.00    -0.384 OA
ATOM     53  H   UNL     1      29.302 -18.200  23.921  1.00  0.00     0.211 HD
ENDBRANCH   4  52
TORSDOF 16
ENDMDL
MODEL 4
REMARK VINA RESULT:    -7.358      1.438      2.171
REMARK INTER + INTRA:         -13.898
REMARK INTER:                 -11.872
REMARK INTRA:                  -2.026
REMARK UNBOUND:                -1.809
REMARK SMILES C[C@@H]1O[C@H](OC[C@H]2O[C@H](Oc3c(-c4ccc(O)c(O)c4)oc4cc(O)cc(O)c4c3=O)[C@H](O)[C@H](O)[C@@H]2O)[C@@H](O)[C@H](O)[C@H]1O
REMARK SMILES IDX 7 1 36 2 34 3 32 4 9 5 8 6 6 7 5 8 4 9 1 10 2 11 42 12 3 13
REMARK SMILES IDX 40 14 38 15 43 16 41 18 39 20 37 22 35 24 10 26 11 27 12 28
REMARK SMILES IDX 30 29 21 30 29 31 31 32 22 33 27 34 23 35 26 36 24 37 13 38
REMARK SMILES IDX 20 39 14 40 18 41 15 42 16 43 19 44 17 46 28 48 25 50 33 52
REMARK H PARENT 43 17 41 19 39 21 37 23 35 25 19 45 17 47 28 49 25 51 33 53
REMARK Flexibility Score: inf
ROOT
ATOM      1  C   UNL     1      25.297  -9.408  31.335  1.00  0.00     0.180 C 
ATOM      2  C   UNL     1      26.172  -8.826  32.542  1.00  0.00     0.177 C 
ATOM      3  C   UNL     1      27.719  -9.137  32.569  1.00  0.00     0.180 C 
ATOM      4  C   UNL     1      28.362  -9.423  31.145  1.00  0.00     0.214 C 
ATOM      5  C   UNL     1      27.331  -9.552  30.024  1.00  0.00     0.339 C 
ATOM      6  O   UNL     1      26.154 -10.206  30.444  1.00  0.00    -0.332 OA
ENDROOT
BRANCH   1   7
ATOM      7  C   UNL     1      24.414  -8.300  30.614  1.00  0.00     0.198 C 
BRANCH   7   8
ATOM      8  O   UNL     1      23.021  -8.792  30.372  1.00  0.00    -0.347 OA
BRANCH   8   9
ATOM      9  C   UNL     1      22.872  -9.586  29.182  1.00  0.00     0.281 C 
ATOM     10  C   UNL     1      21.140 -10.320  31.596  1.00  0.00     0.041 C 
ATOM     11  C   UNL     1      21.087 -10.812  30.133  1.00  0.00     0.150 C 
ATOM     12  C   UNL     1      19.928 -10.204  29.258  1.00  0.00     0.174 C 
ATOM     13  O   UNL     1      22.362 -10.891  29.502  1.00  0.00    -0.344 OA
ATOM     14  C   UNL     1      20.380  -9.148  28.208  1.00  0.00     0.179 C 
ATOM     15  C   UNL     1      21.930  -9.093  27.971  1.00  0.00     0.202 C 
BRANCH  12  16
ATOM     16  O   UNL     1      19.125 -11.202  28.654  1.00  0.00    -0.388 OA
ATOM     17  H   UNL     1      18.617 -10.723  27.940  1.00  0.00     0.211 HD
ENDBRANCH  12  16
BRANCH  14  18
ATOM     18  O   UNL     1      19.784  -7.875  28.385  1.00  0.00    -0.387 OA
ATOM     19  H   UNL     1      20.511  -7.198  28.437  1.00  0.00     0.211 HD
ENDBRANCH  14  18
BRANCH  15  20
ATOM     20  O   UNL     1      22.229  -9.768  26.702  1.00  0.00    -0.385 OA
ATOM     21  H   UNL     1      21.622 -10.574  26.678  1.00  0.00     0.211 HD
ENDBRANCH  15  20
ENDBRANCH   8   9
ENDBRANCH   7   8
ENDBRANCH   1   7
BRANCH   2  22
ATOM     22  O   UNL     1      25.664  -9.187  33.823  1.00  0.00    -0.387 OA
ATOM     23  H   UNL     1      25.702 -10.179  33.931  1.00  0.00     0.211 HD
ENDBRANCH   2  22
BRANCH   3  24
ATOM     24  O   UNL     1      28.099 -10.050  33.584  1.00  0.00    -0.387 OA
ATOM     25  H   UNL     1      28.678 -10.771  33.220  1.00  0.00     0.211 HD
ENDBRANCH   3  24
BRANCH   5  26
ATOM     26  O   UNL     1      27.932 -10.392  28.882  1.00  0.00    -0.454 OA
BRANCH  26  27
ATOM     27  C   UNL     1      27.897 -10.322  27.423  1.00  0.00     0.214 A 
ATOM     28  C   UNL     1      27.233 -11.233  26.595  1.00  0.00     0.180 A 
ATOM     29  C   UNL     1      28.957  -9.551  26.720  1.00  0.00     0.239 A 
ATOM     30  O   UNL     1      27.795 -11.711  25.489  1.00  0.00    -0.452 OA
ATOM     31  C   UNL     1      29.514 -10.166  25.525  1.00  0.00     0.111 A 
ATOM     32  O   UNL     1      29.602  -8.616  27.254  1.00  0.00    -0.285 OA
ATOM     33  C   UNL     1      28.995 -11.423  25.128  1.00  0.00     0.146 A 
ATOM     34  C   UNL     1      30.841  -9.883  25.090  1.00  0.00     0.134 A 
ATOM     35  C   UNL     1      29.853 -12.450  24.677  1.00  0.00     0.094 A 
ATOM     36  C   UNL     1      31.697 -10.931  24.828  1.00  0.00     0.093 A 
ATOM     37  C   UNL     1      31.249 -12.234  24.694  1.00  0.00     0.123 A 
BRANCH  28  38
ATOM     38  C   UNL     1      26.319 -12.224  27.096  1.00  0.00     0.025 A 
ATOM     39  C   UNL     1      26.860 -13.406  26.709  1.00  0.00     0.062 A 
ATOM     40  C   UNL     1      24.928 -12.086  26.996  1.00  0.00     0.016 A 
ATOM     41  C   UNL     1      26.105 -14.410  26.280  1.00  0.00     0.158 A 
ATOM     42  C   UNL     1      24.129 -13.167  26.839  1.00  0.00     0.051 A 
ATOM     43  C   UNL     1      24.728 -14.253  26.166  1.00  0.00     0.157 A 
BRANCH  41  44
ATOM     44  O   UNL     1      26.890 -15.346  25.547  1.00  0.00    -0.504 OA
ATOM     45  H   UNL     1      27.904 -15.181  25.499  1.00  0.00     0.293 HD
ENDBRANCH  41  44
BRANCH  43  46
ATOM     46  O   UNL     1      24.003 -14.825  25.080  1.00  0.00    -0.504 OA
ATOM     47  H   UNL     1      23.877 -15.843  25.020  1.00  0.00     0.293 HD
ENDBRANCH  43  46
ENDBRANCH  28  38
BRANCH  34  48
ATOM     48  O   UNL     1      31.275  -8.567  24.804  1.00  0.00    -0.507 OA
ATOM     49  H   UNL     1      32.259  -8.302  24.894  1.00  0.00     0.293 HD
ENDBRANCH  34  48
BRANCH  37  50
ATOM     50  O   UNL     1      32.125 -13.325  24.871  1.00  0.00    -0.508 OA
ATOM     51  H   UNL     1      31.816 -14.171  25.342  1.00  0.00     0.293 HD
ENDBRANCH  37  50
ENDBRANCH  26  27
ENDBRANCH   5  26
BRANCH   4  52
ATOM     52  O   UNL     1      29.252 -10.532  31.146  1.00  0.00    -0.384 OA
ATOM     53  H   UNL     1      30.018 -10.345  30.469  1.00  0.00     0.211 HD
ENDBRANCH   4  52
TORSDOF 16
ENDMDL
MODEL 5
REMARK VINA RESULT:    -7.149      3.488      8.752
REMARK INTER + INTRA:         -13.554
REMARK INTER:                 -11.742
REMARK INTRA:                  -1.812
REMARK UNBOUND:                -1.809
REMARK SMILES C[C@@H]1O[C@H](OC[C@H]2O[C@H](Oc3c(-c4ccc(O)c(O)c4)oc4cc(O)cc(O)c4c3=O)[C@H](O)[C@H](O)[C@@H]2O)[C@@H](O)[C@H](O)[C@H]1O
REMARK SMILES IDX 7 1 36 2 34 3 32 4 9 5 8 6 6 7 5 8 4 9 1 10 2 11 42 12 3 13
REMARK SMILES IDX 40 14 38 15 43 16 41 18 39 20 37 22 35 24 10 26 11 27 12 28
REMARK SMILES IDX 30 29 21 30 29 31 31 32 22 33 27 34 23 35 26 36 24 37 13 38
REMARK SMILES IDX 20 39 14 40 18 41 15 42 16 43 19 44 17 46 28 48 25 50 33 52
REMARK H PARENT 43 17 41 19 39 21 37 23 35 25 19 45 17 47 28 49 25 51 33 53
REMARK Flexibility Score: inf
ROOT
ATOM      1  C   UNL     1      26.358 -15.449  24.366  1.00  0.00     0.180 C 
ATOM      2  C   UNL     1      24.853 -15.034  24.718  1.00  0.00     0.177 C 
ATOM      3  C   UNL     1      24.610 -13.713  25.546  1.00  0.00     0.180 C 
ATOM      4  C   UNL     1      25.756 -12.622  25.405  1.00  0.00     0.214 C 
ATOM      5  C   UNL     1      26.990 -13.127  24.658  1.00  0.00     0.339 C 
ATOM      6  O   UNL     1      27.290 -14.473  24.955  1.00  0.00    -0.332 OA
ENDROOT
BRANCH   1   7
ATOM      7  C   UNL     1      26.578 -15.748  22.820  1.00  0.00     0.198 C 
BRANCH   7   8
ATOM      8  O   UNL     1      27.501 -16.910  22.621  1.00  0.00    -0.347 OA
BRANCH   8   9
ATOM      9  C   UNL     1      28.520 -16.693  21.630  1.00  0.00     0.281 C 
ATOM     10  C   UNL     1      28.788 -19.164  23.415  1.00  0.00     0.041 C 
ATOM     11  C   UNL     1      29.566 -18.752  22.145  1.00  0.00     0.150 C 
ATOM     12  C   UNL     1      29.168 -19.521  20.830  1.00  0.00     0.174 C 
ATOM     13  O   UNL     1      29.744 -17.344  22.007  1.00  0.00    -0.344 OA
ATOM     14  C   UNL     1      28.336 -18.694  19.809  1.00  0.00     0.179 C 
ATOM     15  C   UNL     1      28.299 -17.152  20.100  1.00  0.00     0.202 C 
BRANCH  12  16
ATOM     16  O   UNL     1      30.282 -20.125  20.199  1.00  0.00    -0.388 OA
ATOM     17  H   UNL     1      30.887 -19.365  19.966  1.00  0.00     0.211 HD
ENDBRANCH  12  16
BRANCH  14  18
ATOM     18  O   UNL     1      27.065 -19.252  19.523  1.00  0.00    -0.387 OA
ATOM     19  H   UNL     1      26.587 -19.391  20.385  1.00  0.00     0.211 HD
ENDBRANCH  14  18
BRANCH  15  20
ATOM     20  O   UNL     1      29.209 -16.482  19.164  1.00  0.00    -0.385 OA
ATOM     21  H   UNL     1      28.667 -16.333  18.326  1.00  0.00     0.211 HD
ENDBRANCH  15  20
ENDBRANCH   8   9
ENDBRANCH   7   8
ENDBRANCH   1   7
BRANCH   2  22
ATOM     22  O   UNL     1      24.132 -16.067  25.381  1.00  0.00    -0.387 OA
ATOM     23  H   UNL     1      23.154 -15.955  25.211  1.00  0.00     0.211 HD
ENDBRANCH   2  22
BRANCH   3  24
ATOM     24  O   UNL     1      24.174 -13.946  26.874  1.00  0.00    -0.387 OA
ATOM     25  H   UNL     1      23.267 -14.350  26.890  1.00  0.00     0.211 HD
ENDBRANCH   3  24
BRANCH   5  26
ATOM     26  O   UNL     1      28.211 -12.289  25.082  1.00  0.00    -0.454 OA
BRANCH  26  27
ATOM     27  C   UNL     1      29.650 -12.372  24.844  1.00  0.00     0.214 A 
ATOM     28  C   UNL     1      30.620 -11.653  25.552  1.00  0.00     0.180 A 
ATOM     29  C   UNL     1      30.129 -12.866  23.526  1.00  0.00     0.239 A 
ATOM     30  O   UNL     1      31.637 -11.058  24.936  1.00  0.00    -0.452 OA
ATOM     31  C   UNL     1      31.241 -12.141  22.932  1.00  0.00     0.111 A 
ATOM     32  O   UNL     1      29.452 -13.615  22.780  1.00  0.00    -0.285 OA
ATOM     33  C   UNL     1      31.778 -11.049  23.658  1.00  0.00     0.146 A 
ATOM     34  C   UNL     1      31.434 -12.095  21.521  1.00  0.00     0.134 A 
ATOM     35  C   UNL     1      32.125  -9.846  23.004  1.00  0.00     0.094 A 
ATOM     36  C   UNL     1      31.597 -10.872  20.907  1.00  0.00     0.093 A 
ATOM     37  C   UNL     1      31.864  -9.717  21.622  1.00  0.00     0.123 A 
BRANCH  28  38
ATOM     38  C   UNL     1      30.325 -10.910  26.748  1.00  0.00     0.025 A 
ATOM     39  C   UNL     1      29.889 -11.848  27.625  1.00  0.00     0.062 A 
ATOM     40  C   UNL     1      29.652  -9.682  26.726  1.00  0.00     0.016 A 
ATOM     41  C   UNL     1      28.883 -11.608  28.457  1.00  0.00     0.158 A 
ATOM     42  C   UNL     1      28.831  -9.318  27.739  1.00  0.00     0.051 A 
ATOM     43  C   UNL     1      28.210 -10.392  28.412  1.00  0.00     0.157 A 
BRANCH  41  44
ATOM     44  O   UNL     1      28.342 -12.830  28.951  1.00  0.00    -0.504 OA
ATOM     45  H   UNL     1      27.885 -12.810  29.871  1.00  0.00     0.293 HD
ENDBRANCH  41  44
BRANCH  43  46
ATOM     46  O   UNL     1      26.798 -10.318  28.591  1.00  0.00    -0.504 OA
ATOM     47  H   UNL     1      26.181 -11.003  28.137  1.00  0.00     0.293 HD
ENDBRANCH  43  46
ENDBRANCH  28  38
BRANCH  34  48
ATOM     48  O   UNL     1      31.581 -13.268  20.744  1.00  0.00    -0.507 OA
ATOM     49  H   UNL     1      30.841 -13.581  20.110  1.00  0.00     0.293 HD
ENDBRANCH  34  48
BRANCH  37  50
ATOM     50  O   UNL     1      31.594  -8.446  21.075  1.00  0.00    -0.508 OA
ATOM     51  H   UNL     1      32.324  -7.911  20.613  1.00  0.00     0.293 HD
ENDBRANCH  37  50
ENDBRANCH  26  27
ENDBRANCH   5  26
BRANCH   4  52
ATOM     52  O   UNL     1      26.119 -12.031  26.646  1.00  0.00    -0.384 OA
ATOM     53  H   UNL     1      25.299 -12.066  27.284  1.00  0.00     0.211 HD
ENDBRANCH   4  52
TORSDOF 16
ENDMDL
MODEL 6
REMARK VINA RESULT:    -7.005      1.689      9.612
REMARK INTER + INTRA:         -13.318
REMARK INTER:                 -10.815
REMARK INTRA:                  -2.502
REMARK UNBOUND:                -1.809
REMARK SMILES C[C@@H]1O[C@H](OC[C@H]2O[C@H](Oc3c(-c4ccc(O)c(O)c4)oc4cc(O)cc(O)c4c3=O)[C@H](O)[C@H](O)[C@@H]2O)[C@@H](O)[C@H](O)[C@H]1O
REMARK SMILES IDX 7 1 36 2 34 3 32 4 9 5 8 6 6 7 5 8 4 9 1 10 2 11 42 12 3 13
REMARK SMILES IDX 40 14 38 15 43 16 41 18 39 20 37 22 35 24 10 26 11 27 12 28
REMARK SMILES IDX 30 29 21 30 29 31 31 32 22 33 27 34 23 35 26 36 24 37 13 38
REMARK SMILES IDX 20 39 14 40 18 41 15 42 16 43 19 44 17 46 28 48 25 50 33 52
REMARK H PARENT 43 17 41 19 39 21 37 23 35 25 19 45 17 47 28 49 25 51 33 53
REMARK Flexibility Score: inf
ROOT
ATOM      1  C   UNL     1      27.546 -12.019  27.182  1.00  0.00     0.180 C 
ATOM      2  C   UNL     1      26.913 -12.753  25.908  1.00  0.00     0.177 C 
ATOM      3  C   UNL     1      25.369 -13.074  25.913  1.00  0.00     0.180 C 
ATOM      4  C   UNL     1      24.496 -12.117  26.833  1.00  0.00     0.214 C 
ATOM      5  C   UNL     1      25.332 -11.186  27.711  1.00  0.00     0.339 C 
ATOM      6  O   UNL     1      26.502 -11.806  28.197  1.00  0.00    -0.332 OA
ENDROOT
BRANCH   1   7
ATOM      7  C   UNL     1      28.396 -10.730  26.802  1.00  0.00     0.198 C 
BRANCH   7   8
ATOM      8  O   UNL     1      29.684 -11.109  26.140  1.00  0.00    -0.347 OA
BRANCH   8   9
ATOM      9  C   UNL     1      29.890 -10.497  24.855  1.00  0.00     0.281 C 
ATOM     10  C   UNL     1      32.061 -12.394  25.882  1.00  0.00     0.041 C 
ATOM     11  C   UNL     1      31.865 -11.748  24.492  1.00  0.00     0.150 C 
ATOM     12  C   UNL     1      31.302 -12.706  23.376  1.00  0.00     0.174 C 
ATOM     13  O   UNL     1      31.291 -10.444  24.536  1.00  0.00    -0.344 OA
ATOM     14  C   UNL     1      29.816 -12.460  22.987  1.00  0.00     0.179 C 
ATOM     15  C   UNL     1      29.218 -11.113  23.526  1.00  0.00     0.202 C 
BRANCH  12  16
ATOM     16  O   UNL     1      32.125 -12.737  22.225  1.00  0.00    -0.388 OA
ATOM     17  H   UNL     1      32.986 -12.323  22.516  1.00  0.00     0.211 HD
ENDBRANCH  12  16
BRANCH  14  18
ATOM     18  O   UNL     1      28.977 -13.582  23.198  1.00  0.00    -0.387 OA
ATOM     19  H   UNL     1      28.032 -13.281  23.121  1.00  0.00     0.211 HD
ENDBRANCH  14  18
BRANCH  15  20
ATOM     20  O   UNL     1      29.160 -10.154  22.416  1.00  0.00    -0.385 OA
ATOM     21  H   UNL     1      28.278 -10.328  21.959  1.00  0.00     0.211 HD
ENDBRANCH  15  20
ENDBRANCH   8   9
ENDBRANCH   7   8
ENDBRANCH   1   7
BRANCH   2  22
ATOM     22  O   UNL     1      27.579 -13.967  25.577  1.00  0.00    -0.387 OA
ATOM     23  H   UNL     1      27.924 -13.916  24.642  1.00  0.00     0.211 HD
ENDBRANCH   2  22
BRANCH   3  24
ATOM     24  O   UNL     1      25.075 -14.454  26.048  1.00  0.00    -0.387 OA
ATOM     25  H   UNL     1      24.295 -14.598  26.646  1.00  0.00     0.211 HD
ENDBRANCH   3  24
BRANCH   5  26
ATOM     26  O   UNL     1      24.498 -10.770  28.938  1.00  0.00    -0.454 OA
BRANCH  26  27
ATOM     27  C   UNL     1      23.554  -9.693  29.225  1.00  0.00     0.214 A 
ATOM     28  C   UNL     1      23.682  -8.777  30.275  1.00  0.00     0.180 A 
ATOM     29  C   UNL     1      22.166  -9.804  28.705  1.00  0.00     0.239 A 
ATOM     30  O   UNL     1      22.646  -8.439  31.038  1.00  0.00    -0.452 OA
ATOM     31  C   UNL     1      21.103  -9.418  29.621  1.00  0.00     0.111 A 
ATOM     32  O   UNL     1      21.854 -10.492  27.703  1.00  0.00    -0.285 OA
ATOM     33  C   UNL     1      21.477  -8.960  30.908  1.00  0.00     0.146 A 
ATOM     34  C   UNL     1      19.794  -9.974  29.523  1.00  0.00     0.134 A 
ATOM     35  C   UNL     1      20.768  -9.372  32.058  1.00  0.00     0.094 A 
ATOM     36  C   UNL     1      19.214 -10.523  30.646  1.00  0.00     0.093 A 
ATOM     37  C   UNL     1      19.719 -10.308  31.917  1.00  0.00     0.123 A 
BRANCH  28  38
ATOM     38  C   UNL     1      24.878  -8.653  31.065  1.00  0.00     0.025 A 
ATOM     39  C   UNL     1      25.782  -8.099  30.219  1.00  0.00     0.062 A 
ATOM     40  C   UNL     1      25.327  -9.671  31.915  1.00  0.00     0.016 A 
ATOM     41  C   UNL     1      27.053  -8.479  30.214  1.00  0.00     0.158 A 
ATOM     42  C   UNL     1      26.650  -9.871  32.127  1.00  0.00     0.051 A 
ATOM     43  C   UNL     1      27.483  -9.504  31.049  1.00  0.00     0.157 A 
BRANCH  41  44
ATOM     44  O   UNL     1      27.685  -8.089  28.997  1.00  0.00    -0.504 OA
ATOM     45  H   UNL     1      27.078  -7.812  28.215  1.00  0.00     0.293 HD
ENDBRANCH  41  44
BRANCH  43  46
ATOM     46  O   UNL     1      28.442 -10.464  30.613  1.00  0.00    -0.504 OA
ATOM     47  H   UNL     1      29.423 -10.391  30.914  1.00  0.00     0.293 HD
ENDBRANCH  43  46
ENDBRANCH  28  38
BRANCH  34  48
ATOM     48  O   UNL     1      19.023  -9.877  28.341  1.00  0.00    -0.507 OA
ATOM     49  H   UNL     1      19.265 -10.414  27.504  1.00  0.00     0.293 HD
ENDBRANCH  34  48
BRANCH  37  50
ATOM     50  O   UNL     1      19.420 -11.190  32.976  1.00  0.00    -0.508 OA
ATOM     51  H   UNL     1      18.582 -11.765  32.954  1.00  0.00     0.293 HD
ENDBRANCH  37  50
ENDBRANCH  26  27
ENDBRANCH   5  26
BRANCH   4  52
ATOM     52  O   UNL     1      23.530 -12.816  27.608  1.00  0.00    -0.384 OA
ATOM     53  H   UNL     1      24.014 -13.557  28.153  1.00  0.00     0.211 HD
ENDBRANCH   4  52
TORSDOF 16
ENDMDL
MODEL 7
REMARK VINA RESULT:    -6.620      1.766      6.278
REMARK INTER + INTRA:         -12.686
REMARK INTER:                 -10.760
REMARK INTRA:                  -1.926
REMARK UNBOUND:                -1.809
REMARK SMILES C[C@@H]1O[C@H](OC[C@H]2O[C@H](Oc3c(-c4ccc(O)c(O)c4)oc4cc(O)cc(O)c4c3=O)[C@H](O)[C@H](O)[C@@H]2O)[C@@H](O)[C@H](O)[C@H]1O
REMARK SMILES IDX 7 1 36 2 34 3 32 4 9 5 8 6 6 7 5 8 4 9 1 10 2 11 42 12 3 13
REMARK SMILES IDX 40 14 38 15 43 16 41 18 39 20 37 22 35 24 10 26 11 27 12 28
REMARK SMILES IDX 30 29 21 30 29 31 31 32 22 33 27 34 23 35 26 36 24 37 13 38
REMARK SMILES IDX 20 39 14 40 18 41 15 42 16 43 19 44 17 46 28 48 25 50 33 52
REMARK H PARENT 43 17 41 19 39 21 37 23 35 25 19 45 17 47 28 49 25 51 33 53
REMARK Flexibility Score: inf
ROOT
ATOM      1  C   UNL     1      24.712 -12.408  26.305  1.00  0.00     0.180 C 
ATOM      2  C   UNL     1      25.050 -13.863  25.731  1.00  0.00     0.177 C 
ATOM      3  C   UNL     1      26.536 -14.178  25.303  1.00  0.00     0.180 C 
ATOM      4  C   UNL     1      27.638 -13.304  26.043  1.00  0.00     0.214 C 
ATOM      5  C   UNL     1      27.053 -12.171  26.886  1.00  0.00     0.339 C 
ATOM      6  O   UNL     1      25.925 -11.575  26.284  1.00  0.00    -0.332 OA
ENDROOT
BRANCH   1   7
ATOM      7  C   UNL     1      23.940 -12.448  27.694  1.00  0.00     0.198 C 
BRANCH   7   8
ATOM      8  O   UNL     1      22.938 -11.340  27.787  1.00  0.00    -0.347 OA
BRANCH   8   9
ATOM      9  C   UNL     1      22.741 -10.831  29.118  1.00  0.00     0.281 C 
ATOM     10  C   UNL     1      22.228  -8.919  26.784  1.00  0.00     0.041 C 
ATOM     11  C   UNL     1      21.920  -8.772  28.291  1.00  0.00     0.150 C 
ATOM     12  C   UNL     1      20.411  -8.974  28.693  1.00  0.00     0.174 C 
ATOM     13  O   UNL     1      22.876  -9.400  29.141  1.00  0.00    -0.344 OA
ATOM     14  C   UNL     1      20.097 -10.314  29.418  1.00  0.00     0.179 C 
ATOM     15  C   UNL     1      21.363 -11.098  29.911  1.00  0.00     0.202 C 
BRANCH  12  16
ATOM     16  O   UNL     1      19.895  -7.875  29.422  1.00  0.00    -0.388 OA
ATOM     17  H   UNL     1      19.267  -8.280  30.084  1.00  0.00     0.211 HD
ENDBRANCH  12  16
BRANCH  14  18
ATOM     18  O   UNL     1      19.154 -11.123  28.736  1.00  0.00    -0.387 OA
ATOM     19  H   UNL     1      18.259 -10.697  28.827  1.00  0.00     0.211 HD
ENDBRANCH  14  18
BRANCH  15  20
ATOM     20  O   UNL     1      21.492 -10.907  31.361  1.00  0.00    -0.385 OA
ATOM     21  H   UNL     1      21.230  -9.946  31.528  1.00  0.00     0.211 HD
ENDBRANCH  15  20
ENDBRANCH   8   9
ENDBRANCH   7   8
ENDBRANCH   1   7
BRANCH   2  22
ATOM     22  O   UNL     1      24.224 -14.235  24.632  1.00  0.00    -0.387 OA
ATOM     23  H   UNL     1      23.456 -14.780  24.961  1.00  0.00     0.211 HD
ENDBRANCH   2  22
BRANCH   3  24
ATOM     24  O   UNL     1      26.713 -14.289  23.901  1.00  0.00    -0.387 OA
ATOM     25  H   UNL     1      26.007 -13.792  23.409  1.00  0.00     0.211 HD
ENDBRANCH   3  24
BRANCH   5  26
ATOM     26  O   UNL     1      28.114 -11.067  27.049  1.00  0.00    -0.454 OA
BRANCH  26  27
ATOM     27  C   UNL     1      28.158  -9.772  27.723  1.00  0.00     0.214 A 
ATOM     28  C   UNL     1      29.220  -8.863  27.639  1.00  0.00     0.180 A 
ATOM     29  C   UNL     1      27.289  -9.554  28.909  1.00  0.00     0.239 A 
ATOM     30  O   UNL     1      29.686  -8.233  28.714  1.00  0.00    -0.452 OA
ATOM     31  C   UNL     1      27.897  -8.862  30.035  1.00  0.00     0.111 A 
ATOM     32  O   UNL     1      26.228 -10.193  29.117  1.00  0.00    -0.285 OA
ATOM     33  C   UNL     1      29.244  -8.446  29.902  1.00  0.00     0.146 A 
ATOM     34  C   UNL     1      27.447  -9.072  31.371  1.00  0.00     0.134 A 
ATOM     35  C   UNL     1      30.158  -8.603  30.967  1.00  0.00     0.094 A 
ATOM     36  C   UNL     1      28.368  -9.395  32.345  1.00  0.00     0.093 A 
ATOM     37  C   UNL     1      29.730  -9.248  32.149  1.00  0.00     0.123 A 
BRANCH  28  38
ATOM     38  C   UNL     1      30.299  -9.005  26.700  1.00  0.00     0.025 A 
ATOM     39  C   UNL     1      29.848  -8.394  25.576  1.00  0.00     0.062 A 
ATOM     40  C   UNL     1      31.010 -10.202  26.544  1.00  0.00     0.016 A 
ATOM     41  C   UNL     1      30.093  -8.887  24.369  1.00  0.00     0.158 A 
ATOM     42  C   UNL     1      31.510 -10.564  25.339  1.00  0.00     0.051 A 
ATOM     43  C   UNL     1      30.783 -10.086  24.229  1.00  0.00     0.157 A 
BRANCH  41  44
ATOM     44  O   UNL     1      29.188  -8.342  23.414  1.00  0.00    -0.504 OA
ATOM     45  H   UNL     1      28.182  -8.447  23.598  1.00  0.00     0.293 HD
ENDBRANCH  41  44
BRANCH  43  46
ATOM     46  O   UNL     1      30.423 -11.037  23.230  1.00  0.00    -0.504 OA
ATOM     47  H   UNL     1      30.956 -11.911  23.129  1.00  0.00     0.293 HD
ENDBRANCH  43  46
ENDBRANCH  28  38
BRANCH  34  48
ATOM     48  O   UNL     1      26.105  -8.846  31.757  1.00  0.00    -0.507 OA
ATOM     49  H   UNL     1      25.843  -8.027  32.312  1.00  0.00     0.293 HD
ENDBRANCH  34  48
BRANCH  37  50
ATOM     50  O   UNL     1      30.658  -9.967  32.930  1.00  0.00    -0.508 OA
ATOM     51  H   UNL     1      30.417 -10.874  33.322  1.00  0.00     0.293 HD
ENDBRANCH  37  50
ENDBRANCH  26  27
ENDBRANCH   5  26
BRANCH   4  52
ATOM     52  O   UNL     1      28.646 -12.818  25.167  1.00  0.00    -0.384 OA
ATOM     53  H   UNL     1      29.026 -13.616  24.620  1.00  0.00     0.211 HD
ENDBRANCH   4  52
TORSDOF 16
ENDMDL
MODEL 8
REMARK VINA RESULT:    -6.510      4.448     10.951
REMARK INTER + INTRA:         -12.505
REMARK INTER:                 -11.199
REMARK INTRA:                  -1.307
REMARK UNBOUND:                -1.809
REMARK SMILES C[C@@H]1O[C@H](OC[C@H]2O[C@H](Oc3c(-c4ccc(O)c(O)c4)oc4cc(O)cc(O)c4c3=O)[C@H](O)[C@H](O)[C@@H]2O)[C@@H](O)[C@H](O)[C@H]1O
REMARK SMILES IDX 7 1 36 2 34 3 32 4 9 5 8 6 6 7 5 8 4 9 1 10 2 11 42 12 3 13
REMARK SMILES IDX 40 14 38 15 43 16 41 18 39 20 37 22 35 24 10 26 11 27 12 28
REMARK SMILES IDX 30 29 21 30 29 31 31 32 22 33 27 34 23 35 26 36 24 37 13 38
REMARK SMILES IDX 20 39 14 40 18 41 15 42 16 43 19 44 17 46 28 48 25 50 33 52
REMARK H PARENT 43 17 41 19 39 21 37 23 35 25 19 45 17 47 28 49 25 51 33 53
REMARK Flexibility Score: inf
ROOT
ATOM      1  C   UNL     1      30.421 -16.773  19.808  1.00  0.00     0.180 C 
ATOM      2  C   UNL     1      31.596 -16.177  18.900  1.00  0.00     0.177 C 
ATOM      3  C   UNL     1      32.125 -14.723  19.210  1.00  0.00     0.180 C 
ATOM      4  C   UNL     1      31.922 -14.250  20.713  1.00  0.00     0.214 C 
ATOM      5  C   UNL     1      31.065 -15.206  21.542  1.00  0.00     0.339 C 
ATOM      6  O   UNL     1      30.005 -15.767  20.799  1.00  0.00    -0.332 OA
ENDROOT
BRANCH   1   7
ATOM      7  C   UNL     1      30.756 -18.210  20.400  1.00  0.00     0.198 C 
BRANCH   7   8
ATOM      8  O   UNL     1      29.569 -19.118  20.318  1.00  0.00    -0.347 OA
BRANCH   8   9
ATOM      9  C   UNL     1      28.919 -19.356  21.578  1.00  0.00     0.281 C 
ATOM     10  C   UNL     1      30.257 -21.742  20.205  1.00  0.00     0.041 C 
ATOM     11  C   UNL     1      29.668 -21.600  21.626  1.00  0.00     0.150 C 
ATOM     12  C   UNL     1      30.726 -21.441  22.782  1.00  0.00     0.174 C 
ATOM     13  O   UNL     1      28.537 -20.737  21.701  1.00  0.00    -0.344 OA
ATOM     14  C   UNL     1      30.835 -20.010  23.382  1.00  0.00     0.179 C 
ATOM     15  C   UNL     1      29.670 -19.043  22.970  1.00  0.00     0.202 C 
BRANCH  12  16
ATOM     16  O   UNL     1      30.557 -22.404  23.805  1.00  0.00    -0.388 OA
ATOM     17  H   UNL     1      30.336 -21.873  24.622  1.00  0.00     0.211 HD
ENDBRANCH  12  16
BRANCH  14  18
ATOM     18  O   UNL     1      32.125 -19.435  23.257  1.00  0.00    -0.387 OA
ATOM     19  H   UNL     1      32.469 -19.248  24.171  1.00  0.00     0.211 HD
ENDBRANCH  14  18
BRANCH  15  20
ATOM     20  O   UNL     1      28.746 -18.921  24.104  1.00  0.00    -0.385 OA
ATOM     21  H   UNL     1      29.301 -19.121  24.923  1.00  0.00     0.211 HD
ENDBRANCH  15  20
ENDBRANCH   8   9
ENDBRANCH   7   8
ENDBRANCH   1   7
BRANCH   2  22
ATOM     22  O   UNL     1      31.296 -16.211  17.508  1.00  0.00    -0.387 OA
ATOM     23  H   UNL     1      31.983 -15.688  17.005  1.00  0.00     0.211 HD
ENDBRANCH   2  22
BRANCH   3  24
ATOM     24  O   UNL     1      31.757 -13.764  18.234  1.00  0.00    -0.387 OA
ATOM     25  H   UNL     1      32.353 -12.969  18.268  1.00  0.00     0.211 HD
ENDBRANCH   3  24
BRANCH   5  26
ATOM     26  O   UNL     1      30.434 -14.428  22.712  1.00  0.00    -0.454 OA
BRANCH  26  27
ATOM     27  C   UNL     1      29.236 -13.609  22.878  1.00  0.00     0.214 A 
ATOM     28  C   UNL     1      29.238 -12.248  23.205  1.00  0.00     0.180 A 
ATOM     29  C   UNL     1      27.944 -14.283  23.171  1.00  0.00     0.239 A 
ATOM     30  O   UNL     1      28.404 -11.745  24.110  1.00  0.00    -0.452 OA
ATOM     31  C   UNL     1      27.108 -13.657  24.185  1.00  0.00     0.111 A 
ATOM     32  O   UNL     1      27.699 -15.475  22.863  1.00  0.00    -0.285 OA
ATOM     33  C   UNL     1      27.582 -12.466  24.786  1.00  0.00     0.146 A 
ATOM     34  C   UNL     1      26.187 -14.417  24.964  1.00  0.00     0.134 A 
ATOM     35  C   UNL     1      27.453 -12.257  26.177  1.00  0.00     0.094 A 
ATOM     36  C   UNL     1      26.221 -14.303  26.338  1.00  0.00     0.093 A 
ATOM     37  C   UNL     1      26.907 -13.285  26.977  1.00  0.00     0.123 A 
BRANCH  28  38
ATOM     38  C   UNL     1      30.431 -11.444  23.200  1.00  0.00     0.025 A 
ATOM     39  C   UNL     1      30.899 -11.531  24.470  1.00  0.00     0.062 A 
ATOM     40  C   UNL     1      30.494 -10.193  22.572  1.00  0.00     0.016 A 
ATOM     41  C   UNL     1      31.428 -10.484  25.090  1.00  0.00     0.158 A 
ATOM     42  C   UNL     1      31.273  -9.202  23.066  1.00  0.00     0.051 A 
ATOM     43  C   UNL     1      31.466  -9.243  24.463  1.00  0.00     0.157 A 
BRANCH  41  44
ATOM     44  O   UNL     1      31.444 -10.695  26.499  1.00  0.00    -0.504 OA
ATOM     45  H   UNL     1      31.798 -11.597  26.840  1.00  0.00     0.293 HD
ENDBRANCH  41  44
BRANCH  43  46
ATOM     46  O   UNL     1      31.231  -8.038  25.187  1.00  0.00    -0.504 OA
ATOM     47  H   UNL     1      30.275  -7.676  25.295  1.00  0.00     0.293 HD
ENDBRANCH  43  46
ENDBRANCH  28  38
BRANCH  34  48
ATOM     48  O   UNL     1      25.162 -15.192  24.374  1.00  0.00    -0.507 OA
ATOM     49  H   UNL     1      24.266 -15.337  24.848  1.00  0.00     0.293 HD
ENDBRANCH  34  48
BRANCH  37  50
ATOM     50  O   UNL     1      27.309 -13.414  28.323  1.00  0.00    -0.508 OA
ATOM     51  H   UNL     1      28.113 -12.904  28.678  1.00  0.00     0.293 HD
ENDBRANCH  37  50
ENDBRANCH  26  27
ENDBRANCH   5  26
BRANCH   4  52
ATOM     52  O   UNL     1      31.443 -12.916  20.819  1.00  0.00    -0.384 OA
ATOM     53  H   UNL     1      30.986 -12.654  19.923  1.00  0.00     0.211 HD
ENDBRANCH   4  52
TORSDOF 16
ENDMDL
MODEL 9
REMARK VINA RESULT:    -6.475      2.997      7.017
REMARK INTER + INTRA:         -12.448
REMARK INTER:                 -10.113
REMARK INTRA:                  -2.335
REMARK UNBOUND:                -1.809
REMARK SMILES C[C@@H]1O[C@H](OC[C@H]2O[C@H](Oc3c(-c4ccc(O)c(O)c4)oc4cc(O)cc(O)c4c3=O)[C@H](O)[C@H](O)[C@@H]2O)[C@@H](O)[C@H](O)[C@H]1O
REMARK SMILES IDX 7 1 36 2 34 3 32 4 9 5 8 6 6 7 5 8 4 9 1 10 2 11 42 12 3 13
REMARK SMILES IDX 40 14 38 15 43 16 41 18 39 20 37 22 35 24 10 26 11 27 12 28
REMARK SMILES IDX 30 29 21 30 29 31 31 32 22 33 27 34 23 35 26 36 24 37 13 38
REMARK SMILES IDX 20 39 14 40 18 41 15 42 16 43 19 44 17 46 28 48 25 50 33 52
REMARK H PARENT 43 17 41 19 39 21 37 23 35 25 19 45 17 47 28 49 25 51 33 53
REMARK Flexibility Score: inf
ROOT
ATOM      1  C   UNL     1      27.105 -12.191  25.595  1.00  0.00     0.180 C 
ATOM      2  C   UNL     1      25.968 -13.188  26.115  1.00  0.00     0.177 C 
ATOM      3  C   UNL     1      25.541 -14.393  25.191  1.00  0.00     0.180 C 
ATOM      4  C   UNL     1      26.661 -14.877  24.173  1.00  0.00     0.214 C 
ATOM      5  C   UNL     1      27.880 -13.956  24.126  1.00  0.00     0.339 C 
ATOM      6  O   UNL     1      27.536 -12.594  24.246  1.00  0.00    -0.332 OA
ENDROOT
BRANCH   1   7
ATOM      7  C   UNL     1      28.279 -11.978  26.646  1.00  0.00     0.198 C 
BRANCH   7   8
ATOM      8  O   UNL     1      28.044 -10.756  27.478  1.00  0.00    -0.347 OA
BRANCH   8   9
ATOM      9  C   UNL     1      27.859 -11.020  28.879  1.00  0.00     0.281 C 
ATOM     10  C   UNL     1      30.038  -9.020  28.094  1.00  0.00     0.041 C 
ATOM     11  C   UNL     1      29.445  -9.370  29.477  1.00  0.00     0.150 C 
ATOM     12  C   UNL     1      28.435  -8.314  30.064  1.00  0.00     0.174 C 
ATOM     13  O   UNL     1      29.061 -10.735  29.613  1.00  0.00    -0.344 OA
ATOM     14  C   UNL     1      26.940  -8.744  30.031  1.00  0.00     0.179 C 
ATOM     15  C   UNL     1      26.710 -10.265  29.719  1.00  0.00     0.202 C 
BRANCH  12  16
ATOM     16  O   UNL     1      28.803  -7.875  31.358  1.00  0.00    -0.388 OA
ATOM     17  H   UNL     1      29.510  -7.186  31.203  1.00  0.00     0.211 HD
ENDBRANCH  12  16
BRANCH  14  18
ATOM     18  O   UNL     1      26.113  -7.875  29.277  1.00  0.00    -0.387 OA
ATOM     19  H   UNL     1      25.173  -8.009  29.575  1.00  0.00     0.211 HD
ENDBRANCH  14  18
BRANCH  15  20
ATOM     20  O   UNL     1      26.375 -10.949  30.974  1.00  0.00    -0.385 OA
ATOM     21  H   UNL     1      25.448 -11.324  30.835  1.00  0.00     0.211 HD
ENDBRANCH  15  20
ENDBRANCH   8   9
ENDBRANCH   7   8
ENDBRANCH   1   7
BRANCH   2  22
ATOM     22  O   UNL     1      24.768 -12.519  26.488  1.00  0.00    -0.387 OA
ATOM     23  H   UNL     1      24.945 -11.540  26.578  1.00  0.00     0.211 HD
ENDBRANCH   2  22
BRANCH   3  24
ATOM     24  O   UNL     1      24.250 -14.246  24.624  1.00  0.00    -0.387 OA
ATOM     25  H   UNL     1      24.056 -14.976  23.977  1.00  0.00     0.211 HD
ENDBRANCH   3  24
BRANCH   5  26
ATOM     26  O   UNL     1      28.585 -14.125  22.767  1.00  0.00    -0.454 OA
BRANCH  26  27
ATOM     27  C   UNL     1      29.668 -14.968  22.265  1.00  0.00     0.214 A 
ATOM     28  C   UNL     1      30.926 -14.500  21.868  1.00  0.00     0.180 A 
ATOM     29  C   UNL     1      29.333 -16.303  21.705  1.00  0.00     0.239 A 
ATOM     30  O   UNL     1      31.515 -14.935  20.758  1.00  0.00    -0.452 OA
ATOM     31  C   UNL     1      30.026 -16.682  20.483  1.00  0.00     0.111 A 
ATOM     32  O   UNL     1      28.299 -16.945  22.015  1.00  0.00    -0.285 OA
ATOM     33  C   UNL     1      30.961 -15.764  19.946  1.00  0.00     0.146 A 
ATOM     34  C   UNL     1      29.448 -17.590  19.549  1.00  0.00     0.134 A 
ATOM     35  C   UNL     1      31.019 -15.521  18.556  1.00  0.00     0.094 A 
ATOM     36  C   UNL     1      29.374 -17.227  18.221  1.00  0.00     0.093 A 
ATOM     37  C   UNL     1      30.082 -16.153  17.709  1.00  0.00     0.123 A 
BRANCH  28  38
ATOM     38  C   UNL     1      31.376 -13.157  22.116  1.00  0.00     0.025 A 
ATOM     39  C   UNL     1      31.569 -13.111  23.458  1.00  0.00     0.062 A 
ATOM     40  C   UNL     1      30.786 -12.041  21.509  1.00  0.00     0.016 A 
ATOM     41  C   UNL     1      31.244 -12.040  24.171  1.00  0.00     0.158 A 
ATOM     42  C   UNL     1      30.713 -10.853  22.153  1.00  0.00     0.051 A 
ATOM     43  C   UNL     1      30.641 -10.946  23.560  1.00  0.00     0.157 A 
BRANCH  41  44
ATOM     44  O   UNL     1      31.134 -12.375  25.552  1.00  0.00    -0.504 OA
ATOM     45  H   UNL     1      30.751 -13.299  25.787  1.00  0.00     0.293 HD
ENDBRANCH  41  44
BRANCH  43  46
ATOM     46  O   UNL     1      29.606 -10.210  24.207  1.00  0.00    -0.504 OA
ATOM     47  H   UNL     1      28.883 -10.699  24.749  1.00  0.00     0.293 HD
ENDBRANCH  43  46
ENDBRANCH  28  38
BRANCH  34  48
ATOM     48  O   UNL     1      29.056 -18.898  19.916  1.00  0.00    -0.507 OA
ATOM     49  H   UNL     1      28.210 -19.327  19.530  1.00  0.00     0.293 HD
ENDBRANCH  34  48
BRANCH  37  50
ATOM     50  O   UNL     1      29.682 -15.523  16.512  1.00  0.00    -0.508 OA
ATOM     51  H   UNL     1      28.733 -15.179  16.397  1.00  0.00     0.293 HD
ENDBRANCH  37  50
ENDBRANCH  26  27
ENDBRANCH   5  26
BRANCH   4  52
ATOM     52  O   UNL     1      26.159 -15.123  22.866  1.00  0.00    -0.384 OA
ATOM     53  H   UNL     1      26.349 -16.115  22.618  1.00  0.00     0.211 HD
ENDBRANCH   4  52
TORSDOF 16
ENDMDL
