MODEL 1
REMARK VINA RESULT:    21.111      0.000      0.000
REMARK INTER + INTRA:          25.181
REMARK INTER:                  25.431
REMARK INTRA:                  -0.250
REMARK UNBOUND:                -0.250
REMARK SMILES Oc1cc(O)c2cc(O)c(-c3ccc(O)c(O)c3)[o+]c2c1.[Cl-]
REMARK SMILES IDX 10 1 19 2 20 3 21 4 2 5 3 6 4 7 6 8 7 9 8 10 11 11 12 12
REMARK SMILES IDX 13 13 14 14 18 15 16 16 15 17 17 19 9 21 1 23 5 25
REMARK H PARENT 15 18 17 20 9 22 1 24 5 26
REMARK Flexibility Score: inf
ROOT
ATOM      1  C   UNL     1      -4.823 -13.079  22.936  1.00  0.00     0.402 A 
ATOM      2  O   UNL     1      -3.629 -13.508  22.535  1.00  0.00    -0.202 OA
ATOM      3  C   UNL     1      -2.490 -12.900  22.850  1.00  0.00     0.368 A 
ATOM      4  C   UNL     1      -1.284 -13.429  22.383  1.00  0.00     0.162 A 
ATOM      5  C   UNL     1      -0.073 -12.813  22.701  1.00  0.00     0.128 A 
ATOM      6  C   UNL     1      -0.066 -11.658  23.492  1.00  0.00     0.093 A 
ATOM      7  C   UNL     1      -1.261 -11.108  23.973  1.00  0.00     0.136 A 
ATOM      8  C   UNL     1      -2.494 -11.731  23.650  1.00  0.00     0.125 A 
ATOM      9  C   UNL     1      -3.740 -11.243  24.075  1.00  0.00     0.078 A 
ATOM     10  C   UNL     1      -4.915 -11.909  23.713  1.00  0.00     0.223 A 
ENDROOT
BRANCH   1  11
ATOM     11  C   UNL     1      -6.018 -13.851  22.527  1.00  0.00     0.087 A 
ATOM     12  C   UNL     1      -6.281 -15.088  23.132  1.00  0.00     0.022 A 
ATOM     13  C   UNL     1      -7.412 -15.823  22.775  1.00  0.00     0.051 A 
ATOM     14  C   UNL     1      -8.310 -15.333  21.820  1.00  0.00     0.157 A 
ATOM     15  C   UNL     1      -6.929 -13.345  21.584  1.00  0.00     0.068 A 
ATOM     16  C   UNL     1      -8.069 -14.074  21.222  1.00  0.00     0.158 A 
BRANCH  14  17
ATOM     17  O   UNL     1      -9.419 -16.120  21.502  1.00  0.00    -0.504 OA
ATOM     18  H   UNL     1      -9.839 -16.785  22.134  1.00  0.00     0.293 HD
ENDBRANCH  14  17
BRANCH  16  19
ATOM     19  O   UNL     1      -8.929 -13.511  20.277  1.00  0.00    -0.504 OA
ATOM     20  H   UNL     1      -8.680 -12.738  19.676  1.00  0.00     0.293 HD
ENDBRANCH  16  19
ENDBRANCH   1  11
BRANCH  10  21
ATOM     21  O   UNL     1      -6.155 -11.397  24.093  1.00  0.00    -0.500 OA
ATOM     22  H   UNL     1      -6.943 -12.001  24.295  1.00  0.00     0.294 HD
ENDBRANCH  10  21
BRANCH   5  23
ATOM     23  O   UNL     1       1.118 -13.356  22.226  1.00  0.00    -0.507 OA
ATOM     24  H   UNL     1       1.798 -13.772  22.853  1.00  0.00     0.293 HD
ENDBRANCH   5  23
BRANCH   7  25
ATOM     25  O   UNL     1      -1.168  -9.957  24.759  1.00  0.00    -0.507 OA
ATOM     26  H   UNL     1      -1.739  -9.133  24.635  1.00  0.00     0.293 HD
ENDBRANCH   7  25
TORSDOF 6
ENDMDL
