MODEL 1
REMARK VINA RESULT:    -3.888      0.000      0.000
REMARK INTER + INTRA:          -8.124
REMARK INTER:                  -6.616
REMARK INTRA:                  -1.509
REMARK UNBOUND:                -1.509
REMARK SMILES CCCCCCCCCCCCCC(=O)[O-]
REMARK SMILES IDX 8 1 9 2 10 3 11 4 12 5 13 6 14 7 15 8 16 9 7 10 6 11 5 12
REMARK SMILES IDX 4 13 3 14 2 15 1 16
REMARK H PARENT
REMARK Flexibility Score: inf
ROOT
ATOM      1  C   UNL     1      11.896   3.412  51.993  1.00  0.00     0.000 C 
ENDROOT
BRANCH   1   2
ATOM      2  C   UNL     1      10.977   2.258  51.563  1.00  0.00     0.000 C 
BRANCH   2   3
ATOM      3  C   UNL     1      10.191   2.576  50.279  1.00  0.00     0.000 C 
BRANCH   3   4
ATOM      4  C   UNL     1       8.775   1.979  50.291  1.00  0.00     0.000 C 
BRANCH   4   5
ATOM      5  C   UNL     1       7.677   3.054  50.187  1.00  0.00     0.006 C 
BRANCH   5   6
ATOM      6  C   UNL     1       6.559   2.839  51.216  1.00  0.00     0.053 C 
BRANCH   6   7
ATOM      7  C   UNL     1       5.587   3.979  51.225  1.00  0.00     0.041 C 
ATOM      8  O   UNL     1       4.357   3.761  51.383  1.00  0.00    -0.550 OA
ATOM      9  O   UNL     1       6.034   5.278  51.023  1.00  0.00    -0.550 OA
ENDBRANCH   6   7
ENDBRANCH   5   6
ENDBRANCH   4   5
ENDBRANCH   3   4
ENDBRANCH   2   3
ENDBRANCH   1   2
BRANCH   1  10
ATOM     10  C   UNL     1      11.612   4.715  51.224  1.00  0.00     0.000 C 
BRANCH  10  11
ATOM     11  C   UNL     1      10.943   5.785  52.101  1.00  0.00    -0.000 C 
BRANCH  11  12
ATOM     12  C   UNL     1       9.410   5.720  52.048  1.00  0.00    -0.000 C 
BRANCH  12  13
ATOM     13  C   UNL     1       8.854   4.881  53.207  1.00  0.00    -0.000 C 
BRANCH  13  14
ATOM     14  C   UNL     1       8.932   5.606  54.564  1.00  0.00    -0.000 C 
BRANCH  14  15
ATOM     15  C   UNL     1       8.005   5.038  55.654  1.00  0.00    -0.003 C 
ATOM     16  C   UNL     1       6.656   4.571  55.110  1.00  0.00     0.004 C 
ENDBRANCH  14  15
ENDBRANCH  13  14
ENDBRANCH  12  13
ENDBRANCH  11  12
ENDBRANCH  10  11
ENDBRANCH   1  10
TORSDOF 12
ENDMDL
MODEL 2
REMARK VINA RESULT:    -3.852      1.597      3.788
REMARK INTER + INTRA:          -8.064
REMARK INTER:                  -6.455
REMARK INTRA:                  -1.608
REMARK UNBOUND:                -1.509
REMARK SMILES CCCCCCCCCCCCCC(=O)[O-]
REMARK SMILES IDX 8 1 9 2 10 3 11 4 12 5 13 6 14 7 15 8 16 9 7 10 6 11 5 12
REMARK SMILES IDX 4 13 3 14 2 15 1 16
REMARK H PARENT
REMARK Flexibility Score: inf
ROOT
ATOM      1  C   UNL     1       8.882   5.122  53.128  1.00  0.00     0.000 C 
ENDROOT
BRANCH   1   2
ATOM      2  C   UNL     1       7.692   4.173  53.340  1.00  0.00     0.000 C 
BRANCH   2   3
ATOM      3  C   UNL     1       7.112   3.650  52.015  1.00  0.00     0.000 C 
BRANCH   3   4
ATOM      4  C   UNL     1       5.618   3.303  52.122  1.00  0.00     0.000 C 
BRANCH   4   5
ATOM      5  C   UNL     1       4.750   4.105  51.135  1.00  0.00     0.006 C 
BRANCH   5   6
ATOM      6  C   UNL     1       5.227   5.556  50.993  1.00  0.00     0.053 C 
BRANCH   6   7
ATOM      7  C   UNL     1       4.092   6.488  50.698  1.00  0.00     0.041 C 
ATOM      8  O   UNL     1       2.935   6.034  50.502  1.00  0.00    -0.550 OA
ATOM      9  O   UNL     1       4.320   7.856  50.604  1.00  0.00    -0.550 OA
ENDBRANCH   6   7
ENDBRANCH   5   6
ENDBRANCH   4   5
ENDBRANCH   3   4
ENDBRANCH   2   3
ENDBRANCH   1   2
BRANCH   1  10
ATOM     10  C   UNL     1       8.958   5.667  51.690  1.00  0.00     0.000 C 
BRANCH  10  11
ATOM     11  C   UNL     1      10.326   6.288  51.365  1.00  0.00    -0.000 C 
BRANCH  11  12
ATOM     12  C   UNL     1      11.479   5.603  52.112  1.00  0.00    -0.000 C 
BRANCH  12  13
ATOM     13  C   UNL     1      12.067   4.453  51.281  1.00  0.00    -0.000 C 
BRANCH  13  14
ATOM     14  C   UNL     1      11.867   3.074  51.938  1.00  0.00    -0.000 C 
BRANCH  14  15
ATOM     15  C   UNL     1      10.614   2.311  51.473  1.00  0.00    -0.003 C 
ATOM     16  C   UNL     1      10.213   2.638  50.035  1.00  0.00     0.004 C 
ENDBRANCH  14  15
ENDBRANCH  13  14
ENDBRANCH  12  13
ENDBRANCH  11  12
ENDBRANCH  10  11
ENDBRANCH   1  10
TORSDOF 12
ENDMDL
MODEL 3
REMARK VINA RESULT:    -3.623      3.189      5.953
REMARK INTER + INTRA:          -7.674
REMARK INTER:                  -6.859
REMARK INTRA:                  -0.815
REMARK UNBOUND:                -1.509
REMARK SMILES CCCCCCCCCCCCCC(=O)[O-]
REMARK SMILES IDX 8 1 9 2 10 3 11 4 12 5 13 6 14 7 15 8 16 9 7 10 6 11 5 12
REMARK SMILES IDX 4 13 3 14 2 15 1 16
REMARK H PARENT
REMARK Flexibility Score: inf
ROOT
ATOM      1  C   UNL     1       7.381   4.020  52.684  1.00  0.00     0.000 C 
ENDROOT
BRANCH   1   2
ATOM      2  C   UNL     1       8.675   4.841  52.800  1.00  0.00     0.000 C 
BRANCH   2   3
ATOM      3  C   UNL     1       8.960   5.673  51.538  1.00  0.00     0.000 C 
BRANCH   3   4
ATOM      4  C   UNL     1      10.453   5.998  51.371  1.00  0.00     0.000 C 
BRANCH   4   5
ATOM      5  C   UNL     1      11.237   4.860  50.693  1.00  0.00     0.006 C 
BRANCH   5   6
ATOM      6  C   UNL     1      12.064   4.049  51.699  1.00  0.00     0.053 C 
BRANCH   6   7
ATOM      7  C   UNL     1      11.520   2.665  51.877  1.00  0.00     0.041 C 
ATOM      8  O   UNL     1      12.055   1.875  52.699  1.00  0.00    -0.550 OA
ATOM      9  O   UNL     1      10.445   2.234  51.110  1.00  0.00    -0.550 OA
ENDBRANCH   6   7
ENDBRANCH   5   6
ENDBRANCH   4   5
ENDBRANCH   3   4
ENDBRANCH   2   3
ENDBRANCH   1   2
BRANCH   1  10
ATOM     10  C   UNL     1       6.533   4.416  51.461  1.00  0.00     0.000 C 
BRANCH  10  11
ATOM     11  C   UNL     1       5.073   4.720  51.828  1.00  0.00    -0.000 C 
BRANCH  11  12
ATOM     12  C   UNL     1       4.510   5.927  51.063  1.00  0.00    -0.000 C 
BRANCH  12  13
ATOM     13  C   UNL     1       3.126   5.611  50.478  1.00  0.00    -0.000 C 
BRANCH  13  14
ATOM     14  C   UNL     1       2.562   4.263  50.964  1.00  0.00    -0.000 C 
BRANCH  14  15
ATOM     15  C   UNL     1       1.141   3.939  50.468  1.00  0.00    -0.003 C 
ATOM     16  C   UNL     1       0.180   5.121  50.591  1.00  0.00     0.004 C 
ENDBRANCH  14  15
ENDBRANCH  13  14
ENDBRANCH  12  13
ENDBRANCH  11  12
ENDBRANCH  10  11
ENDBRANCH   1  10
TORSDOF 12
ENDMDL
MODEL 4
REMARK VINA RESULT:    -3.537      3.255      6.134
REMARK INTER + INTRA:          -7.527
REMARK INTER:                  -6.646
REMARK INTRA:                  -0.880
REMARK UNBOUND:                -1.509
REMARK SMILES CCCCCCCCCCCCCC(=O)[O-]
REMARK SMILES IDX 8 1 9 2 10 3 11 4 12 5 13 6 14 7 15 8 16 9 7 10 6 11 5 12
REMARK SMILES IDX 4 13 3 14 2 15 1 16
REMARK H PARENT
REMARK Flexibility Score: inf
ROOT
ATOM      1  C   UNL     1       6.475   4.220  53.079  1.00  0.00     0.000 C 
ENDROOT
BRANCH   1   2
ATOM      2  C   UNL     1       7.993   4.174  53.316  1.00  0.00     0.000 C 
BRANCH   2   3
ATOM      3  C   UNL     1       8.797   4.239  52.006  1.00  0.00     0.000 C 
BRANCH   3   4
ATOM      4  C   UNL     1       8.629   5.582  51.277  1.00  0.00     0.000 C 
BRANCH   4   5
ATOM      5  C   UNL     1       9.976   6.220  50.890  1.00  0.00     0.006 C 
BRANCH   5   6
ATOM      6  C   UNL     1      11.074   5.922  51.919  1.00  0.00     0.053 C 
BRANCH   6   7
ATOM      7  C   UNL     1      12.107   4.984  51.374  1.00  0.00     0.041 C 
ATOM      8  O   UNL     1      12.883   5.361  50.457  1.00  0.00    -0.550 OA
ATOM      9  O   UNL     1      12.188   3.682  51.853  1.00  0.00    -0.550 OA
ENDBRANCH   6   7
ENDBRANCH   5   6
ENDBRANCH   4   5
ENDBRANCH   3   4
ENDBRANCH   2   3
ENDBRANCH   1   2
BRANCH   1  10
ATOM     10  C   UNL     1       5.997   3.147  52.084  1.00  0.00     0.000 C 
BRANCH  10  11
ATOM     11  C   UNL     1       5.253   3.746  50.881  1.00  0.00    -0.000 C 
BRANCH  11  12
ATOM     12  C   UNL     1       4.799   5.192  51.126  1.00  0.00    -0.000 C 
BRANCH  12  13
ATOM     13  C   UNL     1       3.281   5.331  50.940  1.00  0.00    -0.000 C 
BRANCH  13  14
ATOM     14  C   UNL     1       2.545   3.978  50.979  1.00  0.00    -0.000 C 
BRANCH  14  15
ATOM     15  C   UNL     1       1.226   3.937  50.185  1.00  0.00    -0.003 C 
ATOM     16  C   UNL     1       0.242   5.029  50.601  1.00  0.00     0.004 C 
ENDBRANCH  14  15
ENDBRANCH  13  14
ENDBRANCH  12  13
ENDBRANCH  11  12
ENDBRANCH  10  11
ENDBRANCH   1  10
TORSDOF 12
ENDMDL
MODEL 5
REMARK VINA RESULT:    -3.533      3.103      5.654
REMARK INTER + INTRA:          -7.520
REMARK INTER:                  -6.319
REMARK INTRA:                  -1.201
REMARK UNBOUND:                -1.509
REMARK SMILES CCCCCCCCCCCCCC(=O)[O-]
REMARK SMILES IDX 8 1 9 2 10 3 11 4 12 5 13 6 14 7 15 8 16 9 7 10 6 11 5 12
REMARK SMILES IDX 4 13 3 14 2 15 1 16
REMARK H PARENT
REMARK Flexibility Score: inf
ROOT
ATOM      1  C   UNL     1       7.798   4.482  52.947  1.00  0.00     0.000 C 
ENDROOT
BRANCH   1   2
ATOM      2  C   UNL     1       8.606   3.679  51.915  1.00  0.00     0.000 C 
BRANCH   2   3
ATOM      3  C   UNL     1       8.803   4.443  50.595  1.00  0.00     0.000 C 
BRANCH   3   4
ATOM      4  C   UNL     1       8.804   5.968  50.791  1.00  0.00     0.000 C 
BRANCH   4   5
ATOM      5  C   UNL     1      10.170   6.605  50.477  1.00  0.00     0.006 C 
BRANCH   5   6
ATOM      6  C   UNL     1      11.197   6.346  51.586  1.00  0.00     0.053 C 
BRANCH   6   7
ATOM      7  C   UNL     1      12.226   5.341  51.167  1.00  0.00     0.041 C 
ATOM      8  O   UNL     1      13.052   5.622  50.259  1.00  0.00    -0.550 OA
ATOM      9  O   UNL     1      12.250   4.082  51.753  1.00  0.00    -0.550 OA
ENDBRANCH   6   7
ENDBRANCH   5   6
ENDBRANCH   4   5
ENDBRANCH   3   4
ENDBRANCH   2   3
ENDBRANCH   1   2
BRANCH   1  10
ATOM     10  C   UNL     1       6.296   4.145  52.918  1.00  0.00     0.000 C 
BRANCH  10  11
ATOM     11  C   UNL     1       5.934   3.158  51.797  1.00  0.00    -0.000 C 
BRANCH  11  12
ATOM     12  C   UNL     1       5.007   3.778  50.740  1.00  0.00    -0.000 C 
BRANCH  12  13
ATOM     13  C   UNL     1       4.047   4.792  51.378  1.00  0.00    -0.000 C 
BRANCH  13  14
ATOM     14  C   UNL     1       3.540   5.849  50.379  1.00  0.00    -0.000 C 
BRANCH  14  15
ATOM     15  C   UNL     1       4.184   7.239  50.526  1.00  0.00    -0.003 C 
ATOM     16  C   UNL     1       5.565   7.331  49.878  1.00  0.00     0.004 C 
ENDBRANCH  14  15
ENDBRANCH  13  14
ENDBRANCH  12  13
ENDBRANCH  11  12
ENDBRANCH  10  11
ENDBRANCH   1  10
TORSDOF 12
ENDMDL
MODEL 6
REMARK VINA RESULT:    -3.511      2.380      4.610
REMARK INTER + INTRA:          -7.483
REMARK INTER:                  -6.078
REMARK INTRA:                  -1.405
REMARK UNBOUND:                -1.509
REMARK SMILES CCCCCCCCCCCCCC(=O)[O-]
REMARK SMILES IDX 8 1 9 2 10 3 11 4 12 5 13 6 14 7 15 8 16 9 7 10 6 11 5 12
REMARK SMILES IDX 4 13 3 14 2 15 1 16
REMARK H PARENT
REMARK Flexibility Score: inf
ROOT
ATOM      1  C   UNL     1       7.096   5.949  49.928  1.00  0.00     0.000 C 
ENDROOT
BRANCH   1   2
ATOM      2  C   UNL     1       6.009   4.892  50.182  1.00  0.00     0.000 C 
BRANCH   2   3
ATOM      3  C   UNL     1       5.555   4.853  51.651  1.00  0.00     0.000 C 
BRANCH   3   4
ATOM      4  C   UNL     1       6.188   3.691  52.433  1.00  0.00     0.000 C 
BRANCH   4   5
ATOM      5  C   UNL     1       7.357   4.144  53.326  1.00  0.00     0.006 C 
BRANCH   5   6
ATOM      6  C   UNL     1       6.893   4.530  54.736  1.00  0.00     0.053 C 
BRANCH   6   7
ATOM      7  C   UNL     1       8.027   5.028  55.578  1.00  0.00     0.041 C 
ATOM      8  O   UNL     1       8.104   4.704  56.792  1.00  0.00    -0.550 OA
ATOM      9  O   UNL     1       8.980   5.879  55.032  1.00  0.00    -0.550 OA
ENDBRANCH   6   7
ENDBRANCH   5   6
ENDBRANCH   4   5
ENDBRANCH   3   4
ENDBRANCH   2   3
ENDBRANCH   1   2
BRANCH   1  10
ATOM     10  C   UNL     1       8.513   5.347  49.899  1.00  0.00     0.000 C 
BRANCH  10  11
ATOM     11  C   UNL     1       9.588   6.345  50.356  1.00  0.00    -0.000 C 
BRANCH  11  12
ATOM     12  C   UNL     1      10.095   6.059  51.777  1.00  0.00    -0.000 C 
BRANCH  12  13
ATOM     13  C   UNL     1      11.549   5.567  51.753  1.00  0.00    -0.000 C 
BRANCH  13  14
ATOM     14  C   UNL     1      11.693   4.146  51.178  1.00  0.00    -0.000 C 
BRANCH  14  15
ATOM     15  C   UNL     1      10.897   3.061  51.927  1.00  0.00    -0.003 C 
ATOM     16  C   UNL     1       9.993   2.240  51.008  1.00  0.00     0.004 C 
ENDBRANCH  14  15
ENDBRANCH  13  14
ENDBRANCH  12  13
ENDBRANCH  11  12
ENDBRANCH  10  11
ENDBRANCH   1  10
TORSDOF 12
ENDMDL
MODEL 7
REMARK VINA RESULT:    -3.504      2.666      5.194
REMARK INTER + INTRA:          -7.471
REMARK INTER:                  -6.652
REMARK INTRA:                  -0.819
REMARK UNBOUND:                -1.509
REMARK SMILES CCCCCCCCCCCCCC(=O)[O-]
REMARK SMILES IDX 8 1 9 2 10 3 11 4 12 5 13 6 14 7 15 8 16 9 7 10 6 11 5 12
REMARK SMILES IDX 4 13 3 14 2 15 1 16
REMARK H PARENT
REMARK Flexibility Score: inf
ROOT
ATOM      1  C   UNL     1       8.636   5.050  53.779  1.00  0.00     0.000 C 
ENDROOT
BRANCH   1   2
ATOM      2  C   UNL     1       9.278   5.646  52.516  1.00  0.00     0.000 C 
BRANCH   2   3
ATOM      3  C   UNL     1      10.748   6.042  52.732  1.00  0.00     0.000 C 
BRANCH   3   4
ATOM      4  C   UNL     1      11.518   6.196  51.410  1.00  0.00     0.000 C 
BRANCH   4   5
ATOM      5  C   UNL     1      12.230   4.899  50.984  1.00  0.00     0.006 C 
BRANCH   5   6
ATOM      6  C   UNL     1      11.284   3.932  50.260  1.00  0.00     0.053 C 
BRANCH   6   7
ATOM      7  C   UNL     1      10.911   2.767  51.124  1.00  0.00     0.041 C 
ATOM      8  O   UNL     1       9.771   2.243  51.023  1.00  0.00    -0.550 OA
ATOM      9  O   UNL     1      11.810   2.284  52.068  1.00  0.00    -0.550 OA
ENDBRANCH   6   7
ENDBRANCH   5   6
ENDBRANCH   4   5
ENDBRANCH   3   4
ENDBRANCH   2   3
ENDBRANCH   1   2
BRANCH   1  10
ATOM     10  C   UNL     1       7.437   4.137  53.462  1.00  0.00     0.000 C 
BRANCH  10  11
ATOM     11  C   UNL     1       6.946   4.289  52.014  1.00  0.00    -0.000 C 
BRANCH  11  12
ATOM     12  C   UNL     1       5.570   3.646  51.786  1.00  0.00    -0.000 C 
BRANCH  12  13
ATOM     13  C   UNL     1       4.806   4.365  50.664  1.00  0.00    -0.000 C 
BRANCH  13  14
ATOM     14  C   UNL     1       5.217   5.841  50.507  1.00  0.00    -0.000 C 
BRANCH  14  15
ATOM     15  C   UNL     1       4.073   6.854  50.690  1.00  0.00    -0.003 C 
ATOM     16  C   UNL     1       4.380   8.221  50.079  1.00  0.00     0.004 C 
ENDBRANCH  14  15
ENDBRANCH  13  14
ENDBRANCH  12  13
ENDBRANCH  11  12
ENDBRANCH  10  11
ENDBRANCH   1  10
TORSDOF 12
ENDMDL
MODEL 8
REMARK VINA RESULT:    -3.417      2.638      5.105
REMARK INTER + INTRA:          -7.323
REMARK INTER:                  -6.325
REMARK INTRA:                  -0.998
REMARK UNBOUND:                -1.509
REMARK SMILES CCCCCCCCCCCCCC(=O)[O-]
REMARK SMILES IDX 8 1 9 2 10 3 11 4 12 5 13 6 14 7 15 8 16 9 7 10 6 11 5 12
REMARK SMILES IDX 4 13 3 14 2 15 1 16
REMARK H PARENT
REMARK Flexibility Score: inf
ROOT
ATOM      1  C   UNL     1       5.933   4.609  52.064  1.00  0.00     0.000 C 
ENDROOT
BRANCH   1   2
ATOM      2  C   UNL     1       6.285   5.242  50.708  1.00  0.00     0.000 C 
BRANCH   2   3
ATOM      3  C   UNL     1       5.343   6.400  50.336  1.00  0.00     0.000 C 
BRANCH   3   4
ATOM      4  C   UNL     1       4.011   6.346  51.101  1.00  0.00     0.000 C 
BRANCH   4   5
ATOM      5  C   UNL     1       2.886   5.683  50.286  1.00  0.00     0.006 C 
BRANCH   5   6
ATOM      6  C   UNL     1       2.518   4.296  50.831  1.00  0.00     0.053 C 
BRANCH   6   7
ATOM      7  C   UNL     1       1.045   4.037  50.743  1.00  0.00     0.041 C 
ATOM      8  O   UNL     1       0.617   2.865  50.580  1.00  0.00    -0.550 OA
ATOM      9  O   UNL     1       0.147   5.095  50.805  1.00  0.00    -0.550 OA
ENDBRANCH   6   7
ENDBRANCH   5   6
ENDBRANCH   4   5
ENDBRANCH   3   4
ENDBRANCH   2   3
ENDBRANCH   1   2
BRANCH   1  10
ATOM     10  C   UNL     1       7.031   3.659  52.577  1.00  0.00     0.000 C 
BRANCH  10  11
ATOM     11  C   UNL     1       8.340   4.393  52.908  1.00  0.00    -0.000 C 
BRANCH  11  12
ATOM     12  C   UNL     1       9.572   3.706  52.301  1.00  0.00    -0.000 C 
BRANCH  12  13
ATOM     13  C   UNL     1       9.809   4.175  50.858  1.00  0.00    -0.000 C 
BRANCH  13  14
ATOM     14  C   UNL     1       9.988   5.701  50.744  1.00  0.00    -0.000 C 
BRANCH  14  15
ATOM     15  C   UNL     1      11.252   6.257  51.425  1.00  0.00    -0.003 C 
ATOM     16  C   UNL     1      12.430   6.412  50.464  1.00  0.00     0.004 C 
ENDBRANCH  14  15
ENDBRANCH  13  14
ENDBRANCH  12  13
ENDBRANCH  11  12
ENDBRANCH  10  11
ENDBRANCH   1  10
TORSDOF 12
ENDMDL
MODEL 9
REMARK VINA RESULT:    -3.114      2.594      5.118
REMARK INTER + INTRA:          -6.807
REMARK INTER:                  -5.518
REMARK INTRA:                  -1.289
REMARK UNBOUND:                -1.509
REMARK SMILES CCCCCCCCCCCCCC(=O)[O-]
REMARK SMILES IDX 8 1 9 2 10 3 11 4 12 5 13 6 14 7 15 8 16 9 7 10 6 11 5 12
REMARK SMILES IDX 4 13 3 14 2 15 1 16
REMARK H PARENT
REMARK Flexibility Score: inf
ROOT
ATOM      1  C   UNL     1       6.218   4.330  51.178  1.00  0.00     0.000 C 
ENDROOT
BRANCH   1   2
ATOM      2  C   UNL     1       6.582   5.606  50.401  1.00  0.00     0.000 C 
BRANCH   2   3
ATOM      3  C   UNL     1       5.344   6.430  50.008  1.00  0.00     0.000 C 
BRANCH   3   4
ATOM      4  C   UNL     1       4.203   6.305  51.031  1.00  0.00     0.000 C 
BRANCH   4   5
ATOM      5  C   UNL     1       2.863   5.916  50.382  1.00  0.00     0.006 C 
BRANCH   5   6
ATOM      6  C   UNL     1       2.494   4.451  50.653  1.00  0.00     0.053 C 
BRANCH   6   7
ATOM      7  C   UNL     1       1.010   4.252  50.698  1.00  0.00     0.041 C 
ATOM      8  O   UNL     1       0.237   5.246  50.702  1.00  0.00    -0.550 OA
ATOM      9  O   UNL     1       0.481   2.969  50.771  1.00  0.00    -0.550 OA
ENDBRANCH   6   7
ENDBRANCH   5   6
ENDBRANCH   4   5
ENDBRANCH   3   4
ENDBRANCH   2   3
ENDBRANCH   1   2
BRANCH   1  10
ATOM     10  C   UNL     1       5.751   3.188  50.257  1.00  0.00     0.000 C 
BRANCH  10  11
ATOM     11  C   UNL     1       6.891   2.230  49.879  1.00  0.00    -0.000 C 
BRANCH  11  12
ATOM     12  C   UNL     1       7.943   2.093  50.990  1.00  0.00    -0.000 C 
BRANCH  12  13
ATOM     13  C   UNL     1       9.354   2.362  50.449  1.00  0.00    -0.000 C 
BRANCH  13  14
ATOM     14  C   UNL     1      10.043   3.556  51.135  1.00  0.00    -0.000 C 
BRANCH  14  15
ATOM     15  C   UNL     1       9.488   3.911  52.527  1.00  0.00    -0.003 C 
ATOM     16  C   UNL     1       9.546   5.408  52.830  1.00  0.00     0.004 C 
ENDBRANCH  14  15
ENDBRANCH  13  14
ENDBRANCH  12  13
ENDBRANCH  11  12
ENDBRANCH  10  11
ENDBRANCH   1  10
TORSDOF 12
ENDMDL
