MODEL 1
REMARK VINA RESULT:    -7.723      0.000      0.000
REMARK INTER + INTRA:          -9.368
REMARK INTER:                  -9.077
REMARK INTRA:                  -0.290
REMARK UNBOUND:                -0.290
REMARK SMILES O=c1cc(-c2ccc(O)c(O)c2)oc2cc(O)cc(O)c12
REMARK SMILES IDX 4 1 3 2 2 3 1 4 21 5 19 6 18 7 16 8 15 9 14 10 13 11 5 12
REMARK SMILES IDX 6 13 7 14 8 15 12 16 10 17 9 18 11 20 20 22 17 24
REMARK H PARENT 9 19 11 21 20 23 17 25
REMARK Flexibility Score: inf
ROOT
ATOM      1  C   UNL     1      40.042  64.035   6.279  1.00  0.00     0.138 A 
ATOM      2  C   UNL     1      41.304  64.015   5.664  1.00  0.00     0.100 A 
ATOM      3  C   UNL     1      42.145  62.919   5.858  1.00  0.00     0.197 A 
ATOM      4  O   UNL     1      43.275  62.909   5.300  1.00  0.00    -0.289 OA
ATOM      5  C   UNL     1      41.716  61.847   6.665  1.00  0.00     0.107 A 
ATOM      6  C   UNL     1      42.505  60.699   6.913  1.00  0.00     0.134 A 
ATOM      7  C   UNL     1      42.003  59.671   7.724  1.00  0.00     0.093 A 
ATOM      8  C   UNL     1      40.728  59.768   8.289  1.00  0.00     0.123 A 
ATOM      9  C   UNL     1      39.943  60.900   8.047  1.00  0.00     0.094 A 
ATOM     10  C   UNL     1      40.426  61.936   7.242  1.00  0.00     0.146 A 
ATOM     11  O   UNL     1      39.662  63.002   7.028  1.00  0.00    -0.456 OA
ENDROOT
BRANCH   1  12
ATOM     12  C   UNL     1      39.104  65.175   6.108  1.00  0.00     0.021 A 
ATOM     13  C   UNL     1      38.146  65.435   7.100  1.00  0.00     0.016 A 
ATOM     14  C   UNL     1      37.258  66.503   6.965  1.00  0.00     0.051 A 
ATOM     15  C   UNL     1      37.312  67.340   5.847  1.00  0.00     0.157 A 
ATOM     16  C   UNL     1      39.170  66.025   4.989  1.00  0.00     0.062 A 
ATOM     17  C   UNL     1      38.284  67.101   4.848  1.00  0.00     0.158 A 
BRANCH  15  18
ATOM     18  O   UNL     1      36.392  68.388   5.770  1.00  0.00    -0.504 OA
ATOM     19  H   UNL     1      35.390  68.264   5.806  1.00  0.00     0.293 HD
ENDBRANCH  15  18
BRANCH  17  20
ATOM     20  O   UNL     1      38.409  67.904   3.711  1.00  0.00    -0.504 OA
ATOM     21  H   UNL     1      39.287  68.102   3.253  1.00  0.00     0.293 HD
ENDBRANCH  17  20
ENDBRANCH   1  12
BRANCH   6  22
ATOM     22  O   UNL     1      43.781  60.573   6.362  1.00  0.00    -0.507 OA
ATOM     23  H   UNL     1      44.400  59.813   6.620  1.00  0.00     0.293 HD
ENDBRANCH   6  22
BRANCH   8  24
ATOM     24  O   UNL     1      40.252  58.733   9.091  1.00  0.00    -0.508 OA
ATOM     25  H   UNL     1      39.306  58.737   9.454  1.00  0.00     0.293 HD
ENDBRANCH   8  24
TORSDOF 5
ENDMDL
MODEL 2
REMARK VINA RESULT:    -7.601     14.630     15.280
REMARK INTER + INTRA:          -9.224
REMARK INTER:                  -8.952
REMARK INTRA:                  -0.272
REMARK UNBOUND:                -0.290
REMARK SMILES O=c1cc(-c2ccc(O)c(O)c2)oc2cc(O)cc(O)c12
REMARK SMILES IDX 4 1 3 2 2 3 1 4 21 5 19 6 18 7 16 8 15 9 14 10 13 11 5 12
REMARK SMILES IDX 6 13 7 14 8 15 12 16 10 17 9 18 11 20 20 22 17 24
REMARK H PARENT 9 19 11 21 20 23 17 25
REMARK Flexibility Score: inf
ROOT
ATOM      1  C   UNL     1      30.376  58.113  -3.360  1.00  0.00     0.138 A 
ATOM      2  C   UNL     1      31.727  58.435  -3.152  1.00  0.00     0.100 A 
ATOM      3  C   UNL     1      32.161  58.783  -1.873  1.00  0.00     0.197 A 
ATOM      4  O   UNL     1      33.376  59.069  -1.696  1.00  0.00    -0.289 OA
ATOM      5  C   UNL     1      31.240  58.804  -0.807  1.00  0.00     0.107 A 
ATOM      6  C   UNL     1      31.596  59.146   0.518  1.00  0.00     0.134 A 
ATOM      7  C   UNL     1      30.619  59.137   1.525  1.00  0.00     0.093 A 
ATOM      8  C   UNL     1      29.296  58.793   1.232  1.00  0.00     0.123 A 
ATOM      9  C   UNL     1      28.938  58.454  -0.077  1.00  0.00     0.094 A 
ATOM     10  C   UNL     1      29.897  58.457  -1.094  1.00  0.00     0.146 A 
ATOM     11  O   UNL     1      29.533  58.133  -2.331  1.00  0.00    -0.456 OA
ENDROOT
BRANCH   1  12
ATOM     12  C   UNL     1      29.858  57.734  -4.700  1.00  0.00     0.021 A 
ATOM     13  C   UNL     1      29.148  56.533  -4.852  1.00  0.00     0.016 A 
ATOM     14  C   UNL     1      28.646  56.158  -6.099  1.00  0.00     0.051 A 
ATOM     15  C   UNL     1      28.830  56.975  -7.218  1.00  0.00     0.157 A 
ATOM     16  C   UNL     1      30.031  58.565  -5.823  1.00  0.00     0.062 A 
ATOM     17  C   UNL     1      29.528  58.197  -7.078  1.00  0.00     0.158 A 
BRANCH  15  18
ATOM     18  O   UNL     1      28.308  56.539  -8.438  1.00  0.00    -0.504 OA
ATOM     19  H   UNL     1      27.663  55.767  -8.532  1.00  0.00     0.293 HD
ENDBRANCH  15  18
BRANCH  17  20
ATOM     20  O   UNL     1      29.738  59.072  -8.146  1.00  0.00    -0.504 OA
ATOM     21  H   UNL     1      30.351  59.873  -8.108  1.00  0.00     0.293 HD
ENDBRANCH  17  20
ENDBRANCH   1  12
BRANCH   6  22
ATOM     22  O   UNL     1      32.908  59.494   0.842  1.00  0.00    -0.507 OA
ATOM     23  H   UNL     1      33.204  59.618   1.803  1.00  0.00     0.293 HD
ENDBRANCH   6  22
BRANCH   8  24
ATOM     24  O   UNL     1      28.346  58.792   2.250  1.00  0.00    -0.508 OA
ATOM     25  H   UNL     1      28.600  58.604   3.213  1.00  0.00     0.293 HD
ENDBRANCH   8  24
TORSDOF 5
ENDMDL
MODEL 3
REMARK VINA RESULT:    -7.193     14.885     15.867
REMARK INTER + INTRA:          -8.745
REMARK INTER:                  -8.434
REMARK INTRA:                  -0.311
REMARK UNBOUND:                -0.290
REMARK SMILES O=c1cc(-c2ccc(O)c(O)c2)oc2cc(O)cc(O)c12
REMARK SMILES IDX 4 1 3 2 2 3 1 4 21 5 19 6 18 7 16 8 15 9 14 10 13 11 5 12
REMARK SMILES IDX 6 13 7 14 8 15 12 16 10 17 9 18 11 20 20 22 17 24
REMARK H PARENT 9 19 11 21 20 23 17 25
REMARK Flexibility Score: inf
ROOT
ATOM      1  C   UNL     1      29.203  57.756  -1.002  1.00  0.00     0.138 A 
ATOM      2  C   UNL     1      30.152  58.769  -1.211  1.00  0.00     0.100 A 
ATOM      3  C   UNL     1      30.639  59.000  -2.498  1.00  0.00     0.197 A 
ATOM      4  O   UNL     1      31.490  59.913  -2.675  1.00  0.00    -0.289 OA
ATOM      5  C   UNL     1      30.171  58.214  -3.569  1.00  0.00     0.107 A 
ATOM      6  C   UNL     1      30.612  58.381  -4.903  1.00  0.00     0.134 A 
ATOM      7  C   UNL     1      30.092  57.562  -5.916  1.00  0.00     0.093 A 
ATOM      8  C   UNL     1      29.140  56.582  -5.621  1.00  0.00     0.123 A 
ATOM      9  C   UNL     1      28.699  56.413  -4.304  1.00  0.00     0.094 A 
ATOM     10  C   UNL     1      29.206  57.219  -3.281  1.00  0.00     0.146 A 
ATOM     11  O   UNL     1      28.773  57.038  -2.037  1.00  0.00    -0.456 OA
ENDROOT
BRANCH   1  12
ATOM     12  C   UNL     1      28.649  57.467   0.346  1.00  0.00     0.021 A 
ATOM     13  C   UNL     1      28.668  58.468   1.330  1.00  0.00     0.016 A 
ATOM     14  C   UNL     1      28.148  58.223   2.601  1.00  0.00     0.051 A 
ATOM     15  C   UNL     1      27.589  56.982   2.917  1.00  0.00     0.157 A 
ATOM     16  C   UNL     1      28.073  56.222   0.658  1.00  0.00     0.062 A 
ATOM     17  C   UNL     1      27.546  55.969   1.932  1.00  0.00     0.158 A 
BRANCH  15  18
ATOM     18  O   UNL     1      27.091  56.800   4.210  1.00  0.00    -0.504 OA
ATOM     19  H   UNL     1      27.669  56.755   5.036  1.00  0.00     0.293 HD
ENDBRANCH  15  18
BRANCH  17  20
ATOM     20  O   UNL     1      26.989  54.710   2.168  1.00  0.00    -0.504 OA
ATOM     21  H   UNL     1      25.996  54.534   2.234  1.00  0.00     0.293 HD
ENDBRANCH  17  20
ENDBRANCH   1  12
BRANCH   6  22
ATOM     22  O   UNL     1      31.562  59.351  -5.229  1.00  0.00    -0.507 OA
ATOM     23  H   UNL     1      31.829  60.076  -4.573  1.00  0.00     0.293 HD
ENDBRANCH   6  22
BRANCH   8  24
ATOM     24  O   UNL     1      28.639  55.782  -6.644  1.00  0.00    -0.508 OA
ATOM     25  H   UNL     1      29.230  55.126  -7.142  1.00  0.00     0.293 HD
ENDBRANCH   8  24
TORSDOF 5
ENDMDL
MODEL 4
REMARK VINA RESULT:    -7.127      2.427      4.579
REMARK INTER + INTRA:          -8.667
REMARK INTER:                  -8.354
REMARK INTRA:                  -0.313
REMARK UNBOUND:                -0.290
REMARK SMILES O=c1cc(-c2ccc(O)c(O)c2)oc2cc(O)cc(O)c12
REMARK SMILES IDX 4 1 3 2 2 3 1 4 21 5 19 6 18 7 16 8 15 9 14 10 13 11 5 12
REMARK SMILES IDX 6 13 7 14 8 15 12 16 10 17 9 18 11 20 20 22 17 24
REMARK H PARENT 9 19 11 21 20 23 17 25
REMARK Flexibility Score: inf
ROOT
ATOM      1  C   UNL     1      40.952  60.564   7.428  1.00  0.00     0.138 A 
ATOM      2  C   UNL     1      40.512  59.528   8.268  1.00  0.00     0.100 A 
ATOM      3  C   UNL     1      41.035  58.245   8.107  1.00  0.00     0.197 A 
ATOM      4  O   UNL     1      40.636  57.322   8.867  1.00  0.00    -0.289 OA
ATOM      5  C   UNL     1      41.998  58.006   7.106  1.00  0.00     0.107 A 
ATOM      6  C   UNL     1      42.578  56.737   6.875  1.00  0.00     0.134 A 
ATOM      7  C   UNL     1      43.535  56.583   5.861  1.00  0.00     0.093 A 
ATOM      8  C   UNL     1      43.923  57.673   5.077  1.00  0.00     0.123 A 
ATOM      9  C   UNL     1      43.354  58.931   5.300  1.00  0.00     0.094 A 
ATOM     10  C   UNL     1      42.397  59.104   6.306  1.00  0.00     0.146 A 
ATOM     11  O   UNL     1      41.869  60.309   6.498  1.00  0.00    -0.456 OA
ENDROOT
BRANCH   1  12
ATOM     12  C   UNL     1      40.431  61.949   7.554  1.00  0.00     0.021 A 
ATOM     13  C   UNL     1      39.819  62.350   8.752  1.00  0.00     0.016 A 
ATOM     14  C   UNL     1      39.327  63.648   8.898  1.00  0.00     0.051 A 
ATOM     15  C   UNL     1      39.443  64.577   7.860  1.00  0.00     0.157 A 
ATOM     16  C   UNL     1      40.562  62.888   6.514  1.00  0.00     0.062 A 
ATOM     17  C   UNL     1      40.073  64.193   6.653  1.00  0.00     0.158 A 
BRANCH  15  18
ATOM     18  O   UNL     1      38.925  65.857   8.068  1.00  0.00    -0.504 OA
ATOM     19  H   UNL     1      37.968  66.117   7.879  1.00  0.00     0.293 HD
ENDBRANCH  15  18
BRANCH  17  20
ATOM     20  O   UNL     1      40.240  65.070   5.578  1.00  0.00    -0.504 OA
ATOM     21  H   UNL     1      40.253  64.782   4.611  1.00  0.00     0.293 HD
ENDBRANCH  17  20
ENDBRANCH   1  12
BRANCH   6  22
ATOM     22  O   UNL     1      42.211  55.630   7.642  1.00  0.00    -0.507 OA
ATOM     23  H   UNL     1      42.883  54.919   7.906  1.00  0.00     0.293 HD
ENDBRANCH   6  22
BRANCH   8  24
ATOM     24  O   UNL     1      44.876  57.494   4.076  1.00  0.00    -0.508 OA
ATOM     25  H   UNL     1      45.851  57.327   4.297  1.00  0.00     0.293 HD
ENDBRANCH   8  24
TORSDOF 5
ENDMDL
MODEL 5
REMARK VINA RESULT:    -7.019     14.200     15.115
REMARK INTER + INTRA:          -8.541
REMARK INTER:                  -8.244
REMARK INTRA:                  -0.297
REMARK UNBOUND:                -0.290
REMARK SMILES O=c1cc(-c2ccc(O)c(O)c2)oc2cc(O)cc(O)c12
REMARK SMILES IDX 4 1 3 2 2 3 1 4 21 5 19 6 18 7 16 8 15 9 14 10 13 11 5 12
REMARK SMILES IDX 6 13 7 14 8 15 12 16 10 17 9 18 11 20 20 22 17 24
REMARK H PARENT 9 19 11 21 20 23 17 25
REMARK Flexibility Score: inf
ROOT
ATOM      1  C   UNL     1      29.224  57.890  -1.290  1.00  0.00     0.138 A 
ATOM      2  C   UNL     1      28.216  56.971  -0.955  1.00  0.00     0.100 A 
ATOM      3  C   UNL     1      27.783  56.879   0.368  1.00  0.00     0.197 A 
ATOM      4  O   UNL     1      26.877  56.053   0.659  1.00  0.00    -0.289 OA
ATOM      5  C   UNL     1      28.360  57.711   1.348  1.00  0.00     0.107 A 
ATOM      6  C   UNL     1      27.979  57.682   2.710  1.00  0.00     0.134 A 
ATOM      7  C   UNL     1      28.599  58.548   3.624  1.00  0.00     0.093 A 
ATOM      8  C   UNL     1      29.587  59.441   3.202  1.00  0.00     0.123 A 
ATOM      9  C   UNL     1      29.968  59.474   1.856  1.00  0.00     0.094 A 
ATOM     10  C   UNL     1      29.362  58.619   0.930  1.00  0.00     0.146 A 
ATOM     11  O   UNL     1      29.741  58.668  -0.343  1.00  0.00    -0.456 OA
ENDROOT
BRANCH   1  12
ATOM     12  C   UNL     1      29.723  58.031  -2.682  1.00  0.00     0.021 A 
ATOM     13  C   UNL     1      30.631  59.057  -2.989  1.00  0.00     0.016 A 
ATOM     14  C   UNL     1      31.119  59.207  -4.288  1.00  0.00     0.051 A 
ATOM     15  C   UNL     1      30.724  58.333  -5.305  1.00  0.00     0.157 A 
ATOM     16  C   UNL     1      29.336  57.142  -3.702  1.00  0.00     0.062 A 
ATOM     17  C   UNL     1      29.824  57.284  -5.007  1.00  0.00     0.158 A 
BRANCH  15  18
ATOM     18  O   UNL     1      31.246  58.542  -6.584  1.00  0.00    -0.504 OA
ATOM     19  H   UNL     1      32.108  59.033  -6.768  1.00  0.00     0.293 HD
ENDBRANCH  15  18
BRANCH  17  20
ATOM     20  O   UNL     1      29.397  56.363  -5.967  1.00  0.00    -0.504 OA
ATOM     21  H   UNL     1      28.462  55.984  -6.009  1.00  0.00     0.293 HD
ENDBRANCH  17  20
ENDBRANCH   1  12
BRANCH   6  22
ATOM     22  O   UNL     1      26.995  56.802   3.162  1.00  0.00    -0.507 OA
ATOM     23  H   UNL     1      26.836  55.906   2.717  1.00  0.00     0.293 HD
ENDBRANCH   6  22
BRANCH   8  24
ATOM     24  O   UNL     1      30.187  60.290   4.129  1.00  0.00    -0.508 OA
ATOM     25  H   UNL     1      30.710  59.929   4.918  1.00  0.00     0.293 HD
ENDBRANCH   8  24
TORSDOF 5
ENDMDL
MODEL 6
REMARK VINA RESULT:    -6.939      3.114      6.682
REMARK INTER + INTRA:          -8.446
REMARK INTER:                  -8.164
REMARK INTRA:                  -0.282
REMARK UNBOUND:                -0.290
REMARK SMILES O=c1cc(-c2ccc(O)c(O)c2)oc2cc(O)cc(O)c12
REMARK SMILES IDX 4 1 3 2 2 3 1 4 21 5 19 6 18 7 16 8 15 9 14 10 13 11 5 12
REMARK SMILES IDX 6 13 7 14 8 15 12 16 10 17 9 18 11 20 20 22 17 24
REMARK H PARENT 9 19 11 21 20 23 17 25
REMARK Flexibility Score: inf
ROOT
ATOM      1  C   UNL     1      40.310  61.562   6.347  1.00  0.00     0.138 A 
ATOM      2  C   UNL     1      39.894  62.545   7.259  1.00  0.00     0.100 A 
ATOM      3  C   UNL     1      40.564  63.768   7.304  1.00  0.00     0.197 A 
ATOM      4  O   UNL     1      40.182  64.645   8.125  1.00  0.00    -0.289 OA
ATOM      5  C   UNL     1      41.647  64.000   6.433  1.00  0.00     0.107 A 
ATOM      6  C   UNL     1      42.381  65.209   6.414  1.00  0.00     0.134 A 
ATOM      7  C   UNL     1      43.443  65.364   5.512  1.00  0.00     0.093 A 
ATOM      8  C   UNL     1      43.784  64.336   4.629  1.00  0.00     0.123 A 
ATOM      9  C   UNL     1      43.062  63.138   4.643  1.00  0.00     0.094 A 
ATOM     10  C   UNL     1      42.000  62.964   5.536  1.00  0.00     0.146 A 
ATOM     11  O   UNL     1      41.330  61.816   5.531  1.00  0.00    -0.456 OA
ENDROOT
BRANCH   1  12
ATOM     12  C   UNL     1      39.633  60.243   6.254  1.00  0.00     0.021 A 
ATOM     13  C   UNL     1      39.436  59.655   4.995  1.00  0.00     0.016 A 
ATOM     14  C   UNL     1      38.808  58.414   4.882  1.00  0.00     0.051 A 
ATOM     15  C   UNL     1      38.373  57.727   6.019  1.00  0.00     0.157 A 
ATOM     16  C   UNL     1      39.208  59.546   7.401  1.00  0.00     0.062 A 
ATOM     17  C   UNL     1      38.579  58.299   7.296  1.00  0.00     0.158 A 
BRANCH  15  18
ATOM     18  O   UNL     1      37.747  56.492   5.836  1.00  0.00    -0.504 OA
ATOM     19  H   UNL     1      38.137  55.611   6.139  1.00  0.00     0.293 HD
ENDBRANCH  15  18
BRANCH  17  20
ATOM     20  O   UNL     1      38.186  57.665   8.477  1.00  0.00    -0.504 OA
ATOM     21  H   UNL     1      38.681  57.747   9.354  1.00  0.00     0.293 HD
ENDBRANCH  17  20
ENDBRANCH   1  12
BRANCH   6  22
ATOM     22  O   UNL     1      42.064  66.255   7.283  1.00  0.00    -0.507 OA
ATOM     23  H   UNL     1      42.138  66.153   8.289  1.00  0.00     0.293 HD
ENDBRANCH   6  22
BRANCH   8  24
ATOM     24  O   UNL     1      44.843  64.514   3.743  1.00  0.00    -0.508 OA
ATOM     25  H   UNL     1      44.713  64.442   2.740  1.00  0.00     0.293 HD
ENDBRANCH   8  24
TORSDOF 5
ENDMDL
MODEL 7
REMARK VINA RESULT:    -6.888      2.407      3.496
REMARK INTER + INTRA:          -8.387
REMARK INTER:                  -8.098
REMARK INTRA:                  -0.289
REMARK UNBOUND:                -0.290
REMARK SMILES O=c1cc(-c2ccc(O)c(O)c2)oc2cc(O)cc(O)c12
REMARK SMILES IDX 4 1 3 2 2 3 1 4 21 5 19 6 18 7 16 8 15 9 14 10 13 11 5 12
REMARK SMILES IDX 6 13 7 14 8 15 12 16 10 17 9 18 11 20 20 22 17 24
REMARK H PARENT 9 19 11 21 20 23 17 25
REMARK Flexibility Score: inf
ROOT
ATOM      1  C   UNL     1      41.630  61.390   6.585  1.00  0.00     0.138 A 
ATOM      2  C   UNL     1      42.596  61.549   5.579  1.00  0.00     0.100 A 
ATOM      3  C   UNL     1      43.322  60.441   5.142  1.00  0.00     0.197 A 
ATOM      4  O   UNL     1      44.186  60.593   4.237  1.00  0.00    -0.289 OA
ATOM      5  C   UNL     1      43.075  59.177   5.715  1.00  0.00     0.107 A 
ATOM      6  C   UNL     1      43.765  58.004   5.331  1.00  0.00     0.134 A 
ATOM      7  C   UNL     1      43.456  56.782   5.947  1.00  0.00     0.093 A 
ATOM      8  C   UNL     1      42.470  56.711   6.935  1.00  0.00     0.123 A 
ATOM      9  C   UNL     1      41.783  57.868   7.318  1.00  0.00     0.094 A 
ATOM     10  C   UNL     1      42.078  59.096   6.717  1.00  0.00     0.146 A 
ATOM     11  O   UNL     1      41.413  60.181   7.099  1.00  0.00    -0.456 OA
ENDROOT
BRANCH   1  12
ATOM     12  C   UNL     1      40.826  62.534   7.088  1.00  0.00     0.021 A 
ATOM     13  C   UNL     1      40.347  62.514   8.407  1.00  0.00     0.016 A 
ATOM     14  C   UNL     1      39.595  63.579   8.905  1.00  0.00     0.051 A 
ATOM     15  C   UNL     1      39.313  64.690   8.105  1.00  0.00     0.157 A 
ATOM     16  C   UNL     1      40.555  63.657   6.286  1.00  0.00     0.062 A 
ATOM     17  C   UNL     1      39.803  64.732   6.779  1.00  0.00     0.158 A 
BRANCH  15  18
ATOM     18  O   UNL     1      38.551  65.719   8.662  1.00  0.00    -0.504 OA
ATOM     19  H   UNL     1      38.841  66.687   8.686  1.00  0.00     0.293 HD
ENDBRANCH  15  18
BRANCH  17  20
ATOM     20  O   UNL     1      39.576  65.814   5.925  1.00  0.00    -0.504 OA
ATOM     21  H   UNL     1      38.662  66.092   5.596  1.00  0.00     0.293 HD
ENDBRANCH  17  20
ENDBRANCH   1  12
BRANCH   6  22
ATOM     22  O   UNL     1      44.755  58.042   4.348  1.00  0.00    -0.507 OA
ATOM     23  H   UNL     1      45.435  57.298   4.247  1.00  0.00     0.293 HD
ENDBRANCH   6  22
BRANCH   8  24
ATOM     24  O   UNL     1      42.181  55.486   7.531  1.00  0.00    -0.508 OA
ATOM     25  H   UNL     1      42.641  55.190   8.385  1.00  0.00     0.293 HD
ENDBRANCH   8  24
TORSDOF 5
ENDMDL
MODEL 8
REMARK VINA RESULT:    -6.828      2.827      4.957
REMARK INTER + INTRA:          -8.316
REMARK INTER:                  -8.019
REMARK INTRA:                  -0.297
REMARK UNBOUND:                -0.290
REMARK SMILES O=c1cc(-c2ccc(O)c(O)c2)oc2cc(O)cc(O)c12
REMARK SMILES IDX 4 1 3 2 2 3 1 4 21 5 19 6 18 7 16 8 15 9 14 10 13 11 5 12
REMARK SMILES IDX 6 13 7 14 8 15 12 16 10 17 9 18 11 20 20 22 17 24
REMARK H PARENT 9 19 11 21 20 23 17 25
REMARK Flexibility Score: inf
ROOT
ATOM      1  C   UNL     1      42.008  60.956   6.687  1.00  0.00     0.138 A 
ATOM      2  C   UNL     1      41.379  60.337   7.779  1.00  0.00     0.100 A 
ATOM      3  C   UNL     1      41.427  58.948   7.902  1.00  0.00     0.197 A 
ATOM      4  O   UNL     1      40.860  58.401   8.886  1.00  0.00    -0.289 OA
ATOM      5  C   UNL     1      42.107  58.187   6.931  1.00  0.00     0.107 A 
ATOM      6  C   UNL     1      42.203  56.776   6.980  1.00  0.00     0.134 A 
ATOM      7  C   UNL     1      42.904  56.091   5.976  1.00  0.00     0.093 A 
ATOM      8  C   UNL     1      43.512  56.789   4.929  1.00  0.00     0.123 A 
ATOM      9  C   UNL     1      43.421  58.184   4.875  1.00  0.00     0.094 A 
ATOM     10  C   UNL     1      42.725  58.884   5.866  1.00  0.00     0.146 A 
ATOM     11  O   UNL     1      42.652  60.210   5.792  1.00  0.00    -0.456 OA
ENDROOT
BRANCH   1  12
ATOM     12  C   UNL     1      41.991  62.430   6.505  1.00  0.00     0.021 A 
ATOM     13  C   UNL     1      42.717  63.005   5.451  1.00  0.00     0.016 A 
ATOM     14  C   UNL     1      42.712  64.387   5.256  1.00  0.00     0.051 A 
ATOM     15  C   UNL     1      41.976  65.224   6.099  1.00  0.00     0.157 A 
ATOM     16  C   UNL     1      41.238  63.271   7.346  1.00  0.00     0.062 A 
ATOM     17  C   UNL     1      41.225  64.659   7.155  1.00  0.00     0.158 A 
BRANCH  15  18
ATOM     18  O   UNL     1      42.018  66.599   5.852  1.00  0.00    -0.504 OA
ATOM     19  H   UNL     1      42.373  67.279   6.508  1.00  0.00     0.293 HD
ENDBRANCH  15  18
BRANCH  17  20
ATOM     20  O   UNL     1      40.453  65.430   8.027  1.00  0.00    -0.504 OA
ATOM     21  H   UNL     1      40.774  65.756   8.928  1.00  0.00     0.293 HD
ENDBRANCH  17  20
ENDBRANCH   1  12
BRANCH   6  22
ATOM     22  O   UNL     1      41.608  56.052   8.013  1.00  0.00    -0.507 OA
ATOM     23  H   UNL     1      40.758  56.369   8.466  1.00  0.00     0.293 HD
ENDBRANCH   6  22
BRANCH   8  24
ATOM     24  O   UNL     1      44.203  56.086   3.945  1.00  0.00    -0.508 OA
ATOM     25  H   UNL     1      45.013  55.520   4.168  1.00  0.00     0.293 HD
ENDBRANCH   8  24
TORSDOF 5
ENDMDL
MODEL 9
REMARK VINA RESULT:    -6.825     12.254     13.713
REMARK INTER + INTRA:          -8.312
REMARK INTER:                  -8.017
REMARK INTRA:                  -0.296
REMARK UNBOUND:                -0.290
REMARK SMILES O=c1cc(-c2ccc(O)c(O)c2)oc2cc(O)cc(O)c12
REMARK SMILES IDX 4 1 3 2 2 3 1 4 21 5 19 6 18 7 16 8 15 9 14 10 13 11 5 12
REMARK SMILES IDX 6 13 7 14 8 15 12 16 10 17 9 18 11 20 20 22 17 24
REMARK H PARENT 9 19 11 21 20 23 17 25
REMARK Flexibility Score: inf
ROOT
ATOM      1  C   UNL     1      29.810  58.274   2.801  1.00  0.00     0.138 A 
ATOM      2  C   UNL     1      30.590  59.431   2.640  1.00  0.00     0.100 A 
ATOM      3  C   UNL     1      30.814  59.936   1.359  1.00  0.00     0.197 A 
ATOM      4  O   UNL     1      31.514  60.975   1.225  1.00  0.00    -0.289 OA
ATOM      5  C   UNL     1      30.254  59.280   0.245  1.00  0.00     0.107 A 
ATOM      6  C   UNL     1      30.432  59.724  -1.086  1.00  0.00     0.134 A 
ATOM      7  C   UNL     1      29.836  59.017  -2.141  1.00  0.00     0.093 A 
ATOM      8  C   UNL     1      29.064  57.879  -1.890  1.00  0.00     0.123 A 
ATOM      9  C   UNL     1      28.884  57.435  -0.576  1.00  0.00     0.094 A 
ATOM     10  C   UNL     1      29.471  58.125   0.489  1.00  0.00     0.146 A 
ATOM     11  O   UNL     1      29.287  57.684   1.729  1.00  0.00    -0.456 OA
ENDROOT
BRANCH   1  12
ATOM     12  C   UNL     1      29.538  57.693   4.140  1.00  0.00     0.021 A 
ATOM     13  C   UNL     1      28.544  56.711   4.278  1.00  0.00     0.016 A 
ATOM     14  C   UNL     1      28.273  56.145   5.525  1.00  0.00     0.051 A 
ATOM     15  C   UNL     1      28.992  56.537   6.658  1.00  0.00     0.157 A 
ATOM     16  C   UNL     1      30.272  58.077   5.278  1.00  0.00     0.062 A 
ATOM     17  C   UNL     1      30.008  57.512   6.532  1.00  0.00     0.158 A 
BRANCH  15  18
ATOM     18  O   UNL     1      28.668  55.936   7.877  1.00  0.00    -0.504 OA
ATOM     19  H   UNL     1      29.348  55.674   8.576  1.00  0.00     0.293 HD
ENDBRANCH  15  18
BRANCH  17  20
ATOM     20  O   UNL     1      30.778  57.942   7.616  1.00  0.00    -0.504 OA
ATOM     21  H   UNL     1      30.697  57.568   8.550  1.00  0.00     0.293 HD
ENDBRANCH  17  20
ENDBRANCH   1  12
BRANCH   6  22
ATOM     22  O   UNL     1      31.196  60.857  -1.369  1.00  0.00    -0.507 OA
ATOM     23  H   UNL     1      30.766  61.748  -1.589  1.00  0.00     0.293 HD
ENDBRANCH   6  22
BRANCH   8  24
ATOM     24  O   UNL     1      28.482  57.196  -2.955  1.00  0.00    -0.508 OA
ATOM     25  H   UNL     1      28.733  56.238  -3.170  1.00  0.00     0.293 HD
ENDBRANCH   8  24
TORSDOF 5
ENDMDL
