MODEL 1
REMARK VINA RESULT:    -6.937      0.000      0.000
REMARK INTER + INTRA:         -17.485
REMARK INTER:                 -15.859
REMARK INTRA:                  -1.626
REMARK UNBOUND:                -1.626
REMARK SMILES CCCCCCCCCCCCCCCCCCCCCCCC(=O)[O-]
REMARK SMILES IDX 13 1 14 2 15 3 16 4 17 5 18 6 19 7 20 8 21 9 22 10 23 11
REMARK SMILES IDX 24 12 25 13 26 14 12 15 11 16 10 17 9 18 8 19 7 20 6 21 5 22
REMARK SMILES IDX 4 23 3 24 2 25 1 26
REMARK H PARENT
REMARK Flexibility Score: inf
ROOT
ATOM      1  C   UNL     1      36.379 -11.138  20.265  1.00  0.00     0.000 C 
ENDROOT
BRANCH   1   2
ATOM      2  C   UNL     1      37.768 -10.988  20.904  1.00  0.00     0.000 C 
BRANCH   2   3
ATOM      3  C   UNL     1      38.574 -12.305  20.940  1.00  0.00     0.000 C 
BRANCH   3   4
ATOM      4  C   UNL     1      40.105 -12.075  20.979  1.00  0.00     0.000 C 
BRANCH   4   5
ATOM      5  C   UNL     1      40.730 -12.371  22.353  1.00  0.00     0.000 C 
BRANCH   5   6
ATOM      6  C   UNL     1      41.346 -11.123  23.008  1.00  0.00     0.000 C 
BRANCH   6   7
ATOM      7  C   UNL     1      40.302 -10.252  23.725  1.00  0.00     0.000 C 
BRANCH   7   8
ATOM      8  C   UNL     1      40.056  -8.906  23.018  1.00  0.00     0.000 C 
BRANCH   8   9
ATOM      9  C   UNL     1      38.557  -8.576  22.985  1.00  0.00     0.000 C 
BRANCH   9  10
ATOM     10  C   UNL     1      37.775  -9.220  24.145  1.00  0.00     0.006 C 
BRANCH  10  11
ATOM     11  C   UNL     1      37.466  -8.266  25.313  1.00  0.00     0.053 C 
BRANCH  11  12
ATOM     12  C   UNL     1      37.263  -6.849  24.863  1.00  0.00     0.041 C 
ATOM     13  O   UNL     1      36.141  -6.470  24.429  1.00  0.00    -0.550 OA
ATOM     14  O   UNL     1      38.308  -5.937  24.956  1.00  0.00    -0.550 OA
ENDBRANCH  11  12
ENDBRANCH  10  11
ENDBRANCH   9  10
ENDBRANCH   8   9
ENDBRANCH   7   8
ENDBRANCH   6   7
ENDBRANCH   5   6
ENDBRANCH   4   5
ENDBRANCH   3   4
ENDBRANCH   2   3
ENDBRANCH   1   2
BRANCH   1  15
ATOM     15  C   UNL     1      35.424  -9.991  20.631  1.00  0.00     0.000 C 
BRANCH  15  16
ATOM     16  C   UNL     1      34.151  -9.975  19.764  1.00  0.00     0.000 C 
BRANCH  16  17
ATOM     17  C   UNL     1      33.188  -8.814  20.093  1.00  0.00     0.000 C 
BRANCH  17  18
ATOM     18  C   UNL     1      32.261  -9.107  21.296  1.00  0.00    -0.000 C 
BRANCH  18  19
ATOM     19  C   UNL     1      30.778  -9.234  20.901  1.00  0.00    -0.000 C 
BRANCH  19  20
ATOM     20  C   UNL     1      29.798  -8.687  21.957  1.00  0.00    -0.000 C 
BRANCH  20  21
ATOM     21  C   UNL     1      28.340  -9.159  21.792  1.00  0.00    -0.000 C 
BRANCH  21  22
ATOM     22  C   UNL     1      28.196 -10.687  21.842  1.00  0.00    -0.000 C 
BRANCH  22  23
ATOM     23  C   UNL     1      27.574 -11.235  20.548  1.00  0.00    -0.000 C 
BRANCH  23  24
ATOM     24  C   UNL     1      28.142 -12.622  20.173  1.00  0.00    -0.000 C 
BRANCH  24  25
ATOM     25  C   UNL     1      27.279 -13.386  19.156  1.00  0.00    -0.003 C 
ATOM     26  C   UNL     1      26.349 -12.477  18.356  1.00  0.00     0.004 C 
ENDBRANCH  24  25
ENDBRANCH  23  24
ENDBRANCH  22  23
ENDBRANCH  21  22
ENDBRANCH  20  21
ENDBRANCH  19  20
ENDBRANCH  18  19
ENDBRANCH  17  18
ENDBRANCH  16  17
ENDBRANCH  15  16
ENDBRANCH   1  15
TORSDOF 22
ENDMDL
MODEL 2
REMARK VINA RESULT:    -6.890      3.484     10.427
REMARK INTER + INTRA:         -17.377
REMARK INTER:                 -15.056
REMARK INTRA:                  -2.321
REMARK UNBOUND:                -1.626
REMARK SMILES CCCCCCCCCCCCCCCCCCCCCCCC(=O)[O-]
REMARK SMILES IDX 13 1 14 2 15 3 16 4 17 5 18 6 19 7 20 8 21 9 22 10 23 11
REMARK SMILES IDX 24 12 25 13 26 14 12 15 11 16 10 17 9 18 8 19 7 20 6 21 5 22
REMARK SMILES IDX 4 23 3 24 2 25 1 26
REMARK H PARENT
REMARK Flexibility Score: inf
ROOT
ATOM      1  C   UNL     1      32.552  -8.000  21.355  1.00  0.00     0.000 C 
ENDROOT
BRANCH   1   2
ATOM      2  C   UNL     1      31.910  -9.244  20.719  1.00  0.00     0.000 C 
BRANCH   2   3
ATOM      3  C   UNL     1      30.365  -9.223  20.749  1.00  0.00     0.000 C 
BRANCH   3   4
ATOM      4  C   UNL     1      29.787  -9.463  22.165  1.00  0.00     0.000 C 
BRANCH   4   5
ATOM      5  C   UNL     1      28.461 -10.244  22.156  1.00  0.00     0.000 C 
BRANCH   5   6
ATOM      6  C   UNL     1      28.162 -10.892  20.793  1.00  0.00     0.000 C 
BRANCH   6   7
ATOM      7  C   UNL     1      26.683 -10.770  20.390  1.00  0.00     0.000 C 
BRANCH   7   8
ATOM      8  C   UNL     1      26.208  -9.309  20.287  1.00  0.00     0.000 C 
BRANCH   8   9
ATOM      9  C   UNL     1      26.937  -8.580  19.150  1.00  0.00     0.000 C 
BRANCH   9  10
ATOM     10  C   UNL     1      27.402  -7.165  19.544  1.00  0.00     0.006 C 
BRANCH  10  11
ATOM     11  C   UNL     1      27.542  -6.189  18.363  1.00  0.00     0.053 C 
BRANCH  11  12
ATOM     12  C   UNL     1      27.533  -4.752  18.795  1.00  0.00     0.041 C 
ATOM     13  O   UNL     1      26.461  -4.206  19.175  1.00  0.00    -0.550 OA
ATOM     14  O   UNL     1      28.717  -4.025  18.810  1.00  0.00    -0.550 OA
ENDBRANCH  11  12
ENDBRANCH  10  11
ENDBRANCH   9  10
ENDBRANCH   8   9
ENDBRANCH   7   8
ENDBRANCH   6   7
ENDBRANCH   5   6
ENDBRANCH   4   5
ENDBRANCH   3   4
ENDBRANCH   2   3
ENDBRANCH   1   2
BRANCH   1  15
ATOM     15  C   UNL     1      34.086  -8.066  21.381  1.00  0.00     0.000 C 
BRANCH  15  16
ATOM     16  C   UNL     1      34.643  -9.312  20.668  1.00  0.00     0.000 C 
BRANCH  16  17
ATOM     17  C   UNL     1      36.055  -9.722  21.138  1.00  0.00     0.000 C 
BRANCH  17  18
ATOM     18  C   UNL     1      36.573 -11.017  20.470  1.00  0.00    -0.000 C 
BRANCH  18  19
ATOM     19  C   UNL     1      37.920 -11.496  21.041  1.00  0.00    -0.000 C 
BRANCH  19  20
ATOM     20  C   UNL     1      38.943 -10.366  21.271  1.00  0.00    -0.000 C 
BRANCH  20  21
ATOM     21  C   UNL     1      39.653 -10.404  22.638  1.00  0.00    -0.000 C 
BRANCH  21  22
ATOM     22  C   UNL     1      38.676 -10.524  23.817  1.00  0.00    -0.000 C 
BRANCH  22  23
ATOM     23  C   UNL     1      38.849  -9.364  24.810  1.00  0.00    -0.000 C 
BRANCH  23  24
ATOM     24  C   UNL     1      37.502  -8.913  25.417  1.00  0.00    -0.000 C 
BRANCH  24  25
ATOM     25  C   UNL     1      36.502  -8.388  24.374  1.00  0.00    -0.003 C 
ATOM     26  C   UNL     1      36.993  -7.137  23.650  1.00  0.00     0.004 C 
ENDBRANCH  24  25
ENDBRANCH  23  24
ENDBRANCH  22  23
ENDBRANCH  21  22
ENDBRANCH  20  21
ENDBRANCH  19  20
ENDBRANCH  18  19
ENDBRANCH  17  18
ENDBRANCH  16  17
ENDBRANCH  15  16
ENDBRANCH   1  15
TORSDOF 22
ENDMDL
MODEL 3
REMARK VINA RESULT:    -6.847      3.109      6.258
REMARK INTER + INTRA:         -17.279
REMARK INTER:                 -15.424
REMARK INTRA:                  -1.855
REMARK UNBOUND:                -1.626
REMARK SMILES CCCCCCCCCCCCCCCCCCCCCCCC(=O)[O-]
REMARK SMILES IDX 13 1 14 2 15 3 16 4 17 5 18 6 19 7 20 8 21 9 22 10 23 11
REMARK SMILES IDX 24 12 25 13 26 14 12 15 11 16 10 17 9 18 8 19 7 20 6 21 5 22
REMARK SMILES IDX 4 23 3 24 2 25 1 26
REMARK H PARENT
REMARK Flexibility Score: inf
ROOT
ATOM      1  C   UNL     1      28.573  -8.350  22.253  1.00  0.00     0.000 C 
ENDROOT
BRANCH   1   2
ATOM      2  C   UNL     1      29.875  -9.164  22.315  1.00  0.00     0.000 C 
BRANCH   2   3
ATOM      3  C   UNL     1      30.667  -9.158  20.988  1.00  0.00     0.000 C 
BRANCH   3   4
ATOM      4  C   UNL     1      32.093  -8.573  21.141  1.00  0.00     0.000 C 
BRANCH   4   5
ATOM      5  C   UNL     1      33.046  -8.989  20.007  1.00  0.00     0.000 C 
BRANCH   5   6
ATOM      6  C   UNL     1      34.363  -9.589  20.526  1.00  0.00     0.000 C 
BRANCH   6   7
ATOM      7  C   UNL     1      35.173  -8.596  21.375  1.00  0.00     0.000 C 
BRANCH   7   8
ATOM      8  C   UNL     1      36.474  -9.203  21.931  1.00  0.00     0.000 C 
BRANCH   8   9
ATOM      9  C   UNL     1      36.575 -10.692  21.574  1.00  0.00     0.000 C 
BRANCH   9  10
ATOM     10  C   UNL     1      37.876 -11.345  22.080  1.00  0.00     0.006 C 
BRANCH  10  11
ATOM     11  C   UNL     1      38.779 -11.908  20.968  1.00  0.00     0.053 C 
BRANCH  11  12
ATOM     12  C   UNL     1      39.645 -13.038  21.443  1.00  0.00     0.041 C 
ATOM     13  O   UNL     1      40.578 -12.826  22.266  1.00  0.00    -0.550 OA
ATOM     14  O   UNL     1      39.399 -14.332  21.001  1.00  0.00    -0.550 OA
ENDBRANCH  11  12
ENDBRANCH  10  11
ENDBRANCH   9  10
ENDBRANCH   8   9
ENDBRANCH   7   8
ENDBRANCH   6   7
ENDBRANCH   5   6
ENDBRANCH   4   5
ENDBRANCH   3   4
ENDBRANCH   2   3
ENDBRANCH   1   2
BRANCH   1  15
ATOM     15  C   UNL     1      28.804  -6.839  22.409  1.00  0.00     0.000 C 
BRANCH  15  16
ATOM     16  C   UNL     1      28.527  -6.056  21.112  1.00  0.00     0.000 C 
BRANCH  16  17
ATOM     17  C   UNL     1      27.197  -5.274  21.127  1.00  0.00     0.000 C 
BRANCH  17  18
ATOM     18  C   UNL     1      25.951  -6.180  20.986  1.00  0.00    -0.000 C 
BRANCH  18  19
ATOM     19  C   UNL     1      25.628  -6.542  19.524  1.00  0.00    -0.000 C 
BRANCH  19  20
ATOM     20  C   UNL     1      25.388  -8.046  19.287  1.00  0.00    -0.000 C 
BRANCH  20  21
ATOM     21  C   UNL     1      26.634  -8.935  19.469  1.00  0.00    -0.000 C 
BRANCH  21  22
ATOM     22  C   UNL     1      26.288 -10.423  19.633  1.00  0.00    -0.000 C 
BRANCH  22  23
ATOM     23  C   UNL     1      27.175 -11.091  20.695  1.00  0.00    -0.000 C 
BRANCH  23  24
ATOM     24  C   UNL     1      27.947 -12.303  20.127  1.00  0.00    -0.000 C 
BRANCH  24  25
ATOM     25  C   UNL     1      27.038 -13.385  19.523  1.00  0.00    -0.003 C 
ATOM     26  C   UNL     1      27.337 -13.666  18.052  1.00  0.00     0.004 C 
ENDBRANCH  24  25
ENDBRANCH  23  24
ENDBRANCH  22  23
ENDBRANCH  21  22
ENDBRANCH  20  21
ENDBRANCH  19  20
ENDBRANCH  18  19
ENDBRANCH  17  18
ENDBRANCH  16  17
ENDBRANCH  15  16
ENDBRANCH   1  15
TORSDOF 22
ENDMDL
MODEL 4
REMARK VINA RESULT:    -6.828      3.813     10.677
REMARK INTER + INTRA:         -17.235
REMARK INTER:                 -15.201
REMARK INTRA:                  -2.034
REMARK UNBOUND:                -1.626
REMARK SMILES CCCCCCCCCCCCCCCCCCCCCCCC(=O)[O-]
REMARK SMILES IDX 13 1 14 2 15 3 16 4 17 5 18 6 19 7 20 8 21 9 22 10 23 11
REMARK SMILES IDX 24 12 25 13 26 14 12 15 11 16 10 17 9 18 8 19 7 20 6 21 5 22
REMARK SMILES IDX 4 23 3 24 2 25 1 26
REMARK H PARENT
REMARK Flexibility Score: inf
ROOT
ATOM      1  C   UNL     1      29.667  -8.549  21.368  1.00  0.00     0.000 C 
ENDROOT
BRANCH   1   2
ATOM      2  C   UNL     1      28.489  -8.881  22.298  1.00  0.00     0.000 C 
BRANCH   2   3
ATOM      3  C   UNL     1      28.131 -10.384  22.325  1.00  0.00     0.000 C 
BRANCH   3   4
ATOM      4  C   UNL     1      27.990 -10.996  20.910  1.00  0.00     0.000 C 
BRANCH   4   5
ATOM      5  C   UNL     1      26.588 -10.811  20.304  1.00  0.00     0.000 C 
BRANCH   5   6
ATOM      6  C   UNL     1      26.504  -9.601  19.358  1.00  0.00     0.000 C 
BRANCH   6   7
ATOM      7  C   UNL     1      25.482  -8.552  19.825  1.00  0.00     0.000 C 
BRANCH   7   8
ATOM      8  C   UNL     1      25.561  -7.239  19.026  1.00  0.00     0.000 C 
BRANCH   8   9
ATOM      9  C   UNL     1      27.021  -6.885  18.707  1.00  0.00     0.000 C 
BRANCH   9  10
ATOM     10  C   UNL     1      27.682  -6.020  19.797  1.00  0.00     0.006 C 
BRANCH  10  11
ATOM     11  C   UNL     1      27.015  -4.650  20.013  1.00  0.00     0.053 C 
BRANCH  11  12
ATOM     12  C   UNL     1      27.611  -3.574  19.153  1.00  0.00     0.041 C 
ATOM     13  O   UNL     1      26.870  -2.839  18.444  1.00  0.00    -0.550 OA
ATOM     14  O   UNL     1      28.984  -3.362  19.161  1.00  0.00    -0.550 OA
ENDBRANCH  11  12
ENDBRANCH  10  11
ENDBRANCH   9  10
ENDBRANCH   8   9
ENDBRANCH   7   8
ENDBRANCH   6   7
ENDBRANCH   5   6
ENDBRANCH   4   5
ENDBRANCH   3   4
ENDBRANCH   2   3
ENDBRANCH   1   2
BRANCH   1  15
ATOM     15  C   UNL     1      30.986  -9.191  21.823  1.00  0.00     0.000 C 
BRANCH  15  16
ATOM     16  C   UNL     1      32.226  -8.449  21.288  1.00  0.00     0.000 C 
BRANCH  16  17
ATOM     17  C   UNL     1      33.058  -9.270  20.281  1.00  0.00     0.000 C 
BRANCH  17  18
ATOM     18  C   UNL     1      34.570  -9.292  20.607  1.00  0.00    -0.000 C 
BRANCH  18  19
ATOM     19  C   UNL     1      34.977  -8.245  21.660  1.00  0.00    -0.000 C 
BRANCH  19  20
ATOM     20  C   UNL     1      35.923  -8.786  22.750  1.00  0.00    -0.000 C 
BRANCH  20  21
ATOM     21  C   UNL     1      37.398  -8.367  22.592  1.00  0.00    -0.000 C 
BRANCH  21  22
ATOM     22  C   UNL     1      38.344  -9.564  22.418  1.00  0.00    -0.000 C 
BRANCH  22  23
ATOM     23  C   UNL     1      37.564 -10.866  22.182  1.00  0.00    -0.000 C 
BRANCH  23  24
ATOM     24  C   UNL     1      37.964 -11.550  20.856  1.00  0.00    -0.000 C 
BRANCH  24  25
ATOM     25  C   UNL     1      39.351 -12.210  20.896  1.00  0.00    -0.003 C 
ATOM     26  C   UNL     1      39.341 -13.588  21.554  1.00  0.00     0.004 C 
ENDBRANCH  24  25
ENDBRANCH  23  24
ENDBRANCH  22  23
ENDBRANCH  21  22
ENDBRANCH  20  21
ENDBRANCH  19  20
ENDBRANCH  18  19
ENDBRANCH  17  18
ENDBRANCH  16  17
ENDBRANCH  15  16
ENDBRANCH   1  15
TORSDOF 22
ENDMDL
MODEL 5
REMARK VINA RESULT:    -6.776      4.270     10.012
REMARK INTER + INTRA:         -17.118
REMARK INTER:                 -14.272
REMARK INTRA:                  -2.846
REMARK UNBOUND:                -1.626
REMARK SMILES CCCCCCCCCCCCCCCCCCCCCCCC(=O)[O-]
REMARK SMILES IDX 13 1 14 2 15 3 16 4 17 5 18 6 19 7 20 8 21 9 22 10 23 11
REMARK SMILES IDX 24 12 25 13 26 14 12 15 11 16 10 17 9 18 8 19 7 20 6 21 5 22
REMARK SMILES IDX 4 23 3 24 2 25 1 26
REMARK H PARENT
REMARK Flexibility Score: inf
ROOT
ATOM      1  C   UNL     1      29.943  -6.380  23.498  1.00  0.00     0.000 C 
ENDROOT
BRANCH   1   2
ATOM      2  C   UNL     1      28.531  -6.439  22.894  1.00  0.00     0.000 C 
BRANCH   2   3
ATOM      3  C   UNL     1      28.231  -7.765  22.160  1.00  0.00     0.000 C 
BRANCH   3   4
ATOM      4  C   UNL     1      29.344  -8.169  21.163  1.00  0.00     0.000 C 
BRANCH   4   5
ATOM      5  C   UNL     1      29.651  -9.676  21.171  1.00  0.00     0.000 C 
BRANCH   5   6
ATOM      6  C   UNL     1      28.449 -10.526  21.620  1.00  0.00     0.000 C 
BRANCH   6   7
ATOM      7  C   UNL     1      28.103 -11.639  20.618  1.00  0.00     0.000 C 
BRANCH   7   8
ATOM      8  C   UNL     1      26.790 -11.375  19.858  1.00  0.00     0.000 C 
BRANCH   8   9
ATOM      9  C   UNL     1      26.246  -9.977  20.183  1.00  0.00     0.000 C 
BRANCH   9  10
ATOM     10  C   UNL     1      26.358  -8.999  18.998  1.00  0.00     0.006 C 
BRANCH  10  11
ATOM     11  C   UNL     1      25.482  -7.740  19.126  1.00  0.00     0.053 C 
BRANCH  11  12
ATOM     12  C   UNL     1      26.290  -6.485  19.276  1.00  0.00     0.041 C 
ATOM     13  O   UNL     1      26.103  -5.717  20.259  1.00  0.00    -0.550 OA
ATOM     14  O   UNL     1      27.275  -6.180  18.344  1.00  0.00    -0.550 OA
ENDBRANCH  11  12
ENDBRANCH  10  11
ENDBRANCH   9  10
ENDBRANCH   8   9
ENDBRANCH   7   8
ENDBRANCH   6   7
ENDBRANCH   5   6
ENDBRANCH   4   5
ENDBRANCH   3   4
ENDBRANCH   2   3
ENDBRANCH   1   2
BRANCH   1  15
ATOM     15  C   UNL     1      30.600  -5.000  23.350  1.00  0.00     0.000 C 
BRANCH  15  16
ATOM     16  C   UNL     1      31.461  -4.882  22.078  1.00  0.00     0.000 C 
BRANCH  16  17
ATOM     17  C   UNL     1      32.344  -6.118  21.806  1.00  0.00     0.000 C 
BRANCH  17  18
ATOM     18  C   UNL     1      33.860  -5.819  21.886  1.00  0.00    -0.000 C 
BRANCH  18  19
ATOM     19  C   UNL     1      34.333  -5.466  23.309  1.00  0.00    -0.000 C 
BRANCH  19  20
ATOM     20  C   UNL     1      35.400  -6.425  23.871  1.00  0.00    -0.000 C 
BRANCH  20  21
ATOM     21  C   UNL     1      36.168  -7.234  22.807  1.00  0.00    -0.000 C 
BRANCH  21  22
ATOM     22  C   UNL     1      35.637  -8.666  22.647  1.00  0.00    -0.000 C 
BRANCH  22  23
ATOM     23  C   UNL     1      36.274  -9.369  21.438  1.00  0.00    -0.000 C 
BRANCH  23  24
ATOM     24  C   UNL     1      35.217 -10.043  20.535  1.00  0.00    -0.000 C 
BRANCH  24  25
ATOM     25  C   UNL     1      33.922  -9.227  20.388  1.00  0.00    -0.003 C 
ATOM     26  C   UNL     1      33.153  -9.551  19.109  1.00  0.00     0.004 C 
ENDBRANCH  24  25
ENDBRANCH  23  24
ENDBRANCH  22  23
ENDBRANCH  21  22
ENDBRANCH  20  21
ENDBRANCH  19  20
ENDBRANCH  18  19
ENDBRANCH  17  18
ENDBRANCH  16  17
ENDBRANCH  15  16
ENDBRANCH   1  15
TORSDOF 22
ENDMDL
MODEL 6
REMARK VINA RESULT:    -6.752      4.816      8.948
REMARK INTER + INTRA:         -17.063
REMARK INTER:                 -13.800
REMARK INTRA:                  -3.263
REMARK UNBOUND:                -1.626
REMARK SMILES CCCCCCCCCCCCCCCCCCCCCCCC(=O)[O-]
REMARK SMILES IDX 13 1 14 2 15 3 16 4 17 5 18 6 19 7 20 8 21 9 22 10 23 11
REMARK SMILES IDX 24 12 25 13 26 14 12 15 11 16 10 17 9 18 8 19 7 20 6 21 5 22
REMARK SMILES IDX 4 23 3 24 2 25 1 26
REMARK H PARENT
REMARK Flexibility Score: inf
ROOT
ATOM      1  C   UNL     1      26.410  -3.488  22.555  1.00  0.00     0.000 C 
ENDROOT
BRANCH   1   2
ATOM      2  C   UNL     1      25.191  -4.418  22.659  1.00  0.00     0.000 C 
BRANCH   2   3
ATOM      3  C   UNL     1      25.485  -5.734  23.414  1.00  0.00     0.000 C 
BRANCH   3   4
ATOM      4  C   UNL     1      26.540  -5.564  24.535  1.00  0.00     0.000 C 
BRANCH   4   5
ATOM      5  C   UNL     1      27.664  -6.612  24.475  1.00  0.00     0.000 C 
BRANCH   5   6
ATOM      6  C   UNL     1      28.114  -6.923  23.037  1.00  0.00     0.000 C 
BRANCH   6   7
ATOM      7  C   UNL     1      29.638  -7.074  22.912  1.00  0.00     0.000 C 
BRANCH   7   8
ATOM      8  C   UNL     1      30.075  -7.647  21.551  1.00  0.00     0.000 C 
BRANCH   8   9
ATOM      9  C   UNL     1      30.848  -8.960  21.737  1.00  0.00     0.000 C 
BRANCH   9  10
ATOM     10  C   UNL     1      32.358  -8.742  21.952  1.00  0.00     0.006 C 
BRANCH  10  11
ATOM     11  C   UNL     1      33.113  -8.239  20.708  1.00  0.00     0.053 C 
BRANCH  11  12
ATOM     12  C   UNL     1      33.654  -9.359  19.868  1.00  0.00     0.041 C 
ATOM     13  O   UNL     1      33.092  -9.674  18.784  1.00  0.00    -0.550 OA
ATOM     14  O   UNL     1      34.802 -10.032  20.268  1.00  0.00    -0.550 OA
ENDBRANCH  11  12
ENDBRANCH  10  11
ENDBRANCH   9  10
ENDBRANCH   8   9
ENDBRANCH   7   8
ENDBRANCH   6   7
ENDBRANCH   5   6
ENDBRANCH   4   5
ENDBRANCH   3   4
ENDBRANCH   2   3
ENDBRANCH   1   2
BRANCH   1  15
ATOM     15  C   UNL     1      26.875  -3.270  21.107  1.00  0.00     0.000 C 
BRANCH  15  16
ATOM     16  C   UNL     1      28.132  -4.086  20.755  1.00  0.00     0.000 C 
BRANCH  16  17
ATOM     17  C   UNL     1      27.961  -4.994  19.519  1.00  0.00     0.000 C 
BRANCH  17  18
ATOM     18  C   UNL     1      26.489  -5.383  19.242  1.00  0.00    -0.000 C 
BRANCH  18  19
ATOM     19  C   UNL     1      26.097  -6.742  19.851  1.00  0.00    -0.000 C 
BRANCH  19  20
ATOM     20  C   UNL     1      26.677  -7.957  19.101  1.00  0.00    -0.000 C 
BRANCH  20  21
ATOM     21  C   UNL     1      26.328  -9.325  19.719  1.00  0.00    -0.000 C 
BRANCH  21  22
ATOM     22  C   UNL     1      27.495  -9.942  20.503  1.00  0.00    -0.000 C 
BRANCH  22  23
ATOM     23  C   UNL     1      27.201 -11.400  20.892  1.00  0.00    -0.000 C 
BRANCH  23  24
ATOM     24  C   UNL     1      28.094 -12.398  20.120  1.00  0.00    -0.000 C 
BRANCH  24  25
ATOM     25  C   UNL     1      27.303 -13.389  19.253  1.00  0.00    -0.003 C 
ATOM     26  C   UNL     1      26.406 -12.703  18.225  1.00  0.00     0.004 C 
ENDBRANCH  24  25
ENDBRANCH  23  24
ENDBRANCH  22  23
ENDBRANCH  21  22
ENDBRANCH  20  21
ENDBRANCH  19  20
ENDBRANCH  18  19
ENDBRANCH  17  18
ENDBRANCH  16  17
ENDBRANCH  15  16
ENDBRANCH   1  15
TORSDOF 22
ENDMDL
MODEL 7
REMARK VINA RESULT:    -6.720      3.766      9.982
REMARK INTER + INTRA:         -16.990
REMARK INTER:                 -14.473
REMARK INTRA:                  -2.517
REMARK UNBOUND:                -1.626
REMARK SMILES CCCCCCCCCCCCCCCCCCCCCCCC(=O)[O-]
REMARK SMILES IDX 13 1 14 2 15 3 16 4 17 5 18 6 19 7 20 8 21 9 22 10 23 11
REMARK SMILES IDX 24 12 25 13 26 14 12 15 11 16 10 17 9 18 8 19 7 20 6 21 5 22
REMARK SMILES IDX 4 23 3 24 2 25 1 26
REMARK H PARENT
REMARK Flexibility Score: inf
ROOT
ATOM      1  C   UNL     1      32.596  -8.768  21.572  1.00  0.00     0.000 C 
ENDROOT
BRANCH   1   2
ATOM      2  C   UNL     1      31.585  -9.288  20.537  1.00  0.00     0.000 C 
BRANCH   2   3
ATOM      3  C   UNL     1      30.116  -8.980  20.904  1.00  0.00     0.000 C 
BRANCH   3   4
ATOM      4  C   UNL     1      29.679  -9.629  22.240  1.00  0.00     0.000 C 
BRANCH   4   5
ATOM      5  C   UNL     1      28.343 -10.385  22.141  1.00  0.00     0.000 C 
BRANCH   5   6
ATOM      6  C   UNL     1      28.196 -11.164  20.822  1.00  0.00     0.000 C 
BRANCH   6   7
ATOM      7  C   UNL     1      26.749 -11.183  20.303  1.00  0.00     0.000 C 
BRANCH   7   8
ATOM      8  C   UNL     1      26.107  -9.784  20.263  1.00  0.00     0.000 C 
BRANCH   8   9
ATOM      9  C   UNL     1      26.810  -8.894  19.228  1.00  0.00     0.000 C 
BRANCH   9  10
ATOM     10  C   UNL     1      26.985  -7.440  19.707  1.00  0.00     0.006 C 
BRANCH  10  11
ATOM     11  C   UNL     1      26.259  -6.394  18.842  1.00  0.00     0.053 C 
BRANCH  11  12
ATOM     12  C   UNL     1      26.966  -5.070  18.821  1.00  0.00     0.041 C 
ATOM     13  O   UNL     1      26.625  -4.151  19.615  1.00  0.00    -0.550 OA
ATOM     14  O   UNL     1      28.025  -4.864  17.946  1.00  0.00    -0.550 OA
ENDBRANCH  11  12
ENDBRANCH  10  11
ENDBRANCH   9  10
ENDBRANCH   8   9
ENDBRANCH   7   8
ENDBRANCH   6   7
ENDBRANCH   5   6
ENDBRANCH   4   5
ENDBRANCH   3   4
ENDBRANCH   2   3
ENDBRANCH   1   2
BRANCH   1  15
ATOM     15  C   UNL     1      33.733  -7.953  20.940  1.00  0.00     0.000 C 
BRANCH  15  16
ATOM     16  C   UNL     1      33.612  -6.443  21.219  1.00  0.00     0.000 C 
BRANCH  16  17
ATOM     17  C   UNL     1      32.636  -6.096  22.363  1.00  0.00     0.000 C 
BRANCH  17  18
ATOM     18  C   UNL     1      33.304  -5.329  23.529  1.00  0.00    -0.000 C 
BRANCH  18  19
ATOM     19  C   UNL     1      34.803  -5.062  23.297  1.00  0.00    -0.000 C 
BRANCH  19  20
ATOM     20  C   UNL     1      35.734  -5.830  24.256  1.00  0.00    -0.000 C 
BRANCH  20  21
ATOM     21  C   UNL     1      36.845  -6.644  23.564  1.00  0.00    -0.000 C 
BRANCH  21  22
ATOM     22  C   UNL     1      36.819  -8.133  23.943  1.00  0.00    -0.000 C 
BRANCH  22  23
ATOM     23  C   UNL     1      36.379  -9.006  22.757  1.00  0.00    -0.000 C 
BRANCH  23  24
ATOM     24  C   UNL     1      37.583  -9.535  21.948  1.00  0.00    -0.000 C 
BRANCH  24  25
ATOM     25  C   UNL     1      37.298 -10.852  21.208  1.00  0.00    -0.003 C 
ATOM     26  C   UNL     1      36.050 -10.787  20.330  1.00  0.00     0.004 C 
ENDBRANCH  24  25
ENDBRANCH  23  24
ENDBRANCH  22  23
ENDBRANCH  21  22
ENDBRANCH  20  21
ENDBRANCH  19  20
ENDBRANCH  18  19
ENDBRANCH  17  18
ENDBRANCH  16  17
ENDBRANCH  15  16
ENDBRANCH   1  15
TORSDOF 22
ENDMDL
MODEL 8
REMARK VINA RESULT:    -6.718      2.291      3.804
REMARK INTER + INTRA:         -16.983
REMARK INTER:                 -15.020
REMARK INTRA:                  -1.963
REMARK UNBOUND:                -1.626
REMARK SMILES CCCCCCCCCCCCCCCCCCCCCCCC(=O)[O-]
REMARK SMILES IDX 13 1 14 2 15 3 16 4 17 5 18 6 19 7 20 8 21 9 22 10 23 11
REMARK SMILES IDX 24 12 25 13 26 14 12 15 11 16 10 17 9 18 8 19 7 20 6 21 5 22
REMARK SMILES IDX 4 23 3 24 2 25 1 26
REMARK H PARENT
REMARK Flexibility Score: inf
ROOT
ATOM      1  C   UNL     1      35.614  -8.013  21.821  1.00  0.00     0.000 C 
ENDROOT
BRANCH   1   2
ATOM      2  C   UNL     1      35.190  -7.219  23.067  1.00  0.00     0.000 C 
BRANCH   2   3
ATOM      3  C   UNL     1      36.310  -7.091  24.124  1.00  0.00     0.000 C 
BRANCH   3   4
ATOM      4  C   UNL     1      36.717  -8.452  24.740  1.00  0.00     0.000 C 
BRANCH   4   5
ATOM      5  C   UNL     1      38.111  -8.432  25.392  1.00  0.00     0.000 C 
BRANCH   5   6
ATOM      6  C   UNL     1      38.887  -7.136  25.098  1.00  0.00     0.000 C 
BRANCH   6   7
ATOM      7  C   UNL     1      40.024  -7.343  24.085  1.00  0.00     0.000 C 
BRANCH   7   8
ATOM      8  C   UNL     1      40.719  -8.709  24.234  1.00  0.00     0.000 C 
BRANCH   8   9
ATOM      9  C   UNL     1      40.620  -9.514  22.930  1.00  0.00     0.000 C 
BRANCH   9  10
ATOM     10  C   UNL     1      40.069 -10.937  23.144  1.00  0.00     0.006 C 
BRANCH  10  11
ATOM     11  C   UNL     1      38.579 -11.101  22.797  1.00  0.00     0.053 C 
BRANCH  11  12
ATOM     12  C   UNL     1      38.364 -11.775  21.473  1.00  0.00     0.041 C 
ATOM     13  O   UNL     1      38.819 -12.933  21.264  1.00  0.00    -0.550 OA
ATOM     14  O   UNL     1      37.630 -11.135  20.481  1.00  0.00    -0.550 OA
ENDBRANCH  11  12
ENDBRANCH  10  11
ENDBRANCH   9  10
ENDBRANCH   8   9
ENDBRANCH   7   8
ENDBRANCH   6   7
ENDBRANCH   5   6
ENDBRANCH   4   5
ENDBRANCH   3   4
ENDBRANCH   2   3
ENDBRANCH   1   2
BRANCH   1  15
ATOM     15  C   UNL     1      34.888  -9.361  21.694  1.00  0.00     0.000 C 
BRANCH  15  16
ATOM     16  C   UNL     1      34.454  -9.672  20.250  1.00  0.00     0.000 C 
BRANCH  16  17
ATOM     17  C   UNL     1      33.015  -9.223  19.921  1.00  0.00     0.000 C 
BRANCH  17  18
ATOM     18  C   UNL     1      32.134  -9.018  21.176  1.00  0.00    -0.000 C 
BRANCH  18  19
ATOM     19  C   UNL     1      30.634  -9.238  20.905  1.00  0.00    -0.000 C 
BRANCH  19  20
ATOM     20  C   UNL     1      29.762  -9.254  22.176  1.00  0.00    -0.000 C 
BRANCH  20  21
ATOM     21  C   UNL     1      28.405  -9.968  22.020  1.00  0.00    -0.000 C 
BRANCH  21  22
ATOM     22  C   UNL     1      28.428 -11.071  20.952  1.00  0.00    -0.000 C 
BRANCH  22  23
ATOM     23  C   UNL     1      27.014 -11.598  20.658  1.00  0.00    -0.000 C 
BRANCH  23  24
ATOM     24  C   UNL     1      26.597 -11.352  19.191  1.00  0.00    -0.000 C 
BRANCH  24  25
ATOM     25  C   UNL     1      26.244 -12.638  18.427  1.00  0.00    -0.003 C 
ATOM     26  C   UNL     1      27.255 -13.762  18.648  1.00  0.00     0.004 C 
ENDBRANCH  24  25
ENDBRANCH  23  24
ENDBRANCH  22  23
ENDBRANCH  21  22
ENDBRANCH  20  21
ENDBRANCH  19  20
ENDBRANCH  18  19
ENDBRANCH  17  18
ENDBRANCH  16  17
ENDBRANCH  15  16
ENDBRANCH   1  15
TORSDOF 22
ENDMDL
MODEL 9
REMARK VINA RESULT:    -6.669      4.468     10.130
REMARK INTER + INTRA:         -16.873
REMARK INTER:                 -13.692
REMARK INTRA:                  -3.181
REMARK UNBOUND:                -1.626
REMARK SMILES CCCCCCCCCCCCCCCCCCCCCCCC(=O)[O-]
REMARK SMILES IDX 13 1 14 2 15 3 16 4 17 5 18 6 19 7 20 8 21 9 22 10 23 11
REMARK SMILES IDX 24 12 25 13 26 14 12 15 11 16 10 17 9 18 8 19 7 20 6 21 5 22
REMARK SMILES IDX 4 23 3 24 2 25 1 26
REMARK H PARENT
REMARK Flexibility Score: inf
ROOT
ATOM      1  C   UNL     1      30.396  -8.841  21.969  1.00  0.00     0.000 C 
ENDROOT
BRANCH   1   2
ATOM      2  C   UNL     1      29.668  -9.805  21.019  1.00  0.00     0.000 C 
BRANCH   2   3
ATOM      3  C   UNL     1      28.391 -10.424  21.630  1.00  0.00     0.000 C 
BRANCH   3   4
ATOM      4  C   UNL     1      27.610 -11.308  20.627  1.00  0.00     0.000 C 
BRANCH   4   5
ATOM      5  C   UNL     1      26.244 -10.718  20.234  1.00  0.00     0.000 C 
BRANCH   5   6
ATOM      6  C   UNL     1      26.368  -9.439  19.388  1.00  0.00     0.000 C 
BRANCH   6   7
ATOM      7  C   UNL     1      25.621  -8.246  20.005  1.00  0.00     0.000 C 
BRANCH   7   8
ATOM      8  C   UNL     1      26.551  -7.284  20.768  1.00  0.00     0.000 C 
BRANCH   8   9
ATOM      9  C   UNL     1      27.695  -6.804  19.864  1.00  0.00     0.000 C 
BRANCH   9  10
ATOM     10  C   UNL     1      28.279  -5.448  20.302  1.00  0.00     0.006 C 
BRANCH  10  11
ATOM     11  C   UNL     1      28.233  -4.355  19.220  1.00  0.00     0.053 C 
BRANCH  11  12
ATOM     12  C   UNL     1      27.000  -3.503  19.309  1.00  0.00     0.041 C 
ATOM     13  O   UNL     1      26.642  -2.792  18.330  1.00  0.00    -0.550 OA
ATOM     14  O   UNL     1      26.228  -3.521  20.464  1.00  0.00    -0.550 OA
ENDBRANCH  11  12
ENDBRANCH  10  11
ENDBRANCH   9  10
ENDBRANCH   8   9
ENDBRANCH   7   8
ENDBRANCH   6   7
ENDBRANCH   5   6
ENDBRANCH   4   5
ENDBRANCH   3   4
ENDBRANCH   2   3
ENDBRANCH   1   2
BRANCH   1  15
ATOM     15  C   UNL     1      31.921  -8.863  21.792  1.00  0.00     0.000 C 
BRANCH  15  16
ATOM     16  C   UNL     1      32.350  -8.926  20.314  1.00  0.00     0.000 C 
BRANCH  16  17
ATOM     17  C   UNL     1      33.811  -9.376  20.106  1.00  0.00     0.000 C 
BRANCH  17  18
ATOM     18  C   UNL     1      34.565  -9.645  21.430  1.00  0.00    -0.000 C 
BRANCH  18  19
ATOM     19  C   UNL     1      35.885  -8.860  21.545  1.00  0.00    -0.000 C 
BRANCH  19  20
ATOM     20  C   UNL     1      36.072  -8.141  22.895  1.00  0.00    -0.000 C 
BRANCH  20  21
ATOM     21  C   UNL     1      35.719  -6.640  22.883  1.00  0.00    -0.000 C 
BRANCH  21  22
ATOM     22  C   UNL     1      34.209  -6.382  22.772  1.00  0.00    -0.000 C 
BRANCH  22  23
ATOM     23  C   UNL     1      33.851  -5.704  21.440  1.00  0.00    -0.000 C 
BRANCH  23  24
ATOM     24  C   UNL     1      32.524  -4.918  21.527  1.00  0.00    -0.000 C 
BRANCH  24  25
ATOM     25  C   UNL     1      31.987  -4.772  22.960  1.00  0.00    -0.003 C 
ATOM     26  C   UNL     1      30.601  -5.386  23.145  1.00  0.00     0.004 C 
ENDBRANCH  24  25
ENDBRANCH  23  24
ENDBRANCH  22  23
ENDBRANCH  21  22
ENDBRANCH  20  21
ENDBRANCH  19  20
ENDBRANCH  18  19
ENDBRANCH  17  18
ENDBRANCH  16  17
ENDBRANCH  15  16
ENDBRANCH   1  15
TORSDOF 22
ENDMDL
