MODEL 1
REMARK VINA RESULT:    36.960      0.000      0.000
REMARK INTER + INTRA:          41.100
REMARK INTER:                  40.201
REMARK INTRA:                   0.898
REMARK UNBOUND:                 0.898
REMARK SMILES C[C@@H]1[C@H](C)CC[C@]2(C(=O)[O-])CC[C@@]3(C)C(=CC[C@H]4[C@]5(C)CC[C@@H](O)C(C)(C)[C@@H]5CC[C@]43C)[C@H]12
REMARK SMILES IDX 7 1 6 2 11 3 33 4 5 5 12 6 15 7 2 8 3 9 13 10 16 11 1 12
REMARK SMILES IDX 4 13 14 14 31 15 17 16 18 17 30 18 32 19 19 20 29 21 28 22
REMARK SMILES IDX 21 23 20 24 25 25 22 26 23 27 26 28 27 29 8 30 9 31 10 32
REMARK SMILES IDX 24 33
REMARK H PARENT 24 34
REMARK Flexibility Score: inf
ROOT
ATOM      1  C   UNL     1      21.202 -49.891   5.901  1.00  0.00     0.017 C 
ATOM      2  C   UNL     1      21.406 -50.442   4.457  1.00  0.00     0.014 C 
ATOM      3  C   UNL     1      19.718 -50.128   6.245  1.00  0.00     0.014 C 
ATOM      4  C   UNL     1      21.547 -48.338   6.009  1.00  0.00     0.030 C 
ATOM      5  C   UNL     1      22.797 -50.149   3.873  1.00  0.00     0.004 C 
ATOM      6  C   UNL     1      19.358 -49.574   7.620  1.00  0.00     0.013 C 
ATOM      7  C   UNL     1      20.401 -47.467   6.607  1.00  0.00    -0.063 C 
ATOM      8  C   UNL     1      22.191 -47.775   4.688  1.00  0.00    -0.003 C 
ATOM      9  C   UNL     1      23.313 -48.730   4.202  1.00  0.00    -0.011 C 
ATOM     10  C   UNL     1      19.521 -48.010   7.750  1.00  0.00    -0.006 C 
ATOM     11  C   UNL     1      20.391 -46.138   6.383  1.00  0.00    -0.027 C 
ATOM     12  C   UNL     1      21.156 -47.434   3.578  1.00  0.00     0.008 C 
ATOM     13  C   UNL     1      24.124 -48.139   3.034  1.00  0.00     0.008 C 
ATOM     14  C   UNL     1      20.335 -47.748   9.054  1.00  0.00     0.017 C 
ATOM     15  C   UNL     1      18.089 -47.261   7.820  1.00  0.00    -0.020 C 
ATOM     16  C   UNL     1      19.241 -45.241   6.698  1.00  0.00     0.032 C 
ATOM     17  C   UNL     1      18.254 -45.684   7.821  1.00  0.00     0.006 C 
ATOM     18  C   UNL     1      17.239 -47.624   6.575  1.00  0.00     0.008 C 
ATOM     19  C   UNL     1      17.355 -47.727   9.125  1.00  0.00     0.012 C 
ATOM     20  C   UNL     1      16.893 -44.821   7.736  1.00  0.00    -0.025 C 
ATOM     21  C   UNL     1      15.889 -46.903   6.503  1.00  0.00     0.005 C 
ATOM     22  C   UNL     1      15.956 -45.344   6.560  1.00  0.00     0.003 C 
ATOM     23  C   UNL     1      16.141 -44.778   9.124  1.00  0.00     0.010 C 
ATOM     24  C   UNL     1      17.288 -43.332   7.455  1.00  0.00     0.012 C 
ATOM     25  C   UNL     1      14.502 -44.654   6.503  1.00  0.00    -0.006 C 
ATOM     26  C   UNL     1      14.630 -45.031   9.052  1.00  0.00     0.033 C 
ATOM     27  C   UNL     1      13.972 -44.226   7.928  1.00  0.00     0.120 C 
ATOM     28  C   UNL     1      14.540 -43.426   5.546  1.00  0.00     0.014 C 
ATOM     29  C   UNL     1      13.429 -45.592   5.870  1.00  0.00     0.014 C 
ENDROOT
BRANCH   1  30
ATOM     30  C   UNL     1      22.059 -50.737   6.853  1.00  0.00     0.048 C 
ATOM     31  O   UNL     1      23.255 -51.024   6.582  1.00  0.00    -0.550 OA
ATOM     32  O   UNL     1      21.556 -51.120   8.092  1.00  0.00    -0.550 OA
ENDBRANCH   1  30
BRANCH  27  33
ATOM     33  O   UNL     1      14.148 -42.849   8.164  1.00  0.00    -0.393 OA
ATOM     34  H   UNL     1      14.072 -42.701   9.143  1.00  0.00     0.210 HD
ENDBRANCH  27  33
TORSDOF 2
ENDMDL
MODEL 2
REMARK VINA RESULT:    38.088      1.730      8.461
REMARK INTER + INTRA:          42.326
REMARK INTER:                  42.687
REMARK INTRA:                  -0.361
REMARK UNBOUND:                 0.898
REMARK SMILES C[C@@H]1[C@H](C)CC[C@]2(C(=O)[O-])CC[C@@]3(C)C(=CC[C@H]4[C@]5(C)CC[C@@H](O)C(C)(C)[C@@H]5CC[C@]43C)[C@H]12
REMARK SMILES IDX 7 1 6 2 11 3 33 4 5 5 12 6 15 7 2 8 3 9 13 10 16 11 1 12
REMARK SMILES IDX 4 13 14 14 31 15 17 16 18 17 30 18 32 19 19 20 29 21 28 22
REMARK SMILES IDX 21 23 20 24 25 25 22 26 23 27 26 28 27 29 8 30 9 31 10 32
REMARK SMILES IDX 24 33
REMARK H PARENT 24 34
REMARK Flexibility Score: inf
ROOT
ATOM      1  C   UNL     1      14.270 -43.106   7.167  1.00  0.00     0.017 C 
ATOM      2  C   UNL     1      12.988 -43.557   6.404  1.00  0.00     0.014 C 
ATOM      3  C   UNL     1      15.419 -43.146   6.139  1.00  0.00     0.014 C 
ATOM      4  C   UNL     1      14.606 -44.061   8.400  1.00  0.00     0.030 C 
ATOM      5  C   UNL     1      11.758 -43.736   7.309  1.00  0.00     0.004 C 
ATOM      6  C   UNL     1      16.759 -42.785   6.771  1.00  0.00     0.013 C 
ATOM      7  C   UNL     1      16.052 -44.643   8.383  1.00  0.00    -0.063 C 
ATOM      8  C   UNL     1      13.467 -45.112   8.669  1.00  0.00    -0.003 C 
ATOM      9  C   UNL     1      12.086 -44.405   8.662  1.00  0.00    -0.011 C 
ATOM     10  C   UNL     1      17.235 -43.786   7.893  1.00  0.00    -0.006 C 
ATOM     11  C   UNL     1      16.332 -45.746   9.105  1.00  0.00    -0.027 C 
ATOM     12  C   UNL     1      13.523 -46.354   7.736  1.00  0.00     0.008 C 
ATOM     13  C   UNL     1      10.948 -45.333   9.125  1.00  0.00     0.008 C 
ATOM     14  C   UNL     1      17.650 -42.919   9.122  1.00  0.00     0.017 C 
ATOM     15  C   UNL     1      18.479 -44.694   7.400  1.00  0.00    -0.020 C 
ATOM     16  C   UNL     1      17.597 -46.527   8.991  1.00  0.00     0.032 C 
ATOM     17  C   UNL     1      18.871 -45.786   8.482  1.00  0.00     0.006 C 
ATOM     18  C   UNL     1      18.096 -45.461   6.107  1.00  0.00     0.008 C 
ATOM     19  C   UNL     1      19.698 -43.749   7.121  1.00  0.00     0.012 C 
ATOM     20  C   UNL     1      19.999 -46.854   8.045  1.00  0.00    -0.025 C 
ATOM     21  C   UNL     1      19.180 -46.415   5.596  1.00  0.00     0.005 C 
ATOM     22  C   UNL     1      19.670 -47.486   6.622  1.00  0.00     0.003 C 
ATOM     23  C   UNL     1      21.448 -46.228   8.100  1.00  0.00     0.010 C 
ATOM     24  C   UNL     1      20.020 -47.992   9.121  1.00  0.00     0.012 C 
ATOM     25  C   UNL     1      20.823 -48.439   6.027  1.00  0.00    -0.006 C 
ATOM     26  C   UNL     1      22.330 -46.526   6.881  1.00  0.00     0.033 C 
ATOM     27  C   UNL     1      22.271 -48.005   6.484  1.00  0.00     0.120 C 
ATOM     28  C   UNL     1      20.546 -49.916   6.433  1.00  0.00     0.014 C 
ATOM     29  C   UNL     1      20.817 -48.469   4.468  1.00  0.00     0.014 C 
ENDROOT
BRANCH   1  30
ATOM     30  C   UNL     1      14.067 -41.650   7.607  1.00  0.00     0.048 C 
ATOM     31  O   UNL     1      13.709 -40.760   6.791  1.00  0.00    -0.550 OA
ATOM     32  O   UNL     1      14.177 -41.303   8.949  1.00  0.00    -0.550 OA
ENDBRANCH   1  30
BRANCH  27  33
ATOM     33  O   UNL     1      22.750 -48.799   7.543  1.00  0.00    -0.393 OA
ATOM     34  H   UNL     1      23.724 -48.624   7.632  1.00  0.00     0.210 HD
ENDBRANCH  27  33
TORSDOF 2
ENDMDL
MODEL 3
REMARK VINA RESULT:    39.356      1.798      2.810
REMARK INTER + INTRA:          43.706
REMARK INTER:                  44.034
REMARK INTRA:                  -0.328
REMARK UNBOUND:                 0.898
REMARK SMILES C[C@@H]1[C@H](C)CC[C@]2(C(=O)[O-])CC[C@@]3(C)C(=CC[C@H]4[C@]5(C)CC[C@@H](O)C(C)(C)[C@@H]5CC[C@]43C)[C@H]12
REMARK SMILES IDX 7 1 6 2 11 3 33 4 5 5 12 6 15 7 2 8 3 9 13 10 16 11 1 12
REMARK SMILES IDX 4 13 14 14 31 15 17 16 18 17 30 18 32 19 19 20 29 21 28 22
REMARK SMILES IDX 21 23 20 24 25 25 22 26 23 27 26 28 27 29 8 30 9 31 10 32
REMARK SMILES IDX 24 33
REMARK H PARENT 24 34
REMARK Flexibility Score: inf
ROOT
ATOM      1  C   UNL     1      21.866 -47.626   7.418  1.00  0.00     0.017 C 
ATOM      2  C   UNL     1      21.922 -49.179   7.296  1.00  0.00     0.014 C 
ATOM      3  C   UNL     1      20.940 -47.322   8.613  1.00  0.00     0.014 C 
ATOM      4  C   UNL     1      21.297 -46.937   6.096  1.00  0.00     0.030 C 
ATOM      5  C   UNL     1      22.675 -49.677   6.052  1.00  0.00     0.004 C 
ATOM      6  C   UNL     1      20.742 -45.822   8.810  1.00  0.00     0.013 C 
ATOM      7  C   UNL     1      20.088 -45.984   6.340  1.00  0.00    -0.063 C 
ATOM      8  C   UNL     1      21.108 -47.965   4.920  1.00  0.00    -0.003 C 
ATOM      9  C   UNL     1      22.378 -48.847   4.784  1.00  0.00    -0.011 C 
ATOM     10  C   UNL     1      20.031 -45.099   7.601  1.00  0.00    -0.006 C 
ATOM     11  C   UNL     1      19.274 -45.668   5.314  1.00  0.00    -0.027 C 
ATOM     12  C   UNL     1      19.796 -48.794   5.012  1.00  0.00     0.008 C 
ATOM     13  C   UNL     1      22.347 -49.732   3.524  1.00  0.00     0.008 C 
ATOM     14  C   UNL     1      20.891 -43.843   7.259  1.00  0.00     0.017 C 
ATOM     15  C   UNL     1      18.518 -44.663   7.967  1.00  0.00    -0.020 C 
ATOM     16  C   UNL     1      17.967 -44.965   5.462  1.00  0.00     0.032 C 
ATOM     17  C   UNL     1      17.765 -44.053   6.711  1.00  0.00     0.006 C 
ATOM     18  C   UNL     1      17.703 -45.902   8.421  1.00  0.00     0.008 C 
ATOM     19  C   UNL     1      18.577 -43.607   9.124  1.00  0.00     0.012 C 
ATOM     20  C   UNL     1      16.198 -43.719   6.908  1.00  0.00    -0.025 C 
ATOM     21  C   UNL     1      16.228 -45.612   8.718  1.00  0.00     0.005 C 
ATOM     22  C   UNL     1      15.426 -44.953   7.552  1.00  0.00     0.003 C 
ATOM     23  C   UNL     1      15.984 -42.386   7.727  1.00  0.00     0.010 C 
ATOM     24  C   UNL     1      15.594 -43.416   5.495  1.00  0.00     0.012 C 
ATOM     25  C   UNL     1      13.891 -44.656   7.940  1.00  0.00    -0.006 C 
ATOM     26  C   UNL     1      14.927 -42.469   8.836  1.00  0.00     0.033 C 
ATOM     27  C   UNL     1      13.644 -43.150   8.349  1.00  0.00     0.120 C 
ATOM     28  C   UNL     1      12.963 -45.056   6.755  1.00  0.00     0.014 C 
ATOM     29  C   UNL     1      13.400 -45.546   9.121  1.00  0.00     0.014 C 
ENDROOT
BRANCH   1  30
ATOM     30  C   UNL     1      23.276 -47.130   7.763  1.00  0.00     0.048 C 
ATOM     31  O   UNL     1      24.011 -47.749   8.578  1.00  0.00    -0.550 OA
ATOM     32  O   UNL     1      23.814 -46.034   7.097  1.00  0.00    -0.550 OA
ENDBRANCH   1  30
BRANCH  27  33
ATOM     33  O   UNL     1      13.080 -42.404   7.298  1.00  0.00    -0.393 OA
ATOM     34  H   UNL     1      13.223 -42.915   6.458  1.00  0.00     0.210 HD
ENDBRANCH  27  33
TORSDOF 2
ENDMDL
