MODEL 1
REMARK VINA RESULT:    -3.619      0.000      0.000
REMARK INTER + INTRA:          -7.226
REMARK INTER:                  -5.734
REMARK INTRA:                  -1.492
REMARK UNBOUND:                -1.492
REMARK SMILES CCCCCCCCCCCC(=O)[O-]
REMARK SMILES IDX 7 1 8 2 9 3 10 4 11 5 12 6 13 7 14 8 6 9 5 10 4 11 3 12 2 13
REMARK SMILES IDX 1 14
REMARK H PARENT
REMARK Flexibility Score: inf
ROOT
ATOM      1  C   UNL     1      27.677  19.987  56.414  1.00  0.00     0.000 C 
ENDROOT
BRANCH   1   2
ATOM      2  C   UNL     1      27.132  18.756  57.147  1.00  0.00     0.000 C 
BRANCH   2   3
ATOM      3  C   UNL     1      28.252  18.013  57.884  1.00  0.00     0.000 C 
BRANCH   3   4
ATOM      4  C   UNL     1      28.566  16.673  57.203  1.00  0.00     0.006 C 
BRANCH   4   5
ATOM      5  C   UNL     1      27.619  16.379  56.032  1.00  0.00     0.053 C 
BRANCH   5   6
ATOM      6  C   UNL     1      26.740  15.199  56.311  1.00  0.00     0.041 C 
ATOM      7  O   UNL     1      26.408  14.423  55.375  1.00  0.00    -0.550 OA
ATOM      8  O   UNL     1      26.259  14.974  57.594  1.00  0.00    -0.550 OA
ENDBRANCH   5   6
ENDBRANCH   4   5
ENDBRANCH   3   4
ENDBRANCH   2   3
ENDBRANCH   1   2
BRANCH   1   9
ATOM      9  C   UNL     1      28.998  20.459  57.034  1.00  0.00     0.000 C 
BRANCH   9  10
ATOM     10  C   UNL     1      30.116  20.500  55.980  1.00  0.00    -0.000 C 
BRANCH  10  11
ATOM     11  C   UNL     1      29.782  19.673  54.728  1.00  0.00    -0.000 C 
BRANCH  11  12
ATOM     12  C   UNL     1      30.713  18.459  54.557  1.00  0.00    -0.000 C 
BRANCH  12  13
ATOM     13  C   UNL     1      31.860  18.449  55.579  1.00  0.00    -0.003 C 
ATOM     14  C   UNL     1      32.049  17.087  56.246  1.00  0.00     0.004 C 
ENDBRANCH  12  13
ENDBRANCH  11  12
ENDBRANCH  10  11
ENDBRANCH   9  10
ENDBRANCH   1   9
TORSDOF 10
ENDMDL
MODEL 2
REMARK VINA RESULT:    -3.574      1.777      3.558
REMARK INTER + INTRA:          -7.154
REMARK INTER:                  -5.614
REMARK INTRA:                  -1.541
REMARK UNBOUND:                -1.492
REMARK SMILES CCCCCCCCCCCC(=O)[O-]
REMARK SMILES IDX 7 1 8 2 9 3 10 4 11 5 12 6 13 7 14 8 6 9 5 10 4 11 3 12 2 13
REMARK SMILES IDX 1 14
REMARK H PARENT
REMARK Flexibility Score: inf
ROOT
ATOM      1  C   UNL     1      30.883  19.194  54.514  1.00  0.00     0.000 C 
ENDROOT
BRANCH   1   2
ATOM      2  C   UNL     1      29.741  20.172  54.816  1.00  0.00     0.000 C 
BRANCH   2   3
ATOM      3  C   UNL     1      29.771  20.619  56.281  1.00  0.00     0.000 C 
BRANCH   3   4
ATOM      4  C   UNL     1      28.558  20.073  57.048  1.00  0.00     0.006 C 
BRANCH   4   5
ATOM      5  C   UNL     1      27.375  19.760  56.122  1.00  0.00     0.053 C 
BRANCH   5   6
ATOM      6  C   UNL     1      26.494  18.688  56.686  1.00  0.00     0.041 C 
ATOM      7  O   UNL     1      25.493  18.285  56.035  1.00  0.00    -0.550 OA
ATOM      8  O   UNL     1      26.756  18.160  57.943  1.00  0.00    -0.550 OA
ENDBRANCH   5   6
ENDBRANCH   4   5
ENDBRANCH   3   4
ENDBRANCH   2   3
ENDBRANCH   1   2
BRANCH   1   9
ATOM      9  C   UNL     1      31.943  19.226  55.622  1.00  0.00     0.000 C 
BRANCH   9  10
ATOM     10  C   UNL     1      32.415  17.805  55.971  1.00  0.00    -0.000 C 
BRANCH  10  11
ATOM     11  C   UNL     1      31.323  16.746  55.750  1.00  0.00    -0.000 C 
BRANCH  11  12
ATOM     12  C   UNL     1      30.348  16.645  56.937  1.00  0.00    -0.000 C 
BRANCH  12  13
ATOM     13  C   UNL     1      29.019  15.979  56.551  1.00  0.00    -0.003 C 
ATOM     14  C   UNL     1      28.646  16.202  55.086  1.00  0.00     0.004 C 
ENDBRANCH  12  13
ENDBRANCH  11  12
ENDBRANCH  10  11
ENDBRANCH   9  10
ENDBRANCH   1   9
TORSDOF 10
ENDMDL
MODEL 3
REMARK VINA RESULT:    -3.570      1.125      3.247
REMARK INTER + INTRA:          -7.148
REMARK INTER:                  -5.746
REMARK INTRA:                  -1.402
REMARK UNBOUND:                -1.492
REMARK SMILES CCCCCCCCCCCC(=O)[O-]
REMARK SMILES IDX 7 1 8 2 9 3 10 4 11 5 12 6 13 7 14 8 6 9 5 10 4 11 3 12 2 13
REMARK SMILES IDX 1 14
REMARK H PARENT
REMARK Flexibility Score: inf
ROOT
ATOM      1  C   UNL     1      30.560  18.258  54.518  1.00  0.00     0.000 C 
ENDROOT
BRANCH   1   2
ATOM      2  C   UNL     1      31.238  17.781  55.808  1.00  0.00     0.000 C 
BRANCH   2   3
ATOM      3  C   UNL     1      30.730  16.394  56.217  1.00  0.00     0.000 C 
BRANCH   3   4
ATOM      4  C   UNL     1      29.460  16.503  57.073  1.00  0.00     0.006 C 
BRANCH   4   5
ATOM      5  C   UNL     1      28.501  15.327  56.845  1.00  0.00     0.053 C 
BRANCH   5   6
ATOM      6  C   UNL     1      27.164  15.568  57.475  1.00  0.00     0.041 C 
ATOM      7  O   UNL     1      26.977  16.587  58.191  1.00  0.00    -0.550 OA
ATOM      8  O   UNL     1      26.135  14.652  57.299  1.00  0.00    -0.550 OA
ENDBRANCH   5   6
ENDBRANCH   4   5
ENDBRANCH   3   4
ENDBRANCH   2   3
ENDBRANCH   1   2
BRANCH   1   9
ATOM      9  C   UNL     1      30.264  19.762  54.573  1.00  0.00     0.000 C 
BRANCH   9  10
ATOM     10  C   UNL     1      30.422  20.300  56.004  1.00  0.00    -0.000 C 
BRANCH  10  11
ATOM     11  C   UNL     1      29.092  20.784  56.605  1.00  0.00    -0.000 C 
BRANCH  11  12
ATOM     12  C   UNL     1      28.187  19.621  57.049  1.00  0.00    -0.000 C 
BRANCH  12  13
ATOM     13  C   UNL     1      26.882  19.550  56.240  1.00  0.00    -0.003 C 
ATOM     14  C   UNL     1      26.910  18.466  55.163  1.00  0.00     0.004 C 
ENDBRANCH  12  13
ENDBRANCH  11  12
ENDBRANCH  10  11
ENDBRANCH   9  10
ENDBRANCH   1   9
TORSDOF 10
ENDMDL
MODEL 4
REMARK VINA RESULT:    -3.564      1.616      3.348
REMARK INTER + INTRA:          -7.139
REMARK INTER:                  -5.421
REMARK INTRA:                  -1.718
REMARK UNBOUND:                -1.492
REMARK SMILES CCCCCCCCCCCC(=O)[O-]
REMARK SMILES IDX 7 1 8 2 9 3 10 4 11 5 12 6 13 7 14 8 6 9 5 10 4 11 3 12 2 13
REMARK SMILES IDX 1 14
REMARK H PARENT
REMARK Flexibility Score: inf
ROOT
ATOM      1  C   UNL     1      29.061  17.761  53.793  1.00  0.00     0.000 C 
ENDROOT
BRANCH   1   2
ATOM      2  C   UNL     1      29.752  16.682  54.636  1.00  0.00     0.000 C 
BRANCH   2   3
ATOM      3  C   UNL     1      30.354  17.282  55.911  1.00  0.00     0.000 C 
BRANCH   3   4
ATOM      4  C   UNL     1      29.539  16.880  57.148  1.00  0.00     0.006 C 
BRANCH   4   5
ATOM      5  C   UNL     1      28.528  15.767  56.842  1.00  0.00     0.053 C 
BRANCH   5   6
ATOM      6  C   UNL     1      27.222  15.994  57.540  1.00  0.00     0.041 C 
ATOM      7  O   UNL     1      27.009  17.077  58.148  1.00  0.00    -0.550 OA
ATOM      8  O   UNL     1      26.254  14.999  57.549  1.00  0.00    -0.550 OA
ENDBRANCH   5   6
ENDBRANCH   4   5
ENDBRANCH   3   4
ENDBRANCH   2   3
ENDBRANCH   1   2
BRANCH   1   9
ATOM      9  C   UNL     1      27.554  17.497  53.685  1.00  0.00     0.000 C 
BRANCH   9  10
ATOM     10  C   UNL     1      26.758  18.501  54.533  1.00  0.00    -0.000 C 
BRANCH  10  11
ATOM     11  C   UNL     1      27.586  19.737  54.922  1.00  0.00    -0.000 C 
BRANCH  11  12
ATOM     12  C   UNL     1      27.500  20.057  56.425  1.00  0.00    -0.000 C 
BRANCH  12  13
ATOM     13  C   UNL     1      28.839  20.543  57.000  1.00  0.00    -0.003 C 
ATOM     14  C   UNL     1      29.820  20.994  55.919  1.00  0.00     0.004 C 
ENDBRANCH  12  13
ENDBRANCH  11  12
ENDBRANCH  10  11
ENDBRANCH   9  10
ENDBRANCH   1   9
TORSDOF 10
ENDMDL
MODEL 5
REMARK VINA RESULT:    -3.525      1.966      3.552
REMARK INTER + INTRA:          -7.077
REMARK INTER:                  -5.300
REMARK INTRA:                  -1.777
REMARK UNBOUND:                -1.492
REMARK SMILES CCCCCCCCCCCC(=O)[O-]
REMARK SMILES IDX 7 1 8 2 9 3 10 4 11 5 12 6 13 7 14 8 6 9 5 10 4 11 3 12 2 13
REMARK SMILES IDX 1 14
REMARK H PARENT
REMARK Flexibility Score: inf
ROOT
ATOM      1  C   UNL     1      28.823  16.834  57.107  1.00  0.00     0.000 C 
ENDROOT
BRANCH   1   2
ATOM      2  C   UNL     1      30.174  17.186  56.474  1.00  0.00     0.000 C 
BRANCH   2   3
ATOM      3  C   UNL     1      30.046  17.347  54.955  1.00  0.00     0.000 C 
BRANCH   3   4
ATOM      4  C   UNL     1      28.754  16.697  54.439  1.00  0.00     0.006 C 
BRANCH   4   5
ATOM      5  C   UNL     1      27.965  17.627  53.509  1.00  0.00     0.053 C 
BRANCH   5   6
ATOM      6  C   UNL     1      26.488  17.403  53.620  1.00  0.00     0.041 C 
ATOM      7  O   UNL     1      26.010  16.247  53.466  1.00  0.00    -0.550 OA
ATOM      8  O   UNL     1      25.637  18.474  53.857  1.00  0.00    -0.550 OA
ENDBRANCH   5   6
ENDBRANCH   4   5
ENDBRANCH   3   4
ENDBRANCH   2   3
ENDBRANCH   1   2
BRANCH   1   9
ATOM      9  C   UNL     1      28.271  18.010  57.922  1.00  0.00     0.000 C 
BRANCH   9  10
ATOM     10  C   UNL     1      27.114  18.697  57.180  1.00  0.00    -0.000 C 
BRANCH  10  11
ATOM     11  C   UNL     1      27.561  19.955  56.417  1.00  0.00    -0.000 C 
BRANCH  11  12
ATOM     12  C   UNL     1      28.821  20.598  57.025  1.00  0.00    -0.000 C 
BRANCH  12  13
ATOM     13  C   UNL     1      29.879  20.937  55.964  1.00  0.00    -0.003 C 
ATOM     14  C   UNL     1      29.308  20.968  54.546  1.00  0.00     0.004 C 
ENDBRANCH  12  13
ENDBRANCH  11  12
ENDBRANCH  10  11
ENDBRANCH   9  10
ENDBRANCH   1   9
TORSDOF 10
ENDMDL
MODEL 6
REMARK VINA RESULT:    -3.489      3.046      5.165
REMARK INTER + INTRA:          -7.021
REMARK INTER:                  -5.462
REMARK INTRA:                  -1.559
REMARK UNBOUND:                -1.492
REMARK SMILES CCCCCCCCCCCC(=O)[O-]
REMARK SMILES IDX 7 1 8 2 9 3 10 4 11 5 12 6 13 7 14 8 6 9 5 10 4 11 3 12 2 13
REMARK SMILES IDX 1 14
REMARK H PARENT
REMARK Flexibility Score: inf
ROOT
ATOM      1  C   UNL     1      30.048  16.315  56.804  1.00  0.00     0.000 C 
ENDROOT
BRANCH   1   2
ATOM      2  C   UNL     1      30.395  17.167  55.577  1.00  0.00     0.000 C 
BRANCH   2   3
ATOM      3  C   UNL     1      31.704  17.934  55.792  1.00  0.00     0.000 C 
BRANCH   3   4
ATOM      4  C   UNL     1      31.481  19.449  55.673  1.00  0.00     0.006 C 
BRANCH   4   5
ATOM      5  C   UNL     1      30.041  19.796  55.274  1.00  0.00     0.053 C 
BRANCH   5   6
ATOM      6  C   UNL     1      29.508  20.953  56.061  1.00  0.00     0.041 C 
ATOM      7  O   UNL     1      30.193  21.453  56.993  1.00  0.00    -0.550 OA
ATOM      8  O   UNL     1      28.244  21.458  55.789  1.00  0.00    -0.550 OA
ENDBRANCH   5   6
ENDBRANCH   4   5
ENDBRANCH   3   4
ENDBRANCH   2   3
ENDBRANCH   1   2
BRANCH   1   9
ATOM      9  C   UNL     1      28.565  16.455  57.172  1.00  0.00     0.000 C 
BRANCH   9  10
ATOM     10  C   UNL     1      28.309  17.765  57.933  1.00  0.00    -0.000 C 
BRANCH  10  11
ATOM     11  C   UNL     1      27.079  18.525  57.412  1.00  0.00    -0.000 C 
BRANCH  11  12
ATOM     12  C   UNL     1      26.371  17.785  56.262  1.00  0.00    -0.000 C 
BRANCH  12  13
ATOM     13  C   UNL     1      26.413  18.572  54.943  1.00  0.00    -0.003 C 
ATOM     14  C   UNL     1      27.155  17.829  53.832  1.00  0.00     0.004 C 
ENDBRANCH  12  13
ENDBRANCH  11  12
ENDBRANCH  10  11
ENDBRANCH   9  10
ENDBRANCH   1   9
TORSDOF 10
ENDMDL
MODEL 7
REMARK VINA RESULT:    -3.485      3.182      4.546
REMARK INTER + INTRA:          -7.014
REMARK INTER:                  -5.304
REMARK INTRA:                  -1.710
REMARK UNBOUND:                -1.492
REMARK SMILES CCCCCCCCCCCC(=O)[O-]
REMARK SMILES IDX 7 1 8 2 9 3 10 4 11 5 12 6 13 7 14 8 6 9 5 10 4 11 3 12 2 13
REMARK SMILES IDX 1 14
REMARK H PARENT
REMARK Flexibility Score: inf
ROOT
ATOM      1  C   UNL     1      28.994  16.455  57.143  1.00  0.00     0.000 C 
ENDROOT
BRANCH   1   2
ATOM      2  C   UNL     1      28.580  17.851  57.628  1.00  0.00     0.000 C 
BRANCH   2   3
ATOM      3  C   UNL     1      27.144  18.178  57.204  1.00  0.00     0.000 C 
BRANCH   3   4
ATOM      4  C   UNL     1      27.090  19.489  56.407  1.00  0.00     0.006 C 
BRANCH   4   5
ATOM      5  C   UNL     1      28.225  20.449  56.786  1.00  0.00     0.053 C 
BRANCH   5   6
ATOM      6  C   UNL     1      28.635  21.310  55.632  1.00  0.00     0.041 C 
ATOM      7  O   UNL     1      29.641  22.063  55.730  1.00  0.00    -0.550 OA
ATOM      8  O   UNL     1      27.888  21.309  54.461  1.00  0.00    -0.550 OA
ENDBRANCH   5   6
ENDBRANCH   4   5
ENDBRANCH   3   4
ENDBRANCH   2   3
ENDBRANCH   1   2
BRANCH   1   9
ATOM      9  C   UNL     1      30.389  16.483  56.508  1.00  0.00     0.000 C 
BRANCH   9  10
ATOM     10  C   UNL     1      30.708  17.875  55.942  1.00  0.00    -0.000 C 
BRANCH  10  11
ATOM     11  C   UNL     1      30.743  17.898  54.405  1.00  0.00    -0.000 C 
BRANCH  11  12
ATOM     12  C   UNL     1      29.357  18.158  53.787  1.00  0.00    -0.000 C 
BRANCH  12  13
ATOM     13  C   UNL     1      28.709  16.878  53.238  1.00  0.00    -0.003 C 
ATOM     14  C   UNL     1      27.304  16.640  53.792  1.00  0.00     0.004 C 
ENDBRANCH  12  13
ENDBRANCH  11  12
ENDBRANCH  10  11
ENDBRANCH   9  10
ENDBRANCH   1   9
TORSDOF 10
ENDMDL
MODEL 8
REMARK VINA RESULT:    -3.482      3.093      4.824
REMARK INTER + INTRA:          -7.009
REMARK INTER:                  -5.412
REMARK INTRA:                  -1.596
REMARK UNBOUND:                -1.492
REMARK SMILES CCCCCCCCCCCC(=O)[O-]
REMARK SMILES IDX 7 1 8 2 9 3 10 4 11 5 12 6 13 7 14 8 6 9 5 10 4 11 3 12 2 13
REMARK SMILES IDX 1 14
REMARK H PARENT
REMARK Flexibility Score: inf
ROOT
ATOM      1  C   UNL     1      25.962  17.610  54.655  1.00  0.00     0.000 C 
ENDROOT
BRANCH   1   2
ATOM      2  C   UNL     1      26.758  18.782  54.067  1.00  0.00     0.000 C 
BRANCH   2   3
ATOM      3  C   UNL     1      28.052  18.293  53.408  1.00  0.00     0.000 C 
BRANCH   3   4
ATOM      4  C   UNL     1      29.281  18.727  54.218  1.00  0.00     0.006 C 
BRANCH   4   5
ATOM      5  C   UNL     1      29.162  20.169  54.730  1.00  0.00     0.053 C 
BRANCH   5   6
ATOM      6  C   UNL     1      30.032  20.408  55.926  1.00  0.00     0.041 C 
ATOM      7  O   UNL     1      29.592  21.066  56.907  1.00  0.00    -0.550 OA
ATOM      8  O   UNL     1      31.337  19.937  55.945  1.00  0.00    -0.550 OA
ENDBRANCH   5   6
ENDBRANCH   4   5
ENDBRANCH   3   4
ENDBRANCH   2   3
ENDBRANCH   1   2
BRANCH   1   9
ATOM      9  C   UNL     1      25.402  17.963  56.038  1.00  0.00     0.000 C 
BRANCH   9  10
ATOM     10  C   UNL     1      26.471  18.646  56.906  1.00  0.00    -0.000 C 
BRANCH  10  11
ATOM     11  C   UNL     1      27.161  17.673  57.874  1.00  0.00    -0.000 C 
BRANCH  11  12
ATOM     12  C   UNL     1      28.695  17.711  57.757  1.00  0.00    -0.000 C 
BRANCH  12  13
ATOM     13  C   UNL     1      29.266  16.448  57.093  1.00  0.00    -0.003 C 
ATOM     14  C   UNL     1      28.187  15.428  56.734  1.00  0.00     0.004 C 
ENDBRANCH  12  13
ENDBRANCH  11  12
ENDBRANCH  10  11
ENDBRANCH   9  10
ENDBRANCH   1   9
TORSDOF 10
ENDMDL
MODEL 9
REMARK VINA RESULT:    -3.448      3.002      5.371
REMARK INTER + INTRA:          -6.955
REMARK INTER:                  -5.285
REMARK INTRA:                  -1.670
REMARK UNBOUND:                -1.492
REMARK SMILES CCCCCCCCCCCC(=O)[O-]
REMARK SMILES IDX 7 1 8 2 9 3 10 4 11 5 12 6 13 7 14 8 6 9 5 10 4 11 3 12 2 13
REMARK SMILES IDX 1 14
REMARK H PARENT
REMARK Flexibility Score: inf
ROOT
ATOM      1  C   UNL     1      31.962  16.892  55.989  1.00  0.00     0.000 C 
ENDROOT
BRANCH   1   2
ATOM      2  C   UNL     1      32.015  17.145  54.477  1.00  0.00     0.000 C 
BRANCH   2   3
ATOM      3  C   UNL     1      31.709  18.611  54.153  1.00  0.00     0.000 C 
BRANCH   3   4
ATOM      4  C   UNL     1      31.391  19.403  55.429  1.00  0.00     0.006 C 
BRANCH   4   5
ATOM      5  C   UNL     1      30.123  20.255  55.286  1.00  0.00     0.053 C 
BRANCH   5   6
ATOM      6  C   UNL     1      29.729  20.891  56.583  1.00  0.00     0.041 C 
ATOM      7  O   UNL     1      28.609  20.633  57.100  1.00  0.00    -0.550 OA
ATOM      8  O   UNL     1      30.582  21.793  57.205  1.00  0.00    -0.550 OA
ENDBRANCH   5   6
ENDBRANCH   4   5
ENDBRANCH   3   4
ENDBRANCH   2   3
ENDBRANCH   1   2
BRANCH   1   9
ATOM      9  C   UNL     1      31.491  15.465  56.294  1.00  0.00     0.000 C 
BRANCH   9  10
ATOM     10  C   UNL     1      29.997  15.445  56.653  1.00  0.00    -0.000 C 
BRANCH  10  11
ATOM     11  C   UNL     1      29.470  16.825  57.078  1.00  0.00    -0.000 C 
BRANCH  11  12
ATOM     12  C   UNL     1      28.163  17.205  56.360  1.00  0.00    -0.000 C 
BRANCH  12  13
ATOM     13  C   UNL     1      28.020  16.515  54.995  1.00  0.00    -0.003 C 
ATOM     14  C   UNL     1      28.209  17.477  53.822  1.00  0.00     0.004 C 
ENDBRANCH  12  13
ENDBRANCH  11  12
ENDBRANCH  10  11
ENDBRANCH   9  10
ENDBRANCH   1   9
TORSDOF 10
ENDMDL
