MODEL 1
REMARK VINA RESULT:    -7.109      0.000      0.000
REMARK INTER + INTRA:         -11.155
REMARK INTER:                 -10.226
REMARK INTRA:                  -0.929
REMARK UNBOUND:                -0.929
REMARK SMILES O=c1cc(-c2ccc(O)c(O)c2)oc2cc(O[C@@H]3O[C@H](CO)[C@@H](O)[C@H](O)[C@@H]3O)cc(O)c12
REMARK SMILES IDX 17 1 16 2 4 3 3 4 13 5 2 6 14 7 1 8 32 9 15 10 30 11 29 12
REMARK SMILES IDX 5 13 6 14 7 15 8 16 12 17 10 18 9 19 11 21 31 23 18 25 27 26
REMARK SMILES IDX 19 27 25 28 20 29 23 30 28 31 26 33 21 35 22 36 24 38
REMARK H PARENT 9 20 11 22 31 24 28 32 26 34 22 37 24 39
REMARK Flexibility Score: inf
ROOT
ATOM      1  O   UNL     1      13.799   1.602   0.934  1.00  0.00    -0.462 OA
ENDROOT
BRANCH   1   2
ATOM      2  C   UNL     1      13.794   1.114   2.252  1.00  0.00     0.130 A 
ATOM      3  C   UNL     1      16.389   0.292   6.175  1.00  0.00     0.138 A 
ATOM      4  C   UNL     1      15.281  -0.194   6.883  1.00  0.00     0.100 A 
ATOM      5  O   UNL     1      16.231   0.713   4.920  1.00  0.00    -0.456 OA
ATOM      6  C   UNL     1      14.039  -0.260   6.251  1.00  0.00     0.197 A 
ATOM      7  C   UNL     1      15.068   0.680   4.279  1.00  0.00     0.146 A 
ATOM      8  O   UNL     1      13.050  -0.708   6.892  1.00  0.00    -0.289 OA
ATOM      9  C   UNL     1      13.912   0.177   4.917  1.00  0.00     0.107 A 
ATOM     10  C   UNL     1      14.999   1.146   2.961  1.00  0.00     0.094 A 
ATOM     11  C   UNL     1      12.693   0.137   4.202  1.00  0.00     0.134 A 
ATOM     12  C   UNL     1      12.645   0.596   2.879  1.00  0.00     0.093 A 
BRANCH   3  13
ATOM     13  C   UNL     1      17.739   0.362   6.790  1.00  0.00     0.021 A 
ATOM     14  C   UNL     1      17.986   1.121   7.951  1.00  0.00     0.016 A 
ATOM     15  C   UNL     1      19.260   1.148   8.521  1.00  0.00     0.051 A 
ATOM     16  C   UNL     1      20.307   0.410   7.951  1.00  0.00     0.157 A 
ATOM     17  C   UNL     1      18.794  -0.380   6.226  1.00  0.00     0.062 A 
ATOM     18  C   UNL     1      20.071  -0.360   6.801  1.00  0.00     0.158 A 
BRANCH  16  19
ATOM     19  O   UNL     1      21.578   0.440   8.525  1.00  0.00    -0.504 OA
ATOM     20  H   UNL     1      22.177   1.252   8.446  1.00  0.00     0.293 HD
ENDBRANCH  16  19
BRANCH  18  21
ATOM     21  O   UNL     1      21.089  -1.114   6.216  1.00  0.00    -0.504 OA
ATOM     22  H   UNL     1      21.072  -1.370   5.236  1.00  0.00     0.293 HD
ENDBRANCH  18  21
ENDBRANCH   3  13
BRANCH  11  23
ATOM     23  O   UNL     1      11.531  -0.357   4.797  1.00  0.00    -0.507 OA
ATOM     24  H   UNL     1      10.657   0.152   4.765  1.00  0.00     0.293 HD
ENDBRANCH  11  23
ENDBRANCH   1   2
BRANCH   1  25
ATOM     25  C   UNL     1      13.240   2.846   0.481  1.00  0.00     0.339 C 
ATOM     26  C   UNL     1      14.302   3.969   0.363  1.00  0.00     0.214 C 
ATOM     27  O   UNL     1      12.529   2.655  -0.736  1.00  0.00    -0.332 OA
ATOM     28  C   UNL     1      15.276   3.700  -0.808  1.00  0.00     0.180 C 
ATOM     29  C   UNL     1      13.356   2.369  -1.859  1.00  0.00     0.179 C 
ATOM     30  C   UNL     1      14.471   3.429  -2.087  1.00  0.00     0.177 C 
BRANCH  26  31
ATOM     31  O   UNL     1      15.004   4.127   1.569  1.00  0.00    -0.384 OA
ATOM     32  H   UNL     1      15.667   3.386   1.619  1.00  0.00     0.211 HD
ENDBRANCH  26  31
BRANCH  28  33
ATOM     33  O   UNL     1      16.184   2.642  -0.584  1.00  0.00    -0.387 OA
ATOM     34  H   UNL     1      16.834   2.566  -1.331  1.00  0.00     0.211 HD
ENDBRANCH  28  33
BRANCH  29  35
ATOM     35  C   UNL     1      13.849   0.903  -1.872  1.00  0.00     0.191 C 
BRANCH  35  36
ATOM     36  O   UNL     1      15.120   0.819  -2.466  1.00  0.00    -0.394 OA
ATOM     37  H   UNL     1      15.769   0.680  -1.733  1.00  0.00     0.210 HD
ENDBRANCH  35  36
ENDBRANCH  29  35
BRANCH  30  38
ATOM     38  O   UNL     1      13.889   4.637  -2.519  1.00  0.00    -0.387 OA
ATOM     39  H   UNL     1      13.222   4.395  -3.215  1.00  0.00     0.211 HD
ENDBRANCH  30  38
ENDBRANCH   1  25
TORSDOF 11
ENDMDL
MODEL 2
REMARK VINA RESULT:    -6.783      1.189      2.177
REMARK INTER + INTRA:         -10.686
REMARK INTER:                  -9.716
REMARK INTRA:                  -0.970
REMARK UNBOUND:                -0.929
REMARK SMILES O=c1cc(-c2ccc(O)c(O)c2)oc2cc(O[C@@H]3O[C@H](CO)[C@@H](O)[C@H](O)[C@@H]3O)cc(O)c12
REMARK SMILES IDX 17 1 16 2 4 3 3 4 13 5 2 6 14 7 1 8 32 9 15 10 30 11 29 12
REMARK SMILES IDX 5 13 6 14 7 15 8 16 12 17 10 18 9 19 11 21 31 23 18 25 27 26
REMARK SMILES IDX 19 27 25 28 20 29 23 30 28 31 26 33 21 35 22 36 24 38
REMARK H PARENT 9 20 11 22 31 24 28 32 26 34 22 37 24 39
REMARK Flexibility Score: inf
ROOT
ATOM      1  O   UNL     1      13.395   1.490   1.284  1.00  0.00    -0.462 OA
ENDROOT
BRANCH   1   2
ATOM      2  C   UNL     1      13.499   0.929   2.569  1.00  0.00     0.130 A 
ATOM      3  C   UNL     1      16.427  -0.205   6.166  1.00  0.00     0.138 A 
ATOM      4  C   UNL     1      15.373  -0.691   6.953  1.00  0.00     0.100 A 
ATOM      5  O   UNL     1      16.165   0.291   4.957  1.00  0.00    -0.456 OA
ATOM      6  C   UNL     1      14.074  -0.677   6.446  1.00  0.00     0.197 A 
ATOM      7  C   UNL     1      14.944   0.336   4.433  1.00  0.00     0.146 A 
ATOM      8  O   UNL     1      13.135  -1.125   7.156  1.00  0.00    -0.289 OA
ATOM      9  C   UNL     1      13.837  -0.161   5.156  1.00  0.00     0.107 A 
ATOM     10  C   UNL     1      14.767   0.878   3.155  1.00  0.00     0.094 A 
ATOM     11  C   UNL     1      12.553  -0.118   4.564  1.00  0.00     0.134 A 
ATOM     12  C   UNL     1      12.396   0.417   3.278  1.00  0.00     0.093 A 
BRANCH   3  13
ATOM     13  C   UNL     1      17.832  -0.218   6.647  1.00  0.00     0.021 A 
ATOM     14  C   UNL     1      18.795  -1.087   6.096  1.00  0.00     0.016 A 
ATOM     15  C   UNL     1      20.115  -1.060   6.552  1.00  0.00     0.051 A 
ATOM     16  C   UNL     1      20.499  -0.159   7.554  1.00  0.00     0.157 A 
ATOM     17  C   UNL     1      18.226   0.687   7.649  1.00  0.00     0.062 A 
ATOM     18  C   UNL     1      19.551   0.721   8.102  1.00  0.00     0.158 A 
BRANCH  16  19
ATOM     19  O   UNL     1      21.819  -0.136   8.005  1.00  0.00    -0.504 OA
ATOM     20  H   UNL     1      22.076  -0.498   8.913  1.00  0.00     0.293 HD
ENDBRANCH  16  19
BRANCH  18  21
ATOM     21  O   UNL     1      19.905   1.636   9.094  1.00  0.00    -0.504 OA
ATOM     22  H   UNL     1      20.852   1.706   9.447  1.00  0.00     0.293 HD
ENDBRANCH  18  21
ENDBRANCH   3  13
BRANCH  11  23
ATOM     23  O   UNL     1      11.435  -0.603   5.244  1.00  0.00    -0.507 OA
ATOM     24  H   UNL     1      10.516  -0.616   4.820  1.00  0.00     0.293 HD
ENDBRANCH  11  23
ENDBRANCH   1   2
BRANCH   1  25
ATOM     25  C   UNL     1      12.881   0.844   0.108  1.00  0.00     0.339 C 
ATOM     26  C   UNL     1      11.692   1.613  -0.523  1.00  0.00     0.214 C 
ATOM     27  O   UNL     1      13.927   0.616  -0.829  1.00  0.00    -0.332 OA
ATOM     28  C   UNL     1      12.160   2.942  -1.162  1.00  0.00     0.180 C 
ATOM     29  C   UNL     1      14.435   1.798  -1.438  1.00  0.00     0.179 C 
ATOM     30  C   UNL     1      13.334   2.665  -2.112  1.00  0.00     0.177 C 
BRANCH  26  31
ATOM     31  O   UNL     1      10.681   1.842   0.423  1.00  0.00    -0.384 OA
ATOM     32  H   UNL     1      10.687   2.818   0.625  1.00  0.00     0.211 HD
ENDBRANCH  26  31
BRANCH  28  33
ATOM     33  O   UNL     1      12.524   3.941  -0.234  1.00  0.00    -0.387 OA
ATOM     34  H   UNL     1      12.245   3.692   0.686  1.00  0.00     0.211 HD
ENDBRANCH  28  33
BRANCH  29  35
ATOM     35  C   UNL     1      15.389   2.581  -0.505  1.00  0.00     0.191 C 
BRANCH  35  36
ATOM     36  O   UNL     1      15.722   3.822  -1.074  1.00  0.00    -0.394 OA
ATOM     37  H   UNL     1      15.077   4.482  -0.717  1.00  0.00     0.210 HD
ENDBRANCH  35  36
ENDBRANCH  29  35
BRANCH  30  38
ATOM     38  O   UNL     1      12.845   1.999  -3.253  1.00  0.00    -0.387 OA
ATOM     39  H   UNL     1      11.995   1.562  -2.982  1.00  0.00     0.211 HD
ENDBRANCH  30  38
ENDBRANCH   1  25
TORSDOF 11
ENDMDL
MODEL 3
REMARK VINA RESULT:    -5.461     14.203     17.030
REMARK INTER + INTRA:          -8.784
REMARK INTER:                  -7.707
REMARK INTRA:                  -1.077
REMARK UNBOUND:                -0.929
REMARK SMILES O=c1cc(-c2ccc(O)c(O)c2)oc2cc(O[C@@H]3O[C@H](CO)[C@@H](O)[C@H](O)[C@@H]3O)cc(O)c12
REMARK SMILES IDX 17 1 16 2 4 3 3 4 13 5 2 6 14 7 1 8 32 9 15 10 30 11 29 12
REMARK SMILES IDX 5 13 6 14 7 15 8 16 12 17 10 18 9 19 11 21 31 23 18 25 27 26
REMARK SMILES IDX 19 27 25 28 20 29 23 30 28 31 26 33 21 35 22 36 24 38
REMARK H PARENT 9 20 11 22 31 24 28 32 26 34 22 37 24 39
REMARK Flexibility Score: inf
ROOT
ATOM      1  O   UNL     1      25.469  15.976   6.743  1.00  0.00    -0.462 OA
ENDROOT
BRANCH   1   2
ATOM      2  C   UNL     1      26.003  15.062   7.668  1.00  0.00     0.130 A 
ATOM      3  C   UNL     1      26.885  10.470   8.632  1.00  0.00     0.138 A 
ATOM      4  C   UNL     1      27.498  10.779   9.855  1.00  0.00     0.100 A 
ATOM      5  O   UNL     1      26.419  11.456   7.867  1.00  0.00    -0.456 OA
ATOM      6  C   UNL     1      27.579  12.110  10.265  1.00  0.00     0.197 A 
ATOM      7  C   UNL     1      26.481  12.739   8.207  1.00  0.00     0.146 A 
ATOM      8  O   UNL     1      28.122  12.378  11.370  1.00  0.00    -0.289 OA
ATOM      9  C   UNL     1      27.058  13.126   9.438  1.00  0.00     0.107 A 
ATOM     10  C   UNL     1      25.966  13.705   7.336  1.00  0.00     0.094 A 
ATOM     11  C   UNL     1      27.093  14.497   9.780  1.00  0.00     0.134 A 
ATOM     12  C   UNL     1      26.560  15.450   8.902  1.00  0.00     0.093 A 
BRANCH   3  13
ATOM     13  C   UNL     1      26.750   9.069   8.159  1.00  0.00     0.021 A 
ATOM     14  C   UNL     1      27.823   8.158   8.228  1.00  0.00     0.016 A 
ATOM     15  C   UNL     1      27.659   6.839   7.798  1.00  0.00     0.051 A 
ATOM     16  C   UNL     1      26.422   6.404   7.303  1.00  0.00     0.157 A 
ATOM     17  C   UNL     1      25.510   8.624   7.666  1.00  0.00     0.062 A 
ATOM     18  C   UNL     1      25.342   7.300   7.241  1.00  0.00     0.158 A 
BRANCH  16  19
ATOM     19  O   UNL     1      26.264   5.085   6.875  1.00  0.00    -0.504 OA
ATOM     20  H   UNL     1      25.651   4.847   6.107  1.00  0.00     0.293 HD
ENDBRANCH  16  19
BRANCH  18  21
ATOM     21  O   UNL     1      24.095   6.894   6.764  1.00  0.00    -0.504 OA
ATOM     22  H   UNL     1      23.237   7.106   7.258  1.00  0.00     0.293 HD
ENDBRANCH  18  21
ENDBRANCH   3  13
BRANCH  11  23
ATOM     23  O   UNL     1      27.650  14.918  10.988  1.00  0.00    -0.507 OA
ATOM     24  H   UNL     1      27.573  15.876  11.307  1.00  0.00     0.293 HD
ENDBRANCH  11  23
ENDBRANCH   1   2
BRANCH   1  25
ATOM     25  C   UNL     1      24.919  15.664   5.453  1.00  0.00     0.339 C 
ATOM     26  C   UNL     1      23.369  15.690   5.443  1.00  0.00     0.214 C 
ATOM     27  O   UNL     1      25.473  16.518   4.459  1.00  0.00    -0.332 OA
ATOM     28  C   UNL     1      22.831  17.132   5.593  1.00  0.00     0.180 C 
ATOM     29  C   UNL     1      25.050  17.874   4.550  1.00  0.00     0.179 C 
ATOM     30  C   UNL     1      23.503  18.037   4.551  1.00  0.00     0.177 C 
BRANCH  26  31
ATOM     31  O   UNL     1      22.846  14.855   6.443  1.00  0.00    -0.384 OA
ATOM     32  H   UNL     1      22.264  15.421   7.020  1.00  0.00     0.211 HD
ENDBRANCH  26  31
BRANCH  28  33
ATOM     33  O   UNL     1      22.994  17.687   6.881  1.00  0.00    -0.387 OA
ATOM     34  H   UNL     1      22.945  18.679   6.851  1.00  0.00     0.211 HD
ENDBRANCH  28  33
BRANCH  29  35
ATOM     35  C   UNL     1      25.779  18.646   5.675  1.00  0.00     0.191 C 
BRANCH  35  36
ATOM     36  O   UNL     1      27.142  18.306   5.699  1.00  0.00    -0.394 OA
ATOM     37  H   UNL     1      27.210  17.377   5.362  1.00  0.00     0.210 HD
ENDBRANCH  35  36
ENDBRANCH  29  35
BRANCH  30  38
ATOM     38  O   UNL     1      22.997  17.713   3.277  1.00  0.00    -0.387 OA
ATOM     39  H   UNL     1      22.304  17.015   3.418  1.00  0.00     0.211 HD
ENDBRANCH  30  38
ENDBRANCH   1  25
TORSDOF 11
ENDMDL
MODEL 4
REMARK VINA RESULT:    -5.454     13.777     18.067
REMARK INTER + INTRA:          -8.774
REMARK INTER:                  -7.980
REMARK INTRA:                  -0.795
REMARK UNBOUND:                -0.929
REMARK SMILES O=c1cc(-c2ccc(O)c(O)c2)oc2cc(O[C@@H]3O[C@H](CO)[C@@H](O)[C@H](O)[C@@H]3O)cc(O)c12
REMARK SMILES IDX 17 1 16 2 4 3 3 4 13 5 2 6 14 7 1 8 32 9 15 10 30 11 29 12
REMARK SMILES IDX 5 13 6 14 7 15 8 16 12 17 10 18 9 19 11 21 31 23 18 25 27 26
REMARK SMILES IDX 19 27 25 28 20 29 23 30 28 31 26 33 21 35 22 36 24 38
REMARK H PARENT 9 20 11 22 31 24 28 32 26 34 22 37 24 39
REMARK Flexibility Score: inf
ROOT
ATOM      1  O   UNL     1      26.252  11.201   8.157  1.00  0.00    -0.462 OA
ENDROOT
BRANCH   1   2
ATOM      2  C   UNL     1      26.203  12.588   7.933  1.00  0.00     0.130 A 
ATOM      3  C   UNL     1      23.749  16.198   5.998  1.00  0.00     0.138 A 
ATOM      4  C   UNL     1      24.674  17.151   6.449  1.00  0.00     0.100 A 
ATOM      5  O   UNL     1      23.942  14.912   6.287  1.00  0.00    -0.456 OA
ATOM      6  C   UNL     1      25.797  16.733   7.162  1.00  0.00     0.197 A 
ATOM      7  C   UNL     1      24.990  14.465   6.971  1.00  0.00     0.146 A 
ATOM      8  O   UNL     1      26.628  17.595   7.554  1.00  0.00    -0.289 OA
ATOM      9  C   UNL     1      25.979  15.362   7.433  1.00  0.00     0.107 A 
ATOM     10  C   UNL     1      25.107  13.094   7.228  1.00  0.00     0.094 A 
ATOM     11  C   UNL     1      27.092  14.854   8.142  1.00  0.00     0.134 A 
ATOM     12  C   UNL     1      27.199  13.478   8.379  1.00  0.00     0.093 A 
BRANCH   3  13
ATOM     13  C   UNL     1      22.549  16.585   5.214  1.00  0.00     0.021 A 
ATOM     14  C   UNL     1      22.654  17.130   3.919  1.00  0.00     0.016 A 
ATOM     15  C   UNL     1      21.506  17.461   3.196  1.00  0.00     0.051 A 
ATOM     16  C   UNL     1      20.236  17.244   3.745  1.00  0.00     0.157 A 
ATOM     17  C   UNL     1      21.269  16.365   5.758  1.00  0.00     0.062 A 
ATOM     18  C   UNL     1      20.117  16.690   5.030  1.00  0.00     0.158 A 
BRANCH  16  19
ATOM     19  O   UNL     1      19.093  17.576   3.018  1.00  0.00    -0.504 OA
ATOM     20  H   UNL     1      19.051  17.461   2.014  1.00  0.00     0.293 HD
ENDBRANCH  16  19
BRANCH  18  21
ATOM     21  O   UNL     1      18.866  16.452   5.601  1.00  0.00    -0.504 OA
ATOM     22  H   UNL     1      18.008  16.546   5.071  1.00  0.00     0.293 HD
ENDBRANCH  18  21
ENDBRANCH   3  13
BRANCH  11  23
ATOM     23  O   UNL     1      28.091  15.708   8.611  1.00  0.00    -0.507 OA
ATOM     24  H   UNL     1      28.444  16.475   8.053  1.00  0.00     0.293 HD
ENDBRANCH  11  23
ENDBRANCH   1   2
BRANCH   1  25
ATOM     25  C   UNL     1      27.432  10.414   8.385  1.00  0.00     0.339 C 
ATOM     26  C   UNL     1      27.552   9.930   9.852  1.00  0.00     0.214 C 
ATOM     27  O   UNL     1      27.492   9.334   7.461  1.00  0.00    -0.332 OA
ATOM     28  C   UNL     1      26.482   8.863  10.181  1.00  0.00     0.180 C 
ATOM     29  C   UNL     1      26.514   8.322   7.678  1.00  0.00     0.179 C 
ATOM     30  C   UNL     1      26.531   7.751   9.124  1.00  0.00     0.177 C 
BRANCH  26  31
ATOM     31  O   UNL     1      27.472  11.010  10.746  1.00  0.00    -0.384 OA
ATOM     32  H   UNL     1      26.670  10.857  11.316  1.00  0.00     0.211 HD
ENDBRANCH  26  31
BRANCH  28  33
ATOM     33  O   UNL     1      25.167   9.365  10.284  1.00  0.00    -0.387 OA
ATOM     34  H   UNL     1      24.566   8.705  10.720  1.00  0.00     0.211 HD
ENDBRANCH  28  33
BRANCH  29  35
ATOM     35  C   UNL     1      25.114   8.734   7.165  1.00  0.00     0.191 C 
BRANCH  35  36
ATOM     36  O   UNL     1      24.326   7.596   6.923  1.00  0.00    -0.394 OA
ATOM     37  H   UNL     1      23.476   7.916   6.528  1.00  0.00     0.210 HD
ENDBRANCH  35  36
ENDBRANCH  29  35
BRANCH  30  38
ATOM     38  O   UNL     1      27.703   6.995   9.316  1.00  0.00    -0.387 OA
ATOM     39  H   UNL     1      27.988   7.149  10.256  1.00  0.00     0.211 HD
ENDBRANCH  30  38
ENDBRANCH   1  25
TORSDOF 11
ENDMDL
MODEL 5
REMARK VINA RESULT:    -5.346     14.480     17.213
REMARK INTER + INTRA:          -8.619
REMARK INTER:                  -7.614
REMARK INTRA:                  -1.004
REMARK UNBOUND:                -0.929
REMARK SMILES O=c1cc(-c2ccc(O)c(O)c2)oc2cc(O[C@@H]3O[C@H](CO)[C@@H](O)[C@H](O)[C@@H]3O)cc(O)c12
REMARK SMILES IDX 17 1 16 2 4 3 3 4 13 5 2 6 14 7 1 8 32 9 15 10 30 11 29 12
REMARK SMILES IDX 5 13 6 14 7 15 8 16 12 17 10 18 9 19 11 21 31 23 18 25 27 26
REMARK SMILES IDX 19 27 25 28 20 29 23 30 28 31 26 33 21 35 22 36 24 38
REMARK H PARENT 9 20 11 22 31 24 28 32 26 34 22 37 24 39
REMARK Flexibility Score: inf
ROOT
ATOM      1  O   UNL     1      25.626  16.316   6.518  1.00  0.00    -0.462 OA
ENDROOT
BRANCH   1   2
ATOM      2  C   UNL     1      26.125  15.441   7.499  1.00  0.00     0.130 A 
ATOM      3  C   UNL     1      26.915  10.890   8.706  1.00  0.00     0.138 A 
ATOM      4  C   UNL     1      27.505  11.250   9.926  1.00  0.00     0.100 A 
ATOM      5  O   UNL     1      26.481  11.843   7.882  1.00  0.00    -0.456 OA
ATOM      6  C   UNL     1      27.597  12.598  10.272  1.00  0.00     0.197 A 
ATOM      7  C   UNL     1      26.556  13.140   8.161  1.00  0.00     0.146 A 
ATOM      8  O   UNL     1      28.119  12.912  11.375  1.00  0.00    -0.289 OA
ATOM      9  C   UNL     1      27.111  13.579   9.384  1.00  0.00     0.107 A 
ATOM     10  C   UNL     1      26.075  14.070   7.232  1.00  0.00     0.094 A 
ATOM     11  C   UNL     1      27.158  14.965   9.661  1.00  0.00     0.134 A 
ATOM     12  C   UNL     1      26.660  15.880   8.725  1.00  0.00     0.093 A 
BRANCH   3  13
ATOM     13  C   UNL     1      26.770   9.469   8.299  1.00  0.00     0.021 A 
ATOM     14  C   UNL     1      27.810   8.536   8.481  1.00  0.00     0.016 A 
ATOM     15  C   UNL     1      27.635   7.201   8.111  1.00  0.00     0.051 A 
ATOM     16  C   UNL     1      26.418   6.771   7.563  1.00  0.00     0.157 A 
ATOM     17  C   UNL     1      25.549   9.029   7.753  1.00  0.00     0.062 A 
ATOM     18  C   UNL     1      25.370   7.689   7.388  1.00  0.00     0.158 A 
BRANCH  16  19
ATOM     19  O   UNL     1      26.249   5.436   7.196  1.00  0.00    -0.504 OA
ATOM     20  H   UNL     1      26.818   5.008   6.477  1.00  0.00     0.293 HD
ENDBRANCH  16  19
BRANCH  18  21
ATOM     21  O   UNL     1      24.144   7.290   6.855  1.00  0.00    -0.504 OA
ATOM     22  H   UNL     1      23.980   6.343   6.536  1.00  0.00     0.293 HD
ENDBRANCH  18  21
ENDBRANCH   3  13
BRANCH  11  23
ATOM     23  O   UNL     1      27.695  15.437  10.859  1.00  0.00    -0.507 OA
ATOM     24  H   UNL     1      28.542  15.990  10.884  1.00  0.00     0.293 HD
ENDBRANCH  11  23
ENDBRANCH   1   2
BRANCH   1  25
ATOM     25  C   UNL     1      24.904  17.537   6.749  1.00  0.00     0.339 C 
ATOM     26  C   UNL     1      25.211  18.621   5.686  1.00  0.00     0.214 C 
ATOM     27  O   UNL     1      23.510  17.273   6.856  1.00  0.00    -0.332 OA
ATOM     28  C   UNL     1      24.613  18.244   4.310  1.00  0.00     0.180 C 
ATOM     29  C   UNL     1      22.891  16.886   5.634  1.00  0.00     0.179 C 
ATOM     30  C   UNL     1      23.127  17.899   4.477  1.00  0.00     0.177 C 
BRANCH  26  31
ATOM     31  O   UNL     1      26.592  18.851   5.584  1.00  0.00    -0.384 OA
ATOM     32  H   UNL     1      27.048  18.017   5.881  1.00  0.00     0.211 HD
ENDBRANCH  26  31
BRANCH  28  33
ATOM     33  O   UNL     1      25.277  17.184   3.655  1.00  0.00    -0.387 OA
ATOM     34  H   UNL     1      25.858  17.524   2.924  1.00  0.00     0.211 HD
ENDBRANCH  28  33
BRANCH  29  35
ATOM     35  C   UNL     1      23.181  15.411   5.266  1.00  0.00     0.191 C 
BRANCH  35  36
ATOM     36  O   UNL     1      22.624  14.549   6.226  1.00  0.00    -0.394 OA
ATOM     37  H   UNL     1      23.230  14.563   7.008  1.00  0.00     0.210 HD
ENDBRANCH  35  36
ENDBRANCH  29  35
BRANCH  30  38
ATOM     38  O   UNL     1      22.414  19.085   4.741  1.00  0.00    -0.387 OA
ATOM     39  H   UNL     1      22.092  19.019   5.678  1.00  0.00     0.211 HD
ENDBRANCH  30  38
ENDBRANCH   1  25
TORSDOF 11
ENDMDL
MODEL 6
REMARK VINA RESULT:    -5.167     15.662     17.162
REMARK INTER + INTRA:          -8.361
REMARK INTER:                  -7.202
REMARK INTRA:                  -1.160
REMARK UNBOUND:                -0.929
REMARK SMILES O=c1cc(-c2ccc(O)c(O)c2)oc2cc(O[C@@H]3O[C@H](CO)[C@@H](O)[C@H](O)[C@@H]3O)cc(O)c12
REMARK SMILES IDX 17 1 16 2 4 3 3 4 13 5 2 6 14 7 1 8 32 9 15 10 30 11 29 12
REMARK SMILES IDX 5 13 6 14 7 15 8 16 12 17 10 18 9 19 11 21 31 23 18 25 27 26
REMARK SMILES IDX 19 27 25 28 20 29 23 30 28 31 26 33 21 35 22 36 24 38
REMARK H PARENT 9 20 11 22 31 24 28 32 26 34 22 37 24 39
REMARK Flexibility Score: inf
ROOT
ATOM      1  O   UNL     1      16.607  17.448   0.093  1.00  0.00    -0.462 OA
ENDROOT
BRANCH   1   2
ATOM      2  C   UNL     1      17.832  17.294   0.767  1.00  0.00     0.130 A 
ATOM      3  C   UNL     1      20.110  17.599   4.952  1.00  0.00     0.138 A 
ATOM      4  C   UNL     1      21.320  17.160   4.397  1.00  0.00     0.100 A 
ATOM      5  O   UNL     1      19.032  17.701   4.174  1.00  0.00    -0.456 OA
ATOM      6  C   UNL     1      21.384  16.870   3.034  1.00  0.00     0.197 A 
ATOM      7  C   UNL     1      19.040  17.427   2.874  1.00  0.00     0.146 A 
ATOM      8  O   UNL     1      22.479  16.486   2.541  1.00  0.00    -0.289 OA
ATOM      9  C   UNL     1      20.229  17.007   2.238  1.00  0.00     0.107 A 
ATOM     10  C   UNL     1      17.857  17.562   2.138  1.00  0.00     0.094 A 
ATOM     11  C   UNL     1      20.210  16.741   0.849  1.00  0.00     0.134 A 
ATOM     12  C   UNL     1      19.020  16.894   0.126  1.00  0.00     0.093 A 
BRANCH   3  13
ATOM     13  C   UNL     1      19.991  17.945   6.391  1.00  0.00     0.021 A 
ATOM     14  C   UNL     1      20.915  18.798   7.027  1.00  0.00     0.016 A 
ATOM     15  C   UNL     1      20.763  19.125   8.376  1.00  0.00     0.051 A 
ATOM     16  C   UNL     1      19.683  18.618   9.111  1.00  0.00     0.157 A 
ATOM     17  C   UNL     1      18.906  17.444   7.134  1.00  0.00     0.062 A 
ATOM     18  C   UNL     1      18.748  17.777   8.485  1.00  0.00     0.158 A 
BRANCH  16  19
ATOM     19  O   UNL     1      19.537  18.948  10.458  1.00  0.00    -0.504 OA
ATOM     20  H   UNL     1      19.841  18.324  11.193  1.00  0.00     0.293 HD
ENDBRANCH  16  19
BRANCH  18  21
ATOM     21  O   UNL     1      17.656  17.264   9.186  1.00  0.00    -0.504 OA
ATOM     22  H   UNL     1      16.910  17.859   9.526  1.00  0.00     0.293 HD
ENDBRANCH  18  21
ENDBRANCH   3  13
BRANCH  11  23
ATOM     23  O   UNL     1      21.366  16.328   0.184  1.00  0.00    -0.507 OA
ATOM     24  H   UNL     1      22.273  16.725   0.393  1.00  0.00     0.293 HD
ENDBRANCH  11  23
ENDBRANCH   1   2
BRANCH   1  25
ATOM     25  C   UNL     1      15.825  18.650   0.005  1.00  0.00     0.339 C 
ATOM     26  C   UNL     1      15.396  18.977  -1.448  1.00  0.00     0.214 C 
ATOM     27  O   UNL     1      14.712  18.582   0.888  1.00  0.00    -0.332 OA
ATOM     28  C   UNL     1      14.345  17.966  -1.963  1.00  0.00     0.180 C 
ATOM     29  C   UNL     1      13.712  17.646   0.499  1.00  0.00     0.179 C 
ATOM     30  C   UNL     1      13.194  17.868  -0.951  1.00  0.00     0.177 C 
BRANCH  26  31
ATOM     31  O   UNL     1      16.508  19.021  -2.304  1.00  0.00    -0.384 OA
ATOM     32  H   UNL     1      16.883  18.099  -2.341  1.00  0.00     0.211 HD
ENDBRANCH  26  31
BRANCH  28  33
ATOM     33  O   UNL     1      14.854  16.677  -2.232  1.00  0.00    -0.387 OA
ATOM     34  H   UNL     1      15.728  16.538  -1.781  1.00  0.00     0.211 HD
ENDBRANCH  28  33
BRANCH  29  35
ATOM     35  C   UNL     1      14.109  16.187   0.824  1.00  0.00     0.191 C 
BRANCH  35  36
ATOM     36  O   UNL     1      14.668  16.106   2.111  1.00  0.00    -0.394 OA
ATOM     37  H   UNL     1      15.397  16.775   2.148  1.00  0.00     0.210 HD
ENDBRANCH  35  36
ENDBRANCH  29  35
BRANCH  30  38
ATOM     38  O   UNL     1      12.442  19.057  -1.004  1.00  0.00    -0.387 OA
ATOM     39  H   UNL     1      11.593  18.834  -1.469  1.00  0.00     0.211 HD
ENDBRANCH  30  38
ENDBRANCH   1  25
TORSDOF 11
ENDMDL
MODEL 7
REMARK VINA RESULT:    -5.068     14.614     17.360
REMARK INTER + INTRA:          -8.219
REMARK INTER:                  -7.159
REMARK INTRA:                  -1.060
REMARK UNBOUND:                -0.929
REMARK SMILES O=c1cc(-c2ccc(O)c(O)c2)oc2cc(O[C@@H]3O[C@H](CO)[C@@H](O)[C@H](O)[C@@H]3O)cc(O)c12
REMARK SMILES IDX 17 1 16 2 4 3 3 4 13 5 2 6 14 7 1 8 32 9 15 10 30 11 29 12
REMARK SMILES IDX 5 13 6 14 7 15 8 16 12 17 10 18 9 19 11 21 31 23 18 25 27 26
REMARK SMILES IDX 19 27 25 28 20 29 23 30 28 31 26 33 21 35 22 36 24 38
REMARK H PARENT 9 20 11 22 31 24 28 32 26 34 22 37 24 39
REMARK Flexibility Score: inf
ROOT
ATOM      1  O   UNL     1      25.919  16.114   6.542  1.00  0.00    -0.462 OA
ENDROOT
BRANCH   1   2
ATOM      2  C   UNL     1      26.343  15.196   7.520  1.00  0.00     0.130 A 
ATOM      3  C   UNL     1      26.876  10.589   8.653  1.00  0.00     0.138 A 
ATOM      4  C   UNL     1      27.441  10.896   9.899  1.00  0.00     0.100 A 
ATOM      5  O   UNL     1      26.515  11.579   7.837  1.00  0.00    -0.456 OA
ATOM      6  C   UNL     1      27.586  12.231  10.277  1.00  0.00     0.197 A 
ATOM      7  C   UNL     1      26.642  12.865   8.146  1.00  0.00     0.146 A 
ATOM      8  O   UNL     1      28.086  12.498  11.402  1.00  0.00    -0.289 OA
ATOM      9  C   UNL     1      27.177  13.252   9.395  1.00  0.00     0.107 A 
ATOM     10  C   UNL     1      26.236  13.835   7.222  1.00  0.00     0.094 A 
ATOM     11  C   UNL     1      27.281  14.628   9.703  1.00  0.00     0.134 A 
ATOM     12  C   UNL     1      26.858  15.585   8.772  1.00  0.00     0.093 A 
BRANCH   3  13
ATOM     13  C   UNL     1      26.676   9.186   8.211  1.00  0.00     0.021 A 
ATOM     14  C   UNL     1      27.638   8.186   8.462  1.00  0.00     0.016 A 
ATOM     15  C   UNL     1      27.411   6.870   8.055  1.00  0.00     0.051 A 
ATOM     16  C   UNL     1      26.220   6.525   7.403  1.00  0.00     0.157 A 
ATOM     17  C   UNL     1      25.480   8.831   7.560  1.00  0.00     0.062 A 
ATOM     18  C   UNL     1      25.249   7.509   7.158  1.00  0.00     0.158 A 
BRANCH  16  19
ATOM     19  O   UNL     1      25.999   5.207   6.999  1.00  0.00    -0.504 OA
ATOM     20  H   UNL     1      25.752   4.485   7.662  1.00  0.00     0.293 HD
ENDBRANCH  16  19
BRANCH  18  21
ATOM     21  O   UNL     1      24.048   7.196   6.520  1.00  0.00    -0.504 OA
ATOM     22  H   UNL     1      23.848   6.262   6.181  1.00  0.00     0.293 HD
ENDBRANCH  18  21
ENDBRANCH   3  13
BRANCH  11  23
ATOM     23  O   UNL     1      27.800  15.050  10.928  1.00  0.00    -0.507 OA
ATOM     24  H   UNL     1      28.250  15.949  11.036  1.00  0.00     0.293 HD
ENDBRANCH  11  23
ENDBRANCH   1   2
BRANCH   1  25
ATOM     25  C   UNL     1      24.564  16.363   6.135  1.00  0.00     0.339 C 
ATOM     26  C   UNL     1      23.992  17.673   6.735  1.00  0.00     0.214 C 
ATOM     27  O   UNL     1      24.462  16.338   4.716  1.00  0.00    -0.332 OA
ATOM     28  C   UNL     1      24.665  18.917   6.111  1.00  0.00     0.180 C 
ATOM     29  C   UNL     1      25.088  17.438   4.064  1.00  0.00     0.179 C 
ATOM     30  C   UNL     1      24.597  18.820   4.581  1.00  0.00     0.177 C 
BRANCH  26  31
ATOM     31  O   UNL     1      24.120  17.683   8.133  1.00  0.00    -0.384 OA
ATOM     32  H   UNL     1      23.390  17.111   8.497  1.00  0.00     0.211 HD
ENDBRANCH  26  31
BRANCH  28  33
ATOM     33  O   UNL     1      26.002  19.125   6.517  1.00  0.00    -0.387 OA
ATOM     34  H   UNL     1      26.249  18.511   7.258  1.00  0.00     0.211 HD
ENDBRANCH  28  33
BRANCH  29  35
ATOM     35  C   UNL     1      26.626  17.286   3.995  1.00  0.00     0.191 C 
BRANCH  35  36
ATOM     36  O   UNL     1      26.979  15.936   3.828  1.00  0.00    -0.394 OA
ATOM     37  H   UNL     1      27.957  15.877   3.966  1.00  0.00     0.210 HD
ENDBRANCH  35  36
ENDBRANCH  29  35
BRANCH  30  38
ATOM     38  O   UNL     1      23.266  19.027   4.173  1.00  0.00    -0.387 OA
ATOM     39  H   UNL     1      23.260  19.867   3.642  1.00  0.00     0.211 HD
ENDBRANCH  30  38
ENDBRANCH   1  25
TORSDOF 11
ENDMDL
MODEL 8
REMARK VINA RESULT:    -4.918      4.022      5.682
REMARK INTER + INTRA:          -8.003
REMARK INTER:                  -7.267
REMARK INTRA:                  -0.736
REMARK UNBOUND:                -0.929
REMARK SMILES O=c1cc(-c2ccc(O)c(O)c2)oc2cc(O[C@@H]3O[C@H](CO)[C@@H](O)[C@H](O)[C@@H]3O)cc(O)c12
REMARK SMILES IDX 17 1 16 2 4 3 3 4 13 5 2 6 14 7 1 8 32 9 15 10 30 11 29 12
REMARK SMILES IDX 5 13 6 14 7 15 8 16 12 17 10 18 9 19 11 21 31 23 18 25 27 26
REMARK SMILES IDX 19 27 25 28 20 29 23 30 28 31 26 33 21 35 22 36 24 38
REMARK H PARENT 9 20 11 22 31 24 28 32 26 34 22 37 24 39
REMARK Flexibility Score: inf
ROOT
ATOM      1  O   UNL     1      13.083   1.359  -0.263  1.00  0.00    -0.462 OA
ENDROOT
BRANCH   1   2
ATOM      2  C   UNL     1      12.050   0.853   0.547  1.00  0.00     0.130 A 
ATOM      3  C   UNL     1      10.771  -0.499   4.943  1.00  0.00     0.138 A 
ATOM      4  C   UNL     1       9.461  -0.792   4.540  1.00  0.00     0.100 A 
ATOM      5  O   UNL     1      11.642  -0.031   4.049  1.00  0.00    -0.456 OA
ATOM      6  C   UNL     1       9.100  -0.622   3.204  1.00  0.00     0.197 A 
ATOM      7  C   UNL     1      11.344   0.158   2.768  1.00  0.00     0.146 A 
ATOM      8  O   UNL     1       7.923  -0.897   2.848  1.00  0.00    -0.289 OA
ATOM      9  C   UNL     1      10.052  -0.143   2.281  1.00  0.00     0.107 A 
ATOM     10  C   UNL     1      12.325   0.655   1.902  1.00  0.00     0.094 A 
ATOM     11  C   UNL     1       9.771   0.051   0.909  1.00  0.00     0.134 A 
ATOM     12  C   UNL     1      10.769   0.537   0.055  1.00  0.00     0.093 A 
BRANCH   3  13
ATOM     13  C   UNL     1      11.216  -0.685   6.348  1.00  0.00     0.021 A 
ATOM     14  C   UNL     1      12.581  -0.783   6.685  1.00  0.00     0.016 A 
ATOM     15  C   UNL     1      12.970  -0.933   8.018  1.00  0.00     0.051 A 
ATOM     16  C   UNL     1      12.009  -0.976   9.037  1.00  0.00     0.157 A 
ATOM     17  C   UNL     1      10.257  -0.724   7.376  1.00  0.00     0.062 A 
ATOM     18  C   UNL     1      10.646  -0.866   8.714  1.00  0.00     0.158 A 
BRANCH  16  19
ATOM     19  O   UNL     1      12.404  -1.125  10.366  1.00  0.00    -0.504 OA
ATOM     20  H   UNL     1      11.761  -1.445  11.078  1.00  0.00     0.293 HD
ENDBRANCH  16  19
BRANCH  18  21
ATOM     21  O   UNL     1       9.665  -0.895   9.706  1.00  0.00    -0.504 OA
ATOM     22  H   UNL     1       8.801  -0.372   9.621  1.00  0.00     0.293 HD
ENDBRANCH  18  21
ENDBRANCH   3  13
BRANCH  11  23
ATOM     23  O   UNL     1       8.508  -0.238   0.390  1.00  0.00    -0.507 OA
ATOM     24  H   UNL     1       8.208   0.113  -0.511  1.00  0.00     0.293 HD
ENDBRANCH  11  23
ENDBRANCH   1   2
BRANCH   1  25
ATOM     25  C   UNL     1      14.472   0.995  -0.202  1.00  0.00     0.339 C 
ATOM     26  C   UNL     1      15.188   1.146  -1.568  1.00  0.00     0.214 C 
ATOM     27  O   UNL     1      15.129   1.722   0.829  1.00  0.00    -0.332 OA
ATOM     28  C   UNL     1      15.345   2.635  -1.958  1.00  0.00     0.180 C 
ATOM     29  C   UNL     1      15.283   3.112   0.558  1.00  0.00     0.179 C 
ATOM     30  C   UNL     1      15.993   3.400  -0.795  1.00  0.00     0.177 C 
BRANCH  26  31
ATOM     31  O   UNL     1      14.512   0.435  -2.573  1.00  0.00    -0.384 OA
ATOM     32  H   UNL     1      14.272  -0.452  -2.190  1.00  0.00     0.211 HD
ENDBRANCH  26  31
BRANCH  28  33
ATOM     33  O   UNL     1      14.142   3.271  -2.335  1.00  0.00    -0.387 OA
ATOM     34  H   UNL     1      14.153   3.512  -3.299  1.00  0.00     0.211 HD
ENDBRANCH  28  33
BRANCH  29  35
ATOM     35  C   UNL     1      13.974   3.905   0.780  1.00  0.00     0.191 C 
BRANCH  35  36
ATOM     36  O   UNL     1      14.185   4.955   1.690  1.00  0.00    -0.394 OA
ATOM     37  H   UNL     1      14.818   5.582   1.260  1.00  0.00     0.210 HD
ENDBRANCH  35  36
ENDBRANCH  29  35
BRANCH  30  38
ATOM     38  O   UNL     1      17.346   3.023  -0.705  1.00  0.00    -0.387 OA
ATOM     39  H   UNL     1      17.671   2.910  -1.637  1.00  0.00     0.211 HD
ENDBRANCH  30  38
ENDBRANCH   1  25
TORSDOF 11
ENDMDL
MODEL 9
REMARK VINA RESULT:    -4.204     13.885     16.417
REMARK INTER + INTRA:          -6.976
REMARK INTER:                  -5.824
REMARK INTRA:                  -1.152
REMARK UNBOUND:                -0.929
REMARK SMILES O=c1cc(-c2ccc(O)c(O)c2)oc2cc(O[C@@H]3O[C@H](CO)[C@@H](O)[C@H](O)[C@@H]3O)cc(O)c12
REMARK SMILES IDX 17 1 16 2 4 3 3 4 13 5 2 6 14 7 1 8 32 9 15 10 30 11 29 12
REMARK SMILES IDX 5 13 6 14 7 15 8 16 12 17 10 18 9 19 11 21 31 23 18 25 27 26
REMARK SMILES IDX 19 27 25 28 20 29 23 30 28 31 26 33 21 35 22 36 24 38
REMARK H PARENT 9 20 11 22 31 24 28 32 26 34 22 37 24 39
REMARK Flexibility Score: inf
ROOT
ATOM      1  O   UNL     1      23.506  16.327   5.905  1.00  0.00    -0.462 OA
ENDROOT
BRANCH   1   2
ATOM      2  C   UNL     1      24.437  15.577   6.646  1.00  0.00     0.130 A 
ATOM      3  C   UNL     1      25.998  11.208   7.773  1.00  0.00     0.138 A 
ATOM      4  C   UNL     1      27.021  11.715   8.586  1.00  0.00     0.100 A 
ATOM      5  O   UNL     1      25.187  12.055   7.139  1.00  0.00    -0.456 OA
ATOM      6  C   UNL     1      27.152  13.095   8.745  1.00  0.00     0.197 A 
ATOM      7  C   UNL     1      25.276  13.376   7.249  1.00  0.00     0.146 A 
ATOM      8  O   UNL     1      28.068  13.541   9.486  1.00  0.00    -0.289 OA
ATOM      9  C   UNL     1      26.264  13.960   8.074  1.00  0.00     0.107 A 
ATOM     10  C   UNL     1      24.380  14.185   6.543  1.00  0.00     0.094 A 
ATOM     11  C   UNL     1      26.322  15.368   8.186  1.00  0.00     0.134 A 
ATOM     12  C   UNL     1      25.408  16.162   7.481  1.00  0.00     0.093 A 
BRANCH   3  13
ATOM     13  C   UNL     1      25.798   9.749   7.588  1.00  0.00     0.021 A 
ATOM     14  C   UNL     1      24.826   9.240   6.703  1.00  0.00     0.016 A 
ATOM     15  C   UNL     1      24.678   7.862   6.532  1.00  0.00     0.051 A 
ATOM     16  C   UNL     1      25.502   6.969   7.228  1.00  0.00     0.157 A 
ATOM     17  C   UNL     1      26.626   8.845   8.280  1.00  0.00     0.062 A 
ATOM     18  C   UNL     1      26.483   7.463   8.103  1.00  0.00     0.158 A 
BRANCH  16  19
ATOM     19  O   UNL     1      25.350   5.593   7.052  1.00  0.00    -0.504 OA
ATOM     20  H   UNL     1      25.313   4.959   7.839  1.00  0.00     0.293 HD
ENDBRANCH  16  19
BRANCH  18  21
ATOM     21  O   UNL     1      27.327   6.600   8.803  1.00  0.00    -0.504 OA
ATOM     22  H   UNL     1      26.979   5.971   9.517  1.00  0.00     0.293 HD
ENDBRANCH  18  21
ENDBRANCH   3  13
BRANCH  11  23
ATOM     23  O   UNL     1      27.281  15.982   8.993  1.00  0.00    -0.507 OA
ATOM     24  H   UNL     1      27.049  16.363   9.901  1.00  0.00     0.293 HD
ENDBRANCH  11  23
ENDBRANCH   1   2
BRANCH   1  25
ATOM     25  C   UNL     1      22.535  15.810   4.981  1.00  0.00     0.339 C 
ATOM     26  C   UNL     1      21.112  16.368   5.236  1.00  0.00     0.214 C 
ATOM     27  O   UNL     1      22.962  16.030   3.641  1.00  0.00    -0.332 OA
ATOM     28  C   UNL     1      21.023  17.868   4.868  1.00  0.00     0.180 C 
ATOM     29  C   UNL     1      22.939  17.394   3.236  1.00  0.00     0.179 C 
ATOM     30  C   UNL     1      21.556  18.075   3.444  1.00  0.00     0.177 C 
BRANCH  26  31
ATOM     31  O   UNL     1      20.720  16.157   6.568  1.00  0.00    -0.384 OA
ATOM     32  H   UNL     1      20.193  15.312   6.585  1.00  0.00     0.211 HD
ENDBRANCH  26  31
BRANCH  28  33
ATOM     33  O   UNL     1      21.697  18.731   5.759  1.00  0.00    -0.387 OA
ATOM     34  H   UNL     1      21.501  18.492   6.703  1.00  0.00     0.211 HD
ENDBRANCH  28  33
BRANCH  29  35
ATOM     35  C   UNL     1      24.141  18.195   3.791  1.00  0.00     0.191 C 
BRANCH  35  36
ATOM     36  O   UNL     1      25.325  17.448   3.672  1.00  0.00    -0.394 OA
ATOM     37  H   UNL     1      25.648  17.570   2.745  1.00  0.00     0.210 HD
ENDBRANCH  35  36
ENDBRANCH  29  35
BRANCH  30  38
ATOM     38  O   UNL     1      20.628  17.539   2.530  1.00  0.00    -0.387 OA
ATOM     39  H   UNL     1      21.045  16.721   2.151  1.00  0.00     0.211 HD
ENDBRANCH  30  38
ENDBRANCH   1  25
TORSDOF 11
ENDMDL
