MODEL 1
REMARK VINA RESULT:    -5.029      0.000      0.000
REMARK INTER + INTRA:          -5.738
REMARK INTER:                  -5.470
REMARK INTRA:                  -0.268
REMARK UNBOUND:                -0.268
REMARK SMILES C[C@@H]1[C@H]2C3=CC[C@H]4[C@]5(C)CC[C@@H](O)C(C)(C)[C@@H]5CC[C@@]4(C)[C@@]3(C)CC[C@@]2(C(=O)[O-])CC[C@@H]1C
REMARK SMILES IDX 26 1 30 2 25 3 3 4 31 5 24 6 4 7 2 8 32 9 22 10 5 11 1 12
REMARK SMILES IDX 33 13 23 14 20 15 6 16 7 17 19 18 21 19 8 20 18 21 17 22
REMARK SMILES IDX 10 23 9 24 14 25 11 26 12 27 15 28 16 29 27 30 28 31 29 32
REMARK SMILES IDX 13 33
REMARK H PARENT 13 34
REMARK Flexibility Score: inf
ROOT
ATOM      1  C   UNL     1      25.787 -40.391 206.200  1.00  0.00     0.017 C 
ATOM      2  C   UNL     1      24.329 -39.891 206.469  1.00  0.00     0.014 C 
ATOM      3  C   UNL     1      26.033 -40.386 204.672  1.00  0.00     0.014 C 
ATOM      4  C   UNL     1      26.047 -41.825 206.809  1.00  0.00     0.030 C 
ATOM      5  C   UNL     1      23.834 -39.965 207.929  1.00  0.00     0.004 C 
ATOM      6  C   UNL     1      25.201 -41.431 203.913  1.00  0.00     0.013 C 
ATOM      7  C   UNL     1      25.944 -42.999 205.789  1.00  0.00    -0.063 C 
ATOM      8  C   UNL     1      25.170 -42.128 208.099  1.00  0.00    -0.003 C 
ATOM      9  C   UNL     1      24.633 -40.893 208.857  1.00  0.00    -0.011 C 
ATOM     10  C   UNL     1      25.575 -42.901 204.298  1.00  0.00    -0.006 C 
ATOM     11  C   UNL     1      26.321 -44.213 206.201  1.00  0.00    -0.027 C 
ATOM     12  C   UNL     1      25.841 -43.103 209.105  1.00  0.00     0.008 C 
ATOM     13  C   UNL     1      25.655 -40.135 209.730  1.00  0.00     0.008 C 
ATOM     14  C   UNL     1      26.874 -43.271 203.464  1.00  0.00     0.017 C 
ATOM     15  C   UNL     1      24.395 -43.956 203.983  1.00  0.00    -0.020 C 
ATOM     16  C   UNL     1      25.619 -45.451 205.756  1.00  0.00     0.032 C 
ATOM     17  C   UNL     1      24.850 -45.431 204.383  1.00  0.00     0.006 C 
ATOM     18  C   UNL     1      23.130 -43.617 204.825  1.00  0.00     0.008 C 
ATOM     19  C   UNL     1      24.046 -43.868 202.454  1.00  0.00     0.012 C 
ATOM     20  C   UNL     1      23.707 -46.569 204.379  1.00  0.00    -0.025 C 
ATOM     21  C   UNL     1      22.014 -44.664 204.761  1.00  0.00     0.005 C 
ATOM     22  C   UNL     1      22.436 -46.096 205.203  1.00  0.00     0.003 C 
ATOM     23  C   UNL     1      23.255 -46.953 202.936  1.00  0.00     0.010 C 
ATOM     24  C   UNL     1      24.352 -47.856 204.997  1.00  0.00     0.012 C 
ATOM     25  C   UNL     1      21.195 -47.104 205.148  1.00  0.00    -0.006 C 
ATOM     26  C   UNL     1      22.095 -47.962 202.879  1.00  0.00     0.033 C 
ATOM     27  C   UNL     1      20.861 -47.491 203.671  1.00  0.00     0.120 C 
ATOM     28  C   UNL     1      21.461 -48.371 206.016  1.00  0.00     0.014 C 
ATOM     29  C   UNL     1      19.921 -46.442 205.756  1.00  0.00     0.014 C 
ENDROOT
BRANCH   1  30
ATOM     30  C   UNL     1      26.789 -39.376 206.740  1.00  0.00     0.048 C 
ATOM     31  O   UNL     1      26.536 -38.139 206.711  1.00  0.00    -0.550 OA
ATOM     32  O   UNL     1      28.052 -39.776 207.165  1.00  0.00    -0.550 OA
ENDBRANCH   1  30
BRANCH  27  33
ATOM     33  O   UNL     1      19.878 -48.498 203.643  1.00  0.00    -0.393 OA
ATOM     34  H   UNL     1      19.322 -48.396 204.460  1.00  0.00     0.210 HD
ENDBRANCH  27  33
TORSDOF 2
ENDMDL
MODEL 2
REMARK VINA RESULT:    -4.696     11.981     14.808
REMARK INTER + INTRA:          -5.375
REMARK INTER:                  -5.107
REMARK INTRA:                  -0.268
REMARK UNBOUND:                -0.268
REMARK SMILES C[C@@H]1[C@H]2C3=CC[C@H]4[C@]5(C)CC[C@@H](O)C(C)(C)[C@@H]5CC[C@@]4(C)[C@@]3(C)CC[C@@]2(C(=O)[O-])CC[C@@H]1C
REMARK SMILES IDX 26 1 30 2 25 3 3 4 31 5 24 6 4 7 2 8 32 9 22 10 5 11 1 12
REMARK SMILES IDX 33 13 23 14 20 15 6 16 7 17 19 18 21 19 8 20 18 21 17 22
REMARK SMILES IDX 10 23 9 24 14 25 11 26 12 27 15 28 16 29 27 30 28 31 29 32
REMARK SMILES IDX 13 33
REMARK H PARENT 13 34
REMARK Flexibility Score: inf
ROOT
ATOM      1  C   UNL     1      36.301 -43.551 197.620  1.00  0.00     0.017 C 
ATOM      2  C   UNL     1      37.336 -44.607 197.113  1.00  0.00     0.014 C 
ATOM      3  C   UNL     1      37.076 -42.347 198.206  1.00  0.00     0.014 C 
ATOM      4  C   UNL     1      35.307 -44.156 198.689  1.00  0.00     0.030 C 
ATOM      5  C   UNL     1      36.763 -45.956 196.627  1.00  0.00     0.004 C 
ATOM      6  C   UNL     1      37.840 -42.678 199.497  1.00  0.00     0.013 C 
ATOM      7  C   UNL     1      35.668 -43.842 200.172  1.00  0.00    -0.063 C 
ATOM      8  C   UNL     1      35.047 -45.712 198.494  1.00  0.00    -0.003 C 
ATOM      9  C   UNL     1      35.330 -46.274 197.083  1.00  0.00    -0.011 C 
ATOM     10  C   UNL     1      36.893 -43.062 200.682  1.00  0.00    -0.006 C 
ATOM     11  C   UNL     1      34.778 -44.176 201.111  1.00  0.00    -0.027 C 
ATOM     12  C   UNL     1      33.646 -46.183 198.969  1.00  0.00     0.008 C 
ATOM     13  C   UNL     1      34.273 -45.963 196.004  1.00  0.00     0.008 C 
ATOM     14  C   UNL     1      36.363 -41.699 201.299  1.00  0.00     0.017 C 
ATOM     15  C   UNL     1      37.630 -43.937 201.821  1.00  0.00    -0.020 C 
ATOM     16  C   UNL     1      35.195 -44.681 202.451  1.00  0.00     0.032 C 
ATOM     17  C   UNL     1      36.613 -44.277 203.001  1.00  0.00     0.006 C 
ATOM     18  C   UNL     1      38.121 -45.290 201.228  1.00  0.00     0.008 C 
ATOM     19  C   UNL     1      38.861 -43.120 202.355  1.00  0.00     0.012 C 
ATOM     20  C   UNL     1      37.104 -45.357 204.093  1.00  0.00    -0.025 C 
ATOM     21  C   UNL     1      38.657 -46.288 202.259  1.00  0.00     0.005 C 
ATOM     22  C   UNL     1      37.651 -46.668 203.385  1.00  0.00     0.003 C 
ATOM     23  C   UNL     1      38.216 -44.792 205.031  1.00  0.00     0.010 C 
ATOM     24  C   UNL     1      35.870 -45.665 205.008  1.00  0.00     0.012 C 
ATOM     25  C   UNL     1      38.283 -47.747 204.381  1.00  0.00    -0.006 C 
ATOM     26  C   UNL     1      38.791 -45.816 206.026  1.00  0.00     0.033 C 
ATOM     27  C   UNL     1      39.330 -47.079 205.330  1.00  0.00     0.120 C 
ATOM     28  C   UNL     1      37.173 -48.481 205.195  1.00  0.00     0.014 C 
ATOM     29  C   UNL     1      39.023 -48.865 203.584  1.00  0.00     0.014 C 
ENDROOT
BRANCH   1  30
ATOM     30  C   UNL     1      35.541 -42.962 196.436  1.00  0.00     0.048 C 
ATOM     31  O   UNL     1      36.119 -42.764 195.331  1.00  0.00    -0.550 OA
ATOM     32  O   UNL     1      34.229 -42.517 196.579  1.00  0.00    -0.550 OA
ENDBRANCH   1  30
BRANCH  27  33
ATOM     33  O   UNL     1      39.759 -48.000 206.305  1.00  0.00    -0.393 OA
ATOM     34  H   UNL     1      39.006 -48.140 206.937  1.00  0.00     0.210 HD
ENDBRANCH  27  33
TORSDOF 2
ENDMDL
MODEL 3
REMARK VINA RESULT:    -4.627     12.028     15.450
REMARK INTER + INTRA:          -5.301
REMARK INTER:                  -5.052
REMARK INTRA:                  -0.249
REMARK UNBOUND:                -0.268
REMARK SMILES C[C@@H]1[C@H]2C3=CC[C@H]4[C@]5(C)CC[C@@H](O)C(C)(C)[C@@H]5CC[C@@]4(C)[C@@]3(C)CC[C@@]2(C(=O)[O-])CC[C@@H]1C
REMARK SMILES IDX 26 1 30 2 25 3 3 4 31 5 24 6 4 7 2 8 32 9 22 10 5 11 1 12
REMARK SMILES IDX 33 13 23 14 20 15 6 16 7 17 19 18 21 19 8 20 18 21 17 22
REMARK SMILES IDX 10 23 9 24 14 25 11 26 12 27 15 28 16 29 27 30 28 31 29 32
REMARK SMILES IDX 13 33
REMARK H PARENT 13 34
REMARK Flexibility Score: inf
ROOT
ATOM      1  C   UNL     1      36.065 -51.426 201.882  1.00  0.00     0.017 C 
ATOM      2  C   UNL     1      37.408 -52.039 202.398  1.00  0.00     0.014 C 
ATOM      3  C   UNL     1      36.389 -50.407 200.764  1.00  0.00     0.014 C 
ATOM      4  C   UNL     1      35.235 -50.747 203.043  1.00  0.00     0.030 C 
ATOM      5  C   UNL     1      37.313 -52.973 203.624  1.00  0.00     0.004 C 
ATOM      6  C   UNL     1      37.128 -49.158 201.267  1.00  0.00     0.013 C 
ATOM      7  C   UNL     1      35.380 -49.198 203.131  1.00  0.00    -0.063 C 
ATOM      8  C   UNL     1      35.483 -51.413 204.464  1.00  0.00    -0.003 C 
ATOM      9  C   UNL     1      36.021 -52.861 204.448  1.00  0.00    -0.011 C 
ATOM     10  C   UNL     1      36.266 -48.298 202.251  1.00  0.00    -0.006 C 
ATOM     11  C   UNL     1      34.574 -48.547 203.975  1.00  0.00    -0.027 C 
ATOM     12  C   UNL     1      34.266 -51.322 205.425  1.00  0.00     0.008 C 
ATOM     13  C   UNL     1      34.996 -53.963 204.110  1.00  0.00     0.008 C 
ATOM     14  C   UNL     1      35.301 -47.414 201.354  1.00  0.00     0.017 C 
ATOM     15  C   UNL     1      37.158 -47.350 203.207  1.00  0.00    -0.020 C 
ATOM     16  C   UNL     1      35.034 -47.356 204.746  1.00  0.00     0.032 C 
ATOM     17  C   UNL     1      36.217 -46.494 204.169  1.00  0.00     0.006 C 
ATOM     18  C   UNL     1      38.082 -48.216 204.114  1.00  0.00     0.008 C 
ATOM     19  C   UNL     1      38.037 -46.417 202.300  1.00  0.00     0.012 C 
ATOM     20  C   UNL     1      36.942 -45.689 205.363  1.00  0.00    -0.025 C 
ATOM     21  C   UNL     1      38.828 -47.437 205.201  1.00  0.00     0.005 C 
ATOM     22  C   UNL     1      37.914 -46.642 206.179  1.00  0.00     0.003 C 
ATOM     23  C   UNL     1      37.758 -44.464 204.846  1.00  0.00     0.010 C 
ATOM     24  C   UNL     1      35.804 -45.109 206.270  1.00  0.00     0.012 C 
ATOM     25  C   UNL     1      38.778 -45.905 207.304  1.00  0.00    -0.006 C 
ATOM     26  C   UNL     1      38.552 -43.721 205.935  1.00  0.00     0.033 C 
ATOM     27  C   UNL     1      39.500 -44.650 206.714  1.00  0.00     0.120 C 
ATOM     28  C   UNL     1      37.896 -45.521 208.531  1.00  0.00     0.014 C 
ATOM     29  C   UNL     1      39.879 -46.856 207.864  1.00  0.00     0.014 C 
ENDROOT
BRANCH   1  30
ATOM     30  C   UNL     1      35.243 -52.501 201.178  1.00  0.00     0.048 C 
ATOM     31  O   UNL     1      33.981 -52.459 201.187  1.00  0.00    -0.550 OA
ATOM     32  O   UNL     1      35.858 -53.615 200.613  1.00  0.00    -0.550 OA
ENDBRANCH   1  30
BRANCH  27  33
ATOM     33  O   UNL     1      40.125 -43.920 207.743  1.00  0.00    -0.393 OA
ATOM     34  H   UNL     1      40.561 -44.573 208.351  1.00  0.00     0.210 HD
ENDBRANCH  27  33
TORSDOF 2
ENDMDL
MODEL 4
REMARK VINA RESULT:    -4.571      4.779      6.922
REMARK INTER + INTRA:          -5.239
REMARK INTER:                  -4.971
REMARK INTRA:                  -0.268
REMARK UNBOUND:                -0.268
REMARK SMILES C[C@@H]1[C@H]2C3=CC[C@H]4[C@]5(C)CC[C@@H](O)C(C)(C)[C@@H]5CC[C@@]4(C)[C@@]3(C)CC[C@@]2(C(=O)[O-])CC[C@@H]1C
REMARK SMILES IDX 26 1 30 2 25 3 3 4 31 5 24 6 4 7 2 8 32 9 22 10 5 11 1 12
REMARK SMILES IDX 33 13 23 14 20 15 6 16 7 17 19 18 21 19 8 20 18 21 17 22
REMARK SMILES IDX 10 23 9 24 14 25 11 26 12 27 15 28 16 29 27 30 28 31 29 32
REMARK SMILES IDX 13 33
REMARK H PARENT 13 34
REMARK Flexibility Score: inf
ROOT
ATOM      1  C   UNL     1      26.268 -41.720 197.311  1.00  0.00     0.017 C 
ATOM      2  C   UNL     1      25.237 -40.592 197.643  1.00  0.00     0.014 C 
ATOM      3  C   UNL     1      25.500 -42.931 196.731  1.00  0.00     0.014 C 
ATOM      4  C   UNL     1      27.116 -42.144 198.576  1.00  0.00     0.030 C 
ATOM      5  C   UNL     1      25.788 -39.350 198.375  1.00  0.00     0.004 C 
ATOM      6  C   UNL     1      24.592 -43.631 197.753  1.00  0.00     0.013 C 
ATOM      7  C   UNL     1      26.622 -43.435 199.294  1.00  0.00    -0.063 C 
ATOM      8  C   UNL     1      27.313 -40.964 199.622  1.00  0.00    -0.003 C 
ATOM      9  C   UNL     1      27.147 -39.531 199.067  1.00  0.00    -0.011 C 
ATOM     10  C   UNL     1      25.393 -44.287 198.928  1.00  0.00    -0.006 C 
ATOM     11  C   UNL     1      27.393 -43.941 200.261  1.00  0.00    -0.027 C 
ATOM     12  C   UNL     1      28.633 -41.055 200.436  1.00  0.00     0.008 C 
ATOM     13  C   UNL     1      28.324 -38.988 198.231  1.00  0.00     0.008 C 
ATOM     14  C   UNL     1      25.926 -45.681 198.389  1.00  0.00     0.017 C 
ATOM     15  C   UNL     1      24.499 -44.509 200.254  1.00  0.00    -0.020 C 
ATOM     16  C   UNL     1      26.815 -44.574 201.482  1.00  0.00     0.032 C 
ATOM     17  C   UNL     1      25.371 -45.194 201.399  1.00  0.00     0.006 C 
ATOM     18  C   UNL     1      24.003 -43.140 200.805  1.00  0.00     0.008 C 
ATOM     19  C   UNL     1      23.263 -45.402 199.875  1.00  0.00     0.012 C 
ATOM     20  C   UNL     1      24.716 -45.254 202.872  1.00  0.00    -0.025 C 
ATOM     21  C   UNL     1      23.313 -43.209 202.171  1.00  0.00     0.005 C 
ATOM     22  C   UNL     1      24.178 -43.826 203.309  1.00  0.00     0.003 C 
ATOM     23  C   UNL     1      23.545 -46.280 202.961  1.00  0.00     0.010 C 
ATOM     24  C   UNL     1      25.833 -45.772 203.840  1.00  0.00     0.012 C 
ATOM     25  C   UNL     1      23.393 -43.809 204.702  1.00  0.00    -0.006 C 
ATOM     26  C   UNL     1      22.820 -46.303 204.318  1.00  0.00     0.033 C 
ATOM     27  C   UNL     1      22.290 -44.917 204.729  1.00  0.00     0.120 C 
ATOM     28  C   UNL     1      24.375 -43.963 205.904  1.00  0.00     0.014 C 
ATOM     29  C   UNL     1      22.683 -42.438 204.917  1.00  0.00     0.014 C 
ENDROOT
BRANCH   1  30
ATOM     30  C   UNL     1      27.174 -41.274 196.169  1.00  0.00     0.048 C 
ATOM     31  O   UNL     1      26.732 -40.536 195.244  1.00  0.00    -0.550 OA
ATOM     32  O   UNL     1      28.472 -41.764 196.052  1.00  0.00    -0.550 OA
ENDBRANCH   1  30
BRANCH  27  33
ATOM     33  O   UNL     1      21.717 -45.000 206.013  1.00  0.00    -0.393 OA
ATOM     34  H   UNL     1      21.002 -44.313 206.066  1.00  0.00     0.210 HD
ENDBRANCH  27  33
TORSDOF 2
ENDMDL
MODEL 5
REMARK VINA RESULT:    -4.560     10.486     12.785
REMARK INTER + INTRA:          -5.228
REMARK INTER:                  -4.960
REMARK INTRA:                  -0.268
REMARK UNBOUND:                -0.268
REMARK SMILES C[C@@H]1[C@H]2C3=CC[C@H]4[C@]5(C)CC[C@@H](O)C(C)(C)[C@@H]5CC[C@@]4(C)[C@@]3(C)CC[C@@]2(C(=O)[O-])CC[C@@H]1C
REMARK SMILES IDX 26 1 30 2 25 3 3 4 31 5 24 6 4 7 2 8 32 9 22 10 5 11 1 12
REMARK SMILES IDX 33 13 23 14 20 15 6 16 7 17 19 18 21 19 8 20 18 21 17 22
REMARK SMILES IDX 10 23 9 24 14 25 11 26 12 27 15 28 16 29 27 30 28 31 29 32
REMARK SMILES IDX 13 33
REMARK H PARENT 13 34
REMARK Flexibility Score: inf
ROOT
ATOM      1  C   UNL     1      35.432 -38.909 206.183  1.00  0.00     0.017 C 
ATOM      2  C   UNL     1      36.652 -38.399 205.349  1.00  0.00     0.014 C 
ATOM      3  C   UNL     1      35.964 -39.565 207.480  1.00  0.00     0.014 C 
ATOM      4  C   UNL     1      34.532 -39.920 205.367  1.00  0.00     0.030 C 
ATOM      5  C   UNL     1      36.341 -37.845 203.942  1.00  0.00     0.004 C 
ATOM      6  C   UNL     1      36.740 -40.868 207.236  1.00  0.00     0.013 C 
ATOM      7  C   UNL     1      34.791 -41.425 205.677  1.00  0.00    -0.063 C 
ATOM      8  C   UNL     1      34.560 -39.660 203.800  1.00  0.00    -0.003 C 
ATOM      9  C   UNL     1      34.977 -38.240 203.356  1.00  0.00    -0.011 C 
ATOM     10  C   UNL     1      35.844 -42.005 206.640  1.00  0.00    -0.006 C 
ATOM     11  C   UNL     1      33.950 -42.321 205.153  1.00  0.00    -0.027 C 
ATOM     12  C   UNL     1      33.252 -40.070 203.069  1.00  0.00     0.008 C 
ATOM     13  C   UNL     1      33.910 -37.138 203.520  1.00  0.00     0.008 C 
ATOM     14  C   UNL     1      35.063 -42.652 207.861  1.00  0.00     0.017 C 
ATOM     15  C   UNL     1      36.694 -43.136 205.863  1.00  0.00    -0.020 C 
ATOM     16  C   UNL     1      34.414 -43.654 204.674  1.00  0.00     0.032 C 
ATOM     17  C   UNL     1      35.722 -44.267 205.299  1.00  0.00     0.006 C 
ATOM     18  C   UNL     1      37.434 -42.511 204.644  1.00  0.00     0.008 C 
ATOM     19  C   UNL     1      37.744 -43.741 206.861  1.00  0.00     0.012 C 
ATOM     20  C   UNL     1      36.368 -45.335 204.278  1.00  0.00    -0.025 C 
ATOM     21  C   UNL     1      38.111 -43.523 203.715  1.00  0.00     0.005 C 
ATOM     22  C   UNL     1      37.159 -44.599 203.115  1.00  0.00     0.003 C 
ATOM     23  C   UNL     1      37.335 -46.331 204.991  1.00  0.00     0.010 C 
ATOM     24  C   UNL     1      35.184 -46.195 203.718  1.00  0.00     0.012 C 
ATOM     25  C   UNL     1      37.946 -45.576 202.124  1.00  0.00    -0.006 C 
ATOM     26  C   UNL     1      38.056 -47.306 204.044  1.00  0.00     0.033 C 
ATOM     27  C   UNL     1      38.831 -46.584 202.927  1.00  0.00     0.120 C 
ATOM     28  C   UNL     1      36.963 -46.324 201.172  1.00  0.00     0.014 C 
ATOM     29  C   UNL     1      38.894 -44.765 201.189  1.00  0.00     0.014 C 
ENDROOT
BRANCH   1  30
ATOM     30  C   UNL     1      34.611 -37.722 206.678  1.00  0.00     0.048 C 
ATOM     31  O   UNL     1      35.172 -36.638 207.000  1.00  0.00    -0.550 OA
ATOM     32  O   UNL     1      33.242 -37.842 206.900  1.00  0.00    -0.550 OA
ENDBRANCH   1  30
BRANCH  27  33
ATOM     33  O   UNL     1      39.390 -47.539 202.056  1.00  0.00    -0.393 OA
ATOM     34  H   UNL     1      39.876 -47.046 201.344  1.00  0.00     0.210 HD
ENDBRANCH  27  33
TORSDOF 2
ENDMDL
MODEL 6
REMARK VINA RESULT:    -4.554     11.348     14.484
REMARK INTER + INTRA:          -5.221
REMARK INTER:                  -4.952
REMARK INTRA:                  -0.269
REMARK UNBOUND:                -0.268
REMARK SMILES C[C@@H]1[C@H]2C3=CC[C@H]4[C@]5(C)CC[C@@H](O)C(C)(C)[C@@H]5CC[C@@]4(C)[C@@]3(C)CC[C@@]2(C(=O)[O-])CC[C@@H]1C
REMARK SMILES IDX 26 1 30 2 25 3 3 4 31 5 24 6 4 7 2 8 32 9 22 10 5 11 1 12
REMARK SMILES IDX 33 13 23 14 20 15 6 16 7 17 19 18 21 19 8 20 18 21 17 22
REMARK SMILES IDX 10 23 9 24 14 25 11 26 12 27 15 28 16 29 27 30 28 31 29 32
REMARK SMILES IDX 13 33
REMARK H PARENT 13 34
REMARK Flexibility Score: inf
ROOT
ATOM      1  C   UNL     1      35.550 -43.152 197.705  1.00  0.00     0.017 C 
ATOM      2  C   UNL     1      37.095 -43.036 197.492  1.00  0.00     0.014 C 
ATOM      3  C   UNL     1      35.030 -41.807 198.265  1.00  0.00     0.014 C 
ATOM      4  C   UNL     1      35.169 -44.348 198.664  1.00  0.00     0.030 C 
ATOM      5  C   UNL     1      37.832 -44.327 197.077  1.00  0.00     0.004 C 
ATOM      6  C   UNL     1      35.518 -41.505 199.690  1.00  0.00     0.013 C 
ATOM      7  C   UNL     1      34.882 -43.940 200.140  1.00  0.00    -0.063 C 
ATOM      8  C   UNL     1      36.206 -45.551 198.609  1.00  0.00    -0.003 C 
ATOM      9  C   UNL     1      37.075 -45.639 197.334  1.00  0.00    -0.011 C 
ATOM     10  C   UNL     1      34.979 -42.528 200.746  1.00  0.00    -0.006 C 
ATOM     11  C   UNL     1      34.388 -44.874 200.957  1.00  0.00    -0.027 C 
ATOM     12  C   UNL     1      35.578 -46.941 198.905  1.00  0.00     0.008 C 
ATOM     13  C   UNL     1      36.374 -46.185 196.072  1.00  0.00     0.008 C 
ATOM     14  C   UNL     1      33.505 -42.067 201.111  1.00  0.00     0.017 C 
ATOM     15  C   UNL     1      35.886 -42.595 202.080  1.00  0.00    -0.020 C 
ATOM     16  C   UNL     1      34.777 -44.951 202.395  1.00  0.00     0.032 C 
ATOM     17  C   UNL     1      35.270 -43.641 203.114  1.00  0.00     0.006 C 
ATOM     18  C   UNL     1      37.323 -43.081 201.730  1.00  0.00     0.008 C 
ATOM     19  C   UNL     1      35.955 -41.156 202.706  1.00  0.00     0.012 C 
ATOM     20  C   UNL     1      36.184 -44.027 204.386  1.00  0.00    -0.025 C 
ATOM     21  C   UNL     1      38.215 -43.375 202.940  1.00  0.00     0.005 C 
ATOM     22  C   UNL     1      37.647 -44.436 203.928  1.00  0.00     0.003 C 
ATOM     23  C   UNL     1      36.289 -42.861 205.418  1.00  0.00     0.010 C 
ATOM     24  C   UNL     1      35.457 -45.203 205.122  1.00  0.00     0.012 C 
ATOM     25  C   UNL     1      38.667 -44.710 205.128  1.00  0.00    -0.006 C 
ATOM     26  C   UNL     1      37.232 -43.142 206.601  1.00  0.00     0.033 C 
ATOM     27  C   UNL     1      38.652 -43.526 206.149  1.00  0.00     0.120 C 
ATOM     28  C   UNL     1      38.357 -46.066 205.833  1.00  0.00     0.014 C 
ATOM     29  C   UNL     1      40.125 -44.844 204.592  1.00  0.00     0.014 C 
ENDROOT
BRANCH   1  30
ATOM     30  C   UNL     1      34.851 -43.286 196.356  1.00  0.00     0.048 C 
ATOM     31  O   UNL     1      35.295 -42.689 195.335  1.00  0.00    -0.550 OA
ATOM     32  O   UNL     1      33.644 -43.970 196.241  1.00  0.00    -0.550 OA
ENDBRANCH   1  30
BRANCH  27  33
ATOM     33  O   UNL     1      39.428 -43.849 207.278  1.00  0.00    -0.393 OA
ATOM     34  H   UNL     1      39.238 -43.169 207.977  1.00  0.00     0.210 HD
ENDBRANCH  27  33
TORSDOF 2
ENDMDL
MODEL 7
REMARK VINA RESULT:    -4.539     13.602     15.908
REMARK INTER + INTRA:          -5.205
REMARK INTER:                  -4.957
REMARK INTRA:                  -0.247
REMARK UNBOUND:                -0.268
REMARK SMILES C[C@@H]1[C@H]2C3=CC[C@H]4[C@]5(C)CC[C@@H](O)C(C)(C)[C@@H]5CC[C@@]4(C)[C@@]3(C)CC[C@@]2(C(=O)[O-])CC[C@@H]1C
REMARK SMILES IDX 26 1 30 2 25 3 3 4 31 5 24 6 4 7 2 8 32 9 22 10 5 11 1 12
REMARK SMILES IDX 33 13 23 14 20 15 6 16 7 17 19 18 21 19 8 20 18 21 17 22
REMARK SMILES IDX 10 23 9 24 14 25 11 26 12 27 15 28 16 29 27 30 28 31 29 32
REMARK SMILES IDX 13 33
REMARK H PARENT 13 34
REMARK Flexibility Score: inf
ROOT
ATOM      1  C   UNL     1      36.265 -49.619 203.576  1.00  0.00     0.017 C 
ATOM      2  C   UNL     1      37.827 -49.689 203.585  1.00  0.00     0.014 C 
ATOM      3  C   UNL     1      35.709 -50.989 204.033  1.00  0.00     0.014 C 
ATOM      4  C   UNL     1      35.694 -49.223 202.157  1.00  0.00     0.030 C 
ATOM      5  C   UNL     1      38.574 -48.465 203.015  1.00  0.00     0.004 C 
ATOM      6  C   UNL     1      35.975 -52.124 203.032  1.00  0.00     0.013 C 
ATOM      7  C   UNL     1      35.190 -50.420 201.296  1.00  0.00    -0.063 C 
ATOM      8  C   UNL     1      36.683 -48.307 201.316  1.00  0.00    -0.003 C 
ATOM      9  C   UNL     1      37.740 -47.527 202.129  1.00  0.00    -0.011 C 
ATOM     10  C   UNL     1      35.239 -51.914 201.666  1.00  0.00    -0.006 C 
ATOM     11  C   UNL     1      34.540 -50.139 200.163  1.00  0.00    -0.027 C 
ATOM     12  C   UNL     1      35.968 -47.341 200.332  1.00  0.00     0.008 C 
ATOM     13  C   UNL     1      37.230 -46.282 202.885  1.00  0.00     0.008 C 
ATOM     14  C   UNL     1      33.743 -52.398 201.879  1.00  0.00     0.017 C 
ATOM     15  C   UNL     1      35.919 -52.730 200.451  1.00  0.00    -0.020 C 
ATOM     16  C   UNL     1      34.692 -50.975 198.937  1.00  0.00     0.032 C 
ATOM     17  C   UNL     1      35.111 -52.483 199.099  1.00  0.00     0.006 C 
ATOM     18  C   UNL     1      37.376 -52.233 200.217  1.00  0.00     0.008 C 
ATOM     19  C   UNL     1      35.939 -54.255 200.827  1.00  0.00     0.012 C 
ATOM     20  C   UNL     1      35.796 -53.010 197.738  1.00  0.00    -0.025 C 
ATOM     21  C   UNL     1      38.053 -52.793 198.963  1.00  0.00     0.005 C 
ATOM     22  C   UNL     1      37.298 -52.509 197.631  1.00  0.00     0.003 C 
ATOM     23  C   UNL     1      35.777 -54.566 197.626  1.00  0.00     0.010 C 
ATOM     24  C   UNL     1      34.921 -52.472 196.556  1.00  0.00     0.012 C 
ATOM     25  C   UNL     1      38.105 -53.089 196.378  1.00  0.00    -0.006 C 
ATOM     26  C   UNL     1      36.509 -55.125 196.393  1.00  0.00     0.033 C 
ATOM     27  C   UNL     1      37.969 -54.644 196.302  1.00  0.00     0.120 C 
ATOM     28  C   UNL     1      37.639 -52.418 195.049  1.00  0.00     0.014 C 
ATOM     29  C   UNL     1      39.624 -52.759 196.500  1.00  0.00     0.014 C 
ENDROOT
BRANCH   1  30
ATOM     30  C   UNL     1      35.785 -48.648 204.650  1.00  0.00     0.048 C 
ATOM     31  O   UNL     1      34.706 -48.007 204.506  1.00  0.00    -0.550 OA
ATOM     32  O   UNL     1      36.579 -48.354 205.755  1.00  0.00    -0.550 OA
ENDBRANCH   1  30
BRANCH  27  33
ATOM     33  O   UNL     1      38.544 -55.125 195.111  1.00  0.00    -0.393 OA
ATOM     34  H   UNL     1      39.512 -55.270 195.283  1.00  0.00     0.210 HD
ENDBRANCH  27  33
TORSDOF 2
ENDMDL
MODEL 8
REMARK VINA RESULT:    -4.537      4.997      9.541
REMARK INTER + INTRA:          -5.202
REMARK INTER:                  -4.935
REMARK INTRA:                  -0.268
REMARK UNBOUND:                -0.268
REMARK SMILES C[C@@H]1[C@H]2C3=CC[C@H]4[C@]5(C)CC[C@@H](O)C(C)(C)[C@@H]5CC[C@@]4(C)[C@@]3(C)CC[C@@]2(C(=O)[O-])CC[C@@H]1C
REMARK SMILES IDX 26 1 30 2 25 3 3 4 31 5 24 6 4 7 2 8 32 9 22 10 5 11 1 12
REMARK SMILES IDX 33 13 23 14 20 15 6 16 7 17 19 18 21 19 8 20 18 21 17 22
REMARK SMILES IDX 10 23 9 24 14 25 11 26 12 27 15 28 16 29 27 30 28 31 29 32
REMARK SMILES IDX 13 33
REMARK H PARENT 13 34
REMARK Flexibility Score: inf
ROOT
ATOM      1  C   UNL     1      26.149 -51.208 199.617  1.00  0.00     0.017 C 
ATOM      2  C   UNL     1      25.228 -50.879 198.397  1.00  0.00     0.014 C 
ATOM      3  C   UNL     1      25.262 -51.707 200.781  1.00  0.00     0.014 C 
ATOM      4  C   UNL     1      27.017 -49.964 200.061  1.00  0.00     0.030 C 
ATOM      5  C   UNL     1      25.908 -50.220 197.177  1.00  0.00     0.004 C 
ATOM      6  C   UNL     1      24.348 -50.620 201.367  1.00  0.00     0.013 C 
ATOM      7  C   UNL     1      26.455 -49.175 201.281  1.00  0.00    -0.063 C 
ATOM      8  C   UNL     1      27.355 -48.975 198.864  1.00  0.00    -0.003 C 
ATOM      9  C   UNL     1      27.279 -49.580 197.444  1.00  0.00    -0.011 C 
ATOM     10  C   UNL     1      25.146 -49.455 202.043  1.00  0.00    -0.006 C 
ATOM     11  C   UNL     1      27.226 -48.222 201.813  1.00  0.00    -0.027 C 
ATOM     12  C   UNL     1      28.699 -48.215 199.033  1.00  0.00     0.008 C 
ATOM     13  C   UNL     1      28.456 -50.486 197.028  1.00  0.00     0.008 C 
ATOM     14  C   UNL     1      25.542 -49.960 203.494  1.00  0.00     0.017 C 
ATOM     15  C   UNL     1      24.299 -48.085 202.144  1.00  0.00    -0.020 C 
ATOM     16  C   UNL     1      26.656 -46.954 202.351  1.00  0.00     0.032 C 
ATOM     17  C   UNL     1      25.165 -46.950 202.855  1.00  0.00     0.006 C 
ATOM     18  C   UNL     1      23.938 -47.568 200.720  1.00  0.00     0.008 C 
ATOM     19  C   UNL     1      22.980 -48.375 202.946  1.00  0.00     0.012 C 
ATOM     20  C   UNL     1      24.575 -45.450 202.807  1.00  0.00    -0.025 C 
ATOM     21  C   UNL     1      23.308 -46.172 200.682  1.00  0.00     0.005 C 
ATOM     22  C   UNL     1      24.172 -45.048 201.326  1.00  0.00     0.003 C 
ATOM     23  C   UNL     1      23.331 -45.271 203.732  1.00  0.00     0.010 C 
ATOM     24  C   UNL     1      25.689 -44.510 203.380  1.00  0.00     0.012 C 
ATOM     25  C   UNL     1      23.455 -43.625 201.195  1.00  0.00    -0.006 C 
ATOM     26  C   UNL     1      22.668 -43.884 203.646  1.00  0.00     0.033 C 
ATOM     27  C   UNL     1      22.270 -43.507 202.208  1.00  0.00     0.120 C 
ATOM     28  C   UNL     1      24.475 -42.461 201.384  1.00  0.00     0.014 C 
ATOM     29  C   UNL     1      22.866 -43.435 199.764  1.00  0.00     0.014 C 
ENDROOT
BRANCH   1  30
ATOM     30  C   UNL     1      27.035 -52.404 199.287  1.00  0.00     0.048 C 
ATOM     31  O   UNL     1      26.609 -53.343 198.558  1.00  0.00    -0.550 OA
ATOM     32  O   UNL     1      28.288 -52.550 199.876  1.00  0.00    -0.550 OA
ENDBRANCH   1  30
BRANCH  27  33
ATOM     33  O   UNL     1      21.751 -42.198 202.197  1.00  0.00    -0.393 OA
ATOM     34  H   UNL     1      22.075 -41.741 203.017  1.00  0.00     0.210 HD
ENDBRANCH  27  33
TORSDOF 2
ENDMDL
MODEL 9
REMARK VINA RESULT:    -4.529     11.732     13.202
REMARK INTER + INTRA:          -5.193
REMARK INTER:                  -4.947
REMARK INTRA:                  -0.247
REMARK UNBOUND:                -0.268
REMARK SMILES C[C@@H]1[C@H]2C3=CC[C@H]4[C@]5(C)CC[C@@H](O)C(C)(C)[C@@H]5CC[C@@]4(C)[C@@]3(C)CC[C@@]2(C(=O)[O-])CC[C@@H]1C
REMARK SMILES IDX 26 1 30 2 25 3 3 4 31 5 24 6 4 7 2 8 32 9 22 10 5 11 1 12
REMARK SMILES IDX 33 13 23 14 20 15 6 16 7 17 19 18 21 19 8 20 18 21 17 22
REMARK SMILES IDX 10 23 9 24 14 25 11 26 12 27 15 28 16 29 27 30 28 31 29 32
REMARK SMILES IDX 13 33
REMARK H PARENT 13 34
REMARK Flexibility Score: inf
ROOT
ATOM      1  C   UNL     1      37.421 -44.091 204.413  1.00  0.00     0.017 C 
ATOM      2  C   UNL     1      36.557 -44.225 205.710  1.00  0.00     0.014 C 
ATOM      3  C   UNL     1      36.472 -43.851 203.214  1.00  0.00     0.014 C 
ATOM      4  C   UNL     1      38.330 -45.360 204.168  1.00  0.00     0.030 C 
ATOM      5  C   UNL     1      37.308 -44.619 207.000  1.00  0.00     0.004 C 
ATOM      6  C   UNL     1      35.591 -45.063 202.876  1.00  0.00     0.013 C 
ATOM      7  C   UNL     1      37.764 -46.383 203.138  1.00  0.00    -0.063 C 
ATOM      8  C   UNL     1      38.754 -46.096 205.511  1.00  0.00    -0.003 C 
ATOM      9  C   UNL     1      38.697 -45.243 206.798  1.00  0.00    -0.011 C 
ATOM     10  C   UNL     1      36.420 -46.300 202.393  1.00  0.00    -0.006 C 
ATOM     11  C   UNL     1      38.561 -47.386 202.758  1.00  0.00    -0.027 C 
ATOM     12  C   UNL     1      40.125 -46.821 205.428  1.00  0.00     0.008 C 
ATOM     13  C   UNL     1      39.845 -44.230 206.991  1.00  0.00     0.008 C 
ATOM     14  C   UNL     1      36.742 -46.057 200.858  1.00  0.00     0.017 C 
ATOM     15  C   UNL     1      35.634 -47.698 202.580  1.00  0.00    -0.020 C 
ATOM     16  C   UNL     1      38.033 -48.753 202.485  1.00  0.00     0.032 C 
ATOM     17  C   UNL     1      36.527 -48.909 202.053  1.00  0.00     0.006 C 
ATOM     18  C   UNL     1      35.346 -47.956 204.088  1.00  0.00     0.008 C 
ATOM     19  C   UNL     1      34.277 -47.613 201.793  1.00  0.00     0.012 C 
ATOM     20  C   UNL     1      36.010 -50.396 202.399  1.00  0.00    -0.025 C 
ATOM     21  C   UNL     1      34.783 -49.345 204.407  1.00  0.00     0.005 C 
ATOM     22  C   UNL     1      35.676 -50.533 203.945  1.00  0.00     0.003 C 
ATOM     23  C   UNL     1      34.745 -50.793 201.576  1.00  0.00     0.010 C 
ATOM     24  C   UNL     1      37.147 -51.381 201.963  1.00  0.00     0.012 C 
ATOM     25  C   UNL     1      35.031 -51.935 204.364  1.00  0.00    -0.006 C 
ATOM     26  C   UNL     1      34.151 -52.164 201.942  1.00  0.00     0.033 C 
ATOM     27  C   UNL     1      33.819 -52.285 203.440  1.00  0.00     0.120 C 
ATOM     28  C   UNL     1      36.097 -53.073 204.349  1.00  0.00     0.014 C 
ATOM     29  C   UNL     1      34.500 -51.881 205.829  1.00  0.00     0.014 C 
ENDROOT
BRANCH   1  30
ATOM     30  C   UNL     1      38.261 -42.820 204.481  1.00  0.00     0.048 C 
ATOM     31  O   UNL     1      39.375 -42.749 203.890  1.00  0.00    -0.550 OA
ATOM     32  O   UNL     1      37.880 -41.754 205.291  1.00  0.00    -0.550 OA
ENDBRANCH   1  30
BRANCH  27  33
ATOM     33  O   UNL     1      33.362 -53.588 203.712  1.00  0.00    -0.393 OA
ATOM     34  H   UNL     1      33.467 -54.122 202.881  1.00  0.00     0.210 HD
ENDBRANCH  27  33
TORSDOF 2
ENDMDL
