MODEL 1
REMARK VINA RESULT:    -7.590      0.000      0.000
REMARK INTER + INTRA:          -9.663
REMARK INTER:                  -9.365
REMARK INTRA:                  -0.298
REMARK UNBOUND:                -0.298
REMARK SMILES Oc1cc(O)c2cc(O)c(-c3cc(O)c(O)c(O)c3)[o+]c2c1
REMARK SMILES IDX 10 1 20 2 21 3 22 4 2 5 3 6 4 7 6 8 7 9 8 10 11 11 12 12
REMARK SMILES IDX 13 13 19 14 15 15 17 16 14 17 16 19 18 21 9 23 1 25 5 27
REMARK H PARENT 14 18 16 20 18 22 9 24 1 26 5 28
REMARK Flexibility Score: inf
ROOT
ATOM      1  C   UNL     1      84.748  64.722   9.076  1.00  0.00     0.402 A 
ATOM      2  O   UNL     1      85.116  63.475   9.362  1.00  0.00    -0.202 OA
ATOM      3  C   UNL     1      85.844  63.155  10.426  1.00  0.00     0.368 A 
ATOM      4  C   UNL     1      86.178  61.816  10.642  1.00  0.00     0.162 A 
ATOM      5  C   UNL     1      86.939  61.448  11.752  1.00  0.00     0.128 A 
ATOM      6  C   UNL     1      87.369  62.426  12.657  1.00  0.00     0.093 A 
ATOM      7  C   UNL     1      87.046  63.776  12.463  1.00  0.00     0.136 A 
ATOM      8  C   UNL     1      86.276  64.152  11.333  1.00  0.00     0.125 A 
ATOM      9  C   UNL     1      85.916  65.481  11.052  1.00  0.00     0.078 A 
ATOM     10  C   UNL     1      85.157  65.776   9.914  1.00  0.00     0.223 A 
ENDROOT
BRANCH   1  11
ATOM     11  C   UNL     1      83.928  64.951   7.866  1.00  0.00     0.091 A 
ATOM     12  C   UNL     1      82.577  64.565   7.812  1.00  0.00     0.068 A 
ATOM     13  C   UNL     1      81.823  64.770   6.648  1.00  0.00     0.162 A 
ATOM     14  C   UNL     1      84.523  65.513   6.726  1.00  0.00     0.068 A 
ATOM     15  C   UNL     1      82.422  65.354   5.519  1.00  0.00     0.200 A 
ATOM     16  C   UNL     1      83.777  65.722   5.560  1.00  0.00     0.162 A 
BRANCH  13  17
ATOM     17  O   UNL     1      80.483  64.388   6.609  1.00  0.00    -0.504 OA
ATOM     18  H   UNL     1      80.188  63.523   6.171  1.00  0.00     0.293 HD
ENDBRANCH  13  17
BRANCH  15  19
ATOM     19  O   UNL     1      81.684  65.569   4.354  1.00  0.00    -0.502 OA
ATOM     20  H   UNL     1      80.671  65.571   4.349  1.00  0.00     0.293 HD
ENDBRANCH  15  19
BRANCH  16  21
ATOM     21  O   UNL     1      84.403  66.297   4.454  1.00  0.00    -0.504 OA
ATOM     22  H   UNL     1      85.263  66.826   4.537  1.00  0.00     0.293 HD
ENDBRANCH  16  21
ENDBRANCH   1  11
BRANCH  10  23
ATOM     23  O   UNL     1      84.843  67.100   9.607  1.00  0.00    -0.500 OA
ATOM     24  H   UNL     1      85.556  67.768   9.339  1.00  0.00     0.294 HD
ENDBRANCH  10  23
BRANCH   5  25
ATOM     25  O   UNL     1      87.263  60.108  11.950  1.00  0.00    -0.507 OA
ATOM     26  H   UNL     1      88.070  59.833  12.500  1.00  0.00     0.293 HD
ENDBRANCH   5  25
BRANCH   7  27
ATOM     27  O   UNL     1      87.510  64.691  13.412  1.00  0.00    -0.507 OA
ATOM     28  H   UNL     1      87.115  65.608  13.561  1.00  0.00     0.293 HD
ENDBRANCH   7  27
TORSDOF 7
ENDMDL
MODEL 2
REMARK VINA RESULT:    -7.585      0.146      1.799
REMARK INTER + INTRA:          -9.657
REMARK INTER:                  -9.381
REMARK INTRA:                  -0.276
REMARK UNBOUND:                -0.298
REMARK SMILES Oc1cc(O)c2cc(O)c(-c3cc(O)c(O)c(O)c3)[o+]c2c1
REMARK SMILES IDX 10 1 20 2 21 3 22 4 2 5 3 6 4 7 6 8 7 9 8 10 11 11 12 12
REMARK SMILES IDX 13 13 19 14 15 15 17 16 14 17 16 19 18 21 9 23 1 25 5 27
REMARK H PARENT 14 18 16 20 18 22 9 24 1 26 5 28
REMARK Flexibility Score: inf
ROOT
ATOM      1  C   UNL     1      84.821  64.725   8.944  1.00  0.00     0.402 A 
ATOM      2  O   UNL     1      85.190  63.482   9.244  1.00  0.00    -0.202 OA
ATOM      3  C   UNL     1      85.877  63.168  10.337  1.00  0.00     0.368 A 
ATOM      4  C   UNL     1      86.216  61.832  10.566  1.00  0.00     0.162 A 
ATOM      5  C   UNL     1      86.935  61.472  11.706  1.00  0.00     0.128 A 
ATOM      6  C   UNL     1      87.318  62.454  12.628  1.00  0.00     0.093 A 
ATOM      7  C   UNL     1      86.989  63.801  12.421  1.00  0.00     0.136 A 
ATOM      8  C   UNL     1      86.262  64.170  11.260  1.00  0.00     0.125 A 
ATOM      9  C   UNL     1      85.900  65.495  10.965  1.00  0.00     0.078 A 
ATOM     10  C   UNL     1      85.186  65.783   9.798  1.00  0.00     0.223 A 
ENDROOT
BRANCH   1  11
ATOM     11  C   UNL     1      84.049  64.946   7.701  1.00  0.00     0.091 A 
ATOM     12  C   UNL     1      84.615  65.604   6.595  1.00  0.00     0.068 A 
ATOM     13  C   UNL     1      83.860  65.824   5.434  1.00  0.00     0.162 A 
ATOM     14  C   UNL     1      82.706  64.544   7.642  1.00  0.00     0.068 A 
ATOM     15  C   UNL     1      82.522  65.396   5.376  1.00  0.00     0.200 A 
ATOM     16  C   UNL     1      81.946  64.758   6.487  1.00  0.00     0.162 A 
BRANCH  13  17
ATOM     17  O   UNL     1      84.434  66.471   4.341  1.00  0.00    -0.504 OA
ATOM     18  H   UNL     1      83.894  66.702   3.515  1.00  0.00     0.293 HD
ENDBRANCH  13  17
BRANCH  15  19
ATOM     19  O   UNL     1      81.759  65.603   4.227  1.00  0.00    -0.502 OA
ATOM     20  H   UNL     1      80.825  65.995   4.262  1.00  0.00     0.293 HD
ENDBRANCH  15  19
BRANCH  16  21
ATOM     21  O   UNL     1      80.619  64.329   6.465  1.00  0.00    -0.504 OA
ATOM     22  H   UNL     1      80.268  63.701   5.751  1.00  0.00     0.293 HD
ENDBRANCH  16  21
ENDBRANCH   1  11
BRANCH  10  23
ATOM     23  O   UNL     1      84.871  67.104   9.479  1.00  0.00    -0.500 OA
ATOM     24  H   UNL     1      84.875  67.437   8.522  1.00  0.00     0.294 HD
ENDBRANCH  10  23
BRANCH   5  25
ATOM     25  O   UNL     1      87.264  60.135  11.917  1.00  0.00    -0.507 OA
ATOM     26  H   UNL     1      87.982  59.864  12.579  1.00  0.00     0.293 HD
ENDBRANCH   5  25
BRANCH   7  27
ATOM     27  O   UNL     1      87.405  64.720  13.388  1.00  0.00    -0.507 OA
ATOM     28  H   UNL     1      87.951  65.546  13.193  1.00  0.00     0.293 HD
ENDBRANCH   7  27
TORSDOF 7
ENDMDL
MODEL 3
REMARK VINA RESULT:    -7.324      0.822      2.010
REMARK INTER + INTRA:          -9.335
REMARK INTER:                  -9.084
REMARK INTRA:                  -0.251
REMARK UNBOUND:                -0.298
REMARK SMILES Oc1cc(O)c2cc(O)c(-c3cc(O)c(O)c(O)c3)[o+]c2c1
REMARK SMILES IDX 10 1 20 2 21 3 22 4 2 5 3 6 4 7 6 8 7 9 8 10 11 11 12 12
REMARK SMILES IDX 13 13 19 14 15 15 17 16 14 17 16 19 18 21 9 23 1 25 5 27
REMARK H PARENT 14 18 16 20 18 22 9 24 1 26 5 28
REMARK Flexibility Score: inf
ROOT
ATOM      1  C   UNL     1      84.150  64.524   8.997  1.00  0.00     0.402 A 
ATOM      2  O   UNL     1      84.606  63.336   9.384  1.00  0.00    -0.202 OA
ATOM      3  C   UNL     1      85.498  63.177  10.356  1.00  0.00     0.368 A 
ATOM      4  C   UNL     1      85.914  61.887  10.693  1.00  0.00     0.162 A 
ATOM      5  C   UNL     1      86.847  61.689  11.711  1.00  0.00     0.128 A 
ATOM      6  C   UNL     1      87.369  62.789  12.401  1.00  0.00     0.093 A 
ATOM      7  C   UNL     1      86.967  64.093  12.083  1.00  0.00     0.136 A 
ATOM      8  C   UNL     1      86.021  64.297  11.045  1.00  0.00     0.125 A 
ATOM      9  C   UNL     1      85.571  65.568  10.650  1.00  0.00     0.078 A 
ATOM     10  C   UNL     1      84.639  65.691   9.615  1.00  0.00     0.223 A 
ENDROOT
BRANCH   1  11
ATOM     11  C   UNL     1      83.149  64.570   7.908  1.00  0.00     0.091 A 
ATOM     12  C   UNL     1      83.458  65.120   6.652  1.00  0.00     0.068 A 
ATOM     13  C   UNL     1      82.489  65.175   5.640  1.00  0.00     0.162 A 
ATOM     14  C   UNL     1      81.846  64.107   8.149  1.00  0.00     0.068 A 
ATOM     15  C   UNL     1      81.194  64.688   5.883  1.00  0.00     0.200 A 
ATOM     16  C   UNL     1      80.874  64.157   7.144  1.00  0.00     0.162 A 
BRANCH  13  17
ATOM     17  O   UNL     1      82.810  65.717   4.396  1.00  0.00    -0.504 OA
ATOM     18  H   UNL     1      83.400  66.536   4.309  1.00  0.00     0.293 HD
ENDBRANCH  13  17
BRANCH  15  19
ATOM     19  O   UNL     1      80.219  64.731   4.885  1.00  0.00    -0.502 OA
ATOM     20  H   UNL     1      80.369  65.206   4.004  1.00  0.00     0.293 HD
ENDBRANCH  15  19
BRANCH  16  21
ATOM     21  O   UNL     1      79.595  63.673   7.419  1.00  0.00    -0.504 OA
ATOM     22  H   UNL     1      79.212  63.668   8.357  1.00  0.00     0.293 HD
ENDBRANCH  16  21
ENDBRANCH   1  11
BRANCH  10  23
ATOM     23  O   UNL     1      84.231  66.954   9.188  1.00  0.00    -0.500 OA
ATOM     24  H   UNL     1      84.143  67.732   9.831  1.00  0.00     0.294 HD
ENDBRANCH  10  23
BRANCH   5  25
ATOM     25  O   UNL     1      87.250  60.395  12.032  1.00  0.00    -0.507 OA
ATOM     26  H   UNL     1      86.996  59.602  11.454  1.00  0.00     0.293 HD
ENDBRANCH   5  25
BRANCH   7  27
ATOM     27  O   UNL     1      87.532  65.138  12.820  1.00  0.00    -0.507 OA
ATOM     28  H   UNL     1      87.087  65.588  13.606  1.00  0.00     0.293 HD
ENDBRANCH   7  27
TORSDOF 7
ENDMDL
MODEL 4
REMARK VINA RESULT:    -7.283      0.871      0.999
REMARK INTER + INTRA:          -9.284
REMARK INTER:                  -8.991
REMARK INTRA:                  -0.293
REMARK UNBOUND:                -0.298
REMARK SMILES Oc1cc(O)c2cc(O)c(-c3cc(O)c(O)c(O)c3)[o+]c2c1
REMARK SMILES IDX 10 1 20 2 21 3 22 4 2 5 3 6 4 7 6 8 7 9 8 10 11 11 12 12
REMARK SMILES IDX 13 13 19 14 15 15 17 16 14 17 16 19 18 21 9 23 1 25 5 27
REMARK H PARENT 14 18 16 20 18 22 9 24 1 26 5 28
REMARK Flexibility Score: inf
ROOT
ATOM      1  C   UNL     1      84.006  64.467   8.966  1.00  0.00     0.402 A 
ATOM      2  O   UNL     1      84.502  63.272   9.278  1.00  0.00    -0.202 OA
ATOM      3  C   UNL     1      85.402  63.083  10.236  1.00  0.00     0.368 A 
ATOM      4  C   UNL     1      85.861  61.789  10.492  1.00  0.00     0.162 A 
ATOM      5  C   UNL     1      86.804  61.559  11.494  1.00  0.00     0.128 A 
ATOM      6  C   UNL     1      87.292  62.631  12.250  1.00  0.00     0.093 A 
ATOM      7  C   UNL     1      86.847  63.939  12.014  1.00  0.00     0.136 A 
ATOM      8  C   UNL     1      85.891  64.175  10.993  1.00  0.00     0.125 A 
ATOM      9  C   UNL     1      85.398  65.452  10.678  1.00  0.00     0.078 A 
ATOM     10  C   UNL     1      84.458  65.608   9.654  1.00  0.00     0.223 A 
ENDROOT
BRANCH   1  11
ATOM     11  C   UNL     1      83.000  64.547   7.884  1.00  0.00     0.091 A 
ATOM     12  C   UNL     1      81.692  64.062   8.061  1.00  0.00     0.068 A 
ATOM     13  C   UNL     1      80.760  64.127   7.017  1.00  0.00     0.162 A 
ATOM     14  C   UNL     1      83.371  65.066   6.633  1.00  0.00     0.068 A 
ATOM     15  C   UNL     1      81.135  64.669   5.776  1.00  0.00     0.200 A 
ATOM     16  C   UNL     1      82.446  65.135   5.586  1.00  0.00     0.162 A 
BRANCH  13  17
ATOM     17  O   UNL     1      79.464  63.649   7.207  1.00  0.00    -0.504 OA
ATOM     18  H   UNL     1      79.288  62.733   7.605  1.00  0.00     0.293 HD
ENDBRANCH  13  17
BRANCH  15  19
ATOM     19  O   UNL     1      80.217  64.745   4.727  1.00  0.00    -0.502 OA
ATOM     20  H   UNL     1      79.224  64.862   4.885  1.00  0.00     0.293 HD
ENDBRANCH  15  19
BRANCH  16  21
ATOM     21  O   UNL     1      82.852  65.671   4.363  1.00  0.00    -0.504 OA
ATOM     22  H   UNL     1      82.372  66.453   3.933  1.00  0.00     0.293 HD
ENDBRANCH  16  21
ENDBRANCH   1  11
BRANCH  10  23
ATOM     23  O   UNL     1      84.008  66.882   9.307  1.00  0.00    -0.500 OA
ATOM     24  H   UNL     1      84.650  67.637   9.099  1.00  0.00     0.294 HD
ENDBRANCH  10  23
BRANCH   5  25
ATOM     25  O   UNL     1      87.250  60.261  11.734  1.00  0.00    -0.507 OA
ATOM     26  H   UNL     1      87.826  60.038  12.537  1.00  0.00     0.293 HD
ENDBRANCH   5  25
BRANCH   7  27
ATOM     27  O   UNL     1      87.381  64.954  12.813  1.00  0.00    -0.507 OA
ATOM     28  H   UNL     1      88.269  65.404  12.646  1.00  0.00     0.293 HD
ENDBRANCH   7  27
TORSDOF 7
ENDMDL
MODEL 5
REMARK VINA RESULT:    -7.238      7.792     11.307
REMARK INTER + INTRA:          -9.229
REMARK INTER:                  -8.845
REMARK INTRA:                  -0.384
REMARK UNBOUND:                -0.298
REMARK SMILES Oc1cc(O)c2cc(O)c(-c3cc(O)c(O)c(O)c3)[o+]c2c1
REMARK SMILES IDX 10 1 20 2 21 3 22 4 2 5 3 6 4 7 6 8 7 9 8 10 11 11 12 12
REMARK SMILES IDX 13 13 19 14 15 15 17 16 14 17 16 19 18 21 9 23 1 25 5 27
REMARK H PARENT 14 18 16 20 18 22 9 24 1 26 5 28
REMARK Flexibility Score: inf
ROOT
ATOM      1  C   UNL     1      76.305  62.295   2.369  1.00  0.00     0.402 A 
ATOM      2  O   UNL     1      77.471  62.754   1.923  1.00  0.00    -0.202 OA
ATOM      3  C   UNL     1      78.587  62.736   2.644  1.00  0.00     0.368 A 
ATOM      4  C   UNL     1      79.765  63.239   2.086  1.00  0.00     0.162 A 
ATOM      5  C   UNL     1      80.953  63.231   2.818  1.00  0.00     0.128 A 
ATOM      6  C   UNL     1      80.965  62.714   4.119  1.00  0.00     0.093 A 
ATOM      7  C   UNL     1      79.798  62.203   4.700  1.00  0.00     0.136 A 
ATOM      8  C   UNL     1      78.588  62.213   3.959  1.00  0.00     0.125 A 
ATOM      9  C   UNL     1      77.369  61.734   4.466  1.00  0.00     0.078 A 
ATOM     10  C   UNL     1      76.215  61.781   3.676  1.00  0.00     0.223 A 
ENDROOT
BRANCH   1  11
ATOM     11  C   UNL     1      75.134  62.361   1.467  1.00  0.00     0.091 A 
ATOM     12  C   UNL     1      74.821  61.304   0.595  1.00  0.00     0.068 A 
ATOM     13  C   UNL     1      73.720  61.395  -0.269  1.00  0.00     0.162 A 
ATOM     14  C   UNL     1      74.350  63.525   1.437  1.00  0.00     0.068 A 
ATOM     15  C   UNL     1      72.928  62.555  -0.275  1.00  0.00     0.200 A 
ATOM     16  C   UNL     1      73.249  63.623   0.580  1.00  0.00     0.162 A 
BRANCH  13  17
ATOM     17  O   UNL     1      73.416  60.337  -1.125  1.00  0.00    -0.504 OA
ATOM     18  H   UNL     1      72.490  60.223  -1.521  1.00  0.00     0.293 HD
ENDBRANCH  13  17
BRANCH  15  19
ATOM     19  O   UNL     1      71.826  62.660  -1.125  1.00  0.00    -0.502 OA
ATOM     20  H   UNL     1      71.438  61.859  -1.608  1.00  0.00     0.293 HD
ENDBRANCH  15  19
BRANCH  16  21
ATOM     21  O   UNL     1      72.487  64.792   0.592  1.00  0.00    -0.504 OA
ATOM     22  H   UNL     1      71.679  64.901   1.193  1.00  0.00     0.293 HD
ENDBRANCH  16  21
ENDBRANCH   1  11
BRANCH  10  23
ATOM     23  O   UNL     1      74.994  61.352   4.197  1.00  0.00    -0.500 OA
ATOM     24  H   UNL     1      74.920  60.519   4.768  1.00  0.00     0.294 HD
ENDBRANCH  10  23
BRANCH   5  25
ATOM     25  O   UNL     1      82.116  63.738   2.245  1.00  0.00    -0.507 OA
ATOM     26  H   UNL     1      82.123  64.625   1.754  1.00  0.00     0.293 HD
ENDBRANCH   5  25
BRANCH   7  27
ATOM     27  O   UNL     1      79.894  61.701   6.002  1.00  0.00    -0.507 OA
ATOM     28  H   UNL     1      80.708  61.235   6.375  1.00  0.00     0.293 HD
ENDBRANCH   7  27
TORSDOF 7
ENDMDL
MODEL 6
REMARK VINA RESULT:    -7.237      2.170      7.329
REMARK INTER + INTRA:          -9.228
REMARK INTER:                  -8.868
REMARK INTRA:                  -0.360
REMARK UNBOUND:                -0.298
REMARK SMILES Oc1cc(O)c2cc(O)c(-c3cc(O)c(O)c(O)c3)[o+]c2c1
REMARK SMILES IDX 10 1 20 2 21 3 22 4 2 5 3 6 4 7 6 8 7 9 8 10 11 11 12 12
REMARK SMILES IDX 13 13 19 14 15 15 17 16 14 17 16 19 18 21 9 23 1 25 5 27
REMARK H PARENT 14 18 16 20 18 22 9 24 1 26 5 28
REMARK Flexibility Score: inf
ROOT
ATOM      1  C   UNL     1      82.823  64.544   8.426  1.00  0.00     0.402 A 
ATOM      2  O   UNL     1      82.958  64.929   7.159  1.00  0.00    -0.202 OA
ATOM      3  C   UNL     1      82.037  64.711   6.227  1.00  0.00     0.368 A 
ATOM      4  C   UNL     1      82.269  65.156   4.924  1.00  0.00     0.162 A 
ATOM      5  C   UNL     1      81.319  64.945   3.925  1.00  0.00     0.128 A 
ATOM      6  C   UNL     1      80.123  64.284   4.231  1.00  0.00     0.093 A 
ATOM      7  C   UNL     1      79.865  63.829   5.531  1.00  0.00     0.136 A 
ATOM      8  C   UNL     1      80.832  64.040   6.547  1.00  0.00     0.125 A 
ATOM      9  C   UNL     1      80.664  63.608   7.873  1.00  0.00     0.078 A 
ATOM     10  C   UNL     1      81.665  63.849   8.820  1.00  0.00     0.223 A 
ENDROOT
BRANCH   1  11
ATOM     11  C   UNL     1      83.917  64.854   9.373  1.00  0.00     0.091 A 
ATOM     12  C   UNL     1      83.817  65.919  10.285  1.00  0.00     0.068 A 
ATOM     13  C   UNL     1      84.874  66.210  11.159  1.00  0.00     0.162 A 
ATOM     14  C   UNL     1      85.104  64.106   9.324  1.00  0.00     0.068 A 
ATOM     15  C   UNL     1      86.049  65.441  11.118  1.00  0.00     0.200 A 
ATOM     16  C   UNL     1      86.162  64.389  10.194  1.00  0.00     0.162 A 
BRANCH  13  17
ATOM     17  O   UNL     1      84.760  67.265  12.063  1.00  0.00    -0.504 OA
ATOM     18  H   UNL     1      85.188  68.167  11.885  1.00  0.00     0.293 HD
ENDBRANCH  13  17
BRANCH  15  19
ATOM     19  O   UNL     1      87.108  65.715  11.984  1.00  0.00    -0.502 OA
ATOM     20  H   UNL     1      87.657  64.981  12.416  1.00  0.00     0.293 HD
ENDBRANCH  15  19
BRANCH  16  21
ATOM     21  O   UNL     1      87.319  63.612  10.123  1.00  0.00    -0.504 OA
ATOM     22  H   UNL     1      87.316  62.621  10.335  1.00  0.00     0.293 HD
ENDBRANCH  16  21
ENDBRANCH   1  11
BRANCH  10  23
ATOM     23  O   UNL     1      81.521  63.375  10.124  1.00  0.00    -0.500 OA
ATOM     24  H   UNL     1      80.710  63.601  10.688  1.00  0.00     0.294 HD
ENDBRANCH  10  23
BRANCH   5  25
ATOM     25  O   UNL     1      81.570  65.395   2.631  1.00  0.00    -0.507 OA
ATOM     26  H   UNL     1      81.401  66.358   2.362  1.00  0.00     0.293 HD
ENDBRANCH   5  25
BRANCH   7  27
ATOM     27  O   UNL     1      78.646  63.182   5.756  1.00  0.00    -0.507 OA
ATOM     28  H   UNL     1      78.524  62.180   5.754  1.00  0.00     0.293 HD
ENDBRANCH   7  27
TORSDOF 7
ENDMDL
MODEL 7
REMARK VINA RESULT:    -7.214      2.146      7.392
REMARK INTER + INTRA:          -9.199
REMARK INTER:                  -8.866
REMARK INTRA:                  -0.333
REMARK UNBOUND:                -0.298
REMARK SMILES Oc1cc(O)c2cc(O)c(-c3cc(O)c(O)c(O)c3)[o+]c2c1
REMARK SMILES IDX 10 1 20 2 21 3 22 4 2 5 3 6 4 7 6 8 7 9 8 10 11 11 12 12
REMARK SMILES IDX 13 13 19 14 15 15 17 16 14 17 16 19 18 21 9 23 1 25 5 27
REMARK H PARENT 14 18 16 20 18 22 9 24 1 26 5 28
REMARK Flexibility Score: inf
ROOT
ATOM      1  C   UNL     1      82.867  64.524   8.383  1.00  0.00     0.402 A 
ATOM      2  O   UNL     1      82.984  64.883   7.107  1.00  0.00    -0.202 OA
ATOM      3  C   UNL     1      82.039  64.667   6.199  1.00  0.00     0.368 A 
ATOM      4  C   UNL     1      82.252  65.083   4.883  1.00  0.00     0.162 A 
ATOM      5  C   UNL     1      81.277  64.872   3.908  1.00  0.00     0.128 A 
ATOM      6  C   UNL     1      80.075  64.242   4.251  1.00  0.00     0.093 A 
ATOM      7  C   UNL     1      79.836  63.816   5.564  1.00  0.00     0.136 A 
ATOM      8  C   UNL     1      80.828  64.026   6.556  1.00  0.00     0.125 A 
ATOM      9  C   UNL     1      80.680  63.622   7.893  1.00  0.00     0.078 A 
ATOM     10  C   UNL     1      81.704  63.859   8.815  1.00  0.00     0.223 A 
ENDROOT
BRANCH   1  11
ATOM     11  C   UNL     1      83.987  64.829   9.302  1.00  0.00     0.091 A 
ATOM     12  C   UNL     1      85.155  64.047   9.318  1.00  0.00     0.068 A 
ATOM     13  C   UNL     1      86.195  64.338  10.211  1.00  0.00     0.162 A 
ATOM     14  C   UNL     1      83.861  65.886  10.216  1.00  0.00     0.068 A 
ATOM     15  C   UNL     1      86.069  65.412  11.107  1.00  0.00     0.200 A 
ATOM     16  C   UNL     1      84.896  66.184  11.110  1.00  0.00     0.162 A 
BRANCH  13  17
ATOM     17  O   UNL     1      87.351  63.558  10.213  1.00  0.00    -0.504 OA
ATOM     18  H   UNL     1      88.131  63.765  10.827  1.00  0.00     0.293 HD
ENDBRANCH  13  17
BRANCH  15  19
ATOM     19  O   UNL     1      87.098  65.718  12.000  1.00  0.00    -0.502 OA
ATOM     20  H   UNL     1      87.034  65.512  12.989  1.00  0.00     0.293 HD
ENDBRANCH  15  19
BRANCH  16  21
ATOM     21  O   UNL     1      84.736  67.253  11.993  1.00  0.00    -0.504 OA
ATOM     22  H   UNL     1      85.057  68.188  11.770  1.00  0.00     0.293 HD
ENDBRANCH  16  21
ENDBRANCH   1  11
BRANCH  10  23
ATOM     23  O   UNL     1      81.579  63.412  10.130  1.00  0.00    -0.500 OA
ATOM     24  H   UNL     1      82.171  63.767  10.872  1.00  0.00     0.294 HD
ENDBRANCH  10  23
BRANCH   5  25
ATOM     25  O   UNL     1      81.509  65.294   2.601  1.00  0.00    -0.507 OA
ATOM     26  H   UNL     1      82.378  65.743   2.335  1.00  0.00     0.293 HD
ENDBRANCH   5  25
BRANCH   7  27
ATOM     27  O   UNL     1      78.610  63.197   5.826  1.00  0.00    -0.507 OA
ATOM     28  H   UNL     1      78.459  62.517   6.556  1.00  0.00     0.293 HD
ENDBRANCH   7  27
TORSDOF 7
ENDMDL
MODEL 8
REMARK VINA RESULT:    -7.103      8.648     13.429
REMARK INTER + INTRA:          -9.062
REMARK INTER:                  -8.772
REMARK INTRA:                  -0.290
REMARK UNBOUND:                -0.298
REMARK SMILES Oc1cc(O)c2cc(O)c(-c3cc(O)c(O)c(O)c3)[o+]c2c1
REMARK SMILES IDX 10 1 20 2 21 3 22 4 2 5 3 6 4 7 6 8 7 9 8 10 11 11 12 12
REMARK SMILES IDX 13 13 19 14 15 15 17 16 14 17 16 19 18 21 9 23 1 25 5 27
REMARK H PARENT 14 18 16 20 18 22 9 24 1 26 5 28
REMARK Flexibility Score: inf
ROOT
ATOM      1  C   UNL     1      76.272  62.349   1.075  1.00  0.00     0.402 A 
ATOM      2  O   UNL     1      75.238  62.286   1.911  1.00  0.00    -0.202 OA
ATOM      3  C   UNL     1      74.097  61.672   1.616  1.00  0.00     0.368 A 
ATOM      4  C   UNL     1      73.069  61.658   2.562  1.00  0.00     0.162 A 
ATOM      5  C   UNL     1      71.861  61.019   2.283  1.00  0.00     0.128 A 
ATOM      6  C   UNL     1      71.677  60.387   1.047  1.00  0.00     0.093 A 
ATOM      7  C   UNL     1      72.693  60.386   0.082  1.00  0.00     0.136 A 
ATOM      8  C   UNL     1      73.921  61.038   0.363  1.00  0.00     0.125 A 
ATOM      9  C   UNL     1      74.989  61.099  -0.548  1.00  0.00     0.078 A 
ATOM     10  C   UNL     1      76.169  61.765  -0.202  1.00  0.00     0.223 A 
ENDROOT
BRANCH   1  11
ATOM     11  C   UNL     1      77.493  63.053   1.523  1.00  0.00     0.091 A 
ATOM     12  C   UNL     1      77.856  64.302   0.988  1.00  0.00     0.068 A 
ATOM     13  C   UNL     1      79.030  64.943   1.409  1.00  0.00     0.162 A 
ATOM     14  C   UNL     1      78.340  62.440   2.459  1.00  0.00     0.068 A 
ATOM     15  C   UNL     1      79.859  64.331   2.364  1.00  0.00     0.200 A 
ATOM     16  C   UNL     1      79.512  63.074   2.886  1.00  0.00     0.162 A 
BRANCH  13  17
ATOM     17  O   UNL     1      79.376  66.184   0.876  1.00  0.00    -0.504 OA
ATOM     18  H   UNL     1      79.109  66.453  -0.064  1.00  0.00     0.293 HD
ENDBRANCH  13  17
BRANCH  15  19
ATOM     19  O   UNL     1      81.028  64.958   2.797  1.00  0.00    -0.502 OA
ATOM     20  H   UNL     1      81.033  65.627   3.558  1.00  0.00     0.293 HD
ENDBRANCH  15  19
BRANCH  16  21
ATOM     21  O   UNL     1      80.318  62.436   3.829  1.00  0.00    -0.504 OA
ATOM     22  H   UNL     1      81.058  62.922   4.321  1.00  0.00     0.293 HD
ENDBRANCH  16  21
ENDBRANCH   1  11
BRANCH  10  23
ATOM     23  O   UNL     1      77.209  61.870  -1.125  1.00  0.00    -0.500 OA
ATOM     24  H   UNL     1      77.201  61.357  -1.999  1.00  0.00     0.294 HD
ENDBRANCH  10  23
BRANCH   5  25
ATOM     25  O   UNL     1      70.848  61.016   3.238  1.00  0.00    -0.507 OA
ATOM     26  H   UNL     1      70.998  60.645   4.170  1.00  0.00     0.293 HD
ENDBRANCH   5  25
BRANCH   7  27
ATOM     27  O   UNL     1      72.433  59.731  -1.125  1.00  0.00    -0.507 OA
ATOM     28  H   UNL     1      71.589  59.846  -1.667  1.00  0.00     0.293 HD
ENDBRANCH   7  27
TORSDOF 7
ENDMDL
MODEL 9
REMARK VINA RESULT:    -7.066      8.013     13.234
REMARK INTER + INTRA:          -9.016
REMARK INTER:                  -8.659
REMARK INTRA:                  -0.357
REMARK UNBOUND:                -0.298
REMARK SMILES Oc1cc(O)c2cc(O)c(-c3cc(O)c(O)c(O)c3)[o+]c2c1
REMARK SMILES IDX 10 1 20 2 21 3 22 4 2 5 3 6 4 7 6 8 7 9 8 10 11 11 12 12
REMARK SMILES IDX 13 13 19 14 15 15 17 16 14 17 16 19 18 21 9 23 1 25 5 27
REMARK H PARENT 14 18 16 20 18 22 9 24 1 26 5 28
REMARK Flexibility Score: inf
ROOT
ATOM      1  C   UNL     1      76.885  62.158   1.740  1.00  0.00     0.402 A 
ATOM      2  O   UNL     1      76.007  63.130   1.503  1.00  0.00    -0.202 OA
ATOM      3  C   UNL     1      74.903  62.956   0.784  1.00  0.00     0.368 A 
ATOM      4  C   UNL     1      74.040  64.038   0.592  1.00  0.00     0.162 A 
ATOM      5  C   UNL     1      72.871  63.885  -0.155  1.00  0.00     0.128 A 
ATOM      6  C   UNL     1      72.561  62.640  -0.715  1.00  0.00     0.093 A 
ATOM      7  C   UNL     1      73.409  61.540  -0.536  1.00  0.00     0.136 A 
ATOM      8  C   UNL     1      74.599  61.693   0.220  1.00  0.00     0.125 A 
ATOM      9  C   UNL     1      75.514  60.650   0.440  1.00  0.00     0.078 A 
ATOM     10  C   UNL     1      76.670  60.879   1.195  1.00  0.00     0.223 A 
ENDROOT
BRANCH   1  11
ATOM     11  C   UNL     1      78.073  62.474   2.564  1.00  0.00     0.091 A 
ATOM     12  C   UNL     1      79.209  63.086   2.007  1.00  0.00     0.068 A 
ATOM     13  C   UNL     1      80.333  63.357   2.800  1.00  0.00     0.162 A 
ATOM     14  C   UNL     1      78.092  62.104   3.918  1.00  0.00     0.068 A 
ATOM     15  C   UNL     1      80.334  63.003   4.159  1.00  0.00     0.200 A 
ATOM     16  C   UNL     1      79.209  62.372   4.716  1.00  0.00     0.162 A 
BRANCH  13  17
ATOM     17  O   UNL     1      81.451  63.971   2.237  1.00  0.00    -0.504 OA
ATOM     18  H   UNL     1      81.419  64.395   1.317  1.00  0.00     0.293 HD
ENDBRANCH  13  17
BRANCH  15  19
ATOM     19  O   UNL     1      81.443  63.270   4.963  1.00  0.00    -0.502 OA
ATOM     20  H   UNL     1      82.333  62.806   4.826  1.00  0.00     0.293 HD
ENDBRANCH  15  19
BRANCH  16  21
ATOM     21  O   UNL     1      79.182  62.001   6.060  1.00  0.00    -0.504 OA
ATOM     22  H   UNL     1      79.346  62.667   6.806  1.00  0.00     0.293 HD
ENDBRANCH  16  21
ENDBRANCH   1  11
BRANCH  10  23
ATOM     23  O   UNL     1      77.603  59.858   1.370  1.00  0.00    -0.500 OA
ATOM     24  H   UNL     1      77.321  58.907   1.579  1.00  0.00     0.294 HD
ENDBRANCH  10  23
BRANCH   5  25
ATOM     25  O   UNL     1      72.024  64.976  -0.336  1.00  0.00    -0.507 OA
ATOM     26  H   UNL     1      71.502  65.105  -1.196  1.00  0.00     0.293 HD
ENDBRANCH   5  25
BRANCH   7  27
ATOM     27  O   UNL     1      73.027  60.331  -1.124  1.00  0.00    -0.507 OA
ATOM     28  H   UNL     1      72.325  59.710  -0.748  1.00  0.00     0.293 HD
ENDBRANCH   7  27
TORSDOF 7
ENDMDL
