MODEL 1
REMARK VINA RESULT:    -0.172      0.000      0.000
REMARK INTER + INTRA:          -0.490
REMARK INTER:                  -0.187
REMARK INTRA:                  -0.303
REMARK UNBOUND:                -0.303
REMARK SMILES CC1(C)CC[C@]2(C(=O)[O-])CC[C@]3(C)C(=CC[C@H]4[C@@]5(C)CC[C@@H](O)C(C)(C)[C@@H]5CC[C@]43C)[C@@H]2C1
REMARK SMILES IDX 6 1 5 2 10 3 32 4 4 5 11 6 14 7 33 8 2 9 12 10 15 11 1 12
REMARK SMILES IDX 3 13 13 14 30 15 16 16 17 17 29 18 31 19 18 20 28 21 27 22
REMARK SMILES IDX 20 23 19 24 24 25 21 26 22 27 25 28 26 29 7 30 8 31 9 32
REMARK SMILES IDX 23 33
REMARK H PARENT 23 34
REMARK Flexibility Score: inf
ROOT
ATOM      1  C   UNL     1      24.566  25.516  48.132  1.00  0.00     0.017 C 
ATOM      2  C   UNL     1      25.150  24.823  46.875  1.00  0.00     0.014 C 
ATOM      3  C   UNL     1      23.494  26.573  47.721  1.00  0.00     0.014 C 
ATOM      4  C   UNL     1      25.732  26.180  48.973  1.00  0.00     0.028 C 
ATOM      5  C   UNL     1      26.195  23.757  47.248  1.00  0.00     0.007 C 
ATOM      6  C   UNL     1      24.020  27.884  47.108  1.00  0.00     0.013 C 
ATOM      7  C   UNL     1      25.533  27.713  49.098  1.00  0.00    -0.064 C 
ATOM      8  C   UNL     1      27.178  25.779  48.548  1.00  0.00     0.015 C 
ATOM      9  C   UNL     1      27.360  24.281  48.160  1.00  0.00    -0.035 C 
ATOM     10  C   UNL     1      25.241  28.569  47.843  1.00  0.00    -0.006 C 
ATOM     11  C   UNL     1      25.183  28.148  50.320  1.00  0.00    -0.027 C 
ATOM     12  C   UNL     1      27.473  23.423  49.440  1.00  0.00     0.011 C 
ATOM     13  C   UNL     1      28.698  24.135  47.396  1.00  0.00     0.011 C 
ATOM     14  C   UNL     1      26.476  28.494  46.887  1.00  0.00     0.017 C 
ATOM     15  C   UNL     1      24.954  30.140  48.167  1.00  0.00    -0.020 C 
ATOM     16  C   UNL     1      24.563  29.460  50.635  1.00  0.00     0.032 C 
ATOM     17  C   UNL     1      24.019  30.298  49.441  1.00  0.00     0.006 C 
ATOM     18  C   UNL     1      26.271  30.933  48.478  1.00  0.00     0.008 C 
ATOM     19  C   UNL     1      24.308  30.776  46.876  1.00  0.00     0.012 C 
ATOM     20  C   UNL     1      23.742  31.819  49.900  1.00  0.00    -0.025 C 
ATOM     21  C   UNL     1      26.063  32.409  48.886  1.00  0.00     0.005 C 
ATOM     22  C   UNL     1      25.119  32.569  50.098  1.00  0.00     0.003 C 
ATOM     23  C   UNL     1      22.981  31.869  51.271  1.00  0.00     0.010 C 
ATOM     24  C   UNL     1      22.805  32.499  48.849  1.00  0.00     0.012 C 
ATOM     25  C   UNL     1      25.031  34.035  50.694  1.00  0.00    -0.006 C 
ATOM     26  C   UNL     1      22.839  33.287  51.864  1.00  0.00     0.033 C 
ATOM     27  C   UNL     1      24.200  33.995  52.022  1.00  0.00     0.120 C 
ATOM     28  C   UNL     1      24.426  35.079  49.718  1.00  0.00     0.014 C 
ATOM     29  C   UNL     1      26.455  34.553  51.046  1.00  0.00     0.014 C 
ENDROOT
BRANCH   1  30
ATOM     30  C   UNL     1      23.790  24.452  48.927  1.00  0.00     0.048 C 
ATOM     31  O   UNL     1      24.064  24.262  50.147  1.00  0.00    -0.550 OA
ATOM     32  O   UNL     1      22.783  23.678  48.358  1.00  0.00    -0.550 OA
ENDBRANCH   1  30
BRANCH  27  33
ATOM     33  O   UNL     1      24.933  33.350  53.035  1.00  0.00    -0.393 OA
ATOM     34  H   UNL     1      25.476  32.642  52.600  1.00  0.00     0.210 HD
ENDBRANCH  27  33
TORSDOF 2
ENDMDL
MODEL 2
REMARK VINA RESULT:    -0.169      3.851      8.272
REMARK INTER + INTRA:          -0.487
REMARK INTER:                  -0.184
REMARK INTRA:                  -0.303
REMARK UNBOUND:                -0.303
REMARK SMILES CC1(C)CC[C@]2(C(=O)[O-])CC[C@]3(C)C(=CC[C@H]4[C@@]5(C)CC[C@@H](O)C(C)(C)[C@@H]5CC[C@]43C)[C@@H]2C1
REMARK SMILES IDX 6 1 5 2 10 3 32 4 4 5 11 6 14 7 33 8 2 9 12 10 15 11 1 12
REMARK SMILES IDX 3 13 13 14 30 15 16 16 17 17 29 18 31 19 18 20 28 21 27 22
REMARK SMILES IDX 20 23 19 24 24 25 21 26 22 27 25 28 26 29 7 30 8 31 9 32
REMARK SMILES IDX 23 33
REMARK H PARENT 23 34
REMARK Flexibility Score: inf
ROOT
ATOM      1  C   UNL     1      23.398  27.083  47.788  1.00  0.00     0.017 C 
ATOM      2  C   UNL     1      22.208  26.692  46.878  1.00  0.00     0.014 C 
ATOM      3  C   UNL     1      24.752  26.787  47.071  1.00  0.00     0.014 C 
ATOM      4  C   UNL     1      23.302  26.311  49.168  1.00  0.00     0.028 C 
ATOM      5  C   UNL     1      20.857  26.994  47.550  1.00  0.00     0.007 C 
ATOM      6  C   UNL     1      25.170  25.307  46.974  1.00  0.00     0.013 C 
ATOM      7  C   UNL     1      24.543  25.411  49.398  1.00  0.00    -0.064 C 
ATOM      8  C   UNL     1      21.950  25.578  49.431  1.00  0.00     0.015 C 
ATOM      9  C   UNL     1      20.679  26.350  48.970  1.00  0.00    -0.035 C 
ATOM     10  C   UNL     1      25.024  24.443  48.291  1.00  0.00    -0.006 C 
ATOM     11  C   UNL     1      25.389  25.833  50.353  1.00  0.00    -0.027 C 
ATOM     12  C   UNL     1      20.322  27.433  50.013  1.00  0.00     0.011 C 
ATOM     13  C   UNL     1      19.494  25.356  48.924  1.00  0.00     0.011 C 
ATOM     14  C   UNL     1      23.909  23.376  48.039  1.00  0.00     0.017 C 
ATOM     15  C   UNL     1      26.401  23.653  48.657  1.00  0.00    -0.020 C 
ATOM     16  C   UNL     1      26.802  25.410  50.516  1.00  0.00     0.032 C 
ATOM     17  C   UNL     1      27.454  24.626  49.339  1.00  0.00     0.006 C 
ATOM     18  C   UNL     1      26.159  22.476  49.666  1.00  0.00     0.008 C 
ATOM     19  C   UNL     1      26.954  23.027  47.318  1.00  0.00     0.012 C 
ATOM     20  C   UNL     1      28.823  23.922  49.820  1.00  0.00    -0.025 C 
ATOM     21  C   UNL     1      27.439  21.742  50.129  1.00  0.00     0.005 C 
ATOM     22  C   UNL     1      28.483  22.693  50.754  1.00  0.00     0.003 C 
ATOM     23  C   UNL     1      29.708  24.913  50.654  1.00  0.00     0.010 C 
ATOM     24  C   UNL     1      29.661  23.536  48.557  1.00  0.00     0.012 C 
ATOM     25  C   UNL     1      29.722  21.977  51.436  1.00  0.00    -0.006 C 
ATOM     26  C   UNL     1      30.949  24.260  51.301  1.00  0.00     0.033 C 
ATOM     27  C   UNL     1      30.581  23.052  52.187  1.00  0.00     0.120 C 
ATOM     28  C   UNL     1      30.613  21.179  50.448  1.00  0.00     0.014 C 
ATOM     29  C   UNL     1      29.227  20.949  52.493  1.00  0.00     0.014 C 
ENDROOT
BRANCH   1  30
ATOM     30  C   UNL     1      23.367  28.612  47.958  1.00  0.00     0.048 C 
ATOM     31  O   UNL     1      23.352  29.110  49.121  1.00  0.00    -0.550 OA
ATOM     32  O   UNL     1      23.357  29.486  46.875  1.00  0.00    -0.550 OA
ENDBRANCH   1  30
BRANCH  27  33
ATOM     33  O   UNL     1      29.893  23.515  53.324  1.00  0.00    -0.393 OA
ATOM     34  H   UNL     1      29.519  24.407  53.099  1.00  0.00     0.210 HD
ENDBRANCH  27  33
TORSDOF 2
ENDMDL
MODEL 3
REMARK VINA RESULT:    -0.166      2.294      3.378
REMARK INTER + INTRA:          -0.483
REMARK INTER:                  -0.201
REMARK INTRA:                  -0.282
REMARK UNBOUND:                -0.303
REMARK SMILES CC1(C)CC[C@]2(C(=O)[O-])CC[C@]3(C)C(=CC[C@H]4[C@@]5(C)CC[C@@H](O)C(C)(C)[C@@H]5CC[C@]43C)[C@@H]2C1
REMARK SMILES IDX 6 1 5 2 10 3 32 4 4 5 11 6 14 7 33 8 2 9 12 10 15 11 1 12
REMARK SMILES IDX 3 13 13 14 30 15 16 16 17 17 29 18 31 19 18 20 28 21 27 22
REMARK SMILES IDX 20 23 19 24 24 25 21 26 22 27 25 28 26 29 7 30 8 31 9 32
REMARK SMILES IDX 23 33
REMARK H PARENT 23 34
REMARK Flexibility Score: inf
ROOT
ATOM      1  C   UNL     1      23.926  23.509  48.025  1.00  0.00     0.017 C 
ATOM      2  C   UNL     1      25.308  22.881  47.720  1.00  0.00     0.014 C 
ATOM      3  C   UNL     1      23.523  24.510  46.898  1.00  0.00     0.014 C 
ATOM      4  C   UNL     1      23.955  24.221  49.439  1.00  0.00     0.028 C 
ATOM      5  C   UNL     1      25.724  21.869  48.803  1.00  0.00     0.007 C 
ATOM      6  C   UNL     1      24.259  25.864  46.886  1.00  0.00     0.013 C 
ATOM      7  C   UNL     1      23.651  25.736  49.314  1.00  0.00    -0.064 C 
ATOM      8  C   UNL     1      25.208  23.915  50.318  1.00  0.00     0.015 C 
ATOM      9  C   UNL     1      25.705  22.440  50.265  1.00  0.00    -0.035 C 
ATOM     10  C   UNL     1      24.405  26.603  48.277  1.00  0.00    -0.006 C 
ATOM     11  C   UNL     1      22.454  26.122  49.787  1.00  0.00    -0.027 C 
ATOM     12  C   UNL     1      24.821  21.560  51.178  1.00  0.00     0.011 C 
ATOM     13  C   UNL     1      27.141  22.389  50.840  1.00  0.00     0.011 C 
ATOM     14  C   UNL     1      25.923  26.622  48.649  1.00  0.00     0.017 C 
ATOM     15  C   UNL     1      23.887  28.146  48.205  1.00  0.00    -0.020 C 
ATOM     16  C   UNL     1      21.752  27.387  49.458  1.00  0.00     0.032 C 
ATOM     17  C   UNL     1      22.302  28.219  48.262  1.00  0.00     0.006 C 
ATOM     18  C   UNL     1      24.419  29.007  49.403  1.00  0.00     0.008 C 
ATOM     19  C   UNL     1      24.461  28.772  46.875  1.00  0.00     0.012 C 
ATOM     20  C   UNL     1      21.688  29.711  48.284  1.00  0.00    -0.025 C 
ATOM     21  C   UNL     1      23.890  30.459  49.448  1.00  0.00     0.005 C 
ATOM     22  C   UNL     1      22.347  30.535  49.460  1.00  0.00     0.003 C 
ATOM     23  C   UNL     1      20.141  29.684  48.542  1.00  0.00     0.010 C 
ATOM     24  C   UNL     1      21.891  30.359  46.875  1.00  0.00     0.012 C 
ATOM     25  C   UNL     1      21.747  31.979  49.716  1.00  0.00    -0.006 C 
ATOM     26  C   UNL     1      19.512  31.078  48.755  1.00  0.00     0.033 C 
ATOM     27  C   UNL     1      20.194  31.861  49.895  1.00  0.00     0.120 C 
ATOM     28  C   UNL     1      22.078  33.008  48.603  1.00  0.00     0.014 C 
ATOM     29  C   UNL     1      22.328  32.572  51.033  1.00  0.00     0.014 C 
ENDROOT
BRANCH   1  30
ATOM     30  C   UNL     1      22.880  22.384  47.947  1.00  0.00     0.048 C 
ATOM     31  O   UNL     1      22.752  21.724  46.875  1.00  0.00    -0.550 OA
ATOM     32  O   UNL     1      22.057  22.050  49.019  1.00  0.00    -0.550 OA
ENDBRANCH   1  30
BRANCH  27  33
ATOM     33  O   UNL     1      19.893  31.236  51.120  1.00  0.00    -0.393 OA
ATOM     34  H   UNL     1      20.462  30.425  51.185  1.00  0.00     0.210 HD
ENDBRANCH  27  33
TORSDOF 2
ENDMDL
MODEL 4
REMARK VINA RESULT:    -0.161      1.692      8.109
REMARK INTER + INTRA:          -0.478
REMARK INTER:                  -0.175
REMARK INTRA:                  -0.303
REMARK UNBOUND:                -0.303
REMARK SMILES CC1(C)CC[C@]2(C(=O)[O-])CC[C@]3(C)C(=CC[C@H]4[C@@]5(C)CC[C@@H](O)C(C)(C)[C@@H]5CC[C@]43C)[C@@H]2C1
REMARK SMILES IDX 6 1 5 2 10 3 32 4 4 5 11 6 14 7 33 8 2 9 12 10 15 11 1 12
REMARK SMILES IDX 3 13 13 14 30 15 16 16 17 17 29 18 31 19 18 20 28 21 27 22
REMARK SMILES IDX 20 23 19 24 24 25 21 26 22 27 25 28 26 29 7 30 8 31 9 32
REMARK SMILES IDX 23 33
REMARK H PARENT 23 34
REMARK Flexibility Score: inf
ROOT
ATOM      1  C   UNL     1      25.504  31.344  50.622  1.00  0.00     0.017 C 
ATOM      2  C   UNL     1      26.144  32.503  49.819  1.00  0.00     0.014 C 
ATOM      3  C   UNL     1      26.434  30.091  50.604  1.00  0.00     0.014 C 
ATOM      4  C   UNL     1      24.073  31.004  50.034  1.00  0.00     0.028 C 
ATOM      5  C   UNL     1      25.260  33.763  49.838  1.00  0.00     0.007 C 
ATOM      6  C   UNL     1      26.488  29.295  49.287  1.00  0.00     0.013 C 
ATOM      7  C   UNL     1      24.006  29.539  49.528  1.00  0.00    -0.064 C 
ATOM      8  C   UNL     1      23.507  32.036  49.010  1.00  0.00     0.015 C 
ATOM      9  C   UNL     1      23.786  33.529  49.356  1.00  0.00    -0.035 C 
ATOM     10  C   UNL     1      25.103  28.984  48.589  1.00  0.00    -0.006 C 
ATOM     11  C   UNL     1      23.260  28.708  50.276  1.00  0.00    -0.027 C 
ATOM     12  C   UNL     1      22.783  34.009  50.429  1.00  0.00     0.011 C 
ATOM     13  C   UNL     1      23.533  34.378  48.087  1.00  0.00     0.011 C 
ATOM     14  C   UNL     1      25.060  29.778  47.243  1.00  0.00     0.017 C 
ATOM     15  C   UNL     1      24.937  27.401  48.242  1.00  0.00    -0.020 C 
ATOM     16  C   UNL     1      23.328  27.226  50.264  1.00  0.00     0.032 C 
ATOM     17  C   UNL     1      24.540  26.572  49.537  1.00  0.00     0.006 C 
ATOM     18  C   UNL     1      23.810  27.141  47.182  1.00  0.00     0.008 C 
ATOM     19  C   UNL     1      26.301  26.910  47.619  1.00  0.00     0.012 C 
ATOM     20  C   UNL     1      24.266  25.002  49.285  1.00  0.00    -0.025 C 
ATOM     21  C   UNL     1      23.535  25.651  46.875  1.00  0.00     0.005 C 
ATOM     22  C   UNL     1      23.191  24.832  48.139  1.00  0.00     0.003 C 
ATOM     23  C   UNL     1      23.691  24.313  50.571  1.00  0.00     0.010 C 
ATOM     24  C   UNL     1      25.627  24.297  48.976  1.00  0.00     0.012 C 
ATOM     25  C   UNL     1      22.696  23.351  47.867  1.00  0.00    -0.006 C 
ATOM     26  C   UNL     1      23.235  22.853  50.356  1.00  0.00     0.033 C 
ATOM     27  C   UNL     1      22.204  22.724  49.216  1.00  0.00     0.120 C 
ATOM     28  C   UNL     1      23.765  22.437  47.213  1.00  0.00     0.014 C 
ATOM     29  C   UNL     1      21.487  23.366  46.887  1.00  0.00     0.014 C 
ENDROOT
BRANCH   1  30
ATOM     30  C   UNL     1      25.452  31.778  52.097  1.00  0.00     0.048 C 
ATOM     31  O   UNL     1      24.351  31.747  52.718  1.00  0.00    -0.550 OA
ATOM     32  O   UNL     1      26.580  32.207  52.792  1.00  0.00    -0.550 OA
ENDBRANCH   1  30
BRANCH  27  33
ATOM     33  O   UNL     1      20.999  23.328  49.623  1.00  0.00    -0.393 OA
ATOM     34  H   UNL     1      20.517  22.670  50.190  1.00  0.00     0.210 HD
ENDBRANCH  27  33
TORSDOF 2
ENDMDL
MODEL 5
REMARK VINA RESULT:    -0.158      1.385      1.827
REMARK INTER + INTRA:          -0.475
REMARK INTER:                  -0.173
REMARK INTRA:                  -0.302
REMARK UNBOUND:                -0.303
REMARK SMILES CC1(C)CC[C@]2(C(=O)[O-])CC[C@]3(C)C(=CC[C@H]4[C@@]5(C)CC[C@@H](O)C(C)(C)[C@@H]5CC[C@]43C)[C@@H]2C1
REMARK SMILES IDX 6 1 5 2 10 3 32 4 4 5 11 6 14 7 33 8 2 9 12 10 15 11 1 12
REMARK SMILES IDX 3 13 13 14 30 15 16 16 17 17 29 18 31 19 18 20 28 21 27 22
REMARK SMILES IDX 20 23 19 24 24 25 21 26 22 27 25 28 26 29 7 30 8 31 9 32
REMARK SMILES IDX 23 33
REMARK H PARENT 23 34
REMARK Flexibility Score: inf
ROOT
ATOM      1  C   UNL     1      24.048  27.129  48.237  1.00  0.00     0.017 C 
ATOM      2  C   UNL     1      24.282  26.409  46.886  1.00  0.00     0.014 C 
ATOM      3  C   UNL     1      23.242  28.448  48.019  1.00  0.00     0.014 C 
ATOM      4  C   UNL     1      25.437  27.419  48.943  1.00  0.00     0.028 C 
ATOM      5  C   UNL     1      25.056  25.092  47.072  1.00  0.00     0.007 C 
ATOM      6  C   UNL     1      24.011  29.628  47.396  1.00  0.00     0.013 C 
ATOM      7  C   UNL     1      25.654  28.939  49.158  1.00  0.00    -0.064 C 
ATOM      8  C   UNL     1      26.671  26.703  48.312  1.00  0.00     0.015 C 
ATOM      9  C   UNL     1      26.415  25.240  47.841  1.00  0.00    -0.035 C 
ATOM     10  C   UNL     1      25.445  29.932  47.990  1.00  0.00    -0.006 C 
ATOM     11  C   UNL     1      25.573  29.355  50.433  1.00  0.00    -0.027 C 
ATOM     12  C   UNL     1      26.455  24.288  49.058  1.00  0.00     0.011 C 
ATOM     13  C   UNL     1      27.571  24.823  46.901  1.00  0.00     0.011 C 
ATOM     14  C   UNL     1      26.497  29.623  46.875  1.00  0.00     0.017 C 
ATOM     15  C   UNL     1      25.610  31.496  48.415  1.00  0.00    -0.020 C 
ATOM     16  C   UNL     1      25.353  30.752  50.882  1.00  0.00     0.032 C 
ATOM     17  C   UNL     1      24.904  31.786  49.807  1.00  0.00     0.006 C 
ATOM     18  C   UNL     1      27.114  31.910  48.580  1.00  0.00     0.008 C 
ATOM     19  C   UNL     1      25.000  32.367  47.249  1.00  0.00     0.012 C 
ATOM     20  C   UNL     1      25.083  33.290  50.363  1.00  0.00    -0.025 C 
ATOM     21  C   UNL     1      27.340  33.358  49.074  1.00  0.00     0.005 C 
ATOM     22  C   UNL     1      26.620  33.657  50.407  1.00  0.00     0.003 C 
ATOM     23  C   UNL     1      24.528  33.425  51.824  1.00  0.00     0.010 C 
ATOM     24  C   UNL     1      24.234  34.258  49.476  1.00  0.00     0.012 C 
ATOM     25  C   UNL     1      26.982  35.050  51.070  1.00  0.00    -0.006 C 
ATOM     26  C   UNL     1      24.825  34.786  52.489  1.00  0.00     0.033 C 
ATOM     27  C   UNL     1      26.331  35.120  52.494  1.00  0.00     0.120 C 
ATOM     28  C   UNL     1      26.553  36.281  50.228  1.00  0.00     0.014 C 
ATOM     29  C   UNL     1      28.522  35.170  51.251  1.00  0.00     0.014 C 
ENDROOT
BRANCH   1  30
ATOM     30  C   UNL     1      23.125  26.236  49.084  1.00  0.00     0.048 C 
ATOM     31  O   UNL     1      23.478  25.905  50.252  1.00  0.00    -0.550 OA
ATOM     32  O   UNL     1      21.899  25.771  48.617  1.00  0.00    -0.550 OA
ENDBRANCH   1  30
BRANCH  27  33
ATOM     33  O   UNL     1      26.989  34.238  53.373  1.00  0.00    -0.393 OA
ATOM     34  H   UNL     1      26.443  34.186  54.201  1.00  0.00     0.210 HD
ENDBRANCH  27  33
TORSDOF 2
ENDMDL
MODEL 6
REMARK VINA RESULT:    -0.158      4.683      8.074
REMARK INTER + INTRA:          -0.474
REMARK INTER:                  -0.172
REMARK INTRA:                  -0.303
REMARK UNBOUND:                -0.303
REMARK SMILES CC1(C)CC[C@]2(C(=O)[O-])CC[C@]3(C)C(=CC[C@H]4[C@@]5(C)CC[C@@H](O)C(C)(C)[C@@H]5CC[C@]43C)[C@@H]2C1
REMARK SMILES IDX 6 1 5 2 10 3 32 4 4 5 11 6 14 7 33 8 2 9 12 10 15 11 1 12
REMARK SMILES IDX 3 13 13 14 30 15 16 16 17 17 29 18 31 19 18 20 28 21 27 22
REMARK SMILES IDX 20 23 19 24 24 25 21 26 22 27 25 28 26 29 7 30 8 31 9 32
REMARK SMILES IDX 23 33
REMARK H PARENT 23 34
REMARK Flexibility Score: inf
ROOT
ATOM      1  C   UNL     1      22.382  28.150  56.036  1.00  0.00     0.017 C 
ATOM      2  C   UNL     1      22.380  27.232  57.283  1.00  0.00     0.014 C 
ATOM      3  C   UNL     1      21.305  27.675  55.010  1.00  0.00     0.014 C 
ATOM      4  C   UNL     1      23.824  28.173  55.382  1.00  0.00     0.028 C 
ATOM      5  C   UNL     1      23.417  27.689  58.325  1.00  0.00     0.007 C 
ATOM      6  C   UNL     1      21.634  26.401  54.209  1.00  0.00     0.013 C 
ATOM      7  C   UNL     1      23.790  27.646  53.924  1.00  0.00    -0.064 C 
ATOM      8  C   UNL     1      24.959  27.536  56.242  1.00  0.00     0.015 C 
ATOM      9  C   UNL     1      24.877  27.833  57.768  1.00  0.00    -0.035 C 
ATOM     10  C   UNL     1      23.087  26.308  53.591  1.00  0.00    -0.006 C 
ATOM     11  C   UNL     1      23.975  28.577  52.973  1.00  0.00    -0.027 C 
ATOM     12  C   UNL     1      25.426  29.251  58.051  1.00  0.00     0.011 C 
ATOM     13  C   UNL     1      25.797  26.835  58.510  1.00  0.00     0.011 C 
ATOM     14  C   UNL     1      23.842  25.150  54.322  1.00  0.00     0.017 C 
ATOM     15  C   UNL     1      23.052  25.958  52.001  1.00  0.00    -0.020 C 
ATOM     16  C   UNL     1      23.614  28.444  51.540  1.00  0.00     0.032 C 
ATOM     17  C   UNL     1      22.702  27.246  51.140  1.00  0.00     0.006 C 
ATOM     18  C   UNL     1      24.435  25.433  51.478  1.00  0.00     0.008 C 
ATOM     19  C   UNL     1      21.995  24.805  51.796  1.00  0.00     0.012 C 
ATOM     20  C   UNL     1      22.726  27.028  49.543  1.00  0.00    -0.025 C 
ATOM     21  C   UNL     1      24.498  25.170  49.956  1.00  0.00     0.005 C 
ATOM     22  C   UNL     1      24.117  26.409  49.117  1.00  0.00     0.003 C 
ATOM     23  C   UNL     1      22.568  28.390  48.781  1.00  0.00     0.010 C 
ATOM     24  C   UNL     1      21.499  26.148  49.137  1.00  0.00     0.012 C 
ATOM     25  C   UNL     1      24.364  26.268  47.557  1.00  0.00    -0.006 C 
ATOM     26  C   UNL     1      22.761  28.285  47.252  1.00  0.00     0.033 C 
ATOM     27  C   UNL     1      24.118  27.657  46.875  1.00  0.00     0.120 C 
ATOM     28  C   UNL     1      23.495  25.178  46.875  1.00  0.00     0.014 C 
ATOM     29  C   UNL     1      25.843  25.867  47.287  1.00  0.00     0.014 C 
ENDROOT
BRANCH   1  30
ATOM     30  C   UNL     1      21.911  29.543  56.488  1.00  0.00     0.048 C 
ATOM     31  O   UNL     1      22.628  30.555  56.238  1.00  0.00    -0.550 OA
ATOM     32  O   UNL     1      20.713  29.745  57.166  1.00  0.00    -0.550 OA
ENDBRANCH   1  30
BRANCH  27  33
ATOM     33  O   UNL     1      25.146  28.556  47.218  1.00  0.00    -0.393 OA
ATOM     34  H   UNL     1      24.814  29.471  47.021  1.00  0.00     0.210 HD
ENDBRANCH  27  33
TORSDOF 2
ENDMDL
MODEL 7
REMARK VINA RESULT:    -0.157      4.661      7.974
REMARK INTER + INTRA:          -0.473
REMARK INTER:                  -0.171
REMARK INTRA:                  -0.303
REMARK UNBOUND:                -0.303
REMARK SMILES CC1(C)CC[C@]2(C(=O)[O-])CC[C@]3(C)C(=CC[C@H]4[C@@]5(C)CC[C@@H](O)C(C)(C)[C@@H]5CC[C@]43C)[C@@H]2C1
REMARK SMILES IDX 6 1 5 2 10 3 32 4 4 5 11 6 14 7 33 8 2 9 12 10 15 11 1 12
REMARK SMILES IDX 3 13 13 14 30 15 16 16 17 17 29 18 31 19 18 20 28 21 27 22
REMARK SMILES IDX 20 23 19 24 24 25 21 26 22 27 25 28 26 29 7 30 8 31 9 32
REMARK SMILES IDX 23 33
REMARK H PARENT 23 34
REMARK Flexibility Score: inf
ROOT
ATOM      1  C   UNL     1      23.938  27.318  56.215  1.00  0.00     0.017 C 
ATOM      2  C   UNL     1      24.458  26.465  57.399  1.00  0.00     0.014 C 
ATOM      3  C   UNL     1      22.900  26.507  55.376  1.00  0.00     0.014 C 
ATOM      4  C   UNL     1      25.152  27.794  55.316  1.00  0.00     0.028 C 
ATOM      5  C   UNL     1      25.467  27.246  58.260  1.00  0.00     0.007 C 
ATOM      6  C   UNL     1      23.465  25.396  54.472  1.00  0.00     0.013 C 
ATOM      7  C   UNL     1      25.022  27.264  53.865  1.00  0.00    -0.064 C 
ATOM      8  C   UNL     1      26.568  27.568  55.930  1.00  0.00     0.015 C 
ATOM      9  C   UNL     1      26.676  27.845  57.459  1.00  0.00    -0.035 C 
ATOM     10  C   UNL     1      24.733  25.767  53.602  1.00  0.00    -0.006 C 
ATOM     11  C   UNL     1      24.722  28.192  52.940  1.00  0.00    -0.027 C 
ATOM     12  C   UNL     1      26.787  29.367  57.705  1.00  0.00     0.011 C 
ATOM     13  C   UNL     1      27.986  27.206  57.979  1.00  0.00     0.011 C 
ATOM     14  C   UNL     1      25.938  24.923  54.132  1.00  0.00     0.017 C 
ATOM     15  C   UNL     1      24.521  25.402  52.028  1.00  0.00    -0.020 C 
ATOM     16  C   UNL     1      24.167  27.930  51.589  1.00  0.00     0.032 C 
ATOM     17  C   UNL     1      23.627  26.497  51.304  1.00  0.00     0.006 C 
ATOM     18  C   UNL     1      25.878  25.342  51.244  1.00  0.00     0.008 C 
ATOM     19  C   UNL     1      23.868  23.967  51.962  1.00  0.00     0.012 C 
ATOM     20  C   UNL     1      23.427  26.275  49.719  1.00  0.00    -0.025 C 
ATOM     21  C   UNL     1      25.743  25.092  49.725  1.00  0.00     0.005 C 
ATOM     22  C   UNL     1      24.839  26.131  49.024  1.00  0.00     0.003 C 
ATOM     23  C   UNL     1      22.706  27.503  49.061  1.00  0.00     0.010 C 
ATOM     24  C   UNL     1      22.492  25.042  49.497  1.00  0.00     0.012 C 
ATOM     25  C   UNL     1      24.829  26.056  47.441  1.00  0.00    -0.006 C 
ATOM     26  C   UNL     1      22.639  27.445  47.519  1.00  0.00     0.033 C 
ATOM     27  C   UNL     1      24.032  27.282  46.878  1.00  0.00     0.120 C 
ATOM     28  C   UNL     1      24.243  24.735  46.875  1.00  0.00     0.014 C 
ATOM     29  C   UNL     1      26.283  26.148  46.894  1.00  0.00     0.014 C 
ENDROOT
BRANCH   1  30
ATOM     30  C   UNL     1      23.139  28.491  56.806  1.00  0.00     0.048 C 
ATOM     31  O   UNL     1      23.437  29.676  56.480  1.00  0.00    -0.550 OA
ATOM     32  O   UNL     1      22.084  28.306  57.695  1.00  0.00    -0.550 OA
ENDBRANCH   1  30
BRANCH  27  33
ATOM     33  O   UNL     1      24.765  28.468  47.074  1.00  0.00    -0.393 OA
ATOM     34  H   UNL     1      25.272  28.642  46.238  1.00  0.00     0.210 HD
ENDBRANCH  27  33
TORSDOF 2
ENDMDL
MODEL 8
REMARK VINA RESULT:    -0.155      3.782      5.713
REMARK INTER + INTRA:          -0.471
REMARK INTER:                  -0.189
REMARK INTRA:                  -0.282
REMARK UNBOUND:                -0.303
REMARK SMILES CC1(C)CC[C@]2(C(=O)[O-])CC[C@]3(C)C(=CC[C@H]4[C@@]5(C)CC[C@@H](O)C(C)(C)[C@@H]5CC[C@]43C)[C@@H]2C1
REMARK SMILES IDX 6 1 5 2 10 3 32 4 4 5 11 6 14 7 33 8 2 9 12 10 15 11 1 12
REMARK SMILES IDX 3 13 13 14 30 15 16 16 17 17 29 18 31 19 18 20 28 21 27 22
REMARK SMILES IDX 20 23 19 24 24 25 21 26 22 27 25 28 26 29 7 30 8 31 9 32
REMARK SMILES IDX 23 33
REMARK H PARENT 23 34
REMARK Flexibility Score: inf
ROOT
ATOM      1  C   UNL     1      23.037  27.119  48.146  1.00  0.00     0.017 C 
ATOM      2  C   UNL     1      22.434  26.471  46.875  1.00  0.00     0.014 C 
ATOM      3  C   UNL     1      23.935  28.336  47.762  1.00  0.00     0.014 C 
ATOM      4  C   UNL     1      23.856  26.040  48.967  1.00  0.00     0.028 C 
ATOM      5  C   UNL     1      21.523  25.280  47.223  1.00  0.00     0.007 C 
ATOM      6  C   UNL     1      25.307  28.009  47.143  1.00  0.00     0.013 C 
ATOM      7  C   UNL     1      25.346  26.447  49.102  1.00  0.00    -0.064 C 
ATOM      8  C   UNL     1      23.660  24.561  48.511  1.00  0.00     0.015 C 
ATOM      9  C   UNL     1      22.203  24.181  48.113  1.00  0.00    -0.035 C 
ATOM     10  C   UNL     1      26.155  26.881  47.857  1.00  0.00    -0.006 C 
ATOM     11  C   UNL     1      25.727  26.830  50.333  1.00  0.00    -0.027 C 
ATOM     12  C   UNL     1      21.366  23.925  49.388  1.00  0.00     0.011 C 
ATOM     13  C   UNL     1      22.244  22.852  47.323  1.00  0.00     0.011 C 
ATOM     14  C   UNL     1      26.254  25.667  46.876  1.00  0.00     0.017 C 
ATOM     15  C   UNL     1      27.670  27.377  48.193  1.00  0.00    -0.020 C 
ATOM     16  C   UNL     1      26.939  27.619  50.665  1.00  0.00     0.032 C 
ATOM     17  C   UNL     1      27.695  28.299  49.485  1.00  0.00     0.006 C 
ATOM     18  C   UNL     1      28.638  26.176  48.480  1.00  0.00     0.008 C 
ATOM     19  C   UNL     1      28.212  28.131  46.917  1.00  0.00     0.012 C 
ATOM     20  C   UNL     1      29.163  28.775  49.956  1.00  0.00    -0.025 C 
ATOM     21  C   UNL     1      30.071  26.579  48.898  1.00  0.00     0.005 C 
ATOM     22  C   UNL     1      30.096  27.511  50.130  1.00  0.00     0.003 C 
ATOM     23  C   UNL     1      29.104  29.507  51.343  1.00  0.00     0.010 C 
ATOM     24  C   UNL     1      29.707  29.818  48.927  1.00  0.00     0.012 C 
ATOM     25  C   UNL     1      31.535  27.790  50.734  1.00  0.00    -0.006 C 
ATOM     26  C   UNL     1      30.489  29.832  51.943  1.00  0.00     0.033 C 
ATOM     27  C   UNL     1      31.379  28.580  52.078  1.00  0.00     0.120 C 
ATOM     28  C   UNL     1      32.486  28.553  49.774  1.00  0.00     0.014 C 
ATOM     29  C   UNL     1      32.245  26.444  51.059  1.00  0.00     0.014 C 
ENDROOT
BRANCH   1  30
ATOM     30  C   UNL     1      21.875  27.724  48.952  1.00  0.00     0.048 C 
ATOM     31  O   UNL     1      21.639  27.300  50.120  1.00  0.00    -0.550 OA
ATOM     32  O   UNL     1      21.060  28.734  48.449  1.00  0.00    -0.550 OA
ENDBRANCH   1  30
BRANCH  27  33
ATOM     33  O   UNL     1      30.840  27.744  53.074  1.00  0.00    -0.393 OA
ATOM     34  H   UNL     1      30.871  26.814  52.725  1.00  0.00     0.210 HD
ENDBRANCH  27  33
TORSDOF 2
ENDMDL
MODEL 9
REMARK VINA RESULT:    -0.153      4.462      6.396
REMARK INTER + INTRA:          -0.469
REMARK INTER:                  -0.166
REMARK INTRA:                  -0.302
REMARK UNBOUND:                -0.303
REMARK SMILES CC1(C)CC[C@]2(C(=O)[O-])CC[C@]3(C)C(=CC[C@H]4[C@@]5(C)CC[C@@H](O)C(C)(C)[C@@H]5CC[C@]43C)[C@@H]2C1
REMARK SMILES IDX 6 1 5 2 10 3 32 4 4 5 11 6 14 7 33 8 2 9 12 10 15 11 1 12
REMARK SMILES IDX 3 13 13 14 30 15 16 16 17 17 29 18 31 19 18 20 28 21 27 22
REMARK SMILES IDX 20 23 19 24 24 25 21 26 22 27 25 28 26 29 7 30 8 31 9 32
REMARK SMILES IDX 23 33
REMARK H PARENT 23 34
REMARK Flexibility Score: inf
ROOT
ATOM      1  C   UNL     1      25.189  26.660  48.706  1.00  0.00     0.017 C 
ATOM      2  C   UNL     1      25.826  25.538  47.849  1.00  0.00     0.014 C 
ATOM      3  C   UNL     1      26.253  27.283  49.664  1.00  0.00     0.014 C 
ATOM      4  C   UNL     1      23.956  26.087  49.518  1.00  0.00     0.028 C 
ATOM      5  C   UNL     1      24.807  24.919  46.877  1.00  0.00     0.007 C 
ATOM      6  C   UNL     1      26.663  26.433  50.881  1.00  0.00     0.013 C 
ATOM      7  C   UNL     1      24.171  26.231  51.046  1.00  0.00    -0.064 C 
ATOM      8  C   UNL     1      23.478  24.664  49.093  1.00  0.00     0.015 C 
ATOM      9  C   UNL     1      23.496  24.392  47.560  1.00  0.00    -0.035 C 
ATOM     10  C   UNL     1      25.491  25.756  51.699  1.00  0.00    -0.006 C 
ATOM     11  C   UNL     1      23.402  27.153  51.650  1.00  0.00    -0.027 C 
ATOM     12  C   UNL     1      22.250  25.031  46.904  1.00  0.00     0.011 C 
ATOM     13  C   UNL     1      23.393  22.865  47.335  1.00  0.00     0.011 C 
ATOM     14  C   UNL     1      25.614  24.208  51.513  1.00  0.00     0.017 C 
ATOM     15  C   UNL     1      25.593  26.079  53.293  1.00  0.00    -0.020 C 
ATOM     16  C   UNL     1      23.655  27.766  52.978  1.00  0.00     0.032 C 
ATOM     17  C   UNL     1      25.057  27.538  53.615  1.00  0.00     0.006 C 
ATOM     18  C   UNL     1      24.738  25.086  54.155  1.00  0.00     0.008 C 
ATOM     19  C   UNL     1      27.103  25.896  53.713  1.00  0.00     0.012 C 
ATOM     20  C   UNL     1      25.035  27.927  55.180  1.00  0.00    -0.025 C 
ATOM     21  C   UNL     1      24.715  25.393  55.671  1.00  0.00     0.005 C 
ATOM     22  C   UNL     1      24.235  26.827  55.985  1.00  0.00     0.003 C 
ATOM     23  C   UNL     1      24.308  29.298  55.414  1.00  0.00     0.010 C 
ATOM     24  C   UNL     1      26.506  28.116  55.673  1.00  0.00     0.012 C 
ATOM     25  C   UNL     1      23.989  27.133  57.521  1.00  0.00    -0.006 C 
ATOM     26  C   UNL     1      24.089  29.650  56.901  1.00  0.00     0.033 C 
ATOM     27  C   UNL     1      23.325  28.545  57.659  1.00  0.00     0.120 C 
ATOM     28  C   UNL     1      25.271  27.060  58.393  1.00  0.00     0.014 C 
ATOM     29  C   UNL     1      23.003  26.089  58.121  1.00  0.00     0.014 C 
ENDROOT
BRANCH   1  30
ATOM     30  C   UNL     1      24.797  27.802  47.754  1.00  0.00     0.048 C 
ATOM     31  O   UNL     1      23.610  28.238  47.759  1.00  0.00    -0.550 OA
ATOM     32  O   UNL     1      25.702  28.389  46.875  1.00  0.00    -0.550 OA
ENDBRANCH   1  30
BRANCH  27  33
ATOM     33  O   UNL     1      21.998  28.506  57.190  1.00  0.00    -0.393 OA
ATOM     34  H   UNL     1      21.907  29.218  56.504  1.00  0.00     0.210 HD
ENDBRANCH  27  33
TORSDOF 2
ENDMDL
