MODEL 1
REMARK VINA RESULT:     8.115      0.000      0.000
REMARK INTER + INTRA:          13.951
REMARK INTER:                  11.673
REMARK INTRA:                   2.278
REMARK UNBOUND:                 2.278
REMARK SMILES O=c1c(O[C@H]2O[C@H](CO)[C@@H](O)[C@@H](O)[C@H]2O)c(-c2ccc(O)cc2)oc2cc(O)cc(O)c12
REMARK SMILES IDX 4 1 3 2 16 3 24 4 2 5 25 6 1 7 32 8 26 9 30 10 27 11 29 12
REMARK SMILES IDX 17 13 18 14 19 15 20 16 23 17 22 18 21 19 31 21 28 23 5 25
REMARK SMILES IDX 14 26 6 27 12 28 7 29 10 30 15 31 13 33 8 35 9 36 11 38
REMARK H PARENT 21 20 31 22 28 24 15 32 13 34 9 37 11 39
REMARK Flexibility Score: inf
ROOT
ATOM      1  O   UNL     1      12.558  10.899  29.477  1.00  0.00    -0.454 OA
ENDROOT
BRANCH   1   2
ATOM      2  C   UNL     1      13.044   9.748  28.820  1.00  0.00     0.214 A 
ATOM      3  C   UNL     1      13.441   9.870  27.473  1.00  0.00     0.180 A 
ATOM      4  O   UNL     1      13.835   8.803  26.787  1.00  0.00    -0.452 OA
ATOM      5  C   UNL     1      13.124   8.469  29.422  1.00  0.00     0.239 A 
ATOM      6  C   UNL     1      13.912   7.588  27.310  1.00  0.00     0.146 A 
ATOM      7  O   UNL     1      12.801   8.311  30.628  1.00  0.00    -0.285 OA
ATOM      8  C   UNL     1      13.565   7.365  28.661  1.00  0.00     0.111 A 
ATOM      9  C   UNL     1      14.343   6.529  26.506  1.00  0.00     0.094 A 
ATOM     10  C   UNL     1      13.667   6.052  29.188  1.00  0.00     0.134 A 
ATOM     11  C   UNL     1      14.441   5.237  27.032  1.00  0.00     0.123 A 
ATOM     12  C   UNL     1      14.104   5.004  28.367  1.00  0.00     0.093 A 
BRANCH   3  13
ATOM     13  C   UNL     1      13.413  11.170  26.771  1.00  0.00     0.021 A 
ATOM     14  C   UNL     1      14.346  11.433  25.757  1.00  0.00     0.016 A 
ATOM     15  C   UNL     1      14.341  12.666  25.095  1.00  0.00     0.047 A 
ATOM     16  C   UNL     1      13.416  13.652  25.452  1.00  0.00     0.115 A 
ATOM     17  C   UNL     1      12.501  12.171  27.142  1.00  0.00     0.016 A 
ATOM     18  C   UNL     1      12.498  13.403  26.481  1.00  0.00     0.047 A 
BRANCH  16  19
ATOM     19  O   UNL     1      13.420  14.873  24.782  1.00  0.00    -0.508 OA
ATOM     20  H   UNL     1      12.790  15.623  25.045  1.00  0.00     0.293 HD
ENDBRANCH  16  19
ENDBRANCH   3  13
BRANCH  10  21
ATOM     21  O   UNL     1      13.336   5.782  30.517  1.00  0.00    -0.507 OA
ATOM     22  H   UNL     1      13.276   4.835  30.870  1.00  0.00     0.293 HD
ENDBRANCH  10  21
BRANCH  11  23
ATOM     23  O   UNL     1      14.870   4.177  26.236  1.00  0.00    -0.508 OA
ATOM     24  H   UNL     1      15.627   3.568  26.526  1.00  0.00     0.293 HD
ENDBRANCH  11  23
ENDBRANCH   1   2
BRANCH   1  25
ATOM     25  C   UNL     1      11.290  11.537  29.280  1.00  0.00     0.339 C 
ATOM     26  C   UNL     1      10.605  11.839  30.627  1.00  0.00     0.214 C 
ATOM     27  O   UNL     1      10.447  10.765  28.437  1.00  0.00    -0.332 OA
ATOM     28  C   UNL     1      10.129  10.549  31.317  1.00  0.00     0.180 C 
ATOM     29  C   UNL     1      10.142   9.505  29.014  1.00  0.00     0.179 C 
ATOM     30  C   UNL     1       9.333   9.684  30.319  1.00  0.00     0.177 C 
BRANCH  26  31
ATOM     31  O   UNL     1      11.491  12.545  31.459  1.00  0.00    -0.384 OA
ATOM     32  H   UNL     1      11.795  13.338  30.945  1.00  0.00     0.211 HD
ENDBRANCH  26  31
BRANCH  28  33
ATOM     33  O   UNL     1      11.235   9.839  31.815  1.00  0.00    -0.387 OA
ATOM     34  H   UNL     1      11.228   9.942  32.803  1.00  0.00     0.211 HD
ENDBRANCH  28  33
BRANCH  29  35
ATOM     35  C   UNL     1       9.367   8.676  27.982  1.00  0.00     0.191 C 
BRANCH  35  36
ATOM     36  O   UNL     1      10.194   7.690  27.425  1.00  0.00    -0.394 OA
ATOM     37  H   UNL     1       9.740   7.390  26.594  1.00  0.00     0.210 HD
ENDBRANCH  35  36
ENDBRANCH  29  35
BRANCH  30  38
ATOM     38  O   UNL     1       9.049   8.430  30.884  1.00  0.00    -0.387 OA
ATOM     39  H   UNL     1       8.708   8.601  31.802  1.00  0.00     0.211 HD
ENDBRANCH  30  38
ENDBRANCH   1  25
TORSDOF 11
ENDMDL
