MODEL 1
REMARK VINA RESULT:    -5.448      0.000      0.000
REMARK INTER + INTRA:         -16.507
REMARK INTER:                 -13.728
REMARK INTRA:                  -2.779
REMARK UNBOUND:                -2.779
REMARK SMILES CCCCCCCCCCCCCCCCCCCCCCCCCCCC(=O)[O-]
REMARK SMILES IDX 15 1 16 2 17 3 18 4 19 5 20 6 21 7 22 8 23 9 24 10 25 11
REMARK SMILES IDX 26 12 27 13 28 14 29 15 30 16 14 17 13 18 12 19 11 20 10 21
REMARK SMILES IDX 9 22 8 23 7 24 6 25 5 26 4 27 3 28 2 29 1 30
REMARK H PARENT
REMARK Flexibility Score: inf
ROOT
ATOM      1  C   UNL     1      30.065  -3.532  30.005  1.00  0.00     0.000 C 
ENDROOT
BRANCH   1   2
ATOM      2  C   UNL     1      29.527  -2.120  29.685  1.00  0.00     0.000 C 
BRANCH   2   3
ATOM      3  C   UNL     1      30.280  -0.963  30.370  1.00  0.00     0.000 C 
BRANCH   3   4
ATOM      4  C   UNL     1      29.576  -0.472  31.649  1.00  0.00     0.000 C 
BRANCH   4   5
ATOM      5  C   UNL     1      28.136  -1.000  31.762  1.00  0.00     0.000 C 
BRANCH   5   6
ATOM      6  C   UNL     1      27.092   0.118  31.596  1.00  0.00     0.000 C 
BRANCH   6   7
ATOM      7  C   UNL     1      26.305  -0.000  30.274  1.00  0.00     0.000 C 
BRANCH   7   8
ATOM      8  C   UNL     1      26.880   0.852  29.126  1.00  0.00     0.000 C 
BRANCH   8   9
ATOM      9  C   UNL     1      27.978   1.846  29.540  1.00  0.00     0.000 C 
BRANCH   9  10
ATOM     10  C   UNL     1      27.609   3.330  29.352  1.00  0.00     0.000 C 
BRANCH  10  11
ATOM     11  C   UNL     1      27.948   4.218  30.569  1.00  0.00     0.000 C 
BRANCH  11  12
ATOM     12  C   UNL     1      28.274   5.681  30.215  1.00  0.00     0.006 C 
BRANCH  12  13
ATOM     13  C   UNL     1      27.061   6.627  30.292  1.00  0.00     0.053 C 
BRANCH  13  14
ATOM     14  C   UNL     1      27.461   8.060  30.455  1.00  0.00     0.041 C 
ATOM     15  O   UNL     1      26.641   8.902  30.911  1.00  0.00    -0.550 OA
ATOM     16  O   UNL     1      28.746   8.466  30.117  1.00  0.00    -0.550 OA
ENDBRANCH  13  14
ENDBRANCH  12  13
ENDBRANCH  11  12
ENDBRANCH  10  11
ENDBRANCH   9  10
ENDBRANCH   8   9
ENDBRANCH   7   8
ENDBRANCH   6   7
ENDBRANCH   5   6
ENDBRANCH   4   5
ENDBRANCH   3   4
ENDBRANCH   2   3
ENDBRANCH   1   2
BRANCH   1  17
ATOM     17  C   UNL     1      29.473  -4.675  29.151  1.00  0.00     0.000 C 
BRANCH  17  18
ATOM     18  C   UNL     1      28.782  -5.788  29.962  1.00  0.00     0.000 C 
BRANCH  18  19
ATOM     19  C   UNL     1      27.259  -5.591  30.047  1.00  0.00     0.000 C 
BRANCH  19  20
ATOM     20  C   UNL     1      26.874  -4.413  30.959  1.00  0.00     0.000 C 
BRANCH  20  21
ATOM     21  C   UNL     1      25.636  -3.666  30.430  1.00  0.00     0.000 C 
BRANCH  21  22
ATOM     22  C   UNL     1      24.348  -4.509  30.493  1.00  0.00    -0.000 C 
BRANCH  22  23
ATOM     23  C   UNL     1      23.053  -3.710  30.755  1.00  0.00    -0.000 C 
BRANCH  23  24
ATOM     24  C   UNL     1      23.150  -2.192  30.498  1.00  0.00    -0.000 C 
BRANCH  24  25
ATOM     25  C   UNL     1      21.891  -1.551  29.887  1.00  0.00    -0.000 C 
BRANCH  25  26
ATOM     26  C   UNL     1      21.152  -2.486  28.919  1.00  0.00    -0.000 C 
BRANCH  26  27
ATOM     27  C   UNL     1      20.877  -1.774  27.586  1.00  0.00    -0.000 C 
BRANCH  27  28
ATOM     28  C   UNL     1      21.694  -0.483  27.422  1.00  0.00    -0.000 C 
BRANCH  28  29
ATOM     29  C   UNL     1      22.172  -0.265  25.978  1.00  0.00    -0.003 C 
ATOM     30  C   UNL     1      23.680  -0.040  25.928  1.00  0.00     0.004 C 
ENDBRANCH  28  29
ENDBRANCH  27  28
ENDBRANCH  26  27
ENDBRANCH  25  26
ENDBRANCH  24  25
ENDBRANCH  23  24
ENDBRANCH  22  23
ENDBRANCH  21  22
ENDBRANCH  20  21
ENDBRANCH  19  20
ENDBRANCH  18  19
ENDBRANCH  17  18
ENDBRANCH   1  17
TORSDOF 26
ENDMDL
MODEL 2
REMARK VINA RESULT:    -5.360      2.901      7.580
REMARK INTER + INTRA:         -16.286
REMARK INTER:                 -13.236
REMARK INTRA:                  -3.049
REMARK UNBOUND:                -2.779
REMARK SMILES CCCCCCCCCCCCCCCCCCCCCCCCCCCC(=O)[O-]
REMARK SMILES IDX 15 1 16 2 17 3 18 4 19 5 20 6 21 7 22 8 23 9 24 10 25 11
REMARK SMILES IDX 26 12 27 13 28 14 29 15 30 16 14 17 13 18 12 19 11 20 10 21
REMARK SMILES IDX 9 22 8 23 7 24 6 25 5 26 4 27 3 28 2 29 1 30
REMARK H PARENT
REMARK Flexibility Score: inf
ROOT
ATOM      1  C   UNL     1      27.154   1.747  29.028  1.00  0.00     0.000 C 
ENDROOT
BRANCH   1   2
ATOM      2  C   UNL     1      27.380   0.283  28.587  1.00  0.00     0.000 C 
BRANCH   2   3
ATOM      3  C   UNL     1      26.178  -0.657  28.803  1.00  0.00     0.000 C 
BRANCH   3   4
ATOM      4  C   UNL     1      25.550  -0.506  30.201  1.00  0.00     0.000 C 
BRANCH   4   5
ATOM      5  C   UNL     1      24.673  -1.710  30.580  1.00  0.00     0.000 C 
BRANCH   5   6
ATOM      6  C   UNL     1      23.171  -1.393  30.471  1.00  0.00     0.000 C 
BRANCH   6   7
ATOM      7  C   UNL     1      22.311  -2.661  30.283  1.00  0.00     0.000 C 
BRANCH   7   8
ATOM      8  C   UNL     1      21.264  -2.545  29.158  1.00  0.00     0.000 C 
BRANCH   8   9
ATOM      9  C   UNL     1      20.585  -1.170  29.040  1.00  0.00     0.000 C 
BRANCH   9  10
ATOM     10  C   UNL     1      20.845  -0.433  27.713  1.00  0.00     0.000 C 
BRANCH  10  11
ATOM     11  C   UNL     1      21.343  -1.350  26.575  1.00  0.00     0.000 C 
BRANCH  11  12
ATOM     12  C   UNL     1      22.194  -0.634  25.509  1.00  0.00     0.006 C 
BRANCH  12  13
ATOM     13  C   UNL     1      22.586   0.807  25.889  1.00  0.00     0.053 C 
BRANCH  13  14
ATOM     14  C   UNL     1      24.067   1.023  25.867  1.00  0.00     0.041 C 
ATOM     15  O   UNL     1      24.854   0.040  25.849  1.00  0.00    -0.550 OA
ATOM     16  O   UNL     1      24.580   2.314  25.853  1.00  0.00    -0.550 OA
ENDBRANCH  13  14
ENDBRANCH  12  13
ENDBRANCH  11  12
ENDBRANCH  10  11
ENDBRANCH   9  10
ENDBRANCH   8   9
ENDBRANCH   7   8
ENDBRANCH   6   7
ENDBRANCH   5   6
ENDBRANCH   4   5
ENDBRANCH   3   4
ENDBRANCH   2   3
ENDBRANCH   1   2
BRANCH   1  17
ATOM     17  C   UNL     1      28.087   2.251  30.152  1.00  0.00     0.000 C 
BRANCH  17  18
ATOM     18  C   UNL     1      28.149   1.336  31.390  1.00  0.00     0.000 C 
BRANCH  18  19
ATOM     19  C   UNL     1      29.514   0.644  31.539  1.00  0.00     0.000 C 
BRANCH  19  20
ATOM     20  C   UNL     1      29.390  -0.890  31.564  1.00  0.00     0.000 C 
BRANCH  20  21
ATOM     21  C   UNL     1      29.849  -1.518  30.236  1.00  0.00     0.000 C 
BRANCH  21  22
ATOM     22  C   UNL     1      29.101  -2.820  29.892  1.00  0.00    -0.000 C 
BRANCH  22  23
ATOM     23  C   UNL     1      27.945  -3.184  30.848  1.00  0.00    -0.000 C 
BRANCH  23  24
ATOM     24  C   UNL     1      27.322  -4.578  30.630  1.00  0.00    -0.000 C 
BRANCH  24  25
ATOM     25  C   UNL     1      28.262  -5.622  29.999  1.00  0.00    -0.000 C 
BRANCH  25  26
ATOM     26  C   UNL     1      29.177  -6.304  31.027  1.00  0.00    -0.000 C 
BRANCH  26  27
ATOM     27  C   UNL     1      28.688  -7.728  31.323  1.00  0.00    -0.000 C 
BRANCH  27  28
ATOM     28  C   UNL     1      28.188  -8.459  30.067  1.00  0.00    -0.000 C 
BRANCH  28  29
ATOM     29  C   UNL     1      29.300  -9.249  29.361  1.00  0.00    -0.003 C 
ATOM     30  C   UNL     1      29.427  -8.830  27.899  1.00  0.00     0.004 C 
ENDBRANCH  28  29
ENDBRANCH  27  28
ENDBRANCH  26  27
ENDBRANCH  25  26
ENDBRANCH  24  25
ENDBRANCH  23  24
ENDBRANCH  22  23
ENDBRANCH  21  22
ENDBRANCH  20  21
ENDBRANCH  19  20
ENDBRANCH  18  19
ENDBRANCH  17  18
ENDBRANCH   1  17
TORSDOF 26
ENDMDL
MODEL 3
REMARK VINA RESULT:    -5.348      3.268      7.972
REMARK INTER + INTRA:         -16.255
REMARK INTER:                 -13.713
REMARK INTRA:                  -2.541
REMARK UNBOUND:                -2.779
REMARK SMILES CCCCCCCCCCCCCCCCCCCCCCCCCCCC(=O)[O-]
REMARK SMILES IDX 15 1 16 2 17 3 18 4 19 5 20 6 21 7 22 8 23 9 24 10 25 11
REMARK SMILES IDX 26 12 27 13 28 14 29 15 30 16 14 17 13 18 12 19 11 20 10 21
REMARK SMILES IDX 9 22 8 23 7 24 6 25 5 26 4 27 3 28 2 29 1 30
REMARK H PARENT
REMARK Flexibility Score: inf
ROOT
ATOM      1  C   UNL     1      29.951  -1.465  30.344  1.00  0.00     0.000 C 
ENDROOT
BRANCH   1   2
ATOM      2  C   UNL     1      29.404  -2.674  29.552  1.00  0.00     0.000 C 
BRANCH   2   3
ATOM      3  C   UNL     1      30.139  -4.005  29.803  1.00  0.00     0.000 C 
BRANCH   3   4
ATOM      4  C   UNL     1      29.181  -5.210  29.862  1.00  0.00     0.000 C 
BRANCH   4   5
ATOM      5  C   UNL     1      28.005  -4.973  30.825  1.00  0.00     0.000 C 
BRANCH   5   6
ATOM      6  C   UNL     1      26.649  -5.313  30.182  1.00  0.00     0.000 C 
BRANCH   6   7
ATOM      7  C   UNL     1      25.517  -4.382  30.663  1.00  0.00     0.000 C 
BRANCH   7   8
ATOM      8  C   UNL     1      24.121  -4.773  30.140  1.00  0.00     0.000 C 
BRANCH   8   9
ATOM      9  C   UNL     1      22.961  -3.920  30.680  1.00  0.00     0.000 C 
BRANCH   9  10
ATOM     10  C   UNL     1      23.141  -2.400  30.507  1.00  0.00     0.000 C 
BRANCH  10  11
ATOM     11  C   UNL     1      21.815  -1.628  30.340  1.00  0.00     0.000 C 
BRANCH  11  12
ATOM     12  C   UNL     1      21.036  -1.976  29.057  1.00  0.00     0.006 C 
BRANCH  12  13
ATOM     13  C   UNL     1      20.872  -0.792  28.086  1.00  0.00     0.053 C 
BRANCH  13  14
ATOM     14  C   UNL     1      21.426  -1.085  26.727  1.00  0.00     0.041 C 
ATOM     15  O   UNL     1      21.286  -2.227  26.213  1.00  0.00    -0.550 OA
ATOM     16  O   UNL     1      22.088  -0.090  26.018  1.00  0.00    -0.550 OA
ENDBRANCH  13  14
ENDBRANCH  12  13
ENDBRANCH  11  12
ENDBRANCH  10  11
ENDBRANCH   9  10
ENDBRANCH   8   9
ENDBRANCH   7   8
ENDBRANCH   6   7
ENDBRANCH   5   6
ENDBRANCH   4   5
ENDBRANCH   3   4
ENDBRANCH   2   3
ENDBRANCH   1   2
BRANCH   1  17
ATOM     17  C   UNL     1      29.091  -1.020  31.548  1.00  0.00     0.000 C 
BRANCH  17  18
ATOM     18  C   UNL     1      27.637  -1.527  31.519  1.00  0.00     0.000 C 
BRANCH  18  19
ATOM     19  C   UNL     1      26.628  -0.397  31.251  1.00  0.00     0.000 C 
BRANCH  19  20
ATOM     20  C   UNL     1      26.029  -0.474  29.836  1.00  0.00     0.000 C 
BRANCH  20  21
ATOM     21  C   UNL     1      26.918   0.241  28.802  1.00  0.00     0.000 C 
BRANCH  21  22
ATOM     22  C   UNL     1      27.144   1.730  29.126  1.00  0.00    -0.000 C 
BRANCH  22  23
ATOM     23  C   UNL     1      28.458   2.048  29.870  1.00  0.00    -0.000 C 
BRANCH  23  24
ATOM     24  C   UNL     1      28.290   2.633  31.287  1.00  0.00    -0.000 C 
BRANCH  24  25
ATOM     25  C   UNL     1      28.103   4.160  31.345  1.00  0.00    -0.000 C 
BRANCH  25  26
ATOM     26  C   UNL     1      27.957   4.800  29.957  1.00  0.00    -0.000 C 
BRANCH  26  27
ATOM     27  C   UNL     1      28.427   6.261  29.985  1.00  0.00    -0.000 C 
BRANCH  27  28
ATOM     28  C   UNL     1      27.312   7.239  30.385  1.00  0.00    -0.000 C 
BRANCH  28  29
ATOM     29  C   UNL     1      27.808   8.688  30.500  1.00  0.00    -0.003 C 
ATOM     30  C   UNL     1      27.483   9.481  29.237  1.00  0.00     0.004 C 
ENDBRANCH  28  29
ENDBRANCH  27  28
ENDBRANCH  26  27
ENDBRANCH  25  26
ENDBRANCH  24  25
ENDBRANCH  23  24
ENDBRANCH  22  23
ENDBRANCH  21  22
ENDBRANCH  20  21
ENDBRANCH  19  20
ENDBRANCH  18  19
ENDBRANCH  17  18
ENDBRANCH   1  17
TORSDOF 26
ENDMDL
MODEL 4
REMARK VINA RESULT:    -5.109      3.705      7.919
REMARK INTER + INTRA:         -15.653
REMARK INTER:                 -13.312
REMARK INTRA:                  -2.340
REMARK UNBOUND:                -2.779
REMARK SMILES CCCCCCCCCCCCCCCCCCCCCCCCCCCC(=O)[O-]
REMARK SMILES IDX 15 1 16 2 17 3 18 4 19 5 20 6 21 7 22 8 23 9 24 10 25 11
REMARK SMILES IDX 26 12 27 13 28 14 29 15 30 16 14 17 13 18 12 19 11 20 10 21
REMARK SMILES IDX 9 22 8 23 7 24 6 25 5 26 4 27 3 28 2 29 1 30
REMARK H PARENT
REMARK Flexibility Score: inf
ROOT
ATOM      1  C   UNL     1      28.594   1.657  31.119  1.00  0.00     0.000 C 
ENDROOT
BRANCH   1   2
ATOM      2  C   UNL     1      27.975   2.987  31.607  1.00  0.00     0.000 C 
BRANCH   2   3
ATOM      3  C   UNL     1      28.278   4.211  30.721  1.00  0.00     0.000 C 
BRANCH   3   4
ATOM      4  C   UNL     1      28.032   3.937  29.225  1.00  0.00     0.000 C 
BRANCH   4   5
ATOM      5  C   UNL     1      26.535   3.823  28.892  1.00  0.00     0.000 C 
BRANCH   5   6
ATOM      6  C   UNL     1      26.268   2.835  27.742  1.00  0.00     0.000 C 
BRANCH   6   7
ATOM      7  C   UNL     1      24.962   3.150  26.984  1.00  0.00     0.000 C 
BRANCH   7   8
ATOM      8  C   UNL     1      24.704   2.230  25.775  1.00  0.00     0.000 C 
BRANCH   8   9
ATOM      9  C   UNL     1      24.732   0.724  26.085  1.00  0.00     0.000 C 
BRANCH   9  10
ATOM     10  C   UNL     1      23.538  -0.073  25.526  1.00  0.00     0.000 C 
BRANCH  10  11
ATOM     11  C   UNL     1      22.194   0.249  26.214  1.00  0.00     0.000 C 
BRANCH  11  12
ATOM     12  C   UNL     1      21.422  -0.990  26.707  1.00  0.00     0.006 C 
BRANCH  12  13
ATOM     13  C   UNL     1      20.762  -0.806  28.087  1.00  0.00     0.053 C 
BRANCH  13  14
ATOM     14  C   UNL     1      21.299  -1.757  29.110  1.00  0.00     0.041 C 
ATOM     15  O   UNL     1      22.070  -1.347  30.019  1.00  0.00    -0.550 OA
ATOM     16  O   UNL     1      20.937  -3.097  29.070  1.00  0.00    -0.550 OA
ENDBRANCH  13  14
ENDBRANCH  12  13
ENDBRANCH  11  12
ENDBRANCH  10  11
ENDBRANCH   9  10
ENDBRANCH   8   9
ENDBRANCH   7   8
ENDBRANCH   6   7
ENDBRANCH   5   6
ENDBRANCH   4   5
ENDBRANCH   3   4
ENDBRANCH   2   3
ENDBRANCH   1   2
BRANCH   1  17
ATOM     17  C   UNL     1      27.701   0.408  31.298  1.00  0.00     0.000 C 
BRANCH  17  18
ATOM     18  C   UNL     1      26.697   0.171  30.154  1.00  0.00     0.000 C 
BRANCH  18  19
ATOM     19  C   UNL     1      26.942  -1.163  29.428  1.00  0.00     0.000 C 
BRANCH  19  20
ATOM     20  C   UNL     1      28.437  -1.516  29.346  1.00  0.00     0.000 C 
BRANCH  20  21
ATOM     21  C   UNL     1      28.717  -2.932  29.880  1.00  0.00     0.000 C 
BRANCH  21  22
ATOM     22  C   UNL     1      27.693  -3.395  30.933  1.00  0.00    -0.000 C 
BRANCH  22  23
ATOM     23  C   UNL     1      26.999  -4.740  30.627  1.00  0.00    -0.000 C 
BRANCH  23  24
ATOM     24  C   UNL     1      27.734  -5.648  29.621  1.00  0.00    -0.000 C 
BRANCH  24  25
ATOM     25  C   UNL     1      29.015  -6.314  30.157  1.00  0.00    -0.000 C 
BRANCH  25  26
ATOM     26  C   UNL     1      28.770  -7.160  31.416  1.00  0.00    -0.000 C 
BRANCH  26  27
ATOM     27  C   UNL     1      29.202  -8.614  31.180  1.00  0.00    -0.000 C 
BRANCH  27  28
ATOM     28  C   UNL     1      28.210  -9.396  30.305  1.00  0.00    -0.000 C 
BRANCH  28  29
ATOM     29  C   UNL     1      28.880 -10.043  29.084  1.00  0.00    -0.003 C 
ATOM     30  C   UNL     1      29.366  -8.984  28.099  1.00  0.00     0.004 C 
ENDBRANCH  28  29
ENDBRANCH  27  28
ENDBRANCH  26  27
ENDBRANCH  25  26
ENDBRANCH  24  25
ENDBRANCH  23  24
ENDBRANCH  22  23
ENDBRANCH  21  22
ENDBRANCH  20  21
ENDBRANCH  19  20
ENDBRANCH  18  19
ENDBRANCH  17  18
ENDBRANCH   1  17
TORSDOF 26
ENDMDL
MODEL 5
REMARK VINA RESULT:    -5.069      4.173      8.221
REMARK INTER + INTRA:         -15.551
REMARK INTER:                 -13.133
REMARK INTRA:                  -2.418
REMARK UNBOUND:                -2.779
REMARK SMILES CCCCCCCCCCCCCCCCCCCCCCCCCCCC(=O)[O-]
REMARK SMILES IDX 15 1 16 2 17 3 18 4 19 5 20 6 21 7 22 8 23 9 24 10 25 11
REMARK SMILES IDX 26 12 27 13 28 14 29 15 30 16 14 17 13 18 12 19 11 20 10 21
REMARK SMILES IDX 9 22 8 23 7 24 6 25 5 26 4 27 3 28 2 29 1 30
REMARK H PARENT
REMARK Flexibility Score: inf
ROOT
ATOM      1  C   UNL     1      27.124   2.850  28.718  1.00  0.00     0.000 C 
ENDROOT
BRANCH   1   2
ATOM      2  C   UNL     1      28.139   4.009  28.840  1.00  0.00     0.000 C 
BRANCH   2   3
ATOM      3  C   UNL     1      27.865   4.997  29.991  1.00  0.00     0.000 C 
BRANCH   3   4
ATOM      4  C   UNL     1      28.855   4.835  31.160  1.00  0.00     0.000 C 
BRANCH   4   5
ATOM      5  C   UNL     1      28.454   3.694  32.110  1.00  0.00     0.000 C 
BRANCH   5   6
ATOM      6  C   UNL     1      29.661   2.839  32.533  1.00  0.00     0.000 C 
BRANCH   6   7
ATOM      7  C   UNL     1      30.596   3.581  33.512  1.00  0.00     0.000 C 
BRANCH   7   8
ATOM      8  C   UNL     1      31.174   2.685  34.625  1.00  0.00     0.000 C 
BRANCH   8   9
ATOM      9  C   UNL     1      31.367   1.209  34.238  1.00  0.00     0.000 C 
BRANCH   9  10
ATOM     10  C   UNL     1      32.594   0.530  34.875  1.00  0.00     0.000 C 
BRANCH  10  11
ATOM     11  C   UNL     1      33.940   1.180  34.487  1.00  0.00     0.000 C 
BRANCH  11  12
ATOM     12  C   UNL     1      35.036   0.175  34.083  1.00  0.00     0.006 C 
BRANCH  12  13
ATOM     13  C   UNL     1      35.653   0.448  32.698  1.00  0.00     0.053 C 
BRANCH  13  14
ATOM     14  C   UNL     1      35.319  -0.618  31.702  1.00  0.00     0.041 C 
ATOM     15  O   UNL     1      35.768  -1.787  31.845  1.00  0.00    -0.550 OA
ATOM     16  O   UNL     1      34.500  -0.325  30.619  1.00  0.00    -0.550 OA
ENDBRANCH  13  14
ENDBRANCH  12  13
ENDBRANCH  11  12
ENDBRANCH  10  11
ENDBRANCH   9  10
ENDBRANCH   8   9
ENDBRANCH   7   8
ENDBRANCH   6   7
ENDBRANCH   5   6
ENDBRANCH   4   5
ENDBRANCH   3   4
ENDBRANCH   2   3
ENDBRANCH   1   2
BRANCH   1  17
ATOM     17  C   UNL     1      27.593   1.497  29.299  1.00  0.00     0.000 C 
BRANCH  17  18
ATOM     18  C   UNL     1      26.624   0.325  29.054  1.00  0.00     0.000 C 
BRANCH  18  19
ATOM     19  C   UNL     1      26.202  -0.368  30.361  1.00  0.00     0.000 C 
BRANCH  19  20
ATOM     20  C   UNL     1      27.078   0.053  31.554  1.00  0.00     0.000 C 
BRANCH  20  21
ATOM     21  C   UNL     1      27.999  -1.091  32.015  1.00  0.00     0.000 C 
BRANCH  21  22
ATOM     22  C   UNL     1      29.304  -1.181  31.202  1.00  0.00    -0.000 C 
BRANCH  22  23
ATOM     23  C   UNL     1      29.235  -2.079  29.948  1.00  0.00    -0.000 C 
BRANCH  23  24
ATOM     24  C   UNL     1      28.913  -3.564  30.216  1.00  0.00    -0.000 C 
BRANCH  24  25
ATOM     25  C   UNL     1      30.100  -4.530  30.053  1.00  0.00    -0.000 C 
BRANCH  25  26
ATOM     26  C   UNL     1      29.814  -5.931  30.613  1.00  0.00    -0.000 C 
BRANCH  26  27
ATOM     27  C   UNL     1      29.138  -6.808  29.549  1.00  0.00    -0.000 C 
BRANCH  27  28
ATOM     28  C   UNL     1      28.161  -7.828  30.152  1.00  0.00    -0.000 C 
BRANCH  28  29
ATOM     29  C   UNL     1      28.705  -8.486  31.429  1.00  0.00    -0.003 C 
ATOM     30  C   UNL     1      29.826  -9.469  31.104  1.00  0.00     0.004 C 
ENDBRANCH  28  29
ENDBRANCH  27  28
ENDBRANCH  26  27
ENDBRANCH  25  26
ENDBRANCH  24  25
ENDBRANCH  23  24
ENDBRANCH  22  23
ENDBRANCH  21  22
ENDBRANCH  20  21
ENDBRANCH  19  20
ENDBRANCH  18  19
ENDBRANCH  17  18
ENDBRANCH   1  17
TORSDOF 26
ENDMDL
MODEL 6
REMARK VINA RESULT:    -4.975      3.326      8.168
REMARK INTER + INTRA:         -15.316
REMARK INTER:                 -13.526
REMARK INTRA:                  -1.790
REMARK UNBOUND:                -2.779
REMARK SMILES CCCCCCCCCCCCCCCCCCCCCCCCCCCC(=O)[O-]
REMARK SMILES IDX 15 1 16 2 17 3 18 4 19 5 20 6 21 7 22 8 23 9 24 10 25 11
REMARK SMILES IDX 26 12 27 13 28 14 29 15 30 16 14 17 13 18 12 19 11 20 10 21
REMARK SMILES IDX 9 22 8 23 7 24 6 25 5 26 4 27 3 28 2 29 1 30
REMARK H PARENT
REMARK Flexibility Score: inf
ROOT
ATOM      1  C   UNL     1      27.366  -2.384  29.992  1.00  0.00     0.000 C 
ENDROOT
BRANCH   1   2
ATOM      2  C   UNL     1      26.689  -1.370  30.941  1.00  0.00     0.000 C 
BRANCH   2   3
ATOM      3  C   UNL     1      26.193  -0.076  30.268  1.00  0.00     0.000 C 
BRANCH   3   4
ATOM      4  C   UNL     1      26.878   0.189  28.914  1.00  0.00     0.000 C 
BRANCH   4   5
ATOM      5  C   UNL     1      25.909   0.033  27.730  1.00  0.00     0.000 C 
BRANCH   5   6
ATOM      6  C   UNL     1      25.468   1.392  27.157  1.00  0.00     0.000 C 
BRANCH   6   7
ATOM      7  C   UNL     1      24.715   1.251  25.818  1.00  0.00     0.000 C 
BRANCH   7   8
ATOM      8  C   UNL     1      23.882  -0.040  25.702  1.00  0.00     0.000 C 
BRANCH   8   9
ATOM      9  C   UNL     1      22.360   0.154  25.812  1.00  0.00     0.000 C 
BRANCH   9  10
ATOM     10  C   UNL     1      21.576  -1.108  26.217  1.00  0.00     0.000 C 
BRANCH  10  11
ATOM     11  C   UNL     1      20.815  -0.969  27.554  1.00  0.00     0.000 C 
BRANCH  11  12
ATOM     12  C   UNL     1      20.997  -2.160  28.514  1.00  0.00     0.006 C 
BRANCH  12  13
ATOM     13  C   UNL     1      21.200  -1.750  29.985  1.00  0.00     0.053 C 
BRANCH  13  14
ATOM     14  C   UNL     1      22.517  -2.206  30.531  1.00  0.00     0.041 C 
ATOM     15  O   UNL     1      23.444  -1.377  30.733  1.00  0.00    -0.550 OA
ATOM     16  O   UNL     1      22.717  -3.548  30.831  1.00  0.00    -0.550 OA
ENDBRANCH  13  14
ENDBRANCH  12  13
ENDBRANCH  11  12
ENDBRANCH  10  11
ENDBRANCH   9  10
ENDBRANCH   8   9
ENDBRANCH   7   8
ENDBRANCH   6   7
ENDBRANCH   5   6
ENDBRANCH   4   5
ENDBRANCH   3   4
ENDBRANCH   2   3
ENDBRANCH   1   2
BRANCH   1  17
ATOM     17  C   UNL     1      28.618  -3.089  30.562  1.00  0.00     0.000 C 
BRANCH  17  18
ATOM     18  C   UNL     1      29.958  -2.490  30.096  1.00  0.00     0.000 C 
BRANCH  18  19
ATOM     19  C   UNL     1      29.799  -1.067  29.534  1.00  0.00     0.000 C 
BRANCH  19  20
ATOM     20  C   UNL     1      30.518  -0.015  30.397  1.00  0.00     0.000 C 
BRANCH  20  21
ATOM     21  C   UNL     1      29.863   0.129  31.782  1.00  0.00     0.000 C 
BRANCH  21  22
ATOM     22  C   UNL     1      29.499   1.584  32.131  1.00  0.00    -0.000 C 
BRANCH  22  23
ATOM     23  C   UNL     1      28.412   2.220  31.238  1.00  0.00    -0.000 C 
BRANCH  23  24
ATOM     24  C   UNL     1      28.291   3.755  31.339  1.00  0.00    -0.000 C 
BRANCH  24  25
ATOM     25  C   UNL     1      27.974   4.473  30.014  1.00  0.00    -0.000 C 
BRANCH  25  26
ATOM     26  C   UNL     1      28.223   5.987  30.079  1.00  0.00    -0.000 C 
BRANCH  26  27
ATOM     27  C   UNL     1      27.032   6.701  30.734  1.00  0.00    -0.000 C 
BRANCH  27  28
ATOM     28  C   UNL     1      26.923   8.178  30.323  1.00  0.00    -0.000 C 
BRANCH  28  29
ATOM     29  C   UNL     1      28.207   8.969  30.616  1.00  0.00    -0.003 C 
ATOM     30  C   UNL     1      28.630   9.796  29.405  1.00  0.00     0.004 C 
ENDBRANCH  28  29
ENDBRANCH  27  28
ENDBRANCH  26  27
ENDBRANCH  25  26
ENDBRANCH  24  25
ENDBRANCH  23  24
ENDBRANCH  22  23
ENDBRANCH  21  22
ENDBRANCH  20  21
ENDBRANCH  19  20
ENDBRANCH  18  19
ENDBRANCH  17  18
ENDBRANCH   1  17
TORSDOF 26
ENDMDL
MODEL 7
REMARK VINA RESULT:    -4.959      3.394      8.694
REMARK INTER + INTRA:         -15.275
REMARK INTER:                 -13.302
REMARK INTRA:                  -1.973
REMARK UNBOUND:                -2.779
REMARK SMILES CCCCCCCCCCCCCCCCCCCCCCCCCCCC(=O)[O-]
REMARK SMILES IDX 15 1 16 2 17 3 18 4 19 5 20 6 21 7 22 8 23 9 24 10 25 11
REMARK SMILES IDX 26 12 27 13 28 14 29 15 30 16 14 17 13 18 12 19 11 20 10 21
REMARK SMILES IDX 9 22 8 23 7 24 6 25 5 26 4 27 3 28 2 29 1 30
REMARK H PARENT
REMARK Flexibility Score: inf
ROOT
ATOM      1  C   UNL     1      28.341  -2.308  31.189  1.00  0.00     0.000 C 
ENDROOT
BRANCH   1   2
ATOM      2  C   UNL     1      29.343  -2.530  30.034  1.00  0.00     0.000 C 
BRANCH   2   3
ATOM      3  C   UNL     1      30.152  -3.839  30.114  1.00  0.00     0.000 C 
BRANCH   3   4
ATOM      4  C   UNL     1      29.400  -5.039  29.508  1.00  0.00     0.000 C 
BRANCH   4   5
ATOM      5  C   UNL     1      28.507  -5.748  30.540  1.00  0.00     0.000 C 
BRANCH   5   6
ATOM      6  C   UNL     1      27.058  -5.904  30.045  1.00  0.00     0.000 C 
BRANCH   6   7
ATOM      7  C   UNL     1      26.180  -4.685  30.396  1.00  0.00     0.000 C 
BRANCH   7   8
ATOM      8  C   UNL     1      24.691  -4.864  30.041  1.00  0.00     0.000 C 
BRANCH   8   9
ATOM      9  C   UNL     1      23.717  -4.001  30.861  1.00  0.00     0.000 C 
BRANCH   9  10
ATOM     10  C   UNL     1      22.387  -3.678  30.155  1.00  0.00     0.000 C 
BRANCH  10  11
ATOM     11  C   UNL     1      22.148  -2.170  29.931  1.00  0.00     0.000 C 
BRANCH  11  12
ATOM     12  C   UNL     1      20.836  -1.838  29.194  1.00  0.00     0.006 C 
BRANCH  12  13
ATOM     13  C   UNL     1      20.973  -0.709  28.155  1.00  0.00     0.053 C 
BRANCH  13  14
ATOM     14  C   UNL     1      21.418  -1.213  26.818  1.00  0.00     0.041 C 
ATOM     15  O   UNL     1      21.183  -2.402  26.474  1.00  0.00    -0.550 OA
ATOM     16  O   UNL     1      22.083  -0.363  25.942  1.00  0.00    -0.550 OA
ENDBRANCH  13  14
ENDBRANCH  12  13
ENDBRANCH  11  12
ENDBRANCH  10  11
ENDBRANCH   9  10
ENDBRANCH   8   9
ENDBRANCH   7   8
ENDBRANCH   6   7
ENDBRANCH   5   6
ENDBRANCH   4   5
ENDBRANCH   3   4
ENDBRANCH   2   3
ENDBRANCH   1   2
BRANCH   1  17
ATOM     17  C   UNL     1      27.553  -0.980  31.135  1.00  0.00     0.000 C 
BRANCH  17  18
ATOM     18  C   UNL     1      26.437  -0.941  30.074  1.00  0.00     0.000 C 
BRANCH  18  19
ATOM     19  C   UNL     1      26.801  -0.050  28.874  1.00  0.00     0.000 C 
BRANCH  19  20
ATOM     20  C   UNL     1      27.964   0.908  29.191  1.00  0.00     0.000 C 
BRANCH  20  21
ATOM     21  C   UNL     1      27.457   2.260  29.723  1.00  0.00     0.000 C 
BRANCH  21  22
ATOM     22  C   UNL     1      28.265   2.778  30.927  1.00  0.00    -0.000 C 
BRANCH  22  23
ATOM     23  C   UNL     1      28.148   4.295  31.192  1.00  0.00    -0.000 C 
BRANCH  23  24
ATOM     24  C   UNL     1      27.353   5.090  30.137  1.00  0.00    -0.000 C 
BRANCH  24  25
ATOM     25  C   UNL     1      27.241   6.602  30.407  1.00  0.00    -0.000 C 
BRANCH  25  26
ATOM     26  C   UNL     1      28.431   7.400  29.854  1.00  0.00    -0.000 C 
BRANCH  26  27
ATOM     27  C   UNL     1      28.382   8.852  30.349  1.00  0.00    -0.000 C 
BRANCH  27  28
ATOM     28  C   UNL     1      27.379   9.715  29.566  1.00  0.00    -0.000 C 
BRANCH  28  29
ATOM     29  C   UNL     1      26.140  10.082  30.397  1.00  0.00    -0.003 C 
ATOM     30  C   UNL     1      26.470  10.123  31.886  1.00  0.00     0.004 C 
ENDBRANCH  28  29
ENDBRANCH  27  28
ENDBRANCH  26  27
ENDBRANCH  25  26
ENDBRANCH  24  25
ENDBRANCH  23  24
ENDBRANCH  22  23
ENDBRANCH  21  22
ENDBRANCH  20  21
ENDBRANCH  19  20
ENDBRANCH  18  19
ENDBRANCH  17  18
ENDBRANCH   1  17
TORSDOF 26
ENDMDL
MODEL 8
REMARK VINA RESULT:    -4.920      4.825      8.265
REMARK INTER + INTRA:         -15.177
REMARK INTER:                 -13.045
REMARK INTRA:                  -2.132
REMARK UNBOUND:                -2.779
REMARK SMILES CCCCCCCCCCCCCCCCCCCCCCCCCCCC(=O)[O-]
REMARK SMILES IDX 15 1 16 2 17 3 18 4 19 5 20 6 21 7 22 8 23 9 24 10 25 11
REMARK SMILES IDX 26 12 27 13 28 14 29 15 30 16 14 17 13 18 12 19 11 20 10 21
REMARK SMILES IDX 9 22 8 23 7 24 6 25 5 26 4 27 3 28 2 29 1 30
REMARK H PARENT
REMARK Flexibility Score: inf
ROOT
ATOM      1  C   UNL     1      28.293   3.255  31.570  1.00  0.00     0.000 C 
ENDROOT
BRANCH   1   2
ATOM      2  C   UNL     1      28.540   1.733  31.466  1.00  0.00     0.000 C 
BRANCH   2   3
ATOM      3  C   UNL     1      29.882   1.248  32.048  1.00  0.00     0.000 C 
BRANCH   3   4
ATOM      4  C   UNL     1      29.921  -0.277  32.256  1.00  0.00     0.000 C 
BRANCH   4   5
ATOM      5  C   UNL     1      28.961  -1.020  31.313  1.00  0.00     0.000 C 
BRANCH   5   6
ATOM      6  C   UNL     1      29.668  -1.521  30.040  1.00  0.00     0.000 C 
BRANCH   6   7
ATOM      7  C   UNL     1      29.038  -2.817  29.487  1.00  0.00     0.000 C 
BRANCH   7   8
ATOM      8  C   UNL     1      28.707  -3.863  30.570  1.00  0.00     0.000 C 
BRANCH   8   9
ATOM      9  C   UNL     1      27.293  -4.462  30.486  1.00  0.00     0.000 C 
BRANCH   9  10
ATOM     10  C   UNL     1      27.234  -5.905  29.952  1.00  0.00     0.000 C 
BRANCH  10  11
ATOM     11  C   UNL     1      28.618  -6.516  29.645  1.00  0.00     0.000 C 
BRANCH  11  12
ATOM     12  C   UNL     1      29.238  -7.301  30.816  1.00  0.00     0.006 C 
BRANCH  12  13
ATOM     13  C   UNL     1      29.431  -8.802  30.529  1.00  0.00     0.053 C 
BRANCH  13  14
ATOM     14  C   UNL     1      28.849  -9.213  29.212  1.00  0.00     0.041 C 
ATOM     15  O   UNL     1      27.801  -9.911  29.169  1.00  0.00    -0.550 OA
ATOM     16  O   UNL     1      29.457  -8.813  28.029  1.00  0.00    -0.550 OA
ENDBRANCH  13  14
ENDBRANCH  12  13
ENDBRANCH  11  12
ENDBRANCH  10  11
ENDBRANCH   9  10
ENDBRANCH   8   9
ENDBRANCH   7   8
ENDBRANCH   6   7
ENDBRANCH   5   6
ENDBRANCH   4   5
ENDBRANCH   3   4
ENDBRANCH   2   3
ENDBRANCH   1   2
BRANCH   1  17
ATOM     17  C   UNL     1      27.876   3.949  30.253  1.00  0.00     0.000 C 
BRANCH  17  18
ATOM     18  C   UNL     1      27.980   3.059  29.000  1.00  0.00     0.000 C 
BRANCH  18  19
ATOM     19  C   UNL     1      26.838   2.032  28.916  1.00  0.00     0.000 C 
BRANCH  19  20
ATOM     20  C   UNL     1      27.344   0.627  28.542  1.00  0.00     0.000 C 
BRANCH  20  21
ATOM     21  C   UNL     1      26.255  -0.441  28.744  1.00  0.00     0.000 C 
BRANCH  21  22
ATOM     22  C   UNL     1      25.647  -0.426  30.159  1.00  0.00    -0.000 C 
BRANCH  22  23
ATOM     23  C   UNL     1      24.579  -1.509  30.426  1.00  0.00    -0.000 C 
BRANCH  23  24
ATOM     24  C   UNL     1      23.119  -1.066  30.203  1.00  0.00    -0.000 C 
BRANCH  24  25
ATOM     25  C   UNL     1      22.066  -2.176  30.377  1.00  0.00    -0.000 C 
BRANCH  25  26
ATOM     26  C   UNL     1      21.019  -2.190  29.253  1.00  0.00    -0.000 C 
BRANCH  26  27
ATOM     27  C   UNL     1      21.226  -0.997  28.310  1.00  0.00    -0.000 C 
BRANCH  27  28
ATOM     28  C   UNL     1      21.398  -1.420  26.843  1.00  0.00    -0.000 C 
BRANCH  28  29
ATOM     29  C   UNL     1      21.966  -0.295  25.965  1.00  0.00    -0.003 C 
ATOM     30  C   UNL     1      23.466  -0.130  26.187  1.00  0.00     0.004 C 
ENDBRANCH  28  29
ENDBRANCH  27  28
ENDBRANCH  26  27
ENDBRANCH  25  26
ENDBRANCH  24  25
ENDBRANCH  23  24
ENDBRANCH  22  23
ENDBRANCH  21  22
ENDBRANCH  20  21
ENDBRANCH  19  20
ENDBRANCH  18  19
ENDBRANCH  17  18
ENDBRANCH   1  17
TORSDOF 26
ENDMDL
MODEL 9
REMARK VINA RESULT:    -4.867      3.331      8.146
REMARK INTER + INTRA:         -15.043
REMARK INTER:                 -12.369
REMARK INTRA:                  -2.674
REMARK UNBOUND:                -2.779
REMARK SMILES CCCCCCCCCCCCCCCCCCCCCCCCCCCC(=O)[O-]
REMARK SMILES IDX 15 1 16 2 17 3 18 4 19 5 20 6 21 7 22 8 23 9 24 10 25 11
REMARK SMILES IDX 26 12 27 13 28 14 29 15 30 16 14 17 13 18 12 19 11 20 10 21
REMARK SMILES IDX 9 22 8 23 7 24 6 25 5 26 4 27 3 28 2 29 1 30
REMARK H PARENT
REMARK Flexibility Score: inf
ROOT
ATOM      1  C   UNL     1      30.767  -3.572  30.028  1.00  0.00     0.000 C 
ENDROOT
BRANCH   1   2
ATOM      2  C   UNL     1      29.960  -4.829  29.633  1.00  0.00     0.000 C 
BRANCH   2   3
ATOM      3  C   UNL     1      29.848  -5.904  30.731  1.00  0.00     0.000 C 
BRANCH   3   4
ATOM      4  C   UNL     1      28.400  -6.385  30.944  1.00  0.00     0.000 C 
BRANCH   4   5
ATOM      5  C   UNL     1      27.452  -5.888  29.840  1.00  0.00     0.000 C 
BRANCH   5   6
ATOM      6  C   UNL     1      26.289  -5.053  30.406  1.00  0.00     0.000 C 
BRANCH   6   7
ATOM      7  C   UNL     1      26.752  -3.681  30.938  1.00  0.00     0.000 C 
BRANCH   7   8
ATOM      8  C   UNL     1      26.372  -2.496  30.028  1.00  0.00     0.000 C 
BRANCH   8   9
ATOM      9  C   UNL     1      25.882  -1.239  30.766  1.00  0.00     0.000 C 
BRANCH   9  10
ATOM     10  C   UNL     1      24.440  -0.814  30.430  1.00  0.00     0.000 C 
BRANCH  10  11
ATOM     11  C   UNL     1      23.461  -1.996  30.266  1.00  0.00     0.000 C 
BRANCH  11  12
ATOM     12  C   UNL     1      21.974  -1.598  30.300  1.00  0.00     0.006 C 
BRANCH  12  13
ATOM     13  C   UNL     1      21.124  -2.265  29.202  1.00  0.00     0.053 C 
BRANCH  13  14
ATOM     14  C   UNL     1      21.068  -1.453  27.947  1.00  0.00     0.041 C 
ATOM     15  O   UNL     1      20.840  -0.215  27.999  1.00  0.00    -0.550 OA
ATOM     16  O   UNL     1      21.282  -2.061  26.716  1.00  0.00    -0.550 OA
ENDBRANCH  13  14
ENDBRANCH  12  13
ENDBRANCH  11  12
ENDBRANCH  10  11
ENDBRANCH   9  10
ENDBRANCH   8   9
ENDBRANCH   7   8
ENDBRANCH   6   7
ENDBRANCH   5   6
ENDBRANCH   4   5
ENDBRANCH   3   4
ENDBRANCH   2   3
ENDBRANCH   1   2
BRANCH   1  17
ATOM     17  C   UNL     1      29.937  -2.279  30.196  1.00  0.00     0.000 C 
BRANCH  17  18
ATOM     18  C   UNL     1      29.424  -1.672  28.877  1.00  0.00     0.000 C 
BRANCH  18  19
ATOM     19  C   UNL     1      29.171  -0.159  28.988  1.00  0.00     0.000 C 
BRANCH  19  20
ATOM     20  C   UNL     1      29.269   0.343  30.440  1.00  0.00     0.000 C 
BRANCH  20  21
ATOM     21  C   UNL     1      28.565   1.700  30.621  1.00  0.00     0.000 C 
BRANCH  21  22
ATOM     22  C   UNL     1      27.545   2.006  29.508  1.00  0.00    -0.000 C 
BRANCH  22  23
ATOM     23  C   UNL     1      27.370   3.502  29.172  1.00  0.00    -0.000 C 
BRANCH  23  24
ATOM     24  C   UNL     1      27.631   4.476  30.339  1.00  0.00    -0.000 C 
BRANCH  24  25
ATOM     25  C   UNL     1      27.261   5.944  30.060  1.00  0.00    -0.000 C 
BRANCH  25  26
ATOM     26  C   UNL     1      28.376   6.928  30.445  1.00  0.00    -0.000 C 
BRANCH  26  27
ATOM     27  C   UNL     1      27.945   8.372  30.150  1.00  0.00    -0.000 C 
BRANCH  27  28
ATOM     28  C   UNL     1      26.947   8.919  31.182  1.00  0.00    -0.000 C 
BRANCH  28  29
ATOM     29  C   UNL     1      25.782   9.681  30.532  1.00  0.00    -0.003 C 
ATOM     30  C   UNL     1      26.118  10.078  29.098  1.00  0.00     0.004 C 
ENDBRANCH  28  29
ENDBRANCH  27  28
ENDBRANCH  26  27
ENDBRANCH  25  26
ENDBRANCH  24  25
ENDBRANCH  23  24
ENDBRANCH  22  23
ENDBRANCH  21  22
ENDBRANCH  20  21
ENDBRANCH  19  20
ENDBRANCH  18  19
ENDBRANCH  17  18
ENDBRANCH   1  17
TORSDOF 26
ENDMDL
