MODEL 1
REMARK VINA RESULT:    -3.644      0.000      0.000
REMARK INTER + INTRA:          -6.668
REMARK INTER:                  -5.775
REMARK INTRA:                  -0.893
REMARK UNBOUND:                -0.893
REMARK SMILES CCCCCCCCCCCC(=O)[O-]
REMARK SMILES IDX 7 1 8 2 9 3 10 4 11 5 12 6 13 7 14 8 6 9 5 10 4 11 3 12 2 13
REMARK SMILES IDX 1 14
REMARK H PARENT
REMARK Flexibility Score: inf
ROOT
ATOM      1  C   UNL     1     -17.791  25.573  36.537  1.00  0.00     0.000 C 
ENDROOT
BRANCH   1   2
ATOM      2  C   UNL     1     -17.497  26.956  35.926  1.00  0.00     0.000 C 
BRANCH   2   3
ATOM      3  C   UNL     1     -17.976  27.081  34.469  1.00  0.00     0.000 C 
BRANCH   3   4
ATOM      4  C   UNL     1     -16.812  27.261  33.480  1.00  0.00     0.006 C 
BRANCH   4   5
ATOM      5  C   UNL     1     -17.022  26.485  32.173  1.00  0.00     0.053 C 
BRANCH   5   6
ATOM      6  C   UNL     1     -16.345  25.153  32.242  1.00  0.00     0.041 C 
ATOM      7  O   UNL     1     -15.140  25.073  32.598  1.00  0.00    -0.550 OA
ATOM      8  O   UNL     1     -17.059  23.995  31.964  1.00  0.00    -0.550 OA
ENDBRANCH   5   6
ENDBRANCH   4   5
ENDBRANCH   3   4
ENDBRANCH   2   3
ENDBRANCH   1   2
BRANCH   1   9
ATOM      9  C   UNL     1     -17.876  24.418  35.522  1.00  0.00     0.000 C 
BRANCH   9  10
ATOM     10  C   UNL     1     -17.239  23.117  36.041  1.00  0.00    -0.000 C 
BRANCH  10  11
ATOM     11  C   UNL     1     -15.767  22.974  35.623  1.00  0.00    -0.000 C 
BRANCH  11  12
ATOM     12  C   UNL     1     -15.591  22.071  34.389  1.00  0.00    -0.000 C 
BRANCH  12  13
ATOM     13  C   UNL     1     -14.121  21.938  33.963  1.00  0.00    -0.003 C 
ATOM     14  C   UNL     1     -13.151  22.469  35.018  1.00  0.00     0.004 C 
ENDBRANCH  12  13
ENDBRANCH  11  12
ENDBRANCH  10  11
ENDBRANCH   9  10
ENDBRANCH   1   9
TORSDOF 10
ENDMDL
MODEL 2
REMARK VINA RESULT:    -3.642      1.592      4.465
REMARK INTER + INTRA:          -6.664
REMARK INTER:                  -5.788
REMARK INTRA:                  -0.877
REMARK UNBOUND:                -0.893
REMARK SMILES CCCCCCCCCCCC(=O)[O-]
REMARK SMILES IDX 7 1 8 2 9 3 10 4 11 5 12 6 13 7 14 8 6 9 5 10 4 11 3 12 2 13
REMARK SMILES IDX 1 14
REMARK H PARENT
REMARK Flexibility Score: inf
ROOT
ATOM      1  C   UNL     1     -17.860  25.115  35.428  1.00  0.00     0.000 C 
ENDROOT
BRANCH   1   2
ATOM      2  C   UNL     1     -17.863  24.232  36.690  1.00  0.00     0.000 C 
BRANCH   2   3
ATOM      3  C   UNL     1     -17.218  22.855  36.458  1.00  0.00     0.000 C 
BRANCH   3   4
ATOM      4  C   UNL     1     -16.165  22.878  35.338  1.00  0.00     0.006 C 
BRANCH   4   5
ATOM      5  C   UNL     1     -14.807  22.327  35.792  1.00  0.00     0.053 C 
BRANCH   5   6
ATOM      6  C   UNL     1     -13.764  22.588  34.752  1.00  0.00     0.041 C 
ATOM      7  O   UNL     1     -14.021  23.332  33.769  1.00  0.00    -0.550 OA
ATOM      8  O   UNL     1     -12.491  22.050  34.893  1.00  0.00    -0.550 OA
ENDBRANCH   5   6
ENDBRANCH   4   5
ENDBRANCH   3   4
ENDBRANCH   2   3
ENDBRANCH   1   2
BRANCH   1   9
ATOM      9  C   UNL     1     -17.615  26.614  35.683  1.00  0.00     0.000 C 
BRANCH   9  10
ATOM     10  C   UNL     1     -17.301  27.396  34.395  1.00  0.00    -0.000 C 
BRANCH  10  11
ATOM     11  C   UNL     1     -17.877  26.720  33.141  1.00  0.00    -0.000 C 
BRANCH  11  12
ATOM     12  C   UNL     1     -16.936  26.830  31.928  1.00  0.00    -0.000 C 
BRANCH  12  13
ATOM     13  C   UNL     1     -16.213  25.509  31.623  1.00  0.00    -0.003 C 
ATOM     14  C   UNL     1     -16.995  24.285  32.101  1.00  0.00     0.004 C 
ENDBRANCH  12  13
ENDBRANCH  11  12
ENDBRANCH  10  11
ENDBRANCH   9  10
ENDBRANCH   1   9
TORSDOF 10
ENDMDL
MODEL 3
REMARK VINA RESULT:    -3.642      2.076      4.609
REMARK INTER + INTRA:          -6.664
REMARK INTER:                  -5.625
REMARK INTRA:                  -1.039
REMARK UNBOUND:                -0.893
REMARK SMILES CCCCCCCCCCCC(=O)[O-]
REMARK SMILES IDX 7 1 8 2 9 3 10 4 11 5 12 6 13 7 14 8 6 9 5 10 4 11 3 12 2 13
REMARK SMILES IDX 1 14
REMARK H PARENT
REMARK Flexibility Score: inf
ROOT
ATOM      1  C   UNL     1     -17.312  23.008  35.494  1.00  0.00     0.000 C 
ENDROOT
BRANCH   1   2
ATOM      2  C   UNL     1     -17.844  22.787  34.065  1.00  0.00     0.000 C 
BRANCH   2   3
ATOM      3  C   UNL     1     -16.768  22.259  33.101  1.00  0.00     0.000 C 
BRANCH   3   4
ATOM      4  C   UNL     1     -15.522  21.739  33.837  1.00  0.00     0.006 C 
BRANCH   4   5
ATOM      5  C   UNL     1     -14.438  22.814  33.994  1.00  0.00     0.053 C 
BRANCH   5   6
ATOM      6  C   UNL     1     -13.563  22.504  35.167  1.00  0.00     0.041 C 
ATOM      7  O   UNL     1     -12.313  22.632  35.077  1.00  0.00    -0.550 OA
ATOM      8  O   UNL     1     -14.130  22.123  36.377  1.00  0.00    -0.550 OA
ENDBRANCH   5   6
ENDBRANCH   4   5
ENDBRANCH   3   4
ENDBRANCH   2   3
ENDBRANCH   1   2
BRANCH   1   9
ATOM      9  C   UNL     1     -17.439  24.450  36.020  1.00  0.00     0.000 C 
BRANCH   9  10
ATOM     10  C   UNL     1     -18.125  25.394  35.017  1.00  0.00    -0.000 C 
BRANCH  10  11
ATOM     11  C   UNL     1     -17.455  26.776  34.958  1.00  0.00    -0.000 C 
BRANCH  11  12
ATOM     12  C   UNL     1     -16.699  27.007  33.637  1.00  0.00    -0.000 C 
BRANCH  12  13
ATOM     13  C   UNL     1     -17.277  26.182  32.476  1.00  0.00    -0.003 C 
ATOM     14  C   UNL     1     -16.196  25.486  31.652  1.00  0.00     0.004 C 
ENDBRANCH  12  13
ENDBRANCH  11  12
ENDBRANCH  10  11
ENDBRANCH   9  10
ENDBRANCH   1   9
TORSDOF 10
ENDMDL
MODEL 4
REMARK VINA RESULT:    -3.563      1.931      4.844
REMARK INTER + INTRA:          -6.540
REMARK INTER:                  -5.212
REMARK INTRA:                  -1.327
REMARK UNBOUND:                -0.893
REMARK SMILES CCCCCCCCCCCC(=O)[O-]
REMARK SMILES IDX 7 1 8 2 9 3 10 4 11 5 12 6 13 7 14 8 6 9 5 10 4 11 3 12 2 13
REMARK SMILES IDX 1 14
REMARK H PARENT
REMARK Flexibility Score: inf
ROOT
ATOM      1  C   UNL     1     -17.976  22.999  33.849  1.00  0.00     0.000 C 
ENDROOT
BRANCH   1   2
ATOM      2  C   UNL     1     -18.125  23.870  35.111  1.00  0.00     0.000 C 
BRANCH   2   3
ATOM      3  C   UNL     1     -16.954  23.704  36.095  1.00  0.00     0.000 C 
BRANCH   3   4
ATOM      4  C   UNL     1     -16.064  22.498  35.753  1.00  0.00     0.006 C 
BRANCH   4   5
ATOM      5  C   UNL     1     -14.604  22.896  35.497  1.00  0.00     0.053 C 
BRANCH   5   6
ATOM      6  C   UNL     1     -13.956  21.928  34.558  1.00  0.00     0.041 C 
ATOM      7  O   UNL     1     -14.614  21.433  33.605  1.00  0.00    -0.550 OA
ATOM      8  O   UNL     1     -12.611  21.610  34.705  1.00  0.00    -0.550 OA
ENDBRANCH   5   6
ENDBRANCH   4   5
ENDBRANCH   3   4
ENDBRANCH   2   3
ENDBRANCH   1   2
BRANCH   1   9
ATOM      9  C   UNL     1     -17.699  23.777  32.550  1.00  0.00     0.000 C 
BRANCH   9  10
ATOM     10  C   UNL     1     -16.291  24.398  32.513  1.00  0.00    -0.000 C 
BRANCH  10  11
ATOM     11  C   UNL     1     -16.294  25.830  31.957  1.00  0.00    -0.000 C 
BRANCH  11  12
ATOM     12  C   UNL     1     -17.620  26.564  32.227  1.00  0.00    -0.000 C 
BRANCH  12  13
ATOM     13  C   UNL     1     -17.439  27.790  33.135  1.00  0.00    -0.003 C 
ATOM     14  C   UNL     1     -17.153  27.411  34.588  1.00  0.00     0.004 C 
ENDBRANCH  12  13
ENDBRANCH  11  12
ENDBRANCH  10  11
ENDBRANCH   9  10
ENDBRANCH   1   9
TORSDOF 10
ENDMDL
MODEL 5
REMARK VINA RESULT:    -3.557      1.487      2.292
REMARK INTER + INTRA:          -6.529
REMARK INTER:                  -5.573
REMARK INTRA:                  -0.956
REMARK UNBOUND:                -0.893
REMARK SMILES CCCCCCCCCCCC(=O)[O-]
REMARK SMILES IDX 7 1 8 2 9 3 10 4 11 5 12 6 13 7 14 8 6 9 5 10 4 11 3 12 2 13
REMARK SMILES IDX 1 14
REMARK H PARENT
REMARK Flexibility Score: inf
ROOT
ATOM      1  C   UNL     1     -17.474  22.613  35.714  1.00  0.00     0.000 C 
ENDROOT
BRANCH   1   2
ATOM      2  C   UNL     1     -17.193  24.111  35.940  1.00  0.00     0.000 C 
BRANCH   2   3
ATOM      3  C   UNL     1     -18.125  25.024  35.125  1.00  0.00     0.000 C 
BRANCH   3   4
ATOM      4  C   UNL     1     -17.396  26.252  34.555  1.00  0.00     0.006 C 
BRANCH   4   5
ATOM      5  C   UNL     1     -18.125  26.867  33.353  1.00  0.00     0.053 C 
BRANCH   5   6
ATOM      6  C   UNL     1     -17.272  26.783  32.127  1.00  0.00     0.041 C 
ATOM      7  O   UNL     1     -17.116  27.795  31.394  1.00  0.00    -0.550 OA
ATOM      8  O   UNL     1     -16.608  25.602  31.820  1.00  0.00    -0.550 OA
ENDBRANCH   5   6
ENDBRANCH   4   5
ENDBRANCH   3   4
ENDBRANCH   2   3
ENDBRANCH   1   2
BRANCH   1   9
ATOM      9  C   UNL     1     -17.927  22.244  34.290  1.00  0.00     0.000 C 
BRANCH   9  10
ATOM     10  C   UNL     1     -16.789  22.340  33.257  1.00  0.00    -0.000 C 
BRANCH  10  11
ATOM     11  C   UNL     1     -15.482  21.710  33.762  1.00  0.00    -0.000 C 
BRANCH  11  12
ATOM     12  C   UNL     1     -14.359  22.749  33.941  1.00  0.00    -0.000 C 
BRANCH  12  13
ATOM     13  C   UNL     1     -13.348  22.340  35.024  1.00  0.00    -0.003 C 
ATOM     14  C   UNL     1     -14.014  22.021  36.362  1.00  0.00     0.004 C 
ENDBRANCH  12  13
ENDBRANCH  11  12
ENDBRANCH  10  11
ENDBRANCH   9  10
ENDBRANCH   1   9
TORSDOF 10
ENDMDL
MODEL 6
REMARK VINA RESULT:    -3.550      1.708      5.002
REMARK INTER + INTRA:          -6.518
REMARK INTER:                  -5.202
REMARK INTRA:                  -1.316
REMARK UNBOUND:                -0.893
REMARK SMILES CCCCCCCCCCCC(=O)[O-]
REMARK SMILES IDX 7 1 8 2 9 3 10 4 11 5 12 6 13 7 14 8 6 9 5 10 4 11 3 12 2 13
REMARK SMILES IDX 1 14
REMARK H PARENT
REMARK Flexibility Score: inf
ROOT
ATOM      1  C   UNL     1     -16.208  24.707  32.662  1.00  0.00     0.000 C 
ENDROOT
BRANCH   1   2
ATOM      2  C   UNL     1     -17.469  23.891  33.001  1.00  0.00     0.000 C 
BRANCH   2   3
ATOM      3  C   UNL     1     -17.584  23.562  34.499  1.00  0.00     0.000 C 
BRANCH   3   4
ATOM      4  C   UNL     1     -16.262  23.779  35.253  1.00  0.00     0.006 C 
BRANCH   4   5
ATOM      5  C   UNL     1     -15.582  22.460  35.646  1.00  0.00     0.053 C 
BRANCH   5   6
ATOM      6  C   UNL     1     -14.352  22.241  34.822  1.00  0.00     0.041 C 
ATOM      7  O   UNL     1     -14.425  21.625  33.726  1.00  0.00    -0.550 OA
ATOM      8  O   UNL     1     -13.134  22.762  35.239  1.00  0.00    -0.550 OA
ENDBRANCH   5   6
ENDBRANCH   4   5
ENDBRANCH   3   4
ENDBRANCH   2   3
ENDBRANCH   1   2
BRANCH   1   9
ATOM      9  C   UNL     1     -16.435  25.883  31.693  1.00  0.00     0.000 C 
BRANCH   9  10
ATOM     10  C   UNL     1     -17.392  26.947  32.259  1.00  0.00    -0.000 C 
BRANCH  10  11
ATOM     11  C   UNL     1     -16.917  27.509  33.608  1.00  0.00    -0.000 C 
BRANCH  11  12
ATOM     12  C   UNL     1     -17.955  27.309  34.727  1.00  0.00    -0.000 C 
BRANCH  12  13
ATOM     13  C   UNL     1     -17.358  27.524  36.127  1.00  0.00    -0.003 C 
ATOM     14  C   UNL     1     -17.796  26.452  37.125  1.00  0.00     0.004 C 
ENDBRANCH  12  13
ENDBRANCH  11  12
ENDBRANCH  10  11
ENDBRANCH   9  10
ENDBRANCH   1   9
TORSDOF 10
ENDMDL
MODEL 7
REMARK VINA RESULT:    -3.281     12.898     14.928
REMARK INTER + INTRA:          -6.093
REMARK INTER:                  -5.710
REMARK INTRA:                  -0.383
REMARK UNBOUND:                -0.893
REMARK SMILES CCCCCCCCCCCC(=O)[O-]
REMARK SMILES IDX 7 1 8 2 9 3 10 4 11 5 12 6 13 7 14 8 6 9 5 10 4 11 3 12 2 13
REMARK SMILES IDX 1 14
REMARK H PARENT
REMARK Flexibility Score: inf
ROOT
ATOM      1  C   UNL     1      -5.346  23.262  25.841  1.00  0.00     0.000 C 
ENDROOT
BRANCH   1   2
ATOM      2  C   UNL     1      -4.247  24.048  26.580  1.00  0.00     0.000 C 
BRANCH   2   3
ATOM      3  C   UNL     1      -3.415  24.939  25.642  1.00  0.00     0.000 C 
BRANCH   3   4
ATOM      4  C   UNL     1      -3.627  26.438  25.910  1.00  0.00     0.006 C 
BRANCH   4   5
ATOM      5  C   UNL     1      -2.315  27.234  25.891  1.00  0.00     0.053 C 
BRANCH   5   6
ATOM      6  C   UNL     1      -1.632  27.081  24.568  1.00  0.00     0.041 C 
ATOM      7  O   UNL     1      -2.122  27.614  23.537  1.00  0.00    -0.550 OA
ATOM      8  O   UNL     1      -0.428  26.394  24.483  1.00  0.00    -0.550 OA
ENDBRANCH   5   6
ENDBRANCH   4   5
ENDBRANCH   3   4
ENDBRANCH   2   3
ENDBRANCH   1   2
BRANCH   1   9
ATOM      9  C   UNL     1      -6.612  22.977  26.671  1.00  0.00     0.000 C 
BRANCH   9  10
ATOM     10  C   UNL     1      -7.903  23.431  25.967  1.00  0.00    -0.000 C 
BRANCH  10  11
ATOM     11  C   UNL     1      -9.086  22.490  26.243  1.00  0.00    -0.000 C 
BRANCH  11  12
ATOM     12  C   UNL     1      -9.992  22.306  25.012  1.00  0.00    -0.000 C 
BRANCH  12  13
ATOM     13  C   UNL     1     -10.012  23.548  24.107  1.00  0.00    -0.003 C 
ATOM     14  C   UNL     1     -11.008  23.421  22.954  1.00  0.00     0.004 C 
ENDBRANCH  12  13
ENDBRANCH  11  12
ENDBRANCH  10  11
ENDBRANCH   9  10
ENDBRANCH   1   9
TORSDOF 10
ENDMDL
MODEL 8
REMARK VINA RESULT:    -3.147     13.636     15.547
REMARK INTER + INTRA:          -5.880
REMARK INTER:                  -5.389
REMARK INTRA:                  -0.490
REMARK UNBOUND:                -0.893
REMARK SMILES CCCCCCCCCCCC(=O)[O-]
REMARK SMILES IDX 7 1 8 2 9 3 10 4 11 5 12 6 13 7 14 8 6 9 5 10 4 11 3 12 2 13
REMARK SMILES IDX 1 14
REMARK H PARENT
REMARK Flexibility Score: inf
ROOT
ATOM      1  C   UNL     1      -4.442  23.954  26.190  1.00  0.00     0.000 C 
ENDROOT
BRANCH   1   2
ATOM      2  C   UNL     1      -3.618  25.011  25.431  1.00  0.00     0.000 C 
BRANCH   2   3
ATOM      3  C   UNL     1      -3.526  26.350  26.183  1.00  0.00     0.000 C 
BRANCH   3   4
ATOM      4  C   UNL     1      -2.416  27.260  25.632  1.00  0.00     0.006 C 
BRANCH   4   5
ATOM      5  C   UNL     1      -2.019  26.903  24.193  1.00  0.00     0.053 C 
BRANCH   5   6
ATOM      6  C   UNL     1      -0.538  26.718  24.091  1.00  0.00     0.041 C 
ATOM      7  O   UNL     1      -0.038  25.564  24.153  1.00  0.00    -0.550 OA
ATOM      8  O   UNL     1       0.287  27.815  23.876  1.00  0.00    -0.550 OA
ENDBRANCH   5   6
ENDBRANCH   4   5
ENDBRANCH   3   4
ENDBRANCH   2   3
ENDBRANCH   1   2
BRANCH   1   9
ATOM      9  C   UNL     1      -5.878  23.752  25.671  1.00  0.00     0.000 C 
BRANCH   9  10
ATOM     10  C   UNL     1      -6.736  22.884  26.609  1.00  0.00    -0.000 C 
BRANCH  10  11
ATOM     11  C   UNL     1      -8.240  23.014  26.319  1.00  0.00    -0.000 C 
BRANCH  11  12
ATOM     12  C   UNL     1      -8.535  24.010  25.182  1.00  0.00    -0.000 C 
BRANCH  12  13
ATOM     13  C   UNL     1      -9.769  23.610  24.357  1.00  0.00    -0.003 C 
ATOM     14  C   UNL     1     -10.177  22.153  24.575  1.00  0.00     0.004 C 
ENDBRANCH  12  13
ENDBRANCH  11  12
ENDBRANCH  10  11
ENDBRANCH   9  10
ENDBRANCH   1   9
TORSDOF 10
ENDMDL
MODEL 9
REMARK VINA RESULT:    -3.096     17.027     19.151
REMARK INTER + INTRA:          -5.800
REMARK INTER:                  -4.991
REMARK INTRA:                  -0.809
REMARK UNBOUND:                -0.893
REMARK SMILES CCCCCCCCCCCC(=O)[O-]
REMARK SMILES IDX 7 1 8 2 9 3 10 4 11 5 12 6 13 7 14 8 6 9 5 10 4 11 3 12 2 13
REMARK SMILES IDX 1 14
REMARK H PARENT
REMARK Flexibility Score: inf
ROOT
ATOM      1  C   UNL     1      -0.604  26.600  24.004  1.00  0.00     0.000 C 
ENDROOT
BRANCH   1   2
ATOM      2  C   UNL     1       0.274  25.359  23.753  1.00  0.00     0.000 C 
BRANCH   2   3
ATOM      3  C   UNL     1      -0.409  24.047  24.177  1.00  0.00     0.000 C 
BRANCH   3   4
ATOM      4  C   UNL     1      -0.134  22.896  23.196  1.00  0.00     0.006 C 
BRANCH   4   5
ATOM      5  C   UNL     1       0.964  23.237  22.178  1.00  0.00     0.053 C 
BRANCH   5   6
ATOM      6  C   UNL     1       0.627  22.665  20.837  1.00  0.00     0.041 C 
ATOM      7  O   UNL     1      -0.035  21.597  20.753  1.00  0.00    -0.550 OA
ATOM      8  O   UNL     1       1.001  23.337  19.681  1.00  0.00    -0.550 OA
ENDBRANCH   5   6
ENDBRANCH   4   5
ENDBRANCH   3   4
ENDBRANCH   2   3
ENDBRANCH   1   2
BRANCH   1   9
ATOM      9  C   UNL     1      -0.233  27.418  25.254  1.00  0.00     0.000 C 
BRANCH   9  10
ATOM     10  C   UNL     1      -1.465  27.927  26.024  1.00  0.00    -0.000 C 
BRANCH  10  11
ATOM     11  C   UNL     1      -2.786  27.462  25.392  1.00  0.00    -0.000 C 
BRANCH  11  12
ATOM     12  C   UNL     1      -3.490  26.378  26.229  1.00  0.00    -0.000 C 
BRANCH  12  13
ATOM     13  C   UNL     1      -3.639  25.051  25.468  1.00  0.00    -0.003 C 
ATOM     14  C   UNL     1      -4.256  23.946  26.324  1.00  0.00     0.004 C 
ENDBRANCH  12  13
ENDBRANCH  11  12
ENDBRANCH  10  11
ENDBRANCH   9  10
ENDBRANCH   1   9
TORSDOF 10
ENDMDL
