MODEL 1
REMARK VINA RESULT:    -3.066      0.000      0.000
REMARK INTER + INTRA:          -6.164
REMARK INTER:                  -5.576
REMARK INTRA:                  -0.588
REMARK UNBOUND:                -0.588
REMARK SMILES CCCCCCCCCCCCCCCC(=O)[O-]
REMARK SMILES IDX 9 1 10 2 11 3 12 4 13 5 14 6 15 7 16 8 17 9 18 10 8 11 7 12
REMARK SMILES IDX 6 13 5 14 4 15 3 16 2 17 1 18
REMARK H PARENT
REMARK Flexibility Score: inf
ROOT
ATOM      1  C   UNL     1      22.719  21.199  -9.017  1.00  0.00     0.000 C 
ENDROOT
BRANCH   1   2
ATOM      2  C   UNL     1      22.659  20.089 -10.083  1.00  0.00     0.000 C 
BRANCH   2   3
ATOM      3  C   UNL     1      21.482  20.242 -11.069  1.00  0.00     0.000 C 
BRANCH   3   4
ATOM      4  C   UNL     1      20.591  18.987 -11.103  1.00  0.00     0.000 C 
BRANCH   4   5
ATOM      5  C   UNL     1      19.093  19.327 -11.064  1.00  0.00     0.000 C 
BRANCH   5   6
ATOM      6  C   UNL     1      18.219  18.094 -10.775  1.00  0.00     0.006 C 
BRANCH   6   7
ATOM      7  C   UNL     1      16.735  18.355 -11.063  1.00  0.00     0.053 C 
BRANCH   7   8
ATOM      8  C   UNL     1      15.955  18.571  -9.803  1.00  0.00     0.041 C 
ATOM      9  O   UNL     1      16.124  17.810  -8.814  1.00  0.00    -0.550 OA
ATOM     10  O   UNL     1      15.017  19.594  -9.730  1.00  0.00    -0.550 OA
ENDBRANCH   7   8
ENDBRANCH   6   7
ENDBRANCH   5   6
ENDBRANCH   4   5
ENDBRANCH   3   4
ENDBRANCH   2   3
ENDBRANCH   1   2
BRANCH   1  11
ATOM     11  C   UNL     1      23.570  22.401  -9.455  1.00  0.00     0.000 C 
BRANCH  11  12
ATOM     12  C   UNL     1      24.800  21.994 -10.287  1.00  0.00    -0.000 C 
BRANCH  12  13
ATOM     13  C   UNL     1      25.433  23.124 -11.125  1.00  0.00    -0.000 C 
BRANCH  13  14
ATOM     14  C   UNL     1      24.748  24.496 -10.997  1.00  0.00    -0.000 C 
BRANCH  14  15
ATOM     15  C   UNL     1      25.733  25.667 -11.117  1.00  0.00    -0.000 C 
BRANCH  15  16
ATOM     16  C   UNL     1      24.992  27.011 -11.113  1.00  0.00    -0.000 C 
BRANCH  16  17
ATOM     17  C   UNL     1      25.979  28.182 -11.074  1.00  0.00    -0.003 C 
ATOM     18  C   UNL     1      26.783  28.183  -9.777  1.00  0.00     0.004 C 
ENDBRANCH  16  17
ENDBRANCH  15  16
ENDBRANCH  14  15
ENDBRANCH  13  14
ENDBRANCH  12  13
ENDBRANCH  11  12
ENDBRANCH   1  11
TORSDOF 14
ENDMDL
MODEL 2
REMARK VINA RESULT:    -2.710      1.618      2.123
REMARK INTER + INTRA:          -5.515
REMARK INTER:                  -5.104
REMARK INTRA:                  -0.411
REMARK UNBOUND:                -0.588
REMARK SMILES CCCCCCCCCCCCCCCC(=O)[O-]
REMARK SMILES IDX 9 1 10 2 11 3 12 4 13 5 14 6 15 7 16 8 17 9 18 10 8 11 7 12
REMARK SMILES IDX 6 13 5 14 4 15 3 16 2 17 1 18
REMARK H PARENT
REMARK Flexibility Score: inf
ROOT
ATOM      1  C   UNL     1      23.969  21.923 -11.085  1.00  0.00     0.000 C 
ENDROOT
BRANCH   1   2
ATOM      2  C   UNL     1      23.141  20.627 -11.016  1.00  0.00     0.000 C 
BRANCH   2   3
ATOM      3  C   UNL     1      21.617  20.867 -10.984  1.00  0.00     0.000 C 
BRANCH   3   4
ATOM      4  C   UNL     1      20.823  19.549 -11.013  1.00  0.00     0.000 C 
BRANCH   4   5
ATOM      5  C   UNL     1      19.305  19.777 -11.079  1.00  0.00     0.000 C 
BRANCH   5   6
ATOM      6  C   UNL     1      18.508  18.472 -10.906  1.00  0.00     0.006 C 
BRANCH   6   7
ATOM      7  C   UNL     1      17.003  18.680 -11.121  1.00  0.00     0.053 C 
BRANCH   7   8
ATOM      8  C   UNL     1      16.236  18.548  -9.842  1.00  0.00     0.041 C 
ATOM      9  O   UNL     1      15.704  17.450  -9.532  1.00  0.00    -0.550 OA
ATOM     10  O   UNL     1      16.082  19.647  -9.006  1.00  0.00    -0.550 OA
ENDBRANCH   7   8
ENDBRANCH   6   7
ENDBRANCH   5   6
ENDBRANCH   4   5
ENDBRANCH   3   4
ENDBRANCH   2   3
ENDBRANCH   1   2
BRANCH   1  11
ATOM     11  C   UNL     1      25.483  21.663 -11.114  1.00  0.00     0.000 C 
BRANCH  11  12
ATOM     12  C   UNL     1      26.313  22.919 -10.792  1.00  0.00    -0.000 C 
BRANCH  12  13
ATOM     13  C   UNL     1      27.839  22.701 -10.722  1.00  0.00    -0.000 C 
BRANCH  13  14
ATOM     14  C   UNL     1      28.681  23.987 -10.635  1.00  0.00    -0.000 C 
BRANCH  14  15
ATOM     15  C   UNL     1      27.875  25.195 -10.138  1.00  0.00    -0.000 C 
BRANCH  15  16
ATOM     16  C   UNL     1      28.603  25.906  -8.990  1.00  0.00    -0.000 C 
BRANCH  16  17
ATOM     17  C   UNL     1      28.209  27.386  -8.923  1.00  0.00    -0.003 C 
ATOM     18  C   UNL     1      28.172  28.010 -10.315  1.00  0.00     0.004 C 
ENDBRANCH  16  17
ENDBRANCH  15  16
ENDBRANCH  14  15
ENDBRANCH  13  14
ENDBRANCH  12  13
ENDBRANCH  11  12
ENDBRANCH   1  11
TORSDOF 14
ENDMDL
MODEL 3
REMARK VINA RESULT:    -2.667      5.118      9.973
REMARK INTER + INTRA:          -5.438
REMARK INTER:                  -5.163
REMARK INTRA:                  -0.274
REMARK UNBOUND:                -0.588
REMARK SMILES CCCCCCCCCCCCCCCC(=O)[O-]
REMARK SMILES IDX 9 1 10 2 11 3 12 4 13 5 14 6 15 7 16 8 17 9 18 10 8 11 7 12
REMARK SMILES IDX 6 13 5 14 4 15 3 16 2 17 1 18
REMARK H PARENT
REMARK Flexibility Score: inf
ROOT
ATOM      1  C   UNL     1      22.759  21.552  -9.821  1.00  0.00     0.000 C 
ENDROOT
BRANCH   1   2
ATOM      2  C   UNL     1      23.641  20.917 -10.911  1.00  0.00     0.000 C 
BRANCH   2   3
ATOM      3  C   UNL     1      25.124  21.334 -10.828  1.00  0.00     0.000 C 
BRANCH   3   4
ATOM      4  C   UNL     1      25.307  22.854 -10.986  1.00  0.00     0.000 C 
BRANCH   4   5
ATOM      5  C   UNL     1      26.529  23.383 -10.219  1.00  0.00     0.000 C 
BRANCH   5   6
ATOM      6  C   UNL     1      27.495  24.168 -11.125  1.00  0.00     0.006 C 
BRANCH   6   7
ATOM      7  C   UNL     1      27.203  25.675 -11.116  1.00  0.00     0.053 C 
BRANCH   7   8
ATOM      8  C   UNL     1      27.821  26.352  -9.932  1.00  0.00     0.041 C 
ATOM      9  O   UNL     1      28.375  25.671  -9.029  1.00  0.00    -0.550 OA
ATOM     10  O   UNL     1      27.758  27.735  -9.809  1.00  0.00    -0.550 OA
ENDBRANCH   7   8
ENDBRANCH   6   7
ENDBRANCH   5   6
ENDBRANCH   4   5
ENDBRANCH   3   4
ENDBRANCH   2   3
ENDBRANCH   1   2
BRANCH   1  11
ATOM     11  C   UNL     1      21.827  22.644 -10.368  1.00  0.00     0.000 C 
BRANCH  11  12
ATOM     12  C   UNL     1      20.457  22.098 -10.809  1.00  0.00    -0.000 C 
BRANCH  12  13
ATOM     13  C   UNL     1      20.380  20.566 -10.975  1.00  0.00    -0.000 C 
BRANCH  13  14
ATOM     14  C   UNL     1      18.958  19.993 -11.118  1.00  0.00    -0.000 C 
BRANCH  14  15
ATOM     15  C   UNL     1      18.918  18.463 -11.010  1.00  0.00    -0.000 C 
BRANCH  15  16
ATOM     16  C   UNL     1      17.531  17.979 -10.570  1.00  0.00    -0.000 C 
BRANCH  16  17
ATOM     17  C   UNL     1      16.834  19.029  -9.696  1.00  0.00    -0.003 C 
ATOM     18  C   UNL     1      15.357  18.694  -9.505  1.00  0.00     0.004 C 
ENDBRANCH  16  17
ENDBRANCH  15  16
ENDBRANCH  14  15
ENDBRANCH  13  14
ENDBRANCH  12  13
ENDBRANCH  11  12
ENDBRANCH   1  11
TORSDOF 14
ENDMDL
MODEL 4
REMARK VINA RESULT:    -2.652      8.906     10.253
REMARK INTER + INTRA:          -5.411
REMARK INTER:                  -4.940
REMARK INTRA:                  -0.471
REMARK UNBOUND:                -0.588
REMARK SMILES CCCCCCCCCCCCCCCC(=O)[O-]
REMARK SMILES IDX 9 1 10 2 11 3 12 4 13 5 14 6 15 7 16 8 17 9 18 10 8 11 7 12
REMARK SMILES IDX 6 13 5 14 4 15 3 16 2 17 1 18
REMARK H PARENT
REMARK Flexibility Score: inf
ROOT
ATOM      1  C   UNL     1      28.908  22.652  -4.821  1.00  0.00     0.000 C 
ENDROOT
BRANCH   1   2
ATOM      2  C   UNL     1      28.369  22.879  -3.397  1.00  0.00     0.000 C 
BRANCH   2   3
ATOM      3  C   UNL     1      28.800  21.790  -2.392  1.00  0.00     0.000 C 
BRANCH   3   4
ATOM      4  C   UNL     1      27.860  20.572  -2.420  1.00  0.00     0.000 C 
BRANCH   4   5
ATOM      5  C   UNL     1      28.591  19.273  -2.792  1.00  0.00     0.000 C 
BRANCH   5   6
ATOM      6  C   UNL     1      29.120  18.522  -1.557  1.00  0.00     0.006 C 
BRANCH   6   7
ATOM      7  C   UNL     1      28.397  17.187  -1.336  1.00  0.00     0.053 C 
BRANCH   7   8
ATOM      8  C   UNL     1      27.914  17.044   0.074  1.00  0.00     0.041 C 
ATOM      9  O   UNL     1      28.740  16.971   1.022  1.00  0.00    -0.550 OA
ATOM     10  O   UNL     1      26.553  16.960   0.339  1.00  0.00    -0.550 OA
ENDBRANCH   7   8
ENDBRANCH   6   7
ENDBRANCH   5   6
ENDBRANCH   4   5
ENDBRANCH   3   4
ENDBRANCH   2   3
ENDBRANCH   1   2
BRANCH   1  11
ATOM     11  C   UNL     1      29.090  23.961  -5.605  1.00  0.00     0.000 C 
BRANCH  11  12
ATOM     12  C   UNL     1      29.125  23.746  -7.129  1.00  0.00    -0.000 C 
BRANCH  12  13
ATOM     13  C   UNL     1      28.866  25.007  -7.979  1.00  0.00    -0.000 C 
BRANCH  13  14
ATOM     14  C   UNL     1      28.262  24.747  -9.371  1.00  0.00    -0.000 C 
BRANCH  14  15
ATOM     15  C   UNL     1      28.439  25.933 -10.329  1.00  0.00    -0.000 C 
BRANCH  15  16
ATOM     16  C   UNL     1      27.769  27.194  -9.770  1.00  0.00    -0.000 C 
BRANCH  16  17
ATOM     17  C   UNL     1      28.783  28.334  -9.620  1.00  0.00    -0.003 C 
ATOM     18  C   UNL     1      28.171  29.521  -8.881  1.00  0.00     0.004 C 
ENDBRANCH  16  17
ENDBRANCH  15  16
ENDBRANCH  14  15
ENDBRANCH  13  14
ENDBRANCH  12  13
ENDBRANCH  11  12
ENDBRANCH   1  11
TORSDOF 14
ENDMDL
MODEL 5
REMARK VINA RESULT:    -2.641     13.945     17.032
REMARK INTER + INTRA:          -5.390
REMARK INTER:                  -4.929
REMARK INTRA:                  -0.461
REMARK UNBOUND:                -0.588
REMARK SMILES CCCCCCCCCCCCCCCC(=O)[O-]
REMARK SMILES IDX 9 1 10 2 11 3 12 4 13 5 14 6 15 7 16 8 17 9 18 10 8 11 7 12
REMARK SMILES IDX 6 13 5 14 4 15 3 16 2 17 1 18
REMARK H PARENT
REMARK Flexibility Score: inf
ROOT
ATOM      1  C   UNL     1      28.401  25.497   1.061  1.00  0.00     0.000 C 
ENDROOT
BRANCH   1   2
ATOM      2  C   UNL     1      29.040  26.708   1.763  1.00  0.00     0.000 C 
BRANCH   2   3
ATOM      3  C   UNL     1      28.785  26.747   3.284  1.00  0.00     0.000 C 
BRANCH   3   4
ATOM      4  C   UNL     1      29.073  28.135   3.884  1.00  0.00     0.000 C 
BRANCH   4   5
ATOM      5  C   UNL     1      27.823  28.782   4.499  1.00  0.00     0.000 C 
BRANCH   5   6
ATOM      6  C   UNL     1      28.144  29.587   5.771  1.00  0.00     0.006 C 
BRANCH   6   7
ATOM      7  C   UNL     1      29.006  28.790   6.759  1.00  0.00     0.053 C 
BRANCH   7   8
ATOM      8  C   UNL     1      28.749  29.201   8.176  1.00  0.00     0.041 C 
ATOM      9  O   UNL     1      28.194  28.403   8.976  1.00  0.00    -0.550 OA
ATOM     10  O   UNL     1      29.094  30.476   8.605  1.00  0.00    -0.550 OA
ENDBRANCH   7   8
ENDBRANCH   6   7
ENDBRANCH   5   6
ENDBRANCH   4   5
ENDBRANCH   3   4
ENDBRANCH   2   3
ENDBRANCH   1   2
BRANCH   1  11
ATOM     11  C   UNL     1      28.886  25.321  -0.386  1.00  0.00     0.000 C 
BRANCH  11  12
ATOM     12  C   UNL     1      28.387  24.016  -1.032  1.00  0.00    -0.000 C 
BRANCH  12  13
ATOM     13  C   UNL     1      28.983  23.695  -2.418  1.00  0.00    -0.000 C 
BRANCH  13  14
ATOM     14  C   UNL     1      28.044  22.940  -3.376  1.00  0.00    -0.000 C 
BRANCH  14  15
ATOM     15  C   UNL     1      28.796  21.999  -4.328  1.00  0.00    -0.000 C 
BRANCH  15  16
ATOM     16  C   UNL     1      28.937  20.598  -3.718  1.00  0.00    -0.000 C 
BRANCH  16  17
ATOM     17  C   UNL     1      27.909  20.379  -2.603  1.00  0.00    -0.003 C 
ATOM     18  C   UNL     1      28.149  19.053  -1.885  1.00  0.00     0.004 C 
ENDBRANCH  16  17
ENDBRANCH  15  16
ENDBRANCH  14  15
ENDBRANCH  13  14
ENDBRANCH  12  13
ENDBRANCH  11  12
ENDBRANCH   1  11
TORSDOF 14
ENDMDL
MODEL 6
REMARK VINA RESULT:    -2.640     12.727     14.919
REMARK INTER + INTRA:          -5.388
REMARK INTER:                  -4.907
REMARK INTRA:                  -0.481
REMARK UNBOUND:                -0.588
REMARK SMILES CCCCCCCCCCCCCCCC(=O)[O-]
REMARK SMILES IDX 9 1 10 2 11 3 12 4 13 5 14 6 15 7 16 8 17 9 18 10 8 11 7 12
REMARK SMILES IDX 6 13 5 14 4 15 3 16 2 17 1 18
REMARK H PARENT
REMARK Flexibility Score: inf
ROOT
ATOM      1  C   UNL     1      28.365  25.653   1.013  1.00  0.00     0.000 C 
ENDROOT
BRANCH   1   2
ATOM      2  C   UNL     1      28.512  24.619  -0.117  1.00  0.00     0.000 C 
BRANCH   2   3
ATOM      3  C   UNL     1      27.309  24.581  -1.082  1.00  0.00     0.000 C 
BRANCH   3   4
ATOM      4  C   UNL     1      27.468  23.497  -2.163  1.00  0.00     0.000 C 
BRANCH   4   5
ATOM      5  C   UNL     1      28.808  22.753  -2.058  1.00  0.00     0.000 C 
BRANCH   5   6
ATOM      6  C   UNL     1      28.844  21.484  -2.929  1.00  0.00     0.006 C 
BRANCH   6   7
ATOM      7  C   UNL     1      28.005  20.347  -2.332  1.00  0.00     0.053 C 
BRANCH   7   8
ATOM      8  C   UNL     1      28.484  19.004  -2.790  1.00  0.00     0.041 C 
ATOM      9  O   UNL     1      28.826  18.132  -1.948  1.00  0.00    -0.550 OA
ATOM     10  O   UNL     1      28.584  18.726  -4.147  1.00  0.00    -0.550 OA
ENDBRANCH   7   8
ENDBRANCH   6   7
ENDBRANCH   5   6
ENDBRANCH   4   5
ENDBRANCH   3   4
ENDBRANCH   2   3
ENDBRANCH   1   2
BRANCH   1  11
ATOM     11  C   UNL     1      29.101  25.243   2.298  1.00  0.00     0.000 C 
BRANCH  11  12
ATOM     12  C   UNL     1      28.680  26.075   3.523  1.00  0.00    -0.000 C 
BRANCH  12  13
ATOM     13  C   UNL     1      28.832  27.602   3.367  1.00  0.00    -0.000 C 
BRANCH  13  14
ATOM     14  C   UNL     1      29.125  28.368   4.670  1.00  0.00    -0.000 C 
BRANCH  14  15
ATOM     15  C   UNL     1      28.361  29.695   4.766  1.00  0.00    -0.000 C 
BRANCH  15  16
ATOM     16  C   UNL     1      29.095  30.686   5.679  1.00  0.00    -0.000 C 
BRANCH  16  17
ATOM     17  C   UNL     1      29.121  30.184   7.127  1.00  0.00    -0.003 C 
ATOM     18  C   UNL     1      29.038  31.346   8.114  1.00  0.00     0.004 C 
ENDBRANCH  16  17
ENDBRANCH  15  16
ENDBRANCH  14  15
ENDBRANCH  13  14
ENDBRANCH  12  13
ENDBRANCH  11  12
ENDBRANCH   1  11
TORSDOF 14
ENDMDL
MODEL 7
REMARK VINA RESULT:    -2.635     11.509     13.571
REMARK INTER + INTRA:          -5.379
REMARK INTER:                  -4.656
REMARK INTRA:                  -0.723
REMARK UNBOUND:                -0.588
REMARK SMILES CCCCCCCCCCCCCCCC(=O)[O-]
REMARK SMILES IDX 9 1 10 2 11 3 12 4 13 5 14 6 15 7 16 8 17 9 18 10 8 11 7 12
REMARK SMILES IDX 6 13 5 14 4 15 3 16 2 17 1 18
REMARK H PARENT
REMARK Flexibility Score: inf
ROOT
ATOM      1  C   UNL     1      27.024  24.416  -0.477  1.00  0.00     0.000 C 
ENDROOT
BRANCH   1   2
ATOM      2  C   UNL     1      26.822  23.424  -1.635  1.00  0.00     0.000 C 
BRANCH   2   3
ATOM      3  C   UNL     1      27.919  23.503  -2.717  1.00  0.00     0.000 C 
BRANCH   3   4
ATOM      4  C   UNL     1      28.875  22.298  -2.660  1.00  0.00     0.000 C 
BRANCH   4   5
ATOM      5  C   UNL     1      28.434  21.152  -3.584  1.00  0.00     0.000 C 
BRANCH   5   6
ATOM      6  C   UNL     1      28.867  19.773  -3.056  1.00  0.00     0.006 C 
BRANCH   6   7
ATOM      7  C   UNL     1      28.174  19.415  -1.734  1.00  0.00     0.053 C 
BRANCH   7   8
ATOM      8  C   UNL     1      28.348  17.967  -1.391  1.00  0.00     0.041 C 
ATOM      9  O   UNL     1      28.921  17.189  -2.198  1.00  0.00    -0.550 OA
ATOM     10  O   UNL     1      27.849  17.470  -0.194  1.00  0.00    -0.550 OA
ENDBRANCH   7   8
ENDBRANCH   6   7
ENDBRANCH   5   6
ENDBRANCH   4   5
ENDBRANCH   3   4
ENDBRANCH   2   3
ENDBRANCH   1   2
BRANCH   1  11
ATOM     11  C   UNL     1      28.032  25.527  -0.812  1.00  0.00     0.000 C 
BRANCH  11  12
ATOM     12  C   UNL     1      28.931  25.901   0.381  1.00  0.00    -0.000 C 
BRANCH  12  13
ATOM     13  C   UNL     1      28.358  25.558   1.771  1.00  0.00    -0.000 C 
BRANCH  13  14
ATOM     14  C   UNL     1      29.116  26.173   2.962  1.00  0.00    -0.000 C 
BRANCH  14  15
ATOM     15  C   UNL     1      29.100  27.708   2.950  1.00  0.00    -0.000 C 
BRANCH  15  16
ATOM     16  C   UNL     1      28.829  28.265   4.353  1.00  0.00    -0.000 C 
BRANCH  16  17
ATOM     17  C   UNL     1      28.362  29.723   4.285  1.00  0.00    -0.003 C 
ATOM     18  C   UNL     1      28.372  30.370   5.667  1.00  0.00     0.004 C 
ENDBRANCH  16  17
ENDBRANCH  15  16
ENDBRANCH  14  15
ENDBRANCH  13  14
ENDBRANCH  12  13
ENDBRANCH  11  12
ENDBRANCH   1  11
TORSDOF 14
ENDMDL
MODEL 8
REMARK VINA RESULT:    -2.469     11.790     13.306
REMARK INTER + INTRA:          -5.078
REMARK INTER:                  -4.777
REMARK INTRA:                  -0.301
REMARK UNBOUND:                -0.588
REMARK SMILES CCCCCCCCCCCCCCCC(=O)[O-]
REMARK SMILES IDX 9 1 10 2 11 3 12 4 13 5 14 6 15 7 16 8 17 9 18 10 8 11 7 12
REMARK SMILES IDX 6 13 5 14 4 15 3 16 2 17 1 18
REMARK H PARENT
REMARK Flexibility Score: inf
ROOT
ATOM      1  C   UNL     1      12.582  31.134 -10.242  1.00  0.00     0.000 C 
ENDROOT
BRANCH   1   2
ATOM      2  C   UNL     1      11.076  30.852 -10.393  1.00  0.00     0.000 C 
BRANCH   2   3
ATOM      3  C   UNL     1      10.765  29.522 -11.111  1.00  0.00     0.000 C 
BRANCH   3   4
ATOM      4  C   UNL     1       9.337  29.027 -10.817  1.00  0.00     0.000 C 
BRANCH   4   5
ATOM      5  C   UNL     1       8.875  29.373  -9.393  1.00  0.00     0.000 C 
BRANCH   5   6
ATOM      6  C   UNL     1       9.418  28.387  -8.344  1.00  0.00     0.006 C 
BRANCH   6   7
ATOM      7  C   UNL     1      10.481  29.028  -7.441  1.00  0.00     0.053 C 
BRANCH   7   8
ATOM      8  C   UNL     1      11.868  28.659  -7.870  1.00  0.00     0.041 C 
ATOM      9  O   UNL     1      12.045  27.782  -8.756  1.00  0.00    -0.550 OA
ATOM     10  O   UNL     1      12.966  29.259  -7.267  1.00  0.00    -0.550 OA
ENDBRANCH   7   8
ENDBRANCH   6   7
ENDBRANCH   5   6
ENDBRANCH   4   5
ENDBRANCH   3   4
ENDBRANCH   2   3
ENDBRANCH   1   2
BRANCH   1  11
ATOM     11  C   UNL     1      12.920  32.631 -10.321  1.00  0.00     0.000 C 
BRANCH  11  12
ATOM     12  C   UNL     1      14.205  32.914 -11.119  1.00  0.00    -0.000 C 
BRANCH  12  13
ATOM     13  C   UNL     1      14.668  34.386 -11.124  1.00  0.00    -0.000 C 
BRANCH  13  14
ATOM     14  C   UNL     1      16.160  34.604 -10.814  1.00  0.00    -0.000 C 
BRANCH  14  15
ATOM     15  C   UNL     1      16.587  33.991  -9.474  1.00  0.00    -0.000 C 
BRANCH  15  16
ATOM     16  C   UNL     1      16.792  32.476  -9.604  1.00  0.00    -0.000 C 
BRANCH  16  17
ATOM     17  C   UNL     1      16.279  31.744  -8.359  1.00  0.00    -0.003 C 
ATOM     18  C   UNL     1      14.969  32.352  -7.863  1.00  0.00     0.004 C 
ENDBRANCH  16  17
ENDBRANCH  15  16
ENDBRANCH  14  15
ENDBRANCH  13  14
ENDBRANCH  12  13
ENDBRANCH  11  12
ENDBRANCH   1  11
TORSDOF 14
ENDMDL
