MODEL 1
REMARK VINA RESULT:    -5.401      0.000      0.000
REMARK INTER + INTRA:         -16.789
REMARK INTER:                 -14.242
REMARK INTRA:                  -2.547
REMARK UNBOUND:                -2.547
REMARK SMILES CCCCCCCCCCCCCCCCCCCCCCCCCCCCCC(=O)[O-]
REMARK SMILES IDX 16 1 17 2 18 3 19 4 20 5 21 6 22 7 23 8 24 9 25 10 26 11
REMARK SMILES IDX 27 12 28 13 29 14 30 15 31 16 32 17 15 18 14 19 13 20 12 21
REMARK SMILES IDX 11 22 10 23 9 24 8 25 7 26 6 27 5 28 4 29 3 30 2 31 1 32
REMARK H PARENT
REMARK Flexibility Score: inf
ROOT
ATOM      1  C   UNL     1      11.322   6.875  52.718  1.00  0.00     0.000 C 
ENDROOT
BRANCH   1   2
ATOM      2  C   UNL     1      11.793   8.092  53.535  1.00  0.00     0.000 C 
BRANCH   2   3
ATOM      3  C   UNL     1      11.387   8.012  55.022  1.00  0.00     0.000 C 
BRANCH   3   4
ATOM      4  C   UNL     1      11.060   9.376  55.659  1.00  0.00     0.000 C 
BRANCH   4   5
ATOM      5  C   UNL     1       9.560   9.691  55.806  1.00  0.00     0.000 C 
BRANCH   5   6
ATOM      6  C   UNL     1       8.605   8.573  55.343  1.00  0.00     0.000 C 
BRANCH   6   7
ATOM      7  C   UNL     1       7.505   9.023  54.365  1.00  0.00     0.000 C 
BRANCH   7   8
ATOM      8  C   UNL     1       7.903   8.828  52.892  1.00  0.00     0.000 C 
BRANCH   8   9
ATOM      9  C   UNL     1       8.431  10.120  52.248  1.00  0.00     0.000 C 
BRANCH   9  10
ATOM     10  C   UNL     1       8.269  10.125  50.718  1.00  0.00     0.000 C 
BRANCH  10  11
ATOM     11  C   UNL     1       9.586   9.775  49.994  1.00  0.00     0.000 C 
BRANCH  11  12
ATOM     12  C   UNL     1       9.886   8.266  49.941  1.00  0.00     0.000 C 
BRANCH  12  13
ATOM     13  C   UNL     1      10.464   7.817  48.592  1.00  0.00     0.006 C 
BRANCH  13  14
ATOM     14  C   UNL     1      10.693   9.018  47.665  1.00  0.00     0.053 C 
BRANCH  14  15
ATOM     15  C   UNL     1      11.551   8.648  46.496  1.00  0.00     0.041 C 
ATOM     16  O   UNL     1      12.465   7.789  46.622  1.00  0.00    -0.550 OA
ATOM     17  O   UNL     1      11.304   9.206  45.247  1.00  0.00    -0.550 OA
ENDBRANCH  14  15
ENDBRANCH  13  14
ENDBRANCH  12  13
ENDBRANCH  11  12
ENDBRANCH  10  11
ENDBRANCH   9  10
ENDBRANCH   8   9
ENDBRANCH   7   8
ENDBRANCH   6   7
ENDBRANCH   5   6
ENDBRANCH   4   5
ENDBRANCH   3   4
ENDBRANCH   2   3
ENDBRANCH   1   2
BRANCH   1  18
ATOM     18  C   UNL     1      12.205   5.632  52.967  1.00  0.00     0.000 C 
BRANCH  18  19
ATOM     19  C   UNL     1      11.485   4.299  52.691  1.00  0.00     0.000 C 
BRANCH  19  20
ATOM     20  C   UNL     1      11.508   3.305  53.866  1.00  0.00     0.000 C 
BRANCH  20  21
ATOM     21  C   UNL     1      10.179   3.275  54.637  1.00  0.00     0.000 C 
BRANCH  21  22
ATOM     22  C   UNL     1       9.880   4.595  55.366  1.00  0.00     0.000 C 
BRANCH  22  23
ATOM     23  C   UNL     1      10.857   4.946  56.506  1.00  0.00     0.000 C 
BRANCH  23  24
ATOM     24  C   UNL     1      11.459   3.714  57.217  1.00  0.00    -0.000 C 
BRANCH  24  25
ATOM     25  C   UNL     1      12.997   3.698  57.154  1.00  0.00    -0.000 C 
BRANCH  25  26
ATOM     26  C   UNL     1      13.537   3.363  55.753  1.00  0.00    -0.000 C 
BRANCH  26  27
ATOM     27  C   UNL     1      14.904   3.991  55.411  1.00  0.00    -0.000 C 
BRANCH  27  28
ATOM     28  C   UNL     1      16.123   3.289  56.037  1.00  0.00    -0.000 C 
BRANCH  28  29
ATOM     29  C   UNL     1      16.423   1.886  55.478  1.00  0.00    -0.000 C 
BRANCH  29  30
ATOM     30  C   UNL     1      15.954   0.739  56.399  1.00  0.00    -0.000 C 
BRANCH  30  31
ATOM     31  C   UNL     1      17.125  -0.005  57.055  1.00  0.00    -0.003 C 
ATOM     32  C   UNL     1      17.071   0.114  58.576  1.00  0.00     0.004 C 
ENDBRANCH  30  31
ENDBRANCH  29  30
ENDBRANCH  28  29
ENDBRANCH  27  28
ENDBRANCH  26  27
ENDBRANCH  25  26
ENDBRANCH  24  25
ENDBRANCH  23  24
ENDBRANCH  22  23
ENDBRANCH  21  22
ENDBRANCH  20  21
ENDBRANCH  19  20
ENDBRANCH  18  19
ENDBRANCH   1  18
TORSDOF 28
ENDMDL
MODEL 2
REMARK VINA RESULT:    -4.336      1.815      6.406
REMARK INTER + INTRA:         -13.980
REMARK INTER:                 -11.386
REMARK INTRA:                  -2.594
REMARK UNBOUND:                -2.547
REMARK SMILES CCCCCCCCCCCCCCCCCCCCCCCCCCCCCC(=O)[O-]
REMARK SMILES IDX 16 1 17 2 18 3 19 4 20 5 21 6 22 7 23 8 24 9 25 10 26 11
REMARK SMILES IDX 27 12 28 13 29 14 30 15 31 16 32 17 15 18 14 19 13 20 12 21
REMARK SMILES IDX 11 22 10 23 9 24 8 25 7 26 6 27 5 28 4 29 3 30 2 31 1 32
REMARK H PARENT
REMARK Flexibility Score: inf
ROOT
ATOM      1  C   UNL     1      14.285   1.083  58.746  1.00  0.00     0.000 C 
ENDROOT
BRANCH   1   2
ATOM      2  C   UNL     1      13.235   2.100  59.229  1.00  0.00     0.000 C 
BRANCH   2   3
ATOM      3  C   UNL     1      12.440   2.739  58.071  1.00  0.00     0.000 C 
BRANCH   3   4
ATOM      4  C   UNL     1      11.751   4.068  58.439  1.00  0.00     0.000 C 
BRANCH   4   5
ATOM      5  C   UNL     1      11.209   4.878  57.247  1.00  0.00     0.000 C 
BRANCH   5   6
ATOM      6  C   UNL     1      10.131   4.167  56.405  1.00  0.00     0.000 C 
BRANCH   6   7
ATOM      7  C   UNL     1       8.916   5.038  56.038  1.00  0.00     0.000 C 
BRANCH   7   8
ATOM      8  C   UNL     1       9.305   6.292  55.235  1.00  0.00     0.000 C 
BRANCH   8   9
ATOM      9  C   UNL     1       8.983   7.594  55.985  1.00  0.00     0.000 C 
BRANCH   9  10
ATOM     10  C   UNL     1       8.742   8.779  55.032  1.00  0.00     0.000 C 
BRANCH  10  11
ATOM     11  C   UNL     1       7.252   8.932  54.662  1.00  0.00     0.000 C 
BRANCH  11  12
ATOM     12  C   UNL     1       7.014   9.627  53.309  1.00  0.00     0.000 C 
BRANCH  12  13
ATOM     13  C   UNL     1       8.316   9.941  52.560  1.00  0.00     0.006 C 
BRANCH  13  14
ATOM     14  C   UNL     1       8.094   9.919  51.041  1.00  0.00     0.053 C 
BRANCH  14  15
ATOM     15  C   UNL     1       9.202   9.196  50.340  1.00  0.00     0.041 C 
ATOM     16  O   UNL     1       9.477   8.004  50.643  1.00  0.00    -0.550 OA
ATOM     17  O   UNL     1       9.894   9.817  49.307  1.00  0.00    -0.550 OA
ENDBRANCH  14  15
ENDBRANCH  13  14
ENDBRANCH  12  13
ENDBRANCH  11  12
ENDBRANCH  10  11
ENDBRANCH   9  10
ENDBRANCH   8   9
ENDBRANCH   7   8
ENDBRANCH   6   7
ENDBRANCH   5   6
ENDBRANCH   4   5
ENDBRANCH   3   4
ENDBRANCH   2   3
ENDBRANCH   1   2
BRANCH   1  18
ATOM     18  C   UNL     1      14.986   0.370  59.923  1.00  0.00     0.000 C 
BRANCH  18  19
ATOM     19  C   UNL     1      16.470   0.751  60.080  1.00  0.00     0.000 C 
BRANCH  19  20
ATOM     20  C   UNL     1      17.454  -0.217  59.400  1.00  0.00     0.000 C 
BRANCH  20  21
ATOM     21  C   UNL     1      17.833   0.231  57.979  1.00  0.00     0.000 C 
BRANCH  21  22
ATOM     22  C   UNL     1      16.964  -0.425  56.893  1.00  0.00     0.000 C 
BRANCH  22  23
ATOM     23  C   UNL     1      16.412   0.542  55.827  1.00  0.00     0.000 C 
BRANCH  23  24
ATOM     24  C   UNL     1      16.845   2.011  56.029  1.00  0.00    -0.000 C 
BRANCH  24  25
ATOM     25  C   UNL     1      15.989   2.990  55.205  1.00  0.00    -0.000 C 
BRANCH  25  26
ATOM     26  C   UNL     1      14.624   3.284  55.851  1.00  0.00    -0.000 C 
BRANCH  26  27
ATOM     27  C   UNL     1      13.734   4.279  55.077  1.00  0.00    -0.000 C 
BRANCH  27  28
ATOM     28  C   UNL     1      12.633   3.639  54.212  1.00  0.00    -0.000 C 
BRANCH  28  29
ATOM     29  C   UNL     1      11.745   4.638  53.447  1.00  0.00    -0.000 C 
BRANCH  29  30
ATOM     30  C   UNL     1      12.541   5.629  52.571  1.00  0.00    -0.000 C 
BRANCH  30  31
ATOM     31  C   UNL     1      12.038   7.073  52.711  1.00  0.00    -0.003 C 
ATOM     32  C   UNL     1      11.946   7.484  54.178  1.00  0.00     0.004 C 
ENDBRANCH  30  31
ENDBRANCH  29  30
ENDBRANCH  28  29
ENDBRANCH  27  28
ENDBRANCH  26  27
ENDBRANCH  25  26
ENDBRANCH  24  25
ENDBRANCH  23  24
ENDBRANCH  22  23
ENDBRANCH  21  22
ENDBRANCH  20  21
ENDBRANCH  19  20
ENDBRANCH  18  19
ENDBRANCH   1  18
TORSDOF 28
ENDMDL
MODEL 3
REMARK VINA RESULT:    -3.789      2.448      9.638
REMARK INTER + INTRA:         -12.539
REMARK INTER:                  -9.855
REMARK INTRA:                  -2.684
REMARK UNBOUND:                -2.547
REMARK SMILES CCCCCCCCCCCCCCCCCCCCCCCCCCCCCC(=O)[O-]
REMARK SMILES IDX 16 1 17 2 18 3 19 4 20 5 21 6 22 7 23 8 24 9 25 10 26 11
REMARK SMILES IDX 27 12 28 13 29 14 30 15 31 16 32 17 15 18 14 19 13 20 12 21
REMARK SMILES IDX 11 22 10 23 9 24 8 25 7 26 6 27 5 28 4 29 3 30 2 31 1 32
REMARK H PARENT
REMARK Flexibility Score: inf
ROOT
ATOM      1  C   UNL     1      13.226   1.698  58.196  1.00  0.00     0.000 C 
ENDROOT
BRANCH   1   2
ATOM      2  C   UNL     1      13.779   1.164  59.529  1.00  0.00     0.000 C 
BRANCH   2   3
ATOM      3  C   UNL     1      15.315   1.272  59.628  1.00  0.00     0.000 C 
BRANCH   3   4
ATOM      4  C   UNL     1      16.022  -0.067  59.916  1.00  0.00     0.000 C 
BRANCH   4   5
ATOM      5  C   UNL     1      17.529  -0.095  59.602  1.00  0.00     0.000 C 
BRANCH   5   6
ATOM      6  C   UNL     1      17.893   0.052  58.111  1.00  0.00     0.000 C 
BRANCH   6   7
ATOM      7  C   UNL     1      17.141  -0.900  57.163  1.00  0.00     0.000 C 
BRANCH   7   8
ATOM      8  C   UNL     1      16.443  -0.159  56.008  1.00  0.00     0.000 C 
BRANCH   8   9
ATOM      9  C   UNL     1      16.779   1.340  55.983  1.00  0.00     0.000 C 
BRANCH   9  10
ATOM     10  C   UNL     1      15.545   2.216  55.701  1.00  0.00     0.000 C 
BRANCH  10  11
ATOM     11  C   UNL     1      15.890   3.720  55.694  1.00  0.00     0.000 C 
BRANCH  11  12
ATOM     12  C   UNL     1      14.659   4.642  55.741  1.00  0.00     0.000 C 
BRANCH  12  13
ATOM     13  C   UNL     1      13.546   4.206  54.778  1.00  0.00     0.006 C 
BRANCH  13  14
ATOM     14  C   UNL     1      13.190   5.336  53.803  1.00  0.00     0.053 C 
BRANCH  14  15
ATOM     15  C   UNL     1      12.081   4.931  52.882  1.00  0.00     0.041 C 
ATOM     16  O   UNL     1      11.579   5.766  52.083  1.00  0.00    -0.550 OA
ATOM     17  O   UNL     1      11.639   3.613  52.863  1.00  0.00    -0.550 OA
ENDBRANCH  14  15
ENDBRANCH  13  14
ENDBRANCH  12  13
ENDBRANCH  11  12
ENDBRANCH  10  11
ENDBRANCH   9  10
ENDBRANCH   8   9
ENDBRANCH   7   8
ENDBRANCH   6   7
ENDBRANCH   5   6
ENDBRANCH   4   5
ENDBRANCH   3   4
ENDBRANCH   2   3
ENDBRANCH   1   2
BRANCH   1  18
ATOM     18  C   UNL     1      13.154   3.241  58.174  1.00  0.00     0.000 C 
BRANCH  18  19
ATOM     19  C   UNL     1      11.759   3.799  58.513  1.00  0.00     0.000 C 
BRANCH  19  20
ATOM     20  C   UNL     1      10.815   3.939  57.305  1.00  0.00     0.000 C 
BRANCH  20  21
ATOM     21  C   UNL     1      11.084   5.217  56.493  1.00  0.00     0.000 C 
BRANCH  21  22
ATOM     22  C   UNL     1       9.880   5.648  55.640  1.00  0.00     0.000 C 
BRANCH  22  23
ATOM     23  C   UNL     1       9.391   7.089  55.882  1.00  0.00     0.000 C 
BRANCH  23  24
ATOM     24  C   UNL     1      10.276   8.170  55.222  1.00  0.00    -0.000 C 
BRANCH  24  25
ATOM     25  C   UNL     1       9.844   9.595  55.610  1.00  0.00    -0.000 C 
BRANCH  25  26
ATOM     26  C   UNL     1       8.320   9.796  55.559  1.00  0.00    -0.000 C 
BRANCH  26  27
ATOM     27  C   UNL     1       7.737  10.034  54.151  1.00  0.00    -0.000 C 
BRANCH  27  28
ATOM     28  C   UNL     1       6.981   8.838  53.543  1.00  0.00    -0.000 C 
BRANCH  28  29
ATOM     29  C   UNL     1       7.834   7.915  52.652  1.00  0.00    -0.000 C 
BRANCH  29  30
ATOM     30  C   UNL     1       8.029   8.447  51.216  1.00  0.00    -0.000 C 
BRANCH  30  31
ATOM     31  C   UNL     1       8.401   9.936  51.186  1.00  0.00    -0.003 C 
ATOM     32  C   UNL     1       9.915  10.125  51.175  1.00  0.00     0.004 C 
ENDBRANCH  30  31
ENDBRANCH  29  30
ENDBRANCH  28  29
ENDBRANCH  27  28
ENDBRANCH  26  27
ENDBRANCH  25  26
ENDBRANCH  24  25
ENDBRANCH  23  24
ENDBRANCH  22  23
ENDBRANCH  21  22
ENDBRANCH  20  21
ENDBRANCH  19  20
ENDBRANCH  18  19
ENDBRANCH   1  18
TORSDOF 28
ENDMDL
MODEL 4
REMARK VINA RESULT:    -3.483      3.025      5.388
REMARK INTER + INTRA:         -11.732
REMARK INTER:                  -9.935
REMARK INTRA:                  -1.797
REMARK UNBOUND:                -2.547
REMARK SMILES CCCCCCCCCCCCCCCCCCCCCCCCCCCCCC(=O)[O-]
REMARK SMILES IDX 16 1 17 2 18 3 19 4 20 5 21 6 22 7 23 8 24 9 25 10 26 11
REMARK SMILES IDX 27 12 28 13 29 14 30 15 31 16 32 17 15 18 14 19 13 20 12 21
REMARK SMILES IDX 11 22 10 23 9 24 8 25 7 26 6 27 5 28 4 29 3 30 2 31 1 32
REMARK H PARENT
REMARK Flexibility Score: inf
ROOT
ATOM      1  C   UNL     1      11.973   5.109  53.522  1.00  0.00     0.000 C 
ENDROOT
BRANCH   1   2
ATOM      2  C   UNL     1      12.382   6.112  52.429  1.00  0.00     0.000 C 
BRANCH   2   3
ATOM      3  C   UNL     1      11.443   7.335  52.354  1.00  0.00     0.000 C 
BRANCH   3   4
ATOM      4  C   UNL     1      10.064   7.032  51.735  1.00  0.00     0.000 C 
BRANCH   4   5
ATOM      5  C   UNL     1       9.691   7.887  50.510  1.00  0.00     0.000 C 
BRANCH   5   6
ATOM      6  C   UNL     1       8.934   9.193  50.826  1.00  0.00     0.000 C 
BRANCH   6   7
ATOM      7  C   UNL     1       7.899   9.084  51.960  1.00  0.00     0.000 C 
BRANCH   7   8
ATOM      8  C   UNL     1       8.283   9.917  53.196  1.00  0.00     0.000 C 
BRANCH   8   9
ATOM      9  C   UNL     1       7.288   9.745  54.354  1.00  0.00     0.000 C 
BRANCH   9  10
ATOM     10  C   UNL     1       7.616   8.530  55.239  1.00  0.00     0.000 C 
BRANCH  10  11
ATOM     11  C   UNL     1       9.130   8.231  55.275  1.00  0.00     0.000 C 
BRANCH  11  12
ATOM     12  C   UNL     1       9.479   6.853  55.866  1.00  0.00     0.000 C 
BRANCH  12  13
ATOM     13  C   UNL     1       9.090   5.690  54.943  1.00  0.00     0.006 C 
BRANCH  13  14
ATOM     14  C   UNL     1       9.200   4.347  55.677  1.00  0.00     0.053 C 
BRANCH  14  15
ATOM     15  C   UNL     1       9.244   3.202  54.713  1.00  0.00     0.041 C 
ATOM     16  O   UNL     1      10.349   2.722  54.343  1.00  0.00    -0.550 OA
ATOM     17  O   UNL     1       8.061   2.623  54.266  1.00  0.00    -0.550 OA
ENDBRANCH  14  15
ENDBRANCH  13  14
ENDBRANCH  12  13
ENDBRANCH  11  12
ENDBRANCH  10  11
ENDBRANCH   9  10
ENDBRANCH   8   9
ENDBRANCH   7   8
ENDBRANCH   6   7
ENDBRANCH   5   6
ENDBRANCH   4   5
ENDBRANCH   3   4
ENDBRANCH   2   3
ENDBRANCH   1   2
BRANCH   1  18
ATOM     18  C   UNL     1      13.039   4.998  54.635  1.00  0.00     0.000 C 
BRANCH  18  19
ATOM     19  C   UNL     1      12.516   5.389  56.029  1.00  0.00     0.000 C 
BRANCH  19  20
ATOM     20  C   UNL     1      12.048   4.205  56.893  1.00  0.00     0.000 C 
BRANCH  20  21
ATOM     21  C   UNL     1      13.151   3.687  57.830  1.00  0.00     0.000 C 
BRANCH  21  22
ATOM     22  C   UNL     1      12.626   3.321  59.228  1.00  0.00     0.000 C 
BRANCH  22  23
ATOM     23  C   UNL     1      13.546   2.397  60.050  1.00  0.00     0.000 C 
BRANCH  23  24
ATOM     24  C   UNL     1      13.861   1.052  59.360  1.00  0.00    -0.000 C 
BRANCH  24  25
ATOM     25  C   UNL     1      14.921   0.238  60.125  1.00  0.00    -0.000 C 
BRANCH  25  26
ATOM     26  C   UNL     1      16.359   0.686  59.815  1.00  0.00    -0.000 C 
BRANCH  26  27
ATOM     27  C   UNL     1      17.381  -0.459  59.656  1.00  0.00    -0.000 C 
BRANCH  27  28
ATOM     28  C   UNL     1      18.097  -0.515  58.294  1.00  0.00    -0.000 C 
BRANCH  28  29
ATOM     29  C   UNL     1      17.170  -0.403  57.069  1.00  0.00    -0.000 C 
BRANCH  29  30
ATOM     30  C   UNL     1      16.433   0.950  56.970  1.00  0.00    -0.000 C 
BRANCH  30  31
ATOM     31  C   UNL     1      16.205   1.391  55.518  1.00  0.00    -0.003 C 
ATOM     32  C   UNL     1      16.301   2.908  55.381  1.00  0.00     0.004 C 
ENDBRANCH  30  31
ENDBRANCH  29  30
ENDBRANCH  28  29
ENDBRANCH  27  28
ENDBRANCH  26  27
ENDBRANCH  25  26
ENDBRANCH  24  25
ENDBRANCH  23  24
ENDBRANCH  22  23
ENDBRANCH  21  22
ENDBRANCH  20  21
ENDBRANCH  19  20
ENDBRANCH  18  19
ENDBRANCH   1  18
TORSDOF 28
ENDMDL
MODEL 5
REMARK VINA RESULT:    -2.926      2.227      9.924
REMARK INTER + INTRA:         -10.262
REMARK INTER:                  -8.952
REMARK INTRA:                  -1.310
REMARK UNBOUND:                -2.547
REMARK SMILES CCCCCCCCCCCCCCCCCCCCCCCCCCCCCC(=O)[O-]
REMARK SMILES IDX 16 1 17 2 18 3 19 4 20 5 21 6 22 7 23 8 24 9 25 10 26 11
REMARK SMILES IDX 27 12 28 13 29 14 30 15 31 16 32 17 15 18 14 19 13 20 12 21
REMARK SMILES IDX 11 22 10 23 9 24 8 25 7 26 6 27 5 28 4 29 3 30 2 31 1 32
REMARK H PARENT
REMARK Flexibility Score: inf
ROOT
ATOM      1  C   UNL     1      11.619   4.398  57.110  1.00  0.00     0.000 C 
ENDROOT
BRANCH   1   2
ATOM      2  C   UNL     1      11.725   3.151  58.005  1.00  0.00     0.000 C 
BRANCH   2   3
ATOM      3  C   UNL     1      12.804   2.157  57.527  1.00  0.00     0.000 C 
BRANCH   3   4
ATOM      4  C   UNL     1      13.210   1.112  58.585  1.00  0.00     0.000 C 
BRANCH   4   5
ATOM      5  C   UNL     1      14.364   1.532  59.514  1.00  0.00     0.000 C 
BRANCH   5   6
ATOM      6  C   UNL     1      15.392   0.427  59.826  1.00  0.00     0.000 C 
BRANCH   6   7
ATOM      7  C   UNL     1      16.604   0.381  58.877  1.00  0.00     0.000 C 
BRANCH   7   8
ATOM      8  C   UNL     1      16.202   0.490  57.396  1.00  0.00     0.000 C 
BRANCH   8   9
ATOM      9  C   UNL     1      17.296   1.141  56.535  1.00  0.00     0.000 C 
BRANCH   9  10
ATOM     10  C   UNL     1      16.727   2.161  55.532  1.00  0.00     0.000 C 
BRANCH  10  11
ATOM     11  C   UNL     1      15.273   2.555  55.866  1.00  0.00     0.000 C 
BRANCH  11  12
ATOM     12  C   UNL     1      14.912   3.998  55.471  1.00  0.00     0.000 C 
BRANCH  12  13
ATOM     13  C   UNL     1      13.702   4.077  54.531  1.00  0.00     0.006 C 
BRANCH  13  14
ATOM     14  C   UNL     1      13.079   5.479  54.555  1.00  0.00     0.053 C 
BRANCH  14  15
ATOM     15  C   UNL     1      12.246   5.726  53.336  1.00  0.00     0.041 C 
ATOM     16  O   UNL     1      11.687   4.766  52.741  1.00  0.00    -0.550 OA
ATOM     17  O   UNL     1      12.036   7.025  52.888  1.00  0.00    -0.550 OA
ENDBRANCH  14  15
ENDBRANCH  13  14
ENDBRANCH  12  13
ENDBRANCH  11  12
ENDBRANCH  10  11
ENDBRANCH   9  10
ENDBRANCH   8   9
ENDBRANCH   7   8
ENDBRANCH   6   7
ENDBRANCH   5   6
ENDBRANCH   4   5
ENDBRANCH   3   4
ENDBRANCH   2   3
ENDBRANCH   1   2
BRANCH   1  18
ATOM     18  C   UNL     1      10.391   4.339  56.175  1.00  0.00     0.000 C 
BRANCH  18  19
ATOM     19  C   UNL     1       9.409   5.508  56.372  1.00  0.00     0.000 C 
BRANCH  19  20
ATOM     20  C   UNL     1       9.989   6.894  56.037  1.00  0.00     0.000 C 
BRANCH  20  21
ATOM     21  C   UNL     1       9.013   7.758  55.220  1.00  0.00     0.000 C 
BRANCH  21  22
ATOM     22  C   UNL     1       9.168   9.262  55.500  1.00  0.00     0.000 C 
BRANCH  22  23
ATOM     23  C   UNL     1       9.498  10.125  54.266  1.00  0.00     0.000 C 
BRANCH  23  24
ATOM     24  C   UNL     1       8.816   9.645  52.966  1.00  0.00    -0.000 C 
BRANCH  24  25
ATOM     25  C   UNL     1       9.667   9.939  51.717  1.00  0.00    -0.000 C 
BRANCH  25  26
ATOM     26  C   UNL     1       8.848   9.925  50.415  1.00  0.00    -0.000 C 
BRANCH  26  27
ATOM     27  C   UNL     1       9.518   9.202  49.228  1.00  0.00    -0.000 C 
BRANCH  27  28
ATOM     28  C   UNL     1      10.090  10.125  48.137  1.00  0.00    -0.000 C 
BRANCH  28  29
ATOM     29  C   UNL     1      10.032   9.553  46.708  1.00  0.00    -0.000 C 
BRANCH  29  30
ATOM     30  C   UNL     1      11.280   8.730  46.319  1.00  0.00    -0.000 C 
BRANCH  30  31
ATOM     31  C   UNL     1      12.053   9.353  45.148  1.00  0.00    -0.003 C 
ATOM     32  C   UNL     1      11.126   9.659  43.975  1.00  0.00     0.004 C 
ENDBRANCH  30  31
ENDBRANCH  29  30
ENDBRANCH  28  29
ENDBRANCH  27  28
ENDBRANCH  26  27
ENDBRANCH  25  26
ENDBRANCH  24  25
ENDBRANCH  23  24
ENDBRANCH  22  23
ENDBRANCH  21  22
ENDBRANCH  20  21
ENDBRANCH  19  20
ENDBRANCH  18  19
ENDBRANCH   1  18
TORSDOF 28
ENDMDL
MODEL 6
REMARK VINA RESULT:    -2.637      2.536     10.399
REMARK INTER + INTRA:          -9.500
REMARK INTER:                  -7.849
REMARK INTRA:                  -1.652
REMARK UNBOUND:                -2.547
REMARK SMILES CCCCCCCCCCCCCCCCCCCCCCCCCCCCCC(=O)[O-]
REMARK SMILES IDX 16 1 17 2 18 3 19 4 20 5 21 6 22 7 23 8 24 9 25 10 26 11
REMARK SMILES IDX 27 12 28 13 29 14 30 15 31 16 32 17 15 18 14 19 13 20 12 21
REMARK SMILES IDX 11 22 10 23 9 24 8 25 7 26 6 27 5 28 4 29 3 30 2 31 1 32
REMARK H PARENT
REMARK Flexibility Score: inf
ROOT
ATOM      1  C   UNL     1      10.161   5.653  55.935  1.00  0.00     0.000 C 
ENDROOT
BRANCH   1   2
ATOM      2  C   UNL     1      11.418   5.368  56.777  1.00  0.00     0.000 C 
BRANCH   2   3
ATOM      3  C   UNL     1      11.536   3.888  57.198  1.00  0.00     0.000 C 
BRANCH   3   4
ATOM      4  C   UNL     1      12.086   3.681  58.622  1.00  0.00     0.000 C 
BRANCH   4   5
ATOM      5  C   UNL     1      13.415   2.908  58.708  1.00  0.00     0.000 C 
BRANCH   5   6
ATOM      6  C   UNL     1      13.297   1.379  58.543  1.00  0.00     0.000 C 
BRANCH   6   7
ATOM      7  C   UNL     1      14.602   0.668  58.140  1.00  0.00     0.000 C 
BRANCH   7   8
ATOM      8  C   UNL     1      14.906   0.795  56.637  1.00  0.00     0.000 C 
BRANCH   8   9
ATOM      9  C   UNL     1      16.414   0.806  56.341  1.00  0.00     0.000 C 
BRANCH   9  10
ATOM     10  C   UNL     1      16.957   2.225  56.099  1.00  0.00     0.000 C 
BRANCH  10  11
ATOM     11  C   UNL     1      16.114   3.000  55.064  1.00  0.00     0.000 C 
BRANCH  11  12
ATOM     12  C   UNL     1      15.021   3.885  55.688  1.00  0.00     0.000 C 
BRANCH  12  13
ATOM     13  C   UNL     1      13.749   3.960  54.833  1.00  0.00     0.006 C 
BRANCH  13  14
ATOM     14  C   UNL     1      13.677   5.289  54.069  1.00  0.00     0.053 C 
BRANCH  14  15
ATOM     15  C   UNL     1      12.443   5.366  53.225  1.00  0.00     0.041 C 
ATOM     16  O   UNL     1      11.948   4.321  52.723  1.00  0.00    -0.550 OA
ATOM     17  O   UNL     1      11.802   6.585  53.039  1.00  0.00    -0.550 OA
ENDBRANCH  14  15
ENDBRANCH  13  14
ENDBRANCH  12  13
ENDBRANCH  11  12
ENDBRANCH  10  11
ENDBRANCH   9  10
ENDBRANCH   8   9
ENDBRANCH   7   8
ENDBRANCH   6   7
ENDBRANCH   5   6
ENDBRANCH   4   5
ENDBRANCH   3   4
ENDBRANCH   2   3
ENDBRANCH   1   2
BRANCH   1  18
ATOM     18  C   UNL     1       9.899   7.168  55.777  1.00  0.00     0.000 C 
BRANCH  18  19
ATOM     19  C   UNL     1       8.504   7.497  55.217  1.00  0.00     0.000 C 
BRANCH  19  20
ATOM     20  C   UNL     1       8.487   8.608  54.153  1.00  0.00     0.000 C 
BRANCH  20  21
ATOM     21  C   UNL     1       7.850   8.148  52.831  1.00  0.00     0.000 C 
BRANCH  21  22
ATOM     22  C   UNL     1       7.219   9.304  52.038  1.00  0.00     0.000 C 
BRANCH  22  23
ATOM     23  C   UNL     1       8.205  10.125  51.184  1.00  0.00     0.000 C 
BRANCH  23  24
ATOM     24  C   UNL     1       9.019   9.279  50.180  1.00  0.00    -0.000 C 
BRANCH  24  25
ATOM     25  C   UNL     1       9.564  10.122  49.013  1.00  0.00    -0.000 C 
BRANCH  25  26
ATOM     26  C   UNL     1      10.099   9.265  47.853  1.00  0.00    -0.000 C 
BRANCH  26  27
ATOM     27  C   UNL     1      10.547  10.056  46.607  1.00  0.00    -0.000 C 
BRANCH  27  28
ATOM     28  C   UNL     1      11.580   9.345  45.714  1.00  0.00    -0.000 C 
BRANCH  28  29
ATOM     29  C   UNL     1      11.709   9.916  44.289  1.00  0.00    -0.000 C 
BRANCH  29  30
ATOM     30  C   UNL     1      10.368   9.993  43.528  1.00  0.00    -0.000 C 
BRANCH  30  31
ATOM     31  C   UNL     1      10.371   9.153  42.244  1.00  0.00    -0.003 C 
ATOM     32  C   UNL     1       9.359   9.686  41.234  1.00  0.00     0.004 C 
ENDBRANCH  30  31
ENDBRANCH  29  30
ENDBRANCH  28  29
ENDBRANCH  27  28
ENDBRANCH  26  27
ENDBRANCH  25  26
ENDBRANCH  24  25
ENDBRANCH  23  24
ENDBRANCH  22  23
ENDBRANCH  21  22
ENDBRANCH  20  21
ENDBRANCH  19  20
ENDBRANCH  18  19
ENDBRANCH   1  18
TORSDOF 28
ENDMDL
MODEL 7
REMARK VINA RESULT:    -2.572      2.368      3.835
REMARK INTER + INTRA:          -9.328
REMARK INTER:                  -6.459
REMARK INTRA:                  -2.869
REMARK UNBOUND:                -2.547
REMARK SMILES CCCCCCCCCCCCCCCCCCCCCCCCCCCCCC(=O)[O-]
REMARK SMILES IDX 16 1 17 2 18 3 19 4 20 5 21 6 22 7 23 8 24 9 25 10 26 11
REMARK SMILES IDX 27 12 28 13 29 14 30 15 31 16 32 17 15 18 14 19 13 20 12 21
REMARK SMILES IDX 11 22 10 23 9 24 8 25 7 26 6 27 5 28 4 29 3 30 2 31 1 32
REMARK H PARENT
REMARK Flexibility Score: inf
ROOT
ATOM      1  C   UNL     1      12.667   5.100  53.019  1.00  0.00     0.000 C 
ENDROOT
BRANCH   1   2
ATOM      2  C   UNL     1      12.149   6.549  53.031  1.00  0.00     0.000 C 
BRANCH   2   3
ATOM      3  C   UNL     1      10.647   6.653  52.693  1.00  0.00     0.000 C 
BRANCH   3   4
ATOM      4  C   UNL     1      10.108   8.096  52.662  1.00  0.00     0.000 C 
BRANCH   4   5
ATOM      5  C   UNL     1       8.915   8.332  51.716  1.00  0.00     0.000 C 
BRANCH   5   6
ATOM      6  C   UNL     1       9.144   9.392  50.621  1.00  0.00     0.000 C 
BRANCH   6   7
ATOM      7  C   UNL     1       9.851   8.875  49.355  1.00  0.00     0.000 C 
BRANCH   7   8
ATOM      8  C   UNL     1      10.292  10.012  48.415  1.00  0.00     0.000 C 
BRANCH   8   9
ATOM      9  C   UNL     1      10.811   9.492  47.065  1.00  0.00     0.000 C 
BRANCH   9  10
ATOM     10  C   UNL     1      11.513   8.128  47.189  1.00  0.00     0.000 C 
BRANCH  10  11
ATOM     11  C   UNL     1      12.641   7.960  46.149  1.00  0.00     0.000 C 
BRANCH  11  12
ATOM     12  C   UNL     1      13.481   6.685  46.343  1.00  0.00     0.000 C 
BRANCH  12  13
ATOM     13  C   UNL     1      14.990   6.962  46.388  1.00  0.00     0.006 C 
BRANCH  13  14
ATOM     14  C   UNL     1      15.688   6.038  47.394  1.00  0.00     0.053 C 
BRANCH  14  15
ATOM     15  C   UNL     1      16.934   5.444  46.815  1.00  0.00     0.041 C 
ATOM     16  O   UNL     1      18.059   5.702  47.323  1.00  0.00    -0.550 OA
ATOM     17  O   UNL     1      16.852   4.557  45.748  1.00  0.00    -0.550 OA
ENDBRANCH  14  15
ENDBRANCH  13  14
ENDBRANCH  12  13
ENDBRANCH  11  12
ENDBRANCH  10  11
ENDBRANCH   9  10
ENDBRANCH   8   9
ENDBRANCH   7   8
ENDBRANCH   6   7
ENDBRANCH   5   6
ENDBRANCH   4   5
ENDBRANCH   3   4
ENDBRANCH   2   3
ENDBRANCH   1   2
BRANCH   1  18
ATOM     18  C   UNL     1      11.525   4.076  52.837  1.00  0.00     0.000 C 
BRANCH  18  19
ATOM     19  C   UNL     1      11.161   3.322  54.129  1.00  0.00     0.000 C 
BRANCH  19  20
ATOM     20  C   UNL     1       9.691   3.465  54.561  1.00  0.00     0.000 C 
BRANCH  20  21
ATOM     21  C   UNL     1       9.525   4.381  55.785  1.00  0.00     0.000 C 
BRANCH  21  22
ATOM     22  C   UNL     1      10.869   4.822  56.389  1.00  0.00     0.000 C 
BRANCH  22  23
ATOM     23  C   UNL     1      11.459   3.862  57.440  1.00  0.00     0.000 C 
BRANCH  23  24
ATOM     24  C   UNL     1      12.990   3.687  57.339  1.00  0.00    -0.000 C 
BRANCH  24  25
ATOM     25  C   UNL     1      13.638   4.732  56.414  1.00  0.00    -0.000 C 
BRANCH  25  26
ATOM     26  C   UNL     1      14.905   4.212  55.714  1.00  0.00    -0.000 C 
BRANCH  26  27
ATOM     27  C   UNL     1      15.011   2.676  55.609  1.00  0.00    -0.000 C 
BRANCH  27  28
ATOM     28  C   UNL     1      16.444   2.124  55.495  1.00  0.00    -0.000 C 
BRANCH  28  29
ATOM     29  C   UNL     1      16.604   0.647  55.902  1.00  0.00    -0.000 C 
BRANCH  29  30
ATOM     30  C   UNL     1      16.996   0.451  57.383  1.00  0.00    -0.000 C 
BRANCH  30  31
ATOM     31  C   UNL     1      15.832  -0.077  58.234  1.00  0.00    -0.003 C 
ATOM     32  C   UNL     1      15.094   1.064  58.928  1.00  0.00     0.004 C 
ENDBRANCH  30  31
ENDBRANCH  29  30
ENDBRANCH  28  29
ENDBRANCH  27  28
ENDBRANCH  26  27
ENDBRANCH  25  26
ENDBRANCH  24  25
ENDBRANCH  23  24
ENDBRANCH  22  23
ENDBRANCH  21  22
ENDBRANCH  20  21
ENDBRANCH  19  20
ENDBRANCH  18  19
ENDBRANCH   1  18
TORSDOF 28
ENDMDL
MODEL 8
REMARK VINA RESULT:    -2.454      3.973      6.397
REMARK INTER + INTRA:          -9.018
REMARK INTER:                  -6.501
REMARK INTRA:                  -2.517
REMARK UNBOUND:                -2.547
REMARK SMILES CCCCCCCCCCCCCCCCCCCCCCCCCCCCCC(=O)[O-]
REMARK SMILES IDX 16 1 17 2 18 3 19 4 20 5 21 6 22 7 23 8 24 9 25 10 26 11
REMARK SMILES IDX 27 12 28 13 29 14 30 15 31 16 32 17 15 18 14 19 13 20 12 21
REMARK SMILES IDX 11 22 10 23 9 24 8 25 7 26 6 27 5 28 4 29 3 30 2 31 1 32
REMARK H PARENT
REMARK Flexibility Score: inf
ROOT
ATOM      1  C   UNL     1      11.391   8.735  53.722  1.00  0.00     0.000 C 
ENDROOT
BRANCH   1   2
ATOM      2  C   UNL     1      10.430   9.925  53.549  1.00  0.00     0.000 C 
BRANCH   2   3
ATOM      3  C   UNL     1       9.360   9.681  52.464  1.00  0.00     0.000 C 
BRANCH   3   4
ATOM      4  C   UNL     1       7.938  10.108  52.876  1.00  0.00     0.000 C 
BRANCH   4   5
ATOM      5  C   UNL     1       7.156   9.073  53.706  1.00  0.00     0.000 C 
BRANCH   5   6
ATOM      6  C   UNL     1       7.464   9.073  55.216  1.00  0.00     0.000 C 
BRANCH   6   7
ATOM      7  C   UNL     1       8.386   7.935  55.690  1.00  0.00     0.000 C 
BRANCH   7   8
ATOM      8  C   UNL     1       8.532   6.815  54.645  1.00  0.00     0.000 C 
BRANCH   8   9
ATOM      9  C   UNL     1       9.580   5.765  55.047  1.00  0.00     0.000 C 
BRANCH   9  10
ATOM     10  C   UNL     1       9.711   5.619  56.574  1.00  0.00     0.000 C 
BRANCH  10  11
ATOM     11  C   UNL     1      11.096   5.079  56.988  1.00  0.00     0.000 C 
BRANCH  11  12
ATOM     12  C   UNL     1      11.036   3.805  57.850  1.00  0.00     0.000 C 
BRANCH  12  13
ATOM     13  C   UNL     1      12.074   3.796  58.980  1.00  0.00     0.006 C 
BRANCH  13  14
ATOM     14  C   UNL     1      13.424   3.264  58.480  1.00  0.00     0.053 C 
BRANCH  14  15
ATOM     15  C   UNL     1      13.447   1.766  58.466  1.00  0.00     0.041 C 
ATOM     16  O   UNL     1      13.115   1.134  57.427  1.00  0.00    -0.550 OA
ATOM     17  O   UNL     1      13.891   1.067  59.582  1.00  0.00    -0.550 OA
ENDBRANCH  14  15
ENDBRANCH  13  14
ENDBRANCH  12  13
ENDBRANCH  11  12
ENDBRANCH  10  11
ENDBRANCH   9  10
ENDBRANCH   8   9
ENDBRANCH   7   8
ENDBRANCH   6   7
ENDBRANCH   5   6
ENDBRANCH   4   5
ENDBRANCH   3   4
ENDBRANCH   2   3
ENDBRANCH   1   2
BRANCH   1  18
ATOM     18  C   UNL     1      11.285   7.730  52.555  1.00  0.00     0.000 C 
BRANCH  18  19
ATOM     19  C   UNL     1      12.029   6.406  52.812  1.00  0.00     0.000 C 
BRANCH  19  20
ATOM     20  C   UNL     1      11.420   5.183  52.103  1.00  0.00     0.000 C 
BRANCH  20  21
ATOM     21  C   UNL     1      12.089   3.865  52.527  1.00  0.00     0.000 C 
BRANCH  21  22
ATOM     22  C   UNL     1      11.598   3.357  53.893  1.00  0.00     0.000 C 
BRANCH  22  23
ATOM     23  C   UNL     1      12.600   3.528  55.051  1.00  0.00     0.000 C 
BRANCH  23  24
ATOM     24  C   UNL     1      13.837   4.379  54.689  1.00  0.00    -0.000 C 
BRANCH  24  25
ATOM     25  C   UNL     1      14.684   4.733  55.924  1.00  0.00    -0.000 C 
BRANCH  25  26
ATOM     26  C   UNL     1      15.934   3.848  56.069  1.00  0.00    -0.000 C 
BRANCH  26  27
ATOM     27  C   UNL     1      15.826   2.452  55.423  1.00  0.00    -0.000 C 
BRANCH  27  28
ATOM     28  C   UNL     1      16.882   1.431  55.886  1.00  0.00    -0.000 C 
BRANCH  28  29
ATOM     29  C   UNL     1      16.316   0.187  56.596  1.00  0.00    -0.000 C 
BRANCH  29  30
ATOM     30  C   UNL     1      17.353  -0.556  57.466  1.00  0.00    -0.000 C 
BRANCH  30  31
ATOM     31  C   UNL     1      17.752   0.242  58.715  1.00  0.00    -0.003 C 
ATOM     32  C   UNL     1      17.384  -0.511  59.991  1.00  0.00     0.004 C 
ENDBRANCH  30  31
ENDBRANCH  29  30
ENDBRANCH  28  29
ENDBRANCH  27  28
ENDBRANCH  26  27
ENDBRANCH  25  26
ENDBRANCH  24  25
ENDBRANCH  23  24
ENDBRANCH  22  23
ENDBRANCH  21  22
ENDBRANCH  20  21
ENDBRANCH  19  20
ENDBRANCH  18  19
ENDBRANCH   1  18
TORSDOF 28
ENDMDL
