MODEL 1
REMARK VINA RESULT:    -3.197      0.000      0.000
REMARK INTER + INTRA:          -6.642
REMARK INTER:                  -5.066
REMARK INTRA:                  -1.577
REMARK UNBOUND:                -1.577
REMARK SMILES CCCCCCCCCCCC(=O)[O-]
REMARK SMILES IDX 7 1 8 2 9 3 10 4 11 5 12 6 13 7 14 8 6 9 5 10 4 11 3 12 2 13
REMARK SMILES IDX 1 14
REMARK H PARENT
REMARK Flexibility Score: inf
ROOT
ATOM      1  C   UNL     1     -94.543 147.293 238.040  1.00  0.00     0.000 C 
ENDROOT
BRANCH   1   2
ATOM      2  C   UNL     1     -95.569 148.014 238.928  1.00  0.00     0.000 C 
BRANCH   2   3
ATOM      3  C   UNL     1     -95.568 149.539 238.714  1.00  0.00     0.000 C 
BRANCH   3   4
ATOM      4  C   UNL     1     -96.886 150.196 239.153  1.00  0.00     0.006 C 
BRANCH   4   5
ATOM      5  C   UNL     1     -97.934 149.171 239.608  1.00  0.00     0.053 C 
BRANCH   5   6
ATOM      6  C   UNL     1     -98.344 149.437 241.021  1.00  0.00     0.041 C 
ATOM      7  O   UNL     1     -98.705 150.593 241.370  1.00  0.00    -0.550 OA
ATOM      8  O   UNL     1     -98.376 148.399 241.943  1.00  0.00    -0.550 OA
ENDBRANCH   5   6
ENDBRANCH   4   5
ENDBRANCH   3   4
ENDBRANCH   2   3
ENDBRANCH   1   2
BRANCH   1   9
ATOM      9  C   UNL     1     -93.853 148.240 237.046  1.00  0.00     0.000 C 
BRANCH   9  10
ATOM     10  C   UNL     1     -93.870 147.656 235.628  1.00  0.00    -0.000 C 
BRANCH  10  11
ATOM     11  C   UNL     1     -95.270 147.763 235.006  1.00  0.00    -0.000 C 
BRANCH  11  12
ATOM     12  C   UNL     1     -95.801 149.205 234.987  1.00  0.00    -0.000 C 
BRANCH  12  13
ATOM     13  C   UNL     1     -97.256 149.308 235.465  1.00  0.00    -0.003 C 
ATOM     14  C   UNL     1     -97.781 147.949 235.919  1.00  0.00     0.004 C 
ENDBRANCH  12  13
ENDBRANCH  11  12
ENDBRANCH  10  11
ENDBRANCH   9  10
ENDBRANCH   1   9
TORSDOF 10
ENDMDL
MODEL 2
REMARK VINA RESULT:    -3.039      0.780      1.547
REMARK INTER + INTRA:          -6.392
REMARK INTER:                  -5.341
REMARK INTRA:                  -1.051
REMARK UNBOUND:                -1.577
REMARK SMILES CCCCCCCCCCCC(=O)[O-]
REMARK SMILES IDX 7 1 8 2 9 3 10 4 11 5 12 6 13 7 14 8 6 9 5 10 4 11 3 12 2 13
REMARK SMILES IDX 1 14
REMARK H PARENT
REMARK Flexibility Score: inf
ROOT
ATOM      1  C   UNL     1     -95.525 147.957 238.939  1.00  0.00     0.000 C 
ENDROOT
BRANCH   1   2
ATOM      2  C   UNL     1     -95.375 149.461 238.662  1.00  0.00     0.000 C 
BRANCH   2   3
ATOM      3  C   UNL     1     -96.651 150.254 238.997  1.00  0.00     0.000 C 
BRANCH   3   4
ATOM      4  C   UNL     1     -97.685 149.411 239.760  1.00  0.00     0.006 C 
BRANCH   4   5
ATOM      5  C   UNL     1     -98.382 150.201 240.876  1.00  0.00     0.053 C 
BRANCH   5   6
ATOM      6  C   UNL     1     -98.759 149.291 242.002  1.00  0.00     0.041 C 
ATOM      7  O   UNL     1     -99.488 149.713 242.940  1.00  0.00    -0.550 OA
ATOM      8  O   UNL     1     -98.349 147.965 241.992  1.00  0.00    -0.550 OA
ENDBRANCH   5   6
ENDBRANCH   4   5
ENDBRANCH   3   4
ENDBRANCH   2   3
ENDBRANCH   1   2
BRANCH   1   9
ATOM      9  C   UNL     1     -94.553 147.104 238.109  1.00  0.00     0.000 C 
BRANCH   9  10
ATOM     10  C   UNL     1     -93.824 147.960 237.066  1.00  0.00    -0.000 C 
BRANCH  10  11
ATOM     11  C   UNL     1     -93.764 147.241 235.710  1.00  0.00    -0.000 C 
BRANCH  11  12
ATOM     12  C   UNL     1     -94.845 147.729 234.732  1.00  0.00    -0.000 C 
BRANCH  12  13
ATOM     13  C   UNL     1     -95.367 149.130 235.079  1.00  0.00    -0.003 C 
ATOM     14  C   UNL     1     -96.881 149.121 235.267  1.00  0.00     0.004 C 
ENDBRANCH  12  13
ENDBRANCH  11  12
ENDBRANCH  10  11
ENDBRANCH   9  10
ENDBRANCH   1   9
TORSDOF 10
ENDMDL
MODEL 3
REMARK VINA RESULT:    -3.014      1.631      2.127
REMARK INTER + INTRA:          -6.353
REMARK INTER:                  -5.761
REMARK INTRA:                  -0.592
REMARK UNBOUND:                -1.577
REMARK SMILES CCCCCCCCCCCC(=O)[O-]
REMARK SMILES IDX 7 1 8 2 9 3 10 4 11 5 12 6 13 7 14 8 6 9 5 10 4 11 3 12 2 13
REMARK SMILES IDX 1 14
REMARK H PARENT
REMARK Flexibility Score: inf
ROOT
ATOM      1  C   UNL     1     -94.343 148.686 237.453  1.00  0.00     0.000 C 
ENDROOT
BRANCH   1   2
ATOM      2  C   UNL     1     -95.378 148.711 238.589  1.00  0.00     0.000 C 
BRANCH   2   3
ATOM      3  C   UNL     1     -96.679 149.429 238.187  1.00  0.00     0.000 C 
BRANCH   3   4
ATOM      4  C   UNL     1     -97.060 150.550 239.167  1.00  0.00     0.006 C 
BRANCH   4   5
ATOM      5  C   UNL     1     -98.480 150.388 239.726  1.00  0.00     0.053 C 
BRANCH   5   6
ATOM      6  C   UNL     1     -98.431 149.918 241.145  1.00  0.00     0.041 C 
ATOM      7  O   UNL     1     -98.739 150.702 242.083  1.00  0.00    -0.550 OA
ATOM      8  O   UNL     1     -98.094 148.602 241.432  1.00  0.00    -0.550 OA
ENDBRANCH   5   6
ENDBRANCH   4   5
ENDBRANCH   3   4
ENDBRANCH   2   3
ENDBRANCH   1   2
BRANCH   1   9
ATOM      9  C   UNL     1     -94.909 149.214 236.126  1.00  0.00     0.000 C 
BRANCH   9  10
ATOM     10  C   UNL     1     -94.631 148.233 234.981  1.00  0.00    -0.000 C 
BRANCH  10  11
ATOM     11  C   UNL     1     -95.324 148.686 233.687  1.00  0.00    -0.000 C 
BRANCH  11  12
ATOM     12  C   UNL     1     -95.905 150.106 233.794  1.00  0.00    -0.000 C 
BRANCH  12  13
ATOM     13  C   UNL     1     -95.498 151.001 232.616  1.00  0.00    -0.003 C 
ATOM     14  C   UNL     1     -96.114 152.391 232.744  1.00  0.00     0.004 C 
ENDBRANCH  12  13
ENDBRANCH  11  12
ENDBRANCH  10  11
ENDBRANCH   9  10
ENDBRANCH   1   9
TORSDOF 10
ENDMDL
MODEL 4
REMARK VINA RESULT:    -2.995      2.561      5.039
REMARK INTER + INTRA:          -6.323
REMARK INTER:                  -5.225
REMARK INTRA:                  -1.098
REMARK UNBOUND:                -1.577
REMARK SMILES CCCCCCCCCCCC(=O)[O-]
REMARK SMILES IDX 7 1 8 2 9 3 10 4 11 5 12 6 13 7 14 8 6 9 5 10 4 11 3 12 2 13
REMARK SMILES IDX 1 14
REMARK H PARENT
REMARK Flexibility Score: inf
ROOT
ATOM      1  C   UNL     1     -95.026 147.957 238.734  1.00  0.00     0.000 C 
ENDROOT
BRANCH   1   2
ATOM      2  C   UNL     1     -94.228 148.745 237.684  1.00  0.00     0.000 C 
BRANCH   2   3
ATOM      3  C   UNL     1     -93.784 147.869 236.499  1.00  0.00     0.000 C 
BRANCH   3   4
ATOM      4  C   UNL     1     -94.695 148.029 235.272  1.00  0.00     0.006 C 
BRANCH   4   5
ATOM      5  C   UNL     1     -95.473 149.352 235.284  1.00  0.00     0.053 C 
BRANCH   5   6
ATOM      6  C   UNL     1     -96.945 149.091 235.301  1.00  0.00     0.041 C 
ATOM      7  O   UNL     1     -97.749 149.970 234.889  1.00  0.00    -0.550 OA
ATOM      8  O   UNL     1     -97.429 147.861 235.724  1.00  0.00    -0.550 OA
ENDBRANCH   5   6
ENDBRANCH   4   5
ENDBRANCH   3   4
ENDBRANCH   2   3
ENDBRANCH   1   2
BRANCH   1   9
ATOM      9  C   UNL     1     -96.411 148.566 239.003  1.00  0.00     0.000 C 
BRANCH   9  10
ATOM     10  C   UNL     1     -96.350 150.098 238.986  1.00  0.00    -0.000 C 
BRANCH  10  11
ATOM     11  C   UNL     1     -97.758 150.703 238.887  1.00  0.00    -0.000 C 
BRANCH  11  12
ATOM     12  C   UNL     1     -98.796 149.926 239.713  1.00  0.00    -0.000 C 
BRANCH  12  13
ATOM     13  C   UNL     1     -98.793 150.325 241.195  1.00  0.00    -0.003 C 
ATOM     14  C   UNL     1     -98.772 149.094 242.095  1.00  0.00     0.004 C 
ENDBRANCH  12  13
ENDBRANCH  11  12
ENDBRANCH  10  11
ENDBRANCH   9  10
ENDBRANCH   1   9
TORSDOF 10
ENDMDL
MODEL 5
REMARK VINA RESULT:    -2.974      2.544      4.322
REMARK INTER + INTRA:          -6.290
REMARK INTER:                  -5.656
REMARK INTRA:                  -0.634
REMARK UNBOUND:                -1.577
REMARK SMILES CCCCCCCCCCCC(=O)[O-]
REMARK SMILES IDX 7 1 8 2 9 3 10 4 11 5 12 6 13 7 14 8 6 9 5 10 4 11 3 12 2 13
REMARK SMILES IDX 1 14
REMARK H PARENT
REMARK Flexibility Score: inf
ROOT
ATOM      1  C   UNL     1     -97.974 150.077 240.149  1.00  0.00     0.000 C 
ENDROOT
BRANCH   1   2
ATOM      2  C   UNL     1     -98.215 149.074 241.288  1.00  0.00     0.000 C 
BRANCH   2   3
ATOM      3  C   UNL     1     -99.178 149.616 242.359  1.00  0.00     0.000 C 
BRANCH   3   4
ATOM      4  C   UNL     1     -99.080 151.141 242.522  1.00  0.00     0.006 C 
BRANCH   4   5
ATOM      5  C   UNL     1     -98.659 151.557 243.937  1.00  0.00     0.053 C 
BRANCH   5   6
ATOM      6  C   UNL     1     -99.440 152.752 244.384  1.00  0.00     0.041 C 
ATOM      7  O   UNL     1     -98.995 153.494 245.301  1.00  0.00    -0.550 OA
ATOM      8  O   UNL     1    -100.635 153.077 243.756  1.00  0.00    -0.550 OA
ENDBRANCH   5   6
ENDBRANCH   4   5
ENDBRANCH   3   4
ENDBRANCH   2   3
ENDBRANCH   1   2
BRANCH   1   9
ATOM      9  C   UNL     1     -96.911 149.593 239.150  1.00  0.00     0.000 C 
BRANCH   9  10
ATOM     10  C   UNL     1     -96.486 148.151 239.457  1.00  0.00    -0.000 C 
BRANCH  10  11
ATOM     11  C   UNL     1     -95.351 147.703 238.524  1.00  0.00    -0.000 C 
BRANCH  11  12
ATOM     12  C   UNL     1     -94.521 148.882 237.992  1.00  0.00    -0.000 C 
BRANCH  12  13
ATOM     13  C   UNL     1     -94.247 148.782 236.485  1.00  0.00    -0.003 C 
ATOM     14  C   UNL     1     -95.472 149.194 235.675  1.00  0.00     0.004 C 
ENDBRANCH  12  13
ENDBRANCH  11  12
ENDBRANCH  10  11
ENDBRANCH   9  10
ENDBRANCH   1   9
TORSDOF 10
ENDMDL
MODEL 6
REMARK VINA RESULT:    -2.956      3.795      5.547
REMARK INTER + INTRA:          -6.261
REMARK INTER:                  -5.348
REMARK INTRA:                  -0.913
REMARK UNBOUND:                -1.577
REMARK SMILES CCCCCCCCCCCC(=O)[O-]
REMARK SMILES IDX 7 1 8 2 9 3 10 4 11 5 12 6 13 7 14 8 6 9 5 10 4 11 3 12 2 13
REMARK SMILES IDX 1 14
REMARK H PARENT
REMARK Flexibility Score: inf
ROOT
ATOM      1  C   UNL     1     -94.465 148.730 237.793  1.00  0.00     0.000 C 
ENDROOT
BRANCH   1   2
ATOM      2  C   UNL     1     -93.817 147.906 236.669  1.00  0.00     0.000 C 
BRANCH   2   3
ATOM      3  C   UNL     1     -94.496 148.129 235.306  1.00  0.00     0.000 C 
BRANCH   3   4
ATOM      4  C   UNL     1     -95.315 149.429 235.262  1.00  0.00     0.006 C 
BRANCH   4   5
ATOM      5  C   UNL     1     -96.242 149.501 234.040  1.00  0.00     0.053 C 
BRANCH   5   6
ATOM      6  C   UNL     1     -95.687 150.443 233.020  1.00  0.00     0.041 C 
ATOM      7  O   UNL     1     -95.929 151.677 233.100  1.00  0.00    -0.550 OA
ATOM      8  O   UNL     1     -94.864 149.968 232.008  1.00  0.00    -0.550 OA
ENDBRANCH   5   6
ENDBRANCH   4   5
ENDBRANCH   3   4
ENDBRANCH   2   3
ENDBRANCH   1   2
BRANCH   1   9
ATOM      9  C   UNL     1     -95.138 147.849 238.858  1.00  0.00     0.000 C 
BRANCH   9  10
ATOM     10  C   UNL     1     -96.461 148.468 239.326  1.00  0.00    -0.000 C 
BRANCH  10  11
ATOM     11  C   UNL     1     -96.606 149.908 238.812  1.00  0.00    -0.000 C 
BRANCH  11  12
ATOM     12  C   UNL     1     -97.880 150.595 239.330  1.00  0.00    -0.000 C 
BRANCH  12  13
ATOM     13  C   UNL     1     -98.988 150.666 238.271  1.00  0.00    -0.003 C 
ATOM     14  C   UNL     1     -98.559 149.974 236.981  1.00  0.00     0.004 C 
ENDBRANCH  12  13
ENDBRANCH  11  12
ENDBRANCH  10  11
ENDBRANCH   9  10
ENDBRANCH   1   9
TORSDOF 10
ENDMDL
MODEL 7
REMARK VINA RESULT:    -2.931      4.147      6.158
REMARK INTER + INTRA:          -6.221
REMARK INTER:                  -5.354
REMARK INTRA:                  -0.867
REMARK UNBOUND:                -1.577
REMARK SMILES CCCCCCCCCCCC(=O)[O-]
REMARK SMILES IDX 7 1 8 2 9 3 10 4 11 5 12 6 13 7 14 8 6 9 5 10 4 11 3 12 2 13
REMARK SMILES IDX 1 14
REMARK H PARENT
REMARK Flexibility Score: inf
ROOT
ATOM      1  C   UNL     1     -95.276 149.461 235.161  1.00  0.00     0.000 C 
ENDROOT
BRANCH   1   2
ATOM      2  C   UNL     1     -96.738 149.453 234.687  1.00  0.00     0.000 C 
BRANCH   2   3
ATOM      3  C   UNL     1     -96.986 150.430 233.524  1.00  0.00     0.000 C 
BRANCH   3   4
ATOM      4  C   UNL     1     -95.720 151.202 233.121  1.00  0.00     0.006 C 
BRANCH   4   5
ATOM      5  C   UNL     1     -95.961 152.159 231.946  1.00  0.00     0.053 C 
BRANCH   5   6
ATOM      6  C   UNL     1     -97.015 153.160 232.297  1.00  0.00     0.041 C 
ATOM      7  O   UNL     1     -98.088 153.209 231.637  1.00  0.00    -0.550 OA
ATOM      8  O   UNL     1     -96.837 154.007 233.383  1.00  0.00    -0.550 OA
ENDBRANCH   5   6
ENDBRANCH   4   5
ENDBRANCH   3   4
ENDBRANCH   2   3
ENDBRANCH   1   2
BRANCH   1   9
ATOM      9  C   UNL     1     -94.624 148.071 235.090  1.00  0.00     0.000 C 
BRANCH   9  10
ATOM     10  C   UNL     1     -93.874 147.749 236.388  1.00  0.00    -0.000 C 
BRANCH  10  11
ATOM     11  C   UNL     1     -94.150 148.813 237.461  1.00  0.00    -0.000 C 
BRANCH  11  12
ATOM     12  C   UNL     1     -94.983 148.270 238.633  1.00  0.00    -0.000 C 
BRANCH  12  13
ATOM     13  C   UNL     1     -96.444 148.737 238.588  1.00  0.00    -0.003 C 
ATOM     14  C   UNL     1     -96.568 150.194 239.020  1.00  0.00     0.004 C 
ENDBRANCH  12  13
ENDBRANCH  11  12
ENDBRANCH  10  11
ENDBRANCH   9  10
ENDBRANCH   1   9
TORSDOF 10
ENDMDL
MODEL 8
REMARK VINA RESULT:    -2.906      3.632      5.673
REMARK INTER + INTRA:          -6.181
REMARK INTER:                  -5.318
REMARK INTRA:                  -0.863
REMARK UNBOUND:                -1.577
REMARK SMILES CCCCCCCCCCCC(=O)[O-]
REMARK SMILES IDX 7 1 8 2 9 3 10 4 11 5 12 6 13 7 14 8 6 9 5 10 4 11 3 12 2 13
REMARK SMILES IDX 1 14
REMARK H PARENT
REMARK Flexibility Score: inf
ROOT
ATOM      1  C   UNL     1     -93.925 148.204 237.131  1.00  0.00     0.000 C 
ENDROOT
BRANCH   1   2
ATOM      2  C   UNL     1     -93.851 147.602 235.718  1.00  0.00     0.000 C 
BRANCH   2   3
ATOM      3  C   UNL     1     -95.067 147.975 234.852  1.00  0.00     0.000 C 
BRANCH   3   4
ATOM      4  C   UNL     1     -95.420 149.468 234.943  1.00  0.00     0.006 C 
BRANCH   4   5
ATOM      5  C   UNL     1     -96.570 149.860 234.006  1.00  0.00     0.053 C 
BRANCH   5   6
ATOM      6  C   UNL     1     -96.134 150.942 233.069  1.00  0.00     0.041 C 
ATOM      7  O   UNL     1     -95.135 150.769 232.322  1.00  0.00    -0.550 OA
ATOM      8  O   UNL     1     -96.860 152.123 232.986  1.00  0.00    -0.550 OA
ENDBRANCH   5   6
ENDBRANCH   4   5
ENDBRANCH   3   4
ENDBRANCH   2   3
ENDBRANCH   1   2
BRANCH   1   9
ATOM      9  C   UNL     1     -94.645 147.282 238.128  1.00  0.00     0.000 C 
BRANCH   9  10
ATOM     10  C   UNL     1     -95.644 148.072 238.982  1.00  0.00    -0.000 C 
BRANCH  10  11
ATOM     11  C   UNL     1     -95.579 149.572 238.657  1.00  0.00    -0.000 C 
BRANCH  11  12
ATOM     12  C   UNL     1     -96.846 150.327 239.091  1.00  0.00    -0.000 C 
BRANCH  12  13
ATOM     13  C   UNL     1     -97.910 149.400 239.694  1.00  0.00    -0.003 C 
ATOM     14  C   UNL     1     -98.460 149.969 240.998  1.00  0.00     0.004 C 
ENDBRANCH  12  13
ENDBRANCH  11  12
ENDBRANCH  10  11
ENDBRANCH   9  10
ENDBRANCH   1   9
TORSDOF 10
ENDMDL
MODEL 9
REMARK VINA RESULT:    -2.903      3.297      5.140
REMARK INTER + INTRA:          -6.177
REMARK INTER:                  -4.770
REMARK INTRA:                  -1.407
REMARK UNBOUND:                -1.577
REMARK SMILES CCCCCCCCCCCC(=O)[O-]
REMARK SMILES IDX 7 1 8 2 9 3 10 4 11 5 12 6 13 7 14 8 6 9 5 10 4 11 3 12 2 13
REMARK SMILES IDX 1 14
REMARK H PARENT
REMARK Flexibility Score: inf
ROOT
ATOM      1  C   UNL     1     -97.879 147.891 239.939  1.00  0.00     0.000 C 
ENDROOT
BRANCH   1   2
ATOM      2  C   UNL     1     -96.447 147.374 239.721  1.00  0.00     0.000 C 
BRANCH   2   3
ATOM      3  C   UNL     1     -95.970 147.552 238.269  1.00  0.00     0.000 C 
BRANCH   3   4
ATOM      4  C   UNL     1     -94.938 148.681 238.121  1.00  0.00     0.006 C 
BRANCH   4   5
ATOM      5  C   UNL     1     -94.454 148.852 236.675  1.00  0.00     0.053 C 
BRANCH   5   6
ATOM      6  C   UNL     1     -93.848 147.580 236.173  1.00  0.00     0.041 C 
ATOM      7  O   UNL     1     -94.314 147.018 235.146  1.00  0.00    -0.550 OA
ATOM      8  O   UNL     1     -92.738 147.040 236.809  1.00  0.00    -0.550 OA
ENDBRANCH   5   6
ENDBRANCH   4   5
ENDBRANCH   3   4
ENDBRANCH   2   3
ENDBRANCH   1   2
BRANCH   1   9
ATOM      9  C   UNL     1     -97.941 149.049 240.948  1.00  0.00     0.000 C 
BRANCH   9  10
ATOM     10  C   UNL     1     -98.652 150.266 240.343  1.00  0.00    -0.000 C 
BRANCH  10  11
ATOM     11  C   UNL     1     -97.981 150.698 239.031  1.00  0.00    -0.000 C 
BRANCH  11  12
ATOM     12  C   UNL     1     -98.947 150.677 237.836  1.00  0.00    -0.000 C 
BRANCH  12  13
ATOM     13  C   UNL     1     -98.429 149.823 236.670  1.00  0.00    -0.003 C 
ATOM     14  C   UNL     1     -99.213 148.520 236.552  1.00  0.00     0.004 C 
ENDBRANCH  12  13
ENDBRANCH  11  12
ENDBRANCH  10  11
ENDBRANCH   9  10
ENDBRANCH   1   9
TORSDOF 10
ENDMDL
