MODEL 1
REMARK VINA RESULT:    -5.590      0.000      0.000
REMARK INTER + INTRA:         -10.725
REMARK INTER:                 -10.165
REMARK INTRA:                  -0.560
REMARK UNBOUND:                -0.560
REMARK SMILES CCCCCCCCCCCCCCCC(=O)[O-]
REMARK SMILES IDX 9 1 10 2 11 3 12 4 13 5 14 6 15 7 16 8 17 9 18 10 8 11 7 12
REMARK SMILES IDX 6 13 5 14 4 15 3 16 2 17 1 18
REMARK H PARENT
REMARK Flexibility Score: inf
ROOT
ATOM      1  C   UNL     1      21.344 -13.515  20.313  1.00  0.00     0.000 C 
ENDROOT
BRANCH   1   2
ATOM      2  C   UNL     1      21.030 -12.572  21.489  1.00  0.00     0.000 C 
BRANCH   2   3
ATOM      3  C   UNL     1      22.208 -11.642  21.824  1.00  0.00     0.000 C 
BRANCH   3   4
ATOM      4  C   UNL     1      21.823 -10.532  22.818  1.00  0.00     0.000 C 
BRANCH   4   5
ATOM      5  C   UNL     1      20.688 -10.969  23.770  1.00  0.00     0.000 C 
BRANCH   5   6
ATOM      6  C   UNL     1      20.510 -10.037  24.983  1.00  0.00     0.006 C 
BRANCH   6   7
ATOM      7  C   UNL     1      21.112  -8.637  24.789  1.00  0.00     0.053 C 
BRANCH   7   8
ATOM      8  C   UNL     1      20.502  -7.633  25.719  1.00  0.00     0.041 C 
ATOM      9  O   UNL     1      21.082  -7.333  26.796  1.00  0.00    -0.550 OA
ATOM     10  O   UNL     1      19.283  -7.042  25.408  1.00  0.00    -0.550 OA
ENDBRANCH   7   8
ENDBRANCH   6   7
ENDBRANCH   5   6
ENDBRANCH   4   5
ENDBRANCH   3   4
ENDBRANCH   2   3
ENDBRANCH   1   2
BRANCH   1  11
ATOM     11  C   UNL     1      22.554 -14.421  20.596  1.00  0.00     0.000 C 
BRANCH  11  12
ATOM     12  C   UNL     1      22.857 -15.385  19.435  1.00  0.00    -0.000 C 
BRANCH  12  13
ATOM     13  C   UNL     1      23.208 -16.807  19.925  1.00  0.00    -0.000 C 
BRANCH  13  14
ATOM     14  C   UNL     1      22.749 -17.922  18.966  1.00  0.00    -0.000 C 
BRANCH  14  15
ATOM     15  C   UNL     1      23.260 -17.786  17.520  1.00  0.00    -0.000 C 
BRANCH  15  16
ATOM     16  C   UNL     1      22.524 -18.658  16.482  1.00  0.00    -0.000 C 
BRANCH  16  17
ATOM     17  C   UNL     1      21.765 -19.863  17.065  1.00  0.00    -0.003 C 
ATOM     18  C   UNL     1      22.653 -21.094  17.252  1.00  0.00     0.004 C 
ENDBRANCH  16  17
ENDBRANCH  15  16
ENDBRANCH  14  15
ENDBRANCH  13  14
ENDBRANCH  12  13
ENDBRANCH  11  12
ENDBRANCH   1  11
TORSDOF 14
ENDMDL
MODEL 2
REMARK VINA RESULT:    -5.573      5.084     10.696
REMARK INTER + INTRA:         -10.693
REMARK INTER:                  -9.953
REMARK INTRA:                  -0.741
REMARK UNBOUND:                -0.560
REMARK SMILES CCCCCCCCCCCCCCCC(=O)[O-]
REMARK SMILES IDX 9 1 10 2 11 3 12 4 13 5 14 6 15 7 16 8 17 9 18 10 8 11 7 12
REMARK SMILES IDX 6 13 5 14 4 15 3 16 2 17 1 18
REMARK H PARENT
REMARK Flexibility Score: inf
ROOT
ATOM      1  C   UNL     1      21.042 -12.581  21.243  1.00  0.00     0.000 C 
ENDROOT
BRANCH   1   2
ATOM      2  C   UNL     1      21.338 -13.745  20.281  1.00  0.00     0.000 C 
BRANCH   2   3
ATOM      3  C   UNL     1      22.662 -14.454  20.609  1.00  0.00     0.000 C 
BRANCH   3   4
ATOM      4  C   UNL     1      22.985 -15.592  19.625  1.00  0.00     0.000 C 
BRANCH   4   5
ATOM      5  C   UNL     1      22.528 -15.267  18.186  1.00  0.00     0.000 C 
BRANCH   5   6
ATOM      6  C   UNL     1      22.978 -16.311  17.147  1.00  0.00     0.006 C 
BRANCH   6   7
ATOM      7  C   UNL     1      23.358 -17.671  17.751  1.00  0.00     0.053 C 
BRANCH   7   8
ATOM      8  C   UNL     1      22.398 -18.748  17.348  1.00  0.00     0.041 C 
ATOM      9  O   UNL     1      21.789 -19.414  18.226  1.00  0.00    -0.550 OA
ATOM     10  O   UNL     1      22.187 -19.031  16.004  1.00  0.00    -0.550 OA
ENDBRANCH   7   8
ENDBRANCH   6   7
ENDBRANCH   5   6
ENDBRANCH   4   5
ENDBRANCH   3   4
ENDBRANCH   2   3
ENDBRANCH   1   2
BRANCH   1  11
ATOM     11  C   UNL     1      22.311 -11.802  21.629  1.00  0.00     0.000 C 
BRANCH  11  12
ATOM     12  C   UNL     1      22.146 -11.013  22.940  1.00  0.00    -0.000 C 
BRANCH  12  13
ATOM     13  C   UNL     1      20.747 -11.197  23.568  1.00  0.00    -0.000 C 
BRANCH  13  14
ATOM     14  C   UNL     1      20.472 -10.252  24.753  1.00  0.00    -0.000 C 
BRANCH  14  15
ATOM     15  C   UNL     1      20.949  -8.802  24.552  1.00  0.00    -0.000 C 
BRANCH  15  16
ATOM     16  C   UNL     1      20.582  -7.829  25.692  1.00  0.00    -0.000 C 
BRANCH  16  17
ATOM     17  C   UNL     1      19.567  -6.736  25.312  1.00  0.00    -0.003 C 
ATOM     18  C   UNL     1      19.899  -6.047  23.989  1.00  0.00     0.004 C 
ENDBRANCH  16  17
ENDBRANCH  15  16
ENDBRANCH  14  15
ENDBRANCH  13  14
ENDBRANCH  12  13
ENDBRANCH  11  12
ENDBRANCH   1  11
TORSDOF 14
ENDMDL
MODEL 3
REMARK VINA RESULT:    -5.503      1.037      1.818
REMARK INTER + INTRA:         -10.567
REMARK INTER:                  -9.950
REMARK INTRA:                  -0.617
REMARK UNBOUND:                -0.560
REMARK SMILES CCCCCCCCCCCCCCCC(=O)[O-]
REMARK SMILES IDX 9 1 10 2 11 3 12 4 13 5 14 6 15 7 16 8 17 9 18 10 8 11 7 12
REMARK SMILES IDX 6 13 5 14 4 15 3 16 2 17 1 18
REMARK H PARENT
REMARK Flexibility Score: inf
ROOT
ATOM      1  C   UNL     1      20.950 -12.415  21.552  1.00  0.00     0.000 C 
ENDROOT
BRANCH   1   2
ATOM      2  C   UNL     1      22.202 -11.564  21.830  1.00  0.00     0.000 C 
BRANCH   2   3
ATOM      3  C   UNL     1      22.026 -10.644  23.048  1.00  0.00     0.000 C 
BRANCH   3   4
ATOM      4  C   UNL     1      20.692 -10.877  23.779  1.00  0.00     0.000 C 
BRANCH   4   5
ATOM      5  C   UNL     1      20.488  -9.890  24.950  1.00  0.00     0.000 C 
BRANCH   5   6
ATOM      6  C   UNL     1      20.711  -8.417  24.559  1.00  0.00     0.006 C 
BRANCH   6   7
ATOM      7  C   UNL     1      20.021  -7.411  25.493  1.00  0.00     0.053 C 
BRANCH   7   8
ATOM      8  C   UNL     1      19.511  -6.216  24.747  1.00  0.00     0.041 C 
ATOM      9  O   UNL     1      20.296  -5.532  24.038  1.00  0.00    -0.550 OA
ATOM     10  O   UNL     1      18.177  -5.844  24.848  1.00  0.00    -0.550 OA
ENDBRANCH   7   8
ENDBRANCH   6   7
ENDBRANCH   5   6
ENDBRANCH   4   5
ENDBRANCH   3   4
ENDBRANCH   2   3
ENDBRANCH   1   2
BRANCH   1  11
ATOM     11  C   UNL     1      21.172 -13.432  20.420  1.00  0.00     0.000 C 
BRANCH  11  12
ATOM     12  C   UNL     1      22.536 -14.139  20.516  1.00  0.00    -0.000 C 
BRANCH  12  13
ATOM     13  C   UNL     1      22.709 -15.235  19.441  1.00  0.00    -0.000 C 
BRANCH  13  14
ATOM     14  C   UNL     1      23.186 -16.586  20.006  1.00  0.00    -0.000 C 
BRANCH  14  15
ATOM     15  C   UNL     1      23.279 -17.725  18.974  1.00  0.00    -0.000 C 
BRANCH  15  16
ATOM     16  C   UNL     1      23.106 -17.291  17.504  1.00  0.00    -0.000 C 
BRANCH  16  17
ATOM     17  C   UNL     1      22.796 -18.434  16.521  1.00  0.00    -0.003 C 
ATOM     18  C   UNL     1      22.966 -19.820  17.143  1.00  0.00     0.004 C 
ENDBRANCH  16  17
ENDBRANCH  15  16
ENDBRANCH  14  15
ENDBRANCH  13  14
ENDBRANCH  12  13
ENDBRANCH  11  12
ENDBRANCH   1  11
TORSDOF 14
ENDMDL
MODEL 4
REMARK VINA RESULT:    -5.375      5.698     10.772
REMARK INTER + INTRA:         -10.334
REMARK INTER:                  -9.715
REMARK INTRA:                  -0.619
REMARK UNBOUND:                -0.560
REMARK SMILES CCCCCCCCCCCCCCCC(=O)[O-]
REMARK SMILES IDX 9 1 10 2 11 3 12 4 13 5 14 6 15 7 16 8 17 9 18 10 8 11 7 12
REMARK SMILES IDX 6 13 5 14 4 15 3 16 2 17 1 18
REMARK H PARENT
REMARK Flexibility Score: inf
ROOT
ATOM      1  C   UNL     1      23.064 -16.184  19.514  1.00  0.00     0.000 C 
ENDROOT
BRANCH   1   2
ATOM      2  C   UNL     1      22.844 -16.027  17.998  1.00  0.00     0.000 C 
BRANCH   2   3
ATOM      3  C   UNL     1      23.108 -17.331  17.229  1.00  0.00     0.000 C 
BRANCH   3   4
ATOM      4  C   UNL     1      22.577 -18.573  17.968  1.00  0.00     0.000 C 
BRANCH   4   5
ATOM      5  C   UNL     1      22.589 -19.833  17.075  1.00  0.00     0.000 C 
BRANCH   5   6
ATOM      6  C   UNL     1      21.190 -20.254  16.587  1.00  0.00     0.006 C 
BRANCH   6   7
ATOM      7  C   UNL     1      20.162 -20.431  17.715  1.00  0.00     0.053 C 
BRANCH   7   8
ATOM      8  C   UNL     1      18.927 -21.133  17.239  1.00  0.00     0.041 C 
ATOM      9  O   UNL     1      18.230 -21.804  18.046  1.00  0.00    -0.550 OA
ATOM     10  O   UNL     1      18.554 -21.064  15.902  1.00  0.00    -0.550 OA
ENDBRANCH   7   8
ENDBRANCH   6   7
ENDBRANCH   5   6
ENDBRANCH   4   5
ENDBRANCH   3   4
ENDBRANCH   2   3
ENDBRANCH   1   2
BRANCH   1  11
ATOM     11  C   UNL     1      22.831 -14.871  20.279  1.00  0.00     0.000 C 
BRANCH  11  12
ATOM     12  C   UNL     1      21.577 -14.119  19.798  1.00  0.00    -0.000 C 
BRANCH  12  13
ATOM     13  C   UNL     1      21.126 -13.027  20.793  1.00  0.00    -0.000 C 
BRANCH  13  14
ATOM     14  C   UNL     1      22.271 -12.470  21.661  1.00  0.00    -0.000 C 
BRANCH  14  15
ATOM     15  C   UNL     1      21.932 -11.183  22.435  1.00  0.00    -0.000 C 
BRANCH  15  16
ATOM     16  C   UNL     1      20.577 -11.202  23.174  1.00  0.00    -0.000 C 
BRANCH  16  17
ATOM     17  C   UNL     1      20.637 -10.780  24.653  1.00  0.00    -0.003 C 
ATOM     18  C   UNL     1      20.655  -9.263  24.840  1.00  0.00     0.004 C 
ENDBRANCH  16  17
ENDBRANCH  15  16
ENDBRANCH  14  15
ENDBRANCH  13  14
ENDBRANCH  12  13
ENDBRANCH  11  12
ENDBRANCH   1  11
TORSDOF 14
ENDMDL
MODEL 5
REMARK VINA RESULT:    -5.160      1.627      3.379
REMARK INTER + INTRA:          -9.943
REMARK INTER:                  -9.443
REMARK INTRA:                  -0.500
REMARK UNBOUND:                -0.560
REMARK SMILES CCCCCCCCCCCCCCCC(=O)[O-]
REMARK SMILES IDX 9 1 10 2 11 3 12 4 13 5 14 6 15 7 16 8 17 9 18 10 8 11 7 12
REMARK SMILES IDX 6 13 5 14 4 15 3 16 2 17 1 18
REMARK H PARENT
REMARK Flexibility Score: inf
ROOT
ATOM      1  C   UNL     1      21.837 -10.766  22.649  1.00  0.00     0.000 C 
ENDROOT
BRANCH   1   2
ATOM      2  C   UNL     1      20.684 -11.227  23.558  1.00  0.00     0.000 C 
BRANCH   2   3
ATOM      3  C   UNL     1      20.405 -10.236  24.700  1.00  0.00     0.000 C 
BRANCH   3   4
ATOM      4  C   UNL     1      21.195  -8.924  24.552  1.00  0.00     0.000 C 
BRANCH   4   5
ATOM      5  C   UNL     1      20.584  -7.777  25.388  1.00  0.00     0.000 C 
BRANCH   5   6
ATOM      6  C   UNL     1      21.421  -7.406  26.626  1.00  0.00     0.006 C 
BRANCH   6   7
ATOM      7  C   UNL     1      21.784  -5.915  26.711  1.00  0.00     0.053 C 
BRANCH   7   8
ATOM      8  C   UNL     1      22.643  -5.618  27.901  1.00  0.00     0.041 C 
ATOM      9  O   UNL     1      22.998  -6.547  28.674  1.00  0.00    -0.550 OA
ATOM     10  O   UNL     1      23.037  -4.313  28.171  1.00  0.00    -0.550 OA
ENDBRANCH   7   8
ENDBRANCH   6   7
ENDBRANCH   5   6
ENDBRANCH   4   5
ENDBRANCH   3   4
ENDBRANCH   2   3
ENDBRANCH   1   2
BRANCH   1  11
ATOM     11  C   UNL     1      22.240 -11.838  21.624  1.00  0.00     0.000 C 
BRANCH  11  12
ATOM     12  C   UNL     1      21.091 -12.807  21.295  1.00  0.00    -0.000 C 
BRANCH  12  13
ATOM     13  C   UNL     1      21.419 -13.729  20.100  1.00  0.00    -0.000 C 
BRANCH  13  14
ATOM     14  C   UNL     1      22.604 -14.678  20.359  1.00  0.00    -0.000 C 
BRANCH  14  15
ATOM     15  C   UNL     1      22.910 -15.661  19.214  1.00  0.00    -0.000 C 
BRANCH  15  16
ATOM     16  C   UNL     1      23.265 -17.095  19.660  1.00  0.00    -0.000 C 
BRANCH  16  17
ATOM     17  C   UNL     1      23.661 -18.051  18.521  1.00  0.00    -0.003 C 
ATOM     18  C   UNL     1      22.482 -18.864  17.986  1.00  0.00     0.004 C 
ENDBRANCH  16  17
ENDBRANCH  15  16
ENDBRANCH  14  15
ENDBRANCH  13  14
ENDBRANCH  12  13
ENDBRANCH  11  12
ENDBRANCH   1  11
TORSDOF 14
ENDMDL
MODEL 6
REMARK VINA RESULT:    -5.079      5.268     11.966
REMARK INTER + INTRA:          -9.797
REMARK INTER:                  -9.040
REMARK INTRA:                  -0.756
REMARK UNBOUND:                -0.560
REMARK SMILES CCCCCCCCCCCCCCCC(=O)[O-]
REMARK SMILES IDX 9 1 10 2 11 3 12 4 13 5 14 6 15 7 16 8 17 9 18 10 8 11 7 12
REMARK SMILES IDX 6 13 5 14 4 15 3 16 2 17 1 18
REMARK H PARENT
REMARK Flexibility Score: inf
ROOT
ATOM      1  C   UNL     1      19.933  -6.096  23.759  1.00  0.00     0.000 C 
ENDROOT
BRANCH   1   2
ATOM      2  C   UNL     1      19.757  -6.986  25.001  1.00  0.00     0.000 C 
BRANCH   2   3
ATOM      3  C   UNL     1      20.546  -8.302  24.896  1.00  0.00     0.000 C 
BRANCH   3   4
ATOM      4  C   UNL     1      21.946  -8.106  24.286  1.00  0.00     0.000 C 
BRANCH   4   5
ATOM      5  C   UNL     1      22.198  -9.051  23.090  1.00  0.00     0.000 C 
BRANCH   5   6
ATOM      6  C   UNL     1      21.495 -10.414  23.224  1.00  0.00     0.006 C 
BRANCH   6   7
ATOM      7  C   UNL     1      21.898 -11.435  22.149  1.00  0.00     0.053 C 
BRANCH   7   8
ATOM      8  C   UNL     1      20.756 -12.328  21.772  1.00  0.00     0.041 C 
ATOM      9  O   UNL     1      19.679 -12.288  22.423  1.00  0.00    -0.550 OA
ATOM     10  O   UNL     1      20.885 -13.220  20.714  1.00  0.00    -0.550 OA
ENDBRANCH   7   8
ENDBRANCH   6   7
ENDBRANCH   5   6
ENDBRANCH   4   5
ENDBRANCH   3   4
ENDBRANCH   2   3
ENDBRANCH   1   2
BRANCH   1  11
ATOM     11  C   UNL     1      18.820  -5.043  23.629  1.00  0.00     0.000 C 
BRANCH  11  12
ATOM     12  C   UNL     1      17.768  -5.153  24.747  1.00  0.00    -0.000 C 
BRANCH  12  13
ATOM     13  C   UNL     1      16.651  -4.094  24.611  1.00  0.00    -0.000 C 
BRANCH  13  14
ATOM     14  C   UNL     1      15.447  -4.343  25.539  1.00  0.00    -0.000 C 
BRANCH  14  15
ATOM     15  C   UNL     1      14.492  -5.459  25.078  1.00  0.00    -0.000 C 
BRANCH  15  16
ATOM     16  C   UNL     1      13.523  -5.979  26.160  1.00  0.00    -0.000 C 
BRANCH  16  17
ATOM     17  C   UNL     1      13.869  -5.559  27.599  1.00  0.00    -0.003 C 
ATOM     18  C   UNL     1      12.683  -4.946  28.344  1.00  0.00     0.004 C 
ENDBRANCH  16  17
ENDBRANCH  15  16
ENDBRANCH  14  15
ENDBRANCH  13  14
ENDBRANCH  12  13
ENDBRANCH  11  12
ENDBRANCH   1  11
TORSDOF 14
ENDMDL
MODEL 7
REMARK VINA RESULT:    -5.065      4.560      8.004
REMARK INTER + INTRA:          -9.771
REMARK INTER:                  -9.105
REMARK INTRA:                  -0.666
REMARK UNBOUND:                -0.560
REMARK SMILES CCCCCCCCCCCCCCCC(=O)[O-]
REMARK SMILES IDX 9 1 10 2 11 3 12 4 13 5 14 6 15 7 16 8 17 9 18 10 8 11 7 12
REMARK SMILES IDX 6 13 5 14 4 15 3 16 2 17 1 18
REMARK H PARENT
REMARK Flexibility Score: inf
ROOT
ATOM      1  C   UNL     1      21.206 -20.386  16.639  1.00  0.00     0.000 C 
ENDROOT
BRANCH   1   2
ATOM      2  C   UNL     1      22.250 -19.584  17.436  1.00  0.00     0.000 C 
BRANCH   2   3
ATOM      3  C   UNL     1      22.714 -18.322  16.691  1.00  0.00     0.000 C 
BRANCH   3   4
ATOM      4  C   UNL     1      23.046 -17.160  17.643  1.00  0.00     0.000 C 
BRANCH   4   5
ATOM      5  C   UNL     1      23.089 -17.609  19.120  1.00  0.00     0.000 C 
BRANCH   5   6
ATOM      6  C   UNL     1      23.237 -16.441  20.113  1.00  0.00     0.006 C 
BRANCH   6   7
ATOM      7  C   UNL     1      22.670 -15.109  19.602  1.00  0.00     0.053 C 
BRANCH   7   8
ATOM      8  C   UNL     1      22.487 -14.118  20.711  1.00  0.00     0.041 C 
ATOM      9  O   UNL     1      21.396 -13.500  20.833  1.00  0.00    -0.550 OA
ATOM     10  O   UNL     1      23.525 -13.861  21.597  1.00  0.00    -0.550 OA
ENDBRANCH   7   8
ENDBRANCH   6   7
ENDBRANCH   5   6
ENDBRANCH   4   5
ENDBRANCH   3   4
ENDBRANCH   2   3
ENDBRANCH   1   2
BRANCH   1  11
ATOM     11  C   UNL     1      19.895 -20.580  17.419  1.00  0.00     0.000 C 
BRANCH  11  12
ATOM     12  C   UNL     1      18.852 -21.394  16.633  1.00  0.00    -0.000 C 
BRANCH  12  13
ATOM     13  C   UNL     1      19.145 -21.420  15.117  1.00  0.00    -0.000 C 
BRANCH  13  14
ATOM     14  C   UNL     1      17.899 -21.686  14.251  1.00  0.00    -0.000 C 
BRANCH  14  15
ATOM     15  C   UNL     1      17.582 -20.590  13.217  1.00  0.00    -0.000 C 
BRANCH  15  16
ATOM     16  C   UNL     1      18.701 -20.315  12.191  1.00  0.00    -0.000 C 
BRANCH  16  17
ATOM     17  C   UNL     1      18.486 -20.953  10.807  1.00  0.00    -0.003 C 
ATOM     18  C   UNL     1      18.274 -22.466  10.873  1.00  0.00     0.004 C 
ENDBRANCH  16  17
ENDBRANCH  15  16
ENDBRANCH  14  15
ENDBRANCH  13  14
ENDBRANCH  12  13
ENDBRANCH  11  12
ENDBRANCH   1  11
TORSDOF 14
ENDMDL
MODEL 8
REMARK VINA RESULT:    -5.044      2.287      4.376
REMARK INTER + INTRA:          -9.733
REMARK INTER:                  -9.091
REMARK INTRA:                  -0.642
REMARK UNBOUND:                -0.560
REMARK SMILES CCCCCCCCCCCCCCCC(=O)[O-]
REMARK SMILES IDX 9 1 10 2 11 3 12 4 13 5 14 6 15 7 16 8 17 9 18 10 8 11 7 12
REMARK SMILES IDX 6 13 5 14 4 15 3 16 2 17 1 18
REMARK H PARENT
REMARK Flexibility Score: inf
ROOT
ATOM      1  C   UNL     1      20.804 -10.860  23.365  1.00  0.00     0.000 C 
ENDROOT
BRANCH   1   2
ATOM      2  C   UNL     1      20.716  -9.802  24.480  1.00  0.00     0.000 C 
BRANCH   2   3
ATOM      3  C   UNL     1      21.509  -8.529  24.144  1.00  0.00     0.000 C 
BRANCH   3   4
ATOM      4  C   UNL     1      21.776  -7.652  25.380  1.00  0.00     0.000 C 
BRANCH   4   5
ATOM      5  C   UNL     1      20.705  -6.553  25.559  1.00  0.00     0.000 C 
BRANCH   5   6
ATOM      6  C   UNL     1      20.119  -6.043  24.229  1.00  0.00     0.006 C 
BRANCH   6   7
ATOM      7  C   UNL     1      19.159  -4.855  24.384  1.00  0.00     0.053 C 
BRANCH   7   8
ATOM      8  C   UNL     1      19.120  -4.004  23.151  1.00  0.00     0.041 C 
ATOM      9  O   UNL     1      19.919  -3.039  23.023  1.00  0.00    -0.550 OA
ATOM     10  O   UNL     1      18.190  -4.262  22.151  1.00  0.00    -0.550 OA
ENDBRANCH   7   8
ENDBRANCH   6   7
ENDBRANCH   5   6
ENDBRANCH   4   5
ENDBRANCH   3   4
ENDBRANCH   2   3
ENDBRANCH   1   2
BRANCH   1  11
ATOM     11  C   UNL     1      22.062 -10.694  22.497  1.00  0.00     0.000 C 
BRANCH  11  12
ATOM     12  C   UNL     1      22.482 -12.003  21.806  1.00  0.00    -0.000 C 
BRANCH  12  13
ATOM     13  C   UNL     1      21.274 -12.799  21.267  1.00  0.00    -0.000 C 
BRANCH  13  14
ATOM     14  C   UNL     1      21.646 -13.832  20.186  1.00  0.00    -0.000 C 
BRANCH  14  15
ATOM     15  C   UNL     1      22.835 -14.744  20.542  1.00  0.00    -0.000 C 
BRANCH  15  16
ATOM     16  C   UNL     1      22.977 -16.006  19.665  1.00  0.00    -0.000 C 
BRANCH  16  17
ATOM     17  C   UNL     1      22.777 -15.775  18.156  1.00  0.00    -0.003 C 
ATOM     18  C   UNL     1      23.187 -16.980  17.309  1.00  0.00     0.004 C 
ENDBRANCH  16  17
ENDBRANCH  15  16
ENDBRANCH  14  15
ENDBRANCH  13  14
ENDBRANCH  12  13
ENDBRANCH  11  12
ENDBRANCH   1  11
TORSDOF 14
ENDMDL
MODEL 9
REMARK VINA RESULT:    -4.942      7.930     12.341
REMARK INTER + INTRA:          -9.546
REMARK INTER:                  -8.316
REMARK INTRA:                  -1.230
REMARK UNBOUND:                -0.560
REMARK SMILES CCCCCCCCCCCCCCCC(=O)[O-]
REMARK SMILES IDX 9 1 10 2 11 3 12 4 13 5 14 6 15 7 16 8 17 9 18 10 8 11 7 12
REMARK SMILES IDX 6 13 5 14 4 15 3 16 2 17 1 18
REMARK H PARENT
REMARK Flexibility Score: inf
ROOT
ATOM      1  C   UNL     1      18.965 -20.871  17.966  1.00  0.00     0.000 C 
ENDROOT
BRANCH   1   2
ATOM      2  C   UNL     1      18.044 -22.103  17.902  1.00  0.00     0.000 C 
BRANCH   2   3
ATOM      3  C   UNL     1      18.064 -22.778  16.521  1.00  0.00     0.000 C 
BRANCH   3   4
ATOM      4  C   UNL     1      16.679 -22.795  15.850  1.00  0.00     0.000 C 
BRANCH   4   5
ATOM      5  C   UNL     1      16.697 -22.128  14.457  1.00  0.00     0.000 C 
BRANCH   5   6
ATOM      6  C   UNL     1      17.937 -21.248  14.213  1.00  0.00     0.006 C 
BRANCH   6   7
ATOM      7  C   UNL     1      18.814 -21.714  13.041  1.00  0.00     0.053 C 
BRANCH   7   8
ATOM      8  C   UNL     1      18.493 -20.979  11.777  1.00  0.00     0.041 C 
ATOM      9  O   UNL     1      17.724 -21.494  10.922  1.00  0.00    -0.550 OA
ATOM     10  O   UNL     1      19.056 -19.733  11.529  1.00  0.00    -0.550 OA
ENDBRANCH   7   8
ENDBRANCH   6   7
ENDBRANCH   5   6
ENDBRANCH   4   5
ENDBRANCH   3   4
ENDBRANCH   2   3
ENDBRANCH   1   2
BRANCH   1  11
ATOM     11  C   UNL     1      20.381 -21.170  17.448  1.00  0.00     0.000 C 
BRANCH  11  12
ATOM     12  C   UNL     1      20.762 -20.309  16.231  1.00  0.00    -0.000 C 
BRANCH  12  13
ATOM     13  C   UNL     1      22.041 -19.478  16.474  1.00  0.00    -0.000 C 
BRANCH  13  14
ATOM     14  C   UNL     1      22.427 -19.357  17.960  1.00  0.00    -0.000 C 
BRANCH  14  15
ATOM     15  C   UNL     1      23.000 -17.988  18.373  1.00  0.00    -0.000 C 
BRANCH  15  16
ATOM     16  C   UNL     1      23.048 -16.933  17.248  1.00  0.00    -0.000 C 
BRANCH  16  17
ATOM     17  C   UNL     1      22.750 -15.491  17.697  1.00  0.00    -0.003 C 
ATOM     18  C   UNL     1      22.790 -15.317  19.215  1.00  0.00     0.004 C 
ENDBRANCH  16  17
ENDBRANCH  15  16
ENDBRANCH  14  15
ENDBRANCH  13  14
ENDBRANCH  12  13
ENDBRANCH  11  12
ENDBRANCH   1  11
TORSDOF 14
ENDMDL
