MODEL 1
REMARK VINA RESULT:    -4.424      0.000      0.000
REMARK INTER + INTRA:         -13.409
REMARK INTER:                 -10.114
REMARK INTRA:                  -3.295
REMARK UNBOUND:                -3.295
REMARK SMILES CCCCCCCCCCCCCCCCCCCCCCCC(=O)[O-]
REMARK SMILES IDX 13 1 14 2 15 3 16 4 17 5 18 6 19 7 20 8 21 9 22 10 23 11
REMARK SMILES IDX 24 12 25 13 26 14 12 15 11 16 10 17 9 18 8 19 7 20 6 21 5 22
REMARK SMILES IDX 4 23 3 24 2 25 1 26
REMARK H PARENT
REMARK Flexibility Score: inf
ROOT
ATOM      1  C   UNL     1      26.739  13.771 -12.328  1.00  0.00     0.000 C 
ENDROOT
BRANCH   1   2
ATOM      2  C   UNL     1      26.547  13.195 -10.911  1.00  0.00     0.000 C 
BRANCH   2   3
ATOM      3  C   UNL     1      27.090  11.767 -10.710  1.00  0.00     0.000 C 
BRANCH   3   4
ATOM      4  C   UNL     1      28.593  11.593 -11.008  1.00  0.00     0.000 C 
BRANCH   4   5
ATOM      5  C   UNL     1      29.332  10.614 -10.075  1.00  0.00     0.000 C 
BRANCH   5   6
ATOM      6  C   UNL     1      30.022   9.434 -10.786  1.00  0.00     0.000 C 
BRANCH   6   7
ATOM      7  C   UNL     1      29.379   9.010 -12.121  1.00  0.00     0.000 C 
BRANCH   7   8
ATOM      8  C   UNL     1      30.231   8.056 -12.979  1.00  0.00     0.000 C 
BRANCH   8   9
ATOM      9  C   UNL     1      29.782   6.592 -12.865  1.00  0.00     0.000 C 
BRANCH   9  10
ATOM     10  C   UNL     1      28.821   6.222 -14.005  1.00  0.00     0.006 C 
BRANCH  10  11
ATOM     11  C   UNL     1      27.363   6.134 -13.532  1.00  0.00     0.053 C 
BRANCH  11  12
ATOM     12  C   UNL     1      26.908   4.714 -13.389  1.00  0.00     0.041 C 
ATOM     13  O   UNL     1      25.812   4.347 -13.889  1.00  0.00    -0.550 OA
ATOM     14  O   UNL     1      27.718   3.786 -12.748  1.00  0.00    -0.550 OA
ENDBRANCH  11  12
ENDBRANCH  10  11
ENDBRANCH   9  10
ENDBRANCH   8   9
ENDBRANCH   7   8
ENDBRANCH   6   7
ENDBRANCH   5   6
ENDBRANCH   4   5
ENDBRANCH   3   4
ENDBRANCH   2   3
ENDBRANCH   1   2
BRANCH   1  15
ATOM     15  C   UNL     1      27.669  14.998 -12.409  1.00  0.00     0.000 C 
BRANCH  15  16
ATOM     16  C   UNL     1      28.720  14.951 -13.537  1.00  0.00     0.000 C 
BRANCH  16  17
ATOM     17  C   UNL     1      28.915  13.572 -14.193  1.00  0.00     0.000 C 
BRANCH  17  18
ATOM     18  C   UNL     1      30.346  13.033 -14.036  1.00  0.00    -0.000 C 
BRANCH  18  19
ATOM     19  C   UNL     1      30.479  11.556 -14.448  1.00  0.00    -0.000 C 
BRANCH  19  20
ATOM     20  C   UNL     1      29.256  10.964 -15.179  1.00  0.00    -0.000 C 
BRANCH  20  21
ATOM     21  C   UNL     1      29.583   9.966 -16.309  1.00  0.00    -0.000 C 
BRANCH  21  22
ATOM     22  C   UNL     1      30.811  10.334 -17.163  1.00  0.00    -0.000 C 
BRANCH  22  23
ATOM     23  C   UNL     1      30.518  11.314 -18.315  1.00  0.00    -0.000 C 
BRANCH  23  24
ATOM     24  C   UNL     1      30.729  12.797 -17.931  1.00  0.00    -0.000 C 
BRANCH  24  25
ATOM     25  C   UNL     1      29.423  13.606 -17.864  1.00  0.00    -0.003 C 
ATOM     26  C   UNL     1      29.659  15.069 -17.489  1.00  0.00     0.004 C 
ENDBRANCH  24  25
ENDBRANCH  23  24
ENDBRANCH  22  23
ENDBRANCH  21  22
ENDBRANCH  20  21
ENDBRANCH  19  20
ENDBRANCH  18  19
ENDBRANCH  17  18
ENDBRANCH  16  17
ENDBRANCH  15  16
ENDBRANCH   1  15
TORSDOF 22
ENDMDL
MODEL 2
REMARK VINA RESULT:    -4.185      1.447      5.493
REMARK INTER + INTRA:         -12.863
REMARK INTER:                  -9.323
REMARK INTRA:                  -3.540
REMARK UNBOUND:                -3.295
REMARK SMILES CCCCCCCCCCCCCCCCCCCCCCCC(=O)[O-]
REMARK SMILES IDX 13 1 14 2 15 3 16 4 17 5 18 6 19 7 20 8 21 9 22 10 23 11
REMARK SMILES IDX 24 12 25 13 26 14 12 15 11 16 10 17 9 18 8 19 7 20 6 21 5 22
REMARK SMILES IDX 4 23 3 24 2 25 1 26
REMARK H PARENT
REMARK Flexibility Score: inf
ROOT
ATOM      1  C   UNL     1      28.498  12.498 -16.129  1.00  0.00     0.000 C 
ENDROOT
BRANCH   1   2
ATOM      2  C   UNL     1      28.885  13.642 -17.087  1.00  0.00     0.000 C 
BRANCH   2   3
ATOM      3  C   UNL     1      29.689  13.207 -18.328  1.00  0.00     0.000 C 
BRANCH   3   4
ATOM      4  C   UNL     1      30.931  12.344 -18.030  1.00  0.00     0.000 C 
BRANCH   4   5
ATOM      5  C   UNL     1      30.919  10.943 -18.672  1.00  0.00     0.000 C 
BRANCH   5   6
ATOM      6  C   UNL     1      30.478   9.802 -17.736  1.00  0.00     0.000 C 
BRANCH   6   7
ATOM      7  C   UNL     1      30.348   8.420 -18.407  1.00  0.00     0.000 C 
BRANCH   7   8
ATOM      8  C   UNL     1      29.573   7.371 -17.589  1.00  0.00     0.000 C 
BRANCH   8   9
ATOM      9  C   UNL     1      30.485   6.291 -16.989  1.00  0.00     0.000 C 
BRANCH   9  10
ATOM     10  C   UNL     1      29.862   5.688 -15.720  1.00  0.00     0.006 C 
BRANCH  10  11
ATOM     11  C   UNL     1      28.513   6.332 -15.372  1.00  0.00     0.053 C 
BRANCH  11  12
ATOM     12  C   UNL     1      27.890   5.703 -14.163  1.00  0.00     0.041 C 
ATOM     13  O   UNL     1      28.591   5.456 -13.146  1.00  0.00    -0.550 OA
ATOM     14  O   UNL     1      26.528   5.436 -14.143  1.00  0.00    -0.550 OA
ENDBRANCH  11  12
ENDBRANCH  10  11
ENDBRANCH   9  10
ENDBRANCH   8   9
ENDBRANCH   7   8
ENDBRANCH   6   7
ENDBRANCH   5   6
ENDBRANCH   4   5
ENDBRANCH   3   4
ENDBRANCH   2   3
ENDBRANCH   1   2
BRANCH   1  15
ATOM     15  C   UNL     1      28.809  12.763 -14.642  1.00  0.00     0.000 C 
BRANCH  15  16
ATOM     16  C   UNL     1      30.308  12.766 -14.277  1.00  0.00     0.000 C 
BRANCH  16  17
ATOM     17  C   UNL     1      31.027  11.415 -14.445  1.00  0.00     0.000 C 
BRANCH  17  18
ATOM     18  C   UNL     1      30.132  10.215 -14.093  1.00  0.00    -0.000 C 
BRANCH  18  19
ATOM     19  C   UNL     1      30.890   8.876 -14.114  1.00  0.00    -0.000 C 
BRANCH  19  20
ATOM     20  C   UNL     1      30.900   8.103 -12.779  1.00  0.00    -0.000 C 
BRANCH  20  21
ATOM     21  C   UNL     1      29.975   8.669 -11.683  1.00  0.00    -0.000 C 
BRANCH  21  22
ATOM     22  C   UNL     1      30.700   9.390 -10.531  1.00  0.00    -0.000 C 
BRANCH  22  23
ATOM     23  C   UNL     1      30.202  10.821 -10.258  1.00  0.00    -0.000 C 
BRANCH  23  24
ATOM     24  C   UNL     1      28.660  10.946 -10.253  1.00  0.00    -0.000 C 
BRANCH  24  25
ATOM     25  C   UNL     1      28.122  11.948 -11.288  1.00  0.00    -0.003 C 
ATOM     26  C   UNL     1      26.772  12.540 -10.882  1.00  0.00     0.004 C 
ENDBRANCH  24  25
ENDBRANCH  23  24
ENDBRANCH  22  23
ENDBRANCH  21  22
ENDBRANCH  20  21
ENDBRANCH  19  20
ENDBRANCH  18  19
ENDBRANCH  17  18
ENDBRANCH  16  17
ENDBRANCH  15  16
ENDBRANCH   1  15
TORSDOF 22
ENDMDL
MODEL 3
REMARK VINA RESULT:    -4.182      2.268      3.623
REMARK INTER + INTRA:         -12.856
REMARK INTER:                  -9.498
REMARK INTRA:                  -3.359
REMARK UNBOUND:                -3.295
REMARK SMILES CCCCCCCCCCCCCCCCCCCCCCCC(=O)[O-]
REMARK SMILES IDX 13 1 14 2 15 3 16 4 17 5 18 6 19 7 20 8 21 9 22 10 23 11
REMARK SMILES IDX 24 12 25 13 26 14 12 15 11 16 10 17 9 18 8 19 7 20 6 21 5 22
REMARK SMILES IDX 4 23 3 24 2 25 1 26
REMARK H PARENT
REMARK Flexibility Score: inf
ROOT
ATOM      1  C   UNL     1      29.643  11.007 -10.337  1.00  0.00     0.000 C 
ENDROOT
BRANCH   1   2
ATOM      2  C   UNL     1      29.864   9.481 -10.342  1.00  0.00     0.000 C 
BRANCH   2   3
ATOM      3  C   UNL     1      31.090   9.005 -11.147  1.00  0.00     0.000 C 
BRANCH   3   4
ATOM      4  C   UNL     1      30.760   8.282 -12.469  1.00  0.00     0.000 C 
BRANCH   4   5
ATOM      5  C   UNL     1      29.258   8.189 -12.801  1.00  0.00     0.000 C 
BRANCH   5   6
ATOM      6  C   UNL     1      28.892   7.140 -13.869  1.00  0.00     0.000 C 
BRANCH   6   7
ATOM      7  C   UNL     1      29.441   7.426 -15.281  1.00  0.00     0.000 C 
BRANCH   7   8
ATOM      8  C   UNL     1      29.074   6.376 -16.345  1.00  0.00     0.000 C 
BRANCH   8   9
ATOM      9  C   UNL     1      28.512   7.002 -17.631  1.00  0.00     0.000 C 
BRANCH   9  10
ATOM     10  C   UNL     1      27.070   6.536 -17.884  1.00  0.00     0.006 C 
BRANCH  10  11
ATOM     11  C   UNL     1      26.685   5.334 -17.011  1.00  0.00     0.053 C 
BRANCH  11  12
ATOM     12  C   UNL     1      26.489   4.093 -17.828  1.00  0.00     0.041 C 
ATOM     13  O   UNL     1      25.518   3.326 -17.590  1.00  0.00    -0.550 OA
ATOM     14  O   UNL     1      27.348   3.811 -18.881  1.00  0.00    -0.550 OA
ENDBRANCH  11  12
ENDBRANCH  10  11
ENDBRANCH   9  10
ENDBRANCH   8   9
ENDBRANCH   7   8
ENDBRANCH   6   7
ENDBRANCH   5   6
ENDBRANCH   4   5
ENDBRANCH   3   4
ENDBRANCH   2   3
ENDBRANCH   1   2
BRANCH   1  15
ATOM     15  C   UNL     1      28.471  11.495 -11.211  1.00  0.00     0.000 C 
BRANCH  15  16
ATOM     16  C   UNL     1      28.843  12.542 -12.281  1.00  0.00     0.000 C 
BRANCH  16  17
ATOM     17  C   UNL     1      29.959  12.118 -13.253  1.00  0.00     0.000 C 
BRANCH  17  18
ATOM     18  C   UNL     1      29.419  11.430 -14.518  1.00  0.00    -0.000 C 
BRANCH  18  19
ATOM     19  C   UNL     1      30.536  10.944 -15.458  1.00  0.00    -0.000 C 
BRANCH  19  20
ATOM     20  C   UNL     1      30.061  10.415 -16.827  1.00  0.00    -0.000 C 
BRANCH  20  21
ATOM     21  C   UNL     1      30.732  11.068 -18.054  1.00  0.00    -0.000 C 
BRANCH  21  22
ATOM     22  C   UNL     1      30.866  12.600 -17.980  1.00  0.00    -0.000 C 
BRANCH  22  23
ATOM     23  C   UNL     1      29.549  13.369 -18.192  1.00  0.00    -0.000 C 
BRANCH  23  24
ATOM     24  C   UNL     1      29.068  14.125 -16.931  1.00  0.00    -0.000 C 
BRANCH  24  25
ATOM     25  C   UNL     1      30.216  14.646 -16.051  1.00  0.00    -0.003 C 
ATOM     26  C   UNL     1      29.724  15.559 -14.927  1.00  0.00     0.004 C 
ENDBRANCH  24  25
ENDBRANCH  23  24
ENDBRANCH  22  23
ENDBRANCH  21  22
ENDBRANCH  20  21
ENDBRANCH  19  20
ENDBRANCH  18  19
ENDBRANCH  17  18
ENDBRANCH  16  17
ENDBRANCH  15  16
ENDBRANCH   1  15
TORSDOF 22
ENDMDL
MODEL 4
REMARK VINA RESULT:    -4.169      1.561      5.485
REMARK INTER + INTRA:         -12.825
REMARK INTER:                  -9.411
REMARK INTRA:                  -3.414
REMARK UNBOUND:                -3.295
REMARK SMILES CCCCCCCCCCCCCCCCCCCCCCCC(=O)[O-]
REMARK SMILES IDX 13 1 14 2 15 3 16 4 17 5 18 6 19 7 20 8 21 9 22 10 23 11
REMARK SMILES IDX 24 12 25 13 26 14 12 15 11 16 10 17 9 18 8 19 7 20 6 21 5 22
REMARK SMILES IDX 4 23 3 24 2 25 1 26
REMARK H PARENT
REMARK Flexibility Score: inf
ROOT
ATOM      1  C   UNL     1      30.107  12.982 -16.938  1.00  0.00     0.000 C 
ENDROOT
BRANCH   1   2
ATOM      2  C   UNL     1      29.950  12.424 -18.367  1.00  0.00     0.000 C 
BRANCH   2   3
ATOM      3  C   UNL     1      30.834  11.204 -18.689  1.00  0.00     0.000 C 
BRANCH   3   4
ATOM      4  C   UNL     1      30.751  10.051 -17.667  1.00  0.00     0.000 C 
BRANCH   4   5
ATOM      5  C   UNL     1      30.209   8.722 -18.229  1.00  0.00     0.000 C 
BRANCH   5   6
ATOM      6  C   UNL     1      29.440   7.854 -17.215  1.00  0.00     0.000 C 
BRANCH   6   7
ATOM      7  C   UNL     1      28.457   6.841 -17.837  1.00  0.00     0.000 C 
BRANCH   7   8
ATOM      8  C   UNL     1      28.267   5.542 -17.032  1.00  0.00     0.000 C 
BRANCH   8   9
ATOM      9  C   UNL     1      27.131   5.640 -16.002  1.00  0.00     0.000 C 
BRANCH   9  10
ATOM     10  C   UNL     1      27.691   5.735 -14.574  1.00  0.00     0.006 C 
BRANCH  10  11
ATOM     11  C   UNL     1      26.580   5.770 -13.515  1.00  0.00     0.053 C 
BRANCH  11  12
ATOM     12  C   UNL     1      26.230   4.396 -13.030  1.00  0.00     0.041 C 
ATOM     13  O   UNL     1      25.153   3.851 -13.394  1.00  0.00    -0.550 OA
ATOM     14  O   UNL     1      27.115   3.700 -12.218  1.00  0.00    -0.550 OA
ENDBRANCH  11  12
ENDBRANCH  10  11
ENDBRANCH   9  10
ENDBRANCH   8   9
ENDBRANCH   7   8
ENDBRANCH   6   7
ENDBRANCH   5   6
ENDBRANCH   4   5
ENDBRANCH   3   4
ENDBRANCH   2   3
ENDBRANCH   1   2
BRANCH   1  15
ATOM     15  C   UNL     1      28.846  12.877 -16.058  1.00  0.00     0.000 C 
BRANCH  15  16
ATOM     16  C   UNL     1      29.001  12.007 -14.793  1.00  0.00     0.000 C 
BRANCH  16  17
ATOM     17  C   UNL     1      30.452  11.740 -14.355  1.00  0.00     0.000 C 
BRANCH  17  18
ATOM     18  C   UNL     1      30.707  10.266 -13.999  1.00  0.00    -0.000 C 
BRANCH  18  19
ATOM     19  C   UNL     1      29.420   9.422 -13.991  1.00  0.00    -0.000 C 
BRANCH  19  20
ATOM     20  C   UNL     1      29.235   8.515 -12.757  1.00  0.00    -0.000 C 
BRANCH  20  21
ATOM     21  C   UNL     1      30.313   8.661 -11.664  1.00  0.00    -0.000 C 
BRANCH  21  22
ATOM     22  C   UNL     1      29.878   9.469 -10.428  1.00  0.00    -0.000 C 
BRANCH  22  23
ATOM     23  C   UNL     1      30.553  10.846 -10.294  1.00  0.00    -0.000 C 
BRANCH  23  24
ATOM     24  C   UNL     1      29.661  12.018 -10.766  1.00  0.00    -0.000 C 
BRANCH  24  25
ATOM     25  C   UNL     1      28.188  11.625 -10.972  1.00  0.00    -0.003 C 
ATOM     26  C   UNL     1      27.327  12.802 -11.429  1.00  0.00     0.004 C 
ENDBRANCH  24  25
ENDBRANCH  23  24
ENDBRANCH  22  23
ENDBRANCH  21  22
ENDBRANCH  20  21
ENDBRANCH  19  20
ENDBRANCH  18  19
ENDBRANCH  17  18
ENDBRANCH  16  17
ENDBRANCH  15  16
ENDBRANCH   1  15
TORSDOF 22
ENDMDL
MODEL 5
REMARK VINA RESULT:    -4.126      2.284      5.825
REMARK INTER + INTRA:         -12.727
REMARK INTER:                 -10.197
REMARK INTRA:                  -2.531
REMARK UNBOUND:                -3.295
REMARK SMILES CCCCCCCCCCCCCCCCCCCCCCCC(=O)[O-]
REMARK SMILES IDX 13 1 14 2 15 3 16 4 17 5 18 6 19 7 20 8 21 9 22 10 23 11
REMARK SMILES IDX 24 12 25 13 26 14 12 15 11 16 10 17 9 18 8 19 7 20 6 21 5 22
REMARK SMILES IDX 4 23 3 24 2 25 1 26
REMARK H PARENT
REMARK Flexibility Score: inf
ROOT
ATOM      1  C   UNL     1      29.199  13.470 -15.282  1.00  0.00     0.000 C 
ENDROOT
BRANCH   1   2
ATOM      2  C   UNL     1      29.273  13.538 -16.821  1.00  0.00     0.000 C 
BRANCH   2   3
ATOM      3  C   UNL     1      30.579  12.996 -17.433  1.00  0.00     0.000 C 
BRANCH   3   4
ATOM      4  C   UNL     1      30.389  11.994 -18.590  1.00  0.00     0.000 C 
BRANCH   4   5
ATOM      5  C   UNL     1      31.087  10.634 -18.394  1.00  0.00     0.000 C 
BRANCH   5   6
ATOM      6  C   UNL     1      30.407   9.695 -17.379  1.00  0.00     0.000 C 
BRANCH   6   7
ATOM      7  C   UNL     1      29.894   8.364 -17.963  1.00  0.00     0.000 C 
BRANCH   7   8
ATOM      8  C   UNL     1      28.860   7.627 -17.091  1.00  0.00     0.000 C 
BRANCH   8   9
ATOM      9  C   UNL     1      27.768   6.934 -17.919  1.00  0.00     0.000 C 
BRANCH   9  10
ATOM     10  C   UNL     1      27.342   5.609 -17.268  1.00  0.00     0.006 C 
BRANCH  10  11
ATOM     11  C   UNL     1      27.097   4.504 -18.305  1.00  0.00     0.053 C 
BRANCH  11  12
ATOM     12  C   UNL     1      26.584   3.248 -17.670  1.00  0.00     0.041 C 
ATOM     13  O   UNL     1      27.289   2.630 -16.828  1.00  0.00    -0.550 OA
ATOM     14  O   UNL     1      25.308   2.789 -17.970  1.00  0.00    -0.550 OA
ENDBRANCH  11  12
ENDBRANCH  10  11
ENDBRANCH   9  10
ENDBRANCH   8   9
ENDBRANCH   7   8
ENDBRANCH   6   7
ENDBRANCH   5   6
ENDBRANCH   4   5
ENDBRANCH   3   4
ENDBRANCH   2   3
ENDBRANCH   1   2
BRANCH   1  15
ATOM     15  C   UNL     1      29.307  12.051 -14.689  1.00  0.00     0.000 C 
BRANCH  15  16
ATOM     16  C   UNL     1      30.662  11.717 -14.033  1.00  0.00     0.000 C 
BRANCH  16  17
ATOM     17  C   UNL     1      30.921  10.219 -13.787  1.00  0.00     0.000 C 
BRANCH  17  18
ATOM     18  C   UNL     1      29.624   9.407 -13.635  1.00  0.00    -0.000 C 
BRANCH  18  19
ATOM     19  C   UNL     1      29.612   8.530 -12.371  1.00  0.00    -0.000 C 
BRANCH  19  20
ATOM     20  C   UNL     1      30.414   9.085 -11.176  1.00  0.00    -0.000 C 
BRANCH  20  21
ATOM     21  C   UNL     1      29.598   9.920 -10.167  1.00  0.00    -0.000 C 
BRANCH  21  22
ATOM     22  C   UNL     1      29.274  11.355 -10.624  1.00  0.00    -0.000 C 
BRANCH  22  23
ATOM     23  C   UNL     1      27.782  11.617 -10.900  1.00  0.00    -0.000 C 
BRANCH  23  24
ATOM     24  C   UNL     1      27.493  13.044 -11.420  1.00  0.00    -0.000 C 
BRANCH  24  25
ATOM     25  C   UNL     1      26.088  13.556 -11.060  1.00  0.00    -0.003 C 
ATOM     26  C   UNL     1      25.550  14.556 -12.084  1.00  0.00     0.004 C 
ENDBRANCH  24  25
ENDBRANCH  23  24
ENDBRANCH  22  23
ENDBRANCH  21  22
ENDBRANCH  20  21
ENDBRANCH  19  20
ENDBRANCH  18  19
ENDBRANCH  17  18
ENDBRANCH  16  17
ENDBRANCH  15  16
ENDBRANCH   1  15
TORSDOF 22
ENDMDL
MODEL 6
REMARK VINA RESULT:    -4.092      2.232      4.777
REMARK INTER + INTRA:         -12.651
REMARK INTER:                  -9.249
REMARK INTRA:                  -3.402
REMARK UNBOUND:                -3.295
REMARK SMILES CCCCCCCCCCCCCCCCCCCCCCCC(=O)[O-]
REMARK SMILES IDX 13 1 14 2 15 3 16 4 17 5 18 6 19 7 20 8 21 9 22 10 23 11
REMARK SMILES IDX 24 12 25 13 26 14 12 15 11 16 10 17 9 18 8 19 7 20 6 21 5 22
REMARK SMILES IDX 4 23 3 24 2 25 1 26
REMARK H PARENT
REMARK Flexibility Score: inf
ROOT
ATOM      1  C   UNL     1      29.254  11.420 -14.560  1.00  0.00     0.000 C 
ENDROOT
BRANCH   1   2
ATOM      2  C   UNL     1      30.747  11.397 -14.177  1.00  0.00     0.000 C 
BRANCH   2   3
ATOM      3  C   UNL     1      31.063  10.703 -12.837  1.00  0.00     0.000 C 
BRANCH   3   4
ATOM      4  C   UNL     1      29.845  10.086 -12.120  1.00  0.00     0.000 C 
BRANCH   4   5
ATOM      5  C   UNL     1      29.691   8.562 -12.296  1.00  0.00     0.000 C 
BRANCH   5   6
ATOM      6  C   UNL     1      30.898   7.857 -12.944  1.00  0.00     0.000 C 
BRANCH   6   7
ATOM      7  C   UNL     1      30.670   7.368 -14.388  1.00  0.00     0.000 C 
BRANCH   7   8
ATOM      8  C   UNL     1      29.369   7.864 -15.044  1.00  0.00     0.000 C 
BRANCH   8   9
ATOM      9  C   UNL     1      29.362   7.678 -16.569  1.00  0.00     0.000 C 
BRANCH   9  10
ATOM     10  C   UNL     1      28.863   6.276 -16.949  1.00  0.00     0.006 C 
BRANCH  10  11
ATOM     11  C   UNL     1      27.845   6.312 -18.098  1.00  0.00     0.053 C 
BRANCH  11  12
ATOM     12  C   UNL     1      27.223   4.969 -18.334  1.00  0.00     0.041 C 
ATOM     13  O   UNL     1      27.503   4.315 -19.373  1.00  0.00    -0.550 OA
ATOM     14  O   UNL     1      26.374   4.421 -17.382  1.00  0.00    -0.550 OA
ENDBRANCH  11  12
ENDBRANCH  10  11
ENDBRANCH   9  10
ENDBRANCH   8   9
ENDBRANCH   7   8
ENDBRANCH   6   7
ENDBRANCH   5   6
ENDBRANCH   4   5
ENDBRANCH   3   4
ENDBRANCH   2   3
ENDBRANCH   1   2
BRANCH   1  15
ATOM     15  C   UNL     1      28.973  11.374 -16.076  1.00  0.00     0.000 C 
BRANCH  15  16
ATOM     16  C   UNL     1      30.226  11.318 -16.973  1.00  0.00     0.000 C 
BRANCH  16  17
ATOM     17  C   UNL     1      30.358  12.469 -17.987  1.00  0.00     0.000 C 
BRANCH  17  18
ATOM     18  C   UNL     1      29.173  13.447 -17.938  1.00  0.00    -0.000 C 
BRANCH  18  19
ATOM     19  C   UNL     1      29.563  14.835 -17.400  1.00  0.00    -0.000 C 
BRANCH  19  20
ATOM     20  C   UNL     1      30.931  14.906 -16.691  1.00  0.00    -0.000 C 
BRANCH  20  21
ATOM     21  C   UNL     1      30.872  14.990 -15.152  1.00  0.00    -0.000 C 
BRANCH  21  22
ATOM     22  C   UNL     1      29.591  15.631 -14.586  1.00  0.00    -0.000 C 
BRANCH  22  23
ATOM     23  C   UNL     1      28.741  14.695 -13.708  1.00  0.00    -0.000 C 
BRANCH  23  24
ATOM     24  C   UNL     1      27.876  15.444 -12.667  1.00  0.00    -0.000 C 
BRANCH  24  25
ATOM     25  C   UNL     1      27.086  14.507 -11.737  1.00  0.00    -0.003 C 
ATOM     26  C   UNL     1      27.785  13.164 -11.529  1.00  0.00     0.004 C 
ENDBRANCH  24  25
ENDBRANCH  23  24
ENDBRANCH  22  23
ENDBRANCH  21  22
ENDBRANCH  20  21
ENDBRANCH  19  20
ENDBRANCH  18  19
ENDBRANCH  17  18
ENDBRANCH  16  17
ENDBRANCH  15  16
ENDBRANCH   1  15
TORSDOF 22
ENDMDL
MODEL 7
REMARK VINA RESULT:    -4.078      2.449      3.098
REMARK INTER + INTRA:         -12.618
REMARK INTER:                  -8.672
REMARK INTRA:                  -3.946
REMARK UNBOUND:                -3.295
REMARK SMILES CCCCCCCCCCCCCCCCCCCCCCCC(=O)[O-]
REMARK SMILES IDX 13 1 14 2 15 3 16 4 17 5 18 6 19 7 20 8 21 9 22 10 23 11
REMARK SMILES IDX 24 12 25 13 26 14 12 15 11 16 10 17 9 18 8 19 7 20 6 21 5 22
REMARK SMILES IDX 4 23 3 24 2 25 1 26
REMARK H PARENT
REMARK Flexibility Score: inf
ROOT
ATOM      1  C   UNL     1      27.588  12.147 -11.194  1.00  0.00     0.000 C 
ENDROOT
BRANCH   1   2
ATOM      2  C   UNL     1      28.329  10.805 -11.026  1.00  0.00     0.000 C 
BRANCH   2   3
ATOM      3  C   UNL     1      29.357  10.770  -9.877  1.00  0.00     0.000 C 
BRANCH   3   4
ATOM      4  C   UNL     1      30.395   9.634  -9.968  1.00  0.00     0.000 C 
BRANCH   4   5
ATOM      5  C   UNL     1      30.880   9.308 -11.394  1.00  0.00     0.000 C 
BRANCH   5   6
ATOM      6  C   UNL     1      30.372   7.969 -11.964  1.00  0.00     0.000 C 
BRANCH   6   7
ATOM      7  C   UNL     1      30.562   7.792 -13.483  1.00  0.00     0.000 C 
BRANCH   7   8
ATOM      8  C   UNL     1      29.434   7.023 -14.194  1.00  0.00     0.000 C 
BRANCH   8   9
ATOM      9  C   UNL     1      29.765   6.698 -15.658  1.00  0.00     0.000 C 
BRANCH   9  10
ATOM     10  C   UNL     1      28.483   6.468 -16.474  1.00  0.00     0.006 C 
BRANCH  10  11
ATOM     11  C   UNL     1      28.510   7.205 -17.820  1.00  0.00     0.053 C 
BRANCH  11  12
ATOM     12  C   UNL     1      29.533   6.630 -18.751  1.00  0.00     0.041 C 
ATOM     13  O   UNL     1      30.518   7.325 -19.117  1.00  0.00    -0.550 OA
ATOM     14  O   UNL     1      29.424   5.312 -19.173  1.00  0.00    -0.550 OA
ENDBRANCH  11  12
ENDBRANCH  10  11
ENDBRANCH   9  10
ENDBRANCH   8   9
ENDBRANCH   7   8
ENDBRANCH   6   7
ENDBRANCH   5   6
ENDBRANCH   4   5
ENDBRANCH   3   4
ENDBRANCH   2   3
ENDBRANCH   1   2
BRANCH   1  15
ATOM     15  C   UNL     1      28.480  13.332 -11.614  1.00  0.00     0.000 C 
BRANCH  15  16
ATOM     16  C   UNL     1      29.082  13.230 -13.030  1.00  0.00     0.000 C 
BRANCH  16  17
ATOM     17  C   UNL     1      30.489  12.609 -13.102  1.00  0.00     0.000 C 
BRANCH  17  18
ATOM     18  C   UNL     1      30.640  11.604 -14.255  1.00  0.00    -0.000 C 
BRANCH  18  19
ATOM     19  C   UNL     1      29.294  11.014 -14.714  1.00  0.00    -0.000 C 
BRANCH  19  20
ATOM     20  C   UNL     1      29.308  10.346 -16.105  1.00  0.00    -0.000 C 
BRANCH  20  21
ATOM     21  C   UNL     1      30.702  10.185 -16.745  1.00  0.00    -0.000 C 
BRANCH  21  22
ATOM     22  C   UNL     1      30.829  10.747 -18.173  1.00  0.00    -0.000 C 
BRANCH  22  23
ATOM     23  C   UNL     1      30.177  12.127 -18.378  1.00  0.00    -0.000 C 
BRANCH  23  24
ATOM     24  C   UNL     1      30.825  13.247 -17.530  1.00  0.00    -0.000 C 
BRANCH  24  25
ATOM     25  C   UNL     1      29.802  14.159 -16.832  1.00  0.00    -0.003 C 
ATOM     26  C   UNL     1      30.402  15.504 -16.422  1.00  0.00     0.004 C 
ENDBRANCH  24  25
ENDBRANCH  23  24
ENDBRANCH  22  23
ENDBRANCH  21  22
ENDBRANCH  20  21
ENDBRANCH  19  20
ENDBRANCH  18  19
ENDBRANCH  17  18
ENDBRANCH  16  17
ENDBRANCH  15  16
ENDBRANCH   1  15
TORSDOF 22
ENDMDL
MODEL 8
REMARK VINA RESULT:    -4.078      1.162      4.343
REMARK INTER + INTRA:         -12.618
REMARK INTER:                  -9.303
REMARK INTRA:                  -3.315
REMARK UNBOUND:                -3.295
REMARK SMILES CCCCCCCCCCCCCCCCCCCCCCCC(=O)[O-]
REMARK SMILES IDX 13 1 14 2 15 3 16 4 17 5 18 6 19 7 20 8 21 9 22 10 23 11
REMARK SMILES IDX 24 12 25 13 26 14 12 15 11 16 10 17 9 18 8 19 7 20 6 21 5 22
REMARK SMILES IDX 4 23 3 24 2 25 1 26
REMARK H PARENT
REMARK Flexibility Score: inf
ROOT
ATOM      1  C   UNL     1      29.650  10.888 -14.911  1.00  0.00     0.000 C 
ENDROOT
BRANCH   1   2
ATOM      2  C   UNL     1      31.065  11.015 -14.312  1.00  0.00     0.000 C 
BRANCH   2   3
ATOM      3  C   UNL     1      31.125  10.974 -12.773  1.00  0.00     0.000 C 
BRANCH   3   4
ATOM      4  C   UNL     1      29.754  10.948 -12.068  1.00  0.00     0.000 C 
BRANCH   4   5
ATOM      5  C   UNL     1      29.391   9.608 -11.399  1.00  0.00     0.000 C 
BRANCH   5   6
ATOM      6  C   UNL     1      30.472   8.515 -11.506  1.00  0.00     0.000 C 
BRANCH   6   7
ATOM      7  C   UNL     1      30.283   7.521 -12.670  1.00  0.00     0.000 C 
BRANCH   7   8
ATOM      8  C   UNL     1      28.915   7.598 -13.373  1.00  0.00     0.000 C 
BRANCH   8   9
ATOM      9  C   UNL     1      28.890   6.842 -14.710  1.00  0.00     0.000 C 
BRANCH   9  10
ATOM     10  C   UNL     1      27.921   5.652 -14.651  1.00  0.00     0.006 C 
BRANCH  10  11
ATOM     11  C   UNL     1      26.819   5.850 -13.600  1.00  0.00     0.053 C 
BRANCH  11  12
ATOM     12  C   UNL     1      25.490   5.361 -14.088  1.00  0.00     0.041 C 
ATOM     13  O   UNL     1      24.445   6.024 -13.849  1.00  0.00    -0.550 OA
ATOM     14  O   UNL     1      25.412   4.202 -14.848  1.00  0.00    -0.550 OA
ENDBRANCH  11  12
ENDBRANCH  10  11
ENDBRANCH   9  10
ENDBRANCH   8   9
ENDBRANCH   7   8
ENDBRANCH   6   7
ENDBRANCH   5   6
ENDBRANCH   4   5
ENDBRANCH   3   4
ENDBRANCH   2   3
ENDBRANCH   1   2
BRANCH   1  15
ATOM     15  C   UNL     1      29.609  10.626 -16.430  1.00  0.00     0.000 C 
BRANCH  15  16
ATOM     16  C   UNL     1      30.929  10.904 -17.178  1.00  0.00     0.000 C 
BRANCH  16  17
ATOM     17  C   UNL     1      30.952  12.201 -18.008  1.00  0.00     0.000 C 
BRANCH  17  18
ATOM     18  C   UNL     1      29.599  12.930 -18.013  1.00  0.00    -0.000 C 
BRANCH  18  19
ATOM     19  C   UNL     1      29.672  14.332 -17.382  1.00  0.00    -0.000 C 
BRANCH  19  20
ATOM     20  C   UNL     1      30.932  14.609 -16.535  1.00  0.00    -0.000 C 
BRANCH  20  21
ATOM     21  C   UNL     1      30.724  14.559 -15.008  1.00  0.00    -0.000 C 
BRANCH  21  22
ATOM     22  C   UNL     1      29.280  14.826 -14.541  1.00  0.00    -0.000 C 
BRANCH  22  23
ATOM     23  C   UNL     1      28.886  14.105 -13.239  1.00  0.00    -0.000 C 
BRANCH  23  24
ATOM     24  C   UNL     1      27.848  14.883 -12.395  1.00  0.00    -0.000 C 
BRANCH  24  25
ATOM     25  C   UNL     1      26.485  14.178 -12.295  1.00  0.00    -0.003 C 
ATOM     26  C   UNL     1      26.433  13.164 -11.152  1.00  0.00     0.004 C 
ENDBRANCH  24  25
ENDBRANCH  23  24
ENDBRANCH  22  23
ENDBRANCH  21  22
ENDBRANCH  20  21
ENDBRANCH  19  20
ENDBRANCH  18  19
ENDBRANCH  17  18
ENDBRANCH  16  17
ENDBRANCH  15  16
ENDBRANCH   1  15
TORSDOF 22
ENDMDL
MODEL 9
REMARK VINA RESULT:    -4.030      2.782      6.049
REMARK INTER + INTRA:         -12.509
REMARK INTER:                  -9.524
REMARK INTRA:                  -2.985
REMARK UNBOUND:                -3.295
REMARK SMILES CCCCCCCCCCCCCCCCCCCCCCCC(=O)[O-]
REMARK SMILES IDX 13 1 14 2 15 3 16 4 17 5 18 6 19 7 20 8 21 9 22 10 23 11
REMARK SMILES IDX 24 12 25 13 26 14 12 15 11 16 10 17 9 18 8 19 7 20 6 21 5 22
REMARK SMILES IDX 4 23 3 24 2 25 1 26
REMARK H PARENT
REMARK Flexibility Score: inf
ROOT
ATOM      1  C   UNL     1      28.441  12.497 -16.186  1.00  0.00     0.000 C 
ENDROOT
BRANCH   1   2
ATOM      2  C   UNL     1      28.917  13.608 -17.144  1.00  0.00     0.000 C 
BRANCH   2   3
ATOM      3  C   UNL     1      29.700  13.113 -18.375  1.00  0.00     0.000 C 
BRANCH   3   4
ATOM      4  C   UNL     1      30.974  12.305 -18.055  1.00  0.00     0.000 C 
BRANCH   4   5
ATOM      5  C   UNL     1      31.048  10.916 -18.720  1.00  0.00     0.000 C 
BRANCH   5   6
ATOM      6  C   UNL     1      30.420   9.770 -17.903  1.00  0.00     0.000 C 
BRANCH   6   7
ATOM      7  C   UNL     1      30.411   8.398 -18.605  1.00  0.00     0.000 C 
BRANCH   7   8
ATOM      8  C   UNL     1      29.445   7.364 -17.997  1.00  0.00     0.000 C 
BRANCH   8   9
ATOM      9  C   UNL     1      30.151   6.361 -17.073  1.00  0.00     0.000 C 
BRANCH   9  10
ATOM     10  C   UNL     1      29.854   4.915 -17.501  1.00  0.00     0.006 C 
BRANCH  10  11
ATOM     11  C   UNL     1      29.812   4.758 -19.027  1.00  0.00     0.053 C 
BRANCH  11  12
ATOM     12  C   UNL     1      28.562   4.069 -19.482  1.00  0.00     0.041 C 
ATOM     13  O   UNL     1      28.628   2.948 -20.054  1.00  0.00    -0.550 OA
ATOM     14  O   UNL     1      27.322   4.642 -19.230  1.00  0.00    -0.550 OA
ENDBRANCH  11  12
ENDBRANCH  10  11
ENDBRANCH   9  10
ENDBRANCH   8   9
ENDBRANCH   7   8
ENDBRANCH   6   7
ENDBRANCH   5   6
ENDBRANCH   4   5
ENDBRANCH   3   4
ENDBRANCH   2   3
ENDBRANCH   1   2
BRANCH   1  15
ATOM     15  C   UNL     1      28.725  12.762 -14.694  1.00  0.00     0.000 C 
BRANCH  15  16
ATOM     16  C   UNL     1      30.212  12.707 -14.290  1.00  0.00     0.000 C 
BRANCH  16  17
ATOM     17  C   UNL     1      30.903  11.349 -14.515  1.00  0.00     0.000 C 
BRANCH  17  18
ATOM     18  C   UNL     1      29.975  10.154 -14.238  1.00  0.00    -0.000 C 
BRANCH  18  19
ATOM     19  C   UNL     1      30.679   8.797 -14.415  1.00  0.00    -0.000 C 
BRANCH  19  20
ATOM     20  C   UNL     1      30.907   7.999 -13.115  1.00  0.00    -0.000 C 
BRANCH  20  21
ATOM     21  C   UNL     1      30.045   8.437 -11.913  1.00  0.00    -0.000 C 
BRANCH  21  22
ATOM     22  C   UNL     1      30.828   9.074 -10.751  1.00  0.00    -0.000 C 
BRANCH  22  23
ATOM     23  C   UNL     1      30.538  10.569 -10.527  1.00  0.00    -0.000 C 
BRANCH  23  24
ATOM     24  C   UNL     1      29.065  10.862 -10.158  1.00  0.00    -0.000 C 
BRANCH  24  25
ATOM     25  C   UNL     1      28.319  11.689 -11.219  1.00  0.00    -0.003 C 
ATOM     26  C   UNL     1      26.888  12.026 -10.798  1.00  0.00     0.004 C 
ENDBRANCH  24  25
ENDBRANCH  23  24
ENDBRANCH  22  23
ENDBRANCH  21  22
ENDBRANCH  20  21
ENDBRANCH  19  20
ENDBRANCH  18  19
ENDBRANCH  17  18
ENDBRANCH  16  17
ENDBRANCH  15  16
ENDBRANCH   1  15
TORSDOF 22
ENDMDL
