MODEL 1
REMARK VINA RESULT:    -6.267      0.000      0.000
REMARK INTER + INTRA:          -7.872
REMARK INTER:                  -7.549
REMARK INTRA:                  -0.322
REMARK UNBOUND:                -0.322
REMARK SMILES O=c1c(O)c(-c2ccc(O)c(O)c2)oc2cc(O)cc(O)c12
REMARK SMILES IDX 5 1 3 2 2 3 1 4 22 5 20 6 19 7 17 8 16 9 15 10 14 11 6 12
REMARK SMILES IDX 7 13 8 14 9 15 13 16 11 17 10 18 12 20 4 22 21 24 18 26
REMARK H PARENT 10 19 12 21 4 23 21 25 18 27
REMARK Flexibility Score: inf
ROOT
ATOM      1  C   UNL     1     114.264  48.633  22.626  1.00  0.00     0.180 A 
ATOM      2  C   UNL     1     114.650  49.032  23.918  1.00  0.00     0.208 A 
ATOM      3  C   UNL     1     115.857  49.729  24.084  1.00  0.00     0.238 A 
ATOM      4  O   UNL     1     116.170  50.131  25.235  1.00  0.00    -0.285 OA
ATOM      5  C   UNL     1     116.672  50.004  22.959  1.00  0.00     0.111 A 
ATOM      6  C   UNL     1     117.935  50.667  23.015  1.00  0.00     0.134 A 
ATOM      7  C   UNL     1     118.593  51.002  21.826  1.00  0.00     0.093 A 
ATOM      8  C   UNL     1     118.068  50.640  20.586  1.00  0.00     0.123 A 
ATOM      9  C   UNL     1     116.863  49.938  20.522  1.00  0.00     0.094 A 
ATOM     10  C   UNL     1     116.165  49.622  21.689  1.00  0.00     0.146 A 
ATOM     11  O   UNL     1     115.018  48.963  21.584  1.00  0.00    -0.452 OA
ENDROOT
BRANCH   1  12
ATOM     12  C   UNL     1     113.018  47.874  22.375  1.00  0.00     0.025 A 
ATOM     13  C   UNL     1     113.032  46.473  22.468  1.00  0.00     0.016 A 
ATOM     14  C   UNL     1     111.862  45.739  22.257  1.00  0.00     0.051 A 
ATOM     15  C   UNL     1     110.659  46.393  21.964  1.00  0.00     0.157 A 
ATOM     16  C   UNL     1     111.803  48.529  22.102  1.00  0.00     0.062 A 
ATOM     17  C   UNL     1     110.630  47.796  21.892  1.00  0.00     0.158 A 
BRANCH  15  18
ATOM     18  O   UNL     1     109.494  45.656  21.752  1.00  0.00    -0.504 OA
ATOM     19  H   UNL     1     109.431  44.965  21.015  1.00  0.00     0.293 HD
ENDBRANCH  15  18
BRANCH  17  20
ATOM     20  O   UNL     1     109.445  48.478  21.618  1.00  0.00    -0.504 OA
ATOM     21  H   UNL     1     109.145  49.277  22.164  1.00  0.00     0.293 HD
ENDBRANCH  17  20
ENDBRANCH   1  12
BRANCH   2  22
ATOM     22  O   UNL     1     113.820  48.770  25.011  1.00  0.00    -0.502 OA
ATOM     23  H   UNL     1     112.965  49.287  25.182  1.00  0.00     0.293 HD
ENDBRANCH   2  22
BRANCH   6  24
ATOM     24  O   UNL     1     118.592  50.993  24.205  1.00  0.00    -0.507 OA
ATOM     25  H   UNL     1     118.226  50.821  25.130  1.00  0.00     0.293 HD
ENDBRANCH   6  24
BRANCH   8  26
ATOM     26  O   UNL     1     118.759  50.975  19.423  1.00  0.00    -0.508 OA
ATOM     27  H   UNL     1     118.322  51.516  18.685  1.00  0.00     0.293 HD
ENDBRANCH   8  26
TORSDOF 6
ENDMDL
MODEL 2
REMARK VINA RESULT:    -5.981      3.064      6.906
REMARK INTER + INTRA:          -7.527
REMARK INTER:                  -7.196
REMARK INTRA:                  -0.331
REMARK UNBOUND:                -0.322
REMARK SMILES O=c1c(O)c(-c2ccc(O)c(O)c2)oc2cc(O)cc(O)c12
REMARK SMILES IDX 5 1 3 2 2 3 1 4 22 5 20 6 19 7 17 8 16 9 15 10 14 11 6 12
REMARK SMILES IDX 7 13 8 14 9 15 13 16 11 17 10 18 12 20 4 22 21 24 18 26
REMARK H PARENT 10 19 12 21 4 23 21 25 18 27
REMARK Flexibility Score: inf
ROOT
ATOM      1  C   UNL     1     115.700  47.848  21.302  1.00  0.00     0.180 A 
ATOM      2  C   UNL     1     114.297  47.863  21.202  1.00  0.00     0.208 A 
ATOM      3  C   UNL     1     113.636  46.720  20.727  1.00  0.00     0.238 A 
ATOM      4  O   UNL     1     112.377  46.720  20.691  1.00  0.00    -0.285 OA
ATOM      5  C   UNL     1     114.385  45.582  20.342  1.00  0.00     0.111 A 
ATOM      6  C   UNL     1     113.822  44.383  19.808  1.00  0.00     0.134 A 
ATOM      7  C   UNL     1     114.646  43.273  19.584  1.00  0.00     0.093 A 
ATOM      8  C   UNL     1     116.019  43.339  19.811  1.00  0.00     0.123 A 
ATOM      9  C   UNL     1     116.590  44.525  20.276  1.00  0.00     0.094 A 
ATOM     10  C   UNL     1     115.789  45.638  20.544  1.00  0.00     0.146 A 
ATOM     11  O   UNL     1     116.369  46.743  20.994  1.00  0.00    -0.452 OA
ENDROOT
BRANCH   1  12
ATOM     12  C   UNL     1     116.469  49.024  21.770  1.00  0.00     0.025 A 
ATOM     13  C   UNL     1     116.865  49.098  23.115  1.00  0.00     0.016 A 
ATOM     14  C   UNL     1     117.610  50.188  23.573  1.00  0.00     0.051 A 
ATOM     15  C   UNL     1     117.982  51.211  22.692  1.00  0.00     0.157 A 
ATOM     16  C   UNL     1     116.862  50.042  20.883  1.00  0.00     0.062 A 
ATOM     17  C   UNL     1     117.610  51.134  21.340  1.00  0.00     0.158 A 
BRANCH  15  18
ATOM     18  O   UNL     1     118.723  52.298  23.153  1.00  0.00    -0.504 OA
ATOM     19  H   UNL     1     118.275  53.134  23.509  1.00  0.00     0.293 HD
ENDBRANCH  15  18
BRANCH  17  20
ATOM     20  O   UNL     1     117.977  52.129  20.434  1.00  0.00    -0.504 OA
ATOM     21  H   UNL     1     117.646  52.134  19.477  1.00  0.00     0.293 HD
ENDBRANCH  17  20
ENDBRANCH   1  12
BRANCH   2  22
ATOM     22  O   UNL     1     113.576  48.989  21.608  1.00  0.00    -0.502 OA
ATOM     23  H   UNL     1     113.154  49.632  20.949  1.00  0.00     0.293 HD
ENDBRANCH   2  22
BRANCH   6  24
ATOM     24  O   UNL     1     112.476  44.242  19.459  1.00  0.00    -0.507 OA
ATOM     25  H   UNL     1     111.893  44.985  19.105  1.00  0.00     0.293 HD
ENDBRANCH   6  24
BRANCH   8  26
ATOM     26  O   UNL     1     116.812  42.219  19.561  1.00  0.00    -0.508 OA
ATOM     27  H   UNL     1     116.969  41.513  20.271  1.00  0.00     0.293 HD
ENDBRANCH   8  26
TORSDOF 6
ENDMDL
MODEL 3
REMARK VINA RESULT:    -5.947      0.659      1.468
REMARK INTER + INTRA:          -7.486
REMARK INTER:                  -7.185
REMARK INTRA:                  -0.301
REMARK UNBOUND:                -0.322
REMARK SMILES O=c1c(O)c(-c2ccc(O)c(O)c2)oc2cc(O)cc(O)c12
REMARK SMILES IDX 5 1 3 2 2 3 1 4 22 5 20 6 19 7 17 8 16 9 15 10 14 11 6 12
REMARK SMILES IDX 7 13 8 14 9 15 13 16 11 17 10 18 12 20 4 22 21 24 18 26
REMARK H PARENT 10 19 12 21 4 23 21 25 18 27
REMARK Flexibility Score: inf
ROOT
ATOM      1  C   UNL     1     114.197  48.649  22.442  1.00  0.00     0.180 A 
ATOM      2  C   UNL     1     114.559  48.973  23.762  1.00  0.00     0.208 A 
ATOM      3  C   UNL     1     115.755  49.671  23.989  1.00  0.00     0.238 A 
ATOM      4  O   UNL     1     116.046  50.005  25.167  1.00  0.00    -0.285 OA
ATOM      5  C   UNL     1     116.583  50.023  22.896  1.00  0.00     0.111 A 
ATOM      6  C   UNL     1     117.837  50.695  23.013  1.00  0.00     0.134 A 
ATOM      7  C   UNL     1     118.510  51.110  21.857  1.00  0.00     0.093 A 
ATOM      8  C   UNL     1     118.008  50.819  20.589  1.00  0.00     0.123 A 
ATOM      9  C   UNL     1     116.813  50.109  20.463  1.00  0.00     0.094 A 
ATOM     10  C   UNL     1     116.100  49.714  21.598  1.00  0.00     0.146 A 
ATOM     11  O   UNL     1     114.963  49.051  21.434  1.00  0.00    -0.452 OA
ENDROOT
BRANCH   1  12
ATOM     12  C   UNL     1     112.964  47.893  22.125  1.00  0.00     0.025 A 
ATOM     13  C   UNL     1     111.741  48.576  22.029  1.00  0.00     0.016 A 
ATOM     14  C   UNL     1     110.569  47.886  21.710  1.00  0.00     0.051 A 
ATOM     15  C   UNL     1     110.604  46.506  21.468  1.00  0.00     0.157 A 
ATOM     16  C   UNL     1     112.999  46.512  21.861  1.00  0.00     0.062 A 
ATOM     17  C   UNL     1     111.827  45.819  21.540  1.00  0.00     0.158 A 
BRANCH  15  18
ATOM     18  O   UNL     1     109.432  45.820  21.153  1.00  0.00    -0.504 OA
ATOM     19  H   UNL     1     108.523  46.263  21.220  1.00  0.00     0.293 HD
ENDBRANCH  15  18
BRANCH  17  20
ATOM     20  O   UNL     1     111.898  44.448  21.290  1.00  0.00    -0.504 OA
ATOM     21  H   UNL     1     112.637  43.870  21.670  1.00  0.00     0.293 HD
ENDBRANCH  17  20
ENDBRANCH   1  12
BRANCH   2  22
ATOM     22  O   UNL     1     113.715  48.635  24.823  1.00  0.00    -0.502 OA
ATOM     23  H   UNL     1     114.047  48.152  25.650  1.00  0.00     0.293 HD
ENDBRANCH   2  22
BRANCH   6  24
ATOM     24  O   UNL     1     118.473  50.954  24.231  1.00  0.00    -0.507 OA
ATOM     25  H   UNL     1     118.886  51.838  24.487  1.00  0.00     0.293 HD
ENDBRANCH   6  24
BRANCH   8  26
ATOM     26  O   UNL     1     118.712  51.232  19.459  1.00  0.00    -0.508 OA
ATOM     27  H   UNL     1     118.978  52.201  19.326  1.00  0.00     0.293 HD
ENDBRANCH   8  26
TORSDOF 6
ENDMDL
MODEL 4
REMARK VINA RESULT:    -5.947      1.740      7.103
REMARK INTER + INTRA:          -7.486
REMARK INTER:                  -7.163
REMARK INTRA:                  -0.323
REMARK UNBOUND:                -0.322
REMARK SMILES O=c1c(O)c(-c2ccc(O)c(O)c2)oc2cc(O)cc(O)c12
REMARK SMILES IDX 5 1 3 2 2 3 1 4 22 5 20 6 19 7 17 8 16 9 15 10 14 11 6 12
REMARK SMILES IDX 7 13 8 14 9 15 13 16 11 17 10 18 12 20 4 22 21 24 18 26
REMARK H PARENT 10 19 12 21 4 23 21 25 18 27
REMARK Flexibility Score: inf
ROOT
ATOM      1  C   UNL     1     115.186  48.260  21.811  1.00  0.00     0.180 A 
ATOM      2  C   UNL     1     115.539  47.031  21.226  1.00  0.00     0.208 A 
ATOM      3  C   UNL     1     114.533  46.089  20.960  1.00  0.00     0.238 A 
ATOM      4  O   UNL     1     114.848  45.013  20.387  1.00  0.00    -0.285 OA
ATOM      5  C   UNL     1     113.189  46.380  21.296  1.00  0.00     0.111 A 
ATOM      6  C   UNL     1     112.094  45.483  21.108  1.00  0.00     0.134 A 
ATOM      7  C   UNL     1     110.789  45.926  21.355  1.00  0.00     0.093 A 
ATOM      8  C   UNL     1     110.544  47.208  21.845  1.00  0.00     0.123 A 
ATOM      9  C   UNL     1     111.612  48.073  22.089  1.00  0.00     0.094 A 
ATOM     10  C   UNL     1     112.923  47.673  21.818  1.00  0.00     0.146 A 
ATOM     11  O   UNL     1     113.909  48.529  22.054  1.00  0.00    -0.452 OA
ENDROOT
BRANCH   1  12
ATOM     12  C   UNL     1     116.194  49.292  22.144  1.00  0.00     0.025 A 
ATOM     13  C   UNL     1     116.823  49.263  23.398  1.00  0.00     0.016 A 
ATOM     14  C   UNL     1     117.793  50.215  23.725  1.00  0.00     0.051 A 
ATOM     15  C   UNL     1     118.158  51.200  22.798  1.00  0.00     0.157 A 
ATOM     16  C   UNL     1     116.578  50.270  21.208  1.00  0.00     0.062 A 
ATOM     17  C   UNL     1     117.550  51.223  21.532  1.00  0.00     0.158 A 
BRANCH  15  18
ATOM     18  O   UNL     1     119.124  52.149  23.129  1.00  0.00    -0.504 OA
ATOM     19  H   UNL     1     120.053  51.879  23.429  1.00  0.00     0.293 HD
ENDBRANCH  15  18
BRANCH  17  20
ATOM     20  O   UNL     1     117.903  52.181  20.582  1.00  0.00    -0.504 OA
ATOM     21  H   UNL     1     118.848  52.535  20.499  1.00  0.00     0.293 HD
ENDBRANCH  17  20
ENDBRANCH   1  12
BRANCH   2  22
ATOM     22  O   UNL     1     116.869  46.773  20.883  1.00  0.00    -0.502 OA
ATOM     23  H   UNL     1     117.164  45.898  20.466  1.00  0.00     0.293 HD
ENDBRANCH   2  22
BRANCH   6  24
ATOM     24  O   UNL     1     112.236  44.151  20.709  1.00  0.00    -0.507 OA
ATOM     25  H   UNL     1     112.716  43.441  21.241  1.00  0.00     0.293 HD
ENDBRANCH   6  24
BRANCH   8  26
ATOM     26  O   UNL     1     109.233  47.610  22.095  1.00  0.00    -0.508 OA
ATOM     27  H   UNL     1     108.584  47.801  21.340  1.00  0.00     0.293 HD
ENDBRANCH   8  26
TORSDOF 6
ENDMDL
MODEL 5
REMARK VINA RESULT:    -5.932      7.252      9.719
REMARK INTER + INTRA:          -7.468
REMARK INTER:                  -7.150
REMARK INTRA:                  -0.318
REMARK UNBOUND:                -0.322
REMARK SMILES O=c1c(O)c(-c2ccc(O)c(O)c2)oc2cc(O)cc(O)c12
REMARK SMILES IDX 5 1 3 2 2 3 1 4 22 5 20 6 19 7 17 8 16 9 15 10 14 11 6 12
REMARK SMILES IDX 7 13 8 14 9 15 13 16 11 17 10 18 12 20 4 22 21 24 18 26
REMARK H PARENT 10 19 12 21 4 23 21 25 18 27
REMARK Flexibility Score: inf
ROOT
ATOM      1  C   UNL     1     107.631  43.277  24.259  1.00  0.00     0.180 A 
ATOM      2  C   UNL     1     108.320  44.383  24.790  1.00  0.00     0.208 A 
ATOM      3  C   UNL     1     108.605  45.473  23.953  1.00  0.00     0.238 A 
ATOM      4  O   UNL     1     109.173  46.482  24.447  1.00  0.00    -0.285 OA
ATOM      5  C   UNL     1     108.214  45.439  22.593  1.00  0.00     0.111 A 
ATOM      6  C   UNL     1     108.488  46.470  21.644  1.00  0.00     0.134 A 
ATOM      7  C   UNL     1     107.940  46.389  20.358  1.00  0.00     0.093 A 
ATOM      8  C   UNL     1     107.186  45.284  19.966  1.00  0.00     0.123 A 
ATOM      9  C   UNL     1     106.963  44.241  20.866  1.00  0.00     0.094 A 
ATOM     10  C   UNL     1     107.465  44.311  22.168  1.00  0.00     0.146 A 
ATOM     11  O   UNL     1     107.221  43.303  22.996  1.00  0.00    -0.452 OA
ENDROOT
BRANCH   1  12
ATOM     12  C   UNL     1     107.317  42.081  25.072  1.00  0.00     0.025 A 
ATOM     13  C   UNL     1     108.283  41.073  25.221  1.00  0.00     0.016 A 
ATOM     14  C   UNL     1     108.015  39.946  26.002  1.00  0.00     0.051 A 
ATOM     15  C   UNL     1     106.784  39.816  26.657  1.00  0.00     0.157 A 
ATOM     16  C   UNL     1     106.090  41.957  25.748  1.00  0.00     0.062 A 
ATOM     17  C   UNL     1     105.819  40.829  26.532  1.00  0.00     0.158 A 
BRANCH  15  18
ATOM     18  O   UNL     1     106.519  38.688  27.433  1.00  0.00    -0.504 OA
ATOM     19  H   UNL     1     105.888  37.962  27.117  1.00  0.00     0.293 HD
ENDBRANCH  15  18
BRANCH  17  20
ATOM     20  O   UNL     1     104.590  40.737  27.184  1.00  0.00    -0.504 OA
ATOM     21  H   UNL     1     104.342  41.346  27.954  1.00  0.00     0.293 HD
ENDBRANCH  17  20
ENDBRANCH   1  12
BRANCH   2  22
ATOM     22  O   UNL     1     108.676  44.405  26.140  1.00  0.00    -0.502 OA
ATOM     23  H   UNL     1     109.533  43.988  26.484  1.00  0.00     0.293 HD
ENDBRANCH   2  22
BRANCH   6  24
ATOM     24  O   UNL     1     109.306  47.573  21.906  1.00  0.00    -0.507 OA
ATOM     25  H   UNL     1     109.604  47.862  22.825  1.00  0.00     0.293 HD
ENDBRANCH   6  24
BRANCH   8  26
ATOM     26  O   UNL     1     106.669  45.229  18.672  1.00  0.00    -0.508 OA
ATOM     27  H   UNL     1     105.948  45.869  18.362  1.00  0.00     0.293 HD
ENDBRANCH   8  26
TORSDOF 6
ENDMDL
MODEL 6
REMARK VINA RESULT:    -5.870      2.388      7.183
REMARK INTER + INTRA:          -7.393
REMARK INTER:                  -7.070
REMARK INTRA:                  -0.323
REMARK UNBOUND:                -0.322
REMARK SMILES O=c1c(O)c(-c2ccc(O)c(O)c2)oc2cc(O)cc(O)c12
REMARK SMILES IDX 5 1 3 2 2 3 1 4 22 5 20 6 19 7 17 8 16 9 15 10 14 11 6 12
REMARK SMILES IDX 7 13 8 14 9 15 13 16 11 17 10 18 12 20 4 22 21 24 18 26
REMARK H PARENT 10 19 12 21 4 23 21 25 18 27
REMARK Flexibility Score: inf
ROOT
ATOM      1  C   UNL     1     115.300  47.629  21.260  1.00  0.00     0.180 A 
ATOM      2  C   UNL     1     115.901  46.465  20.751  1.00  0.00     0.208 A 
ATOM      3  C   UNL     1     115.084  45.403  20.332  1.00  0.00     0.238 A 
ATOM      4  O   UNL     1     115.626  44.385  19.827  1.00  0.00    -0.285 OA
ATOM      5  C   UNL     1     113.677  45.511  20.443  1.00  0.00     0.111 A 
ATOM      6  C   UNL     1     112.754  44.481  20.088  1.00  0.00     0.134 A 
ATOM      7  C   UNL     1     111.379  44.746  20.116  1.00  0.00     0.093 A 
ATOM      8  C   UNL     1     110.892  45.978  20.548  1.00  0.00     0.123 A 
ATOM      9  C   UNL     1     111.784  46.972  20.956  1.00  0.00     0.094 A 
ATOM     10  C   UNL     1     113.162  46.751  20.904  1.00  0.00     0.146 A 
ATOM     11  O   UNL     1     113.975  47.725  21.290  1.00  0.00    -0.452 OA
ENDROOT
BRANCH   1  12
ATOM     12  C   UNL     1     116.096  48.780  21.743  1.00  0.00     0.025 A 
ATOM     13  C   UNL     1     116.516  48.815  23.082  1.00  0.00     0.016 A 
ATOM     14  C   UNL     1     117.287  49.880  23.554  1.00  0.00     0.051 A 
ATOM     15  C   UNL     1     117.661  50.919  22.692  1.00  0.00     0.157 A 
ATOM     16  C   UNL     1     116.491  49.814  20.875  1.00  0.00     0.062 A 
ATOM     17  C   UNL     1     117.264  50.882  21.345  1.00  0.00     0.158 A 
BRANCH  15  18
ATOM     18  O   UNL     1     118.428  51.982  23.167  1.00  0.00    -0.504 OA
ATOM     19  H   UNL     1     118.900  52.620  22.538  1.00  0.00     0.293 HD
ENDBRANCH  15  18
BRANCH  17  20
ATOM     20  O   UNL     1     117.633  51.892  20.458  1.00  0.00    -0.504 OA
ATOM     21  H   UNL     1     117.183  52.009  19.558  1.00  0.00     0.293 HD
ENDBRANCH  17  20
ENDBRANCH   1  12
BRANCH   2  22
ATOM     22  O   UNL     1     117.291  46.388  20.629  1.00  0.00    -0.502 OA
ATOM     23  H   UNL     1     117.745  45.891  19.872  1.00  0.00     0.293 HD
ENDBRANCH   2  22
BRANCH   6  24
ATOM     24  O   UNL     1     113.132  43.185  19.728  1.00  0.00    -0.507 OA
ATOM     25  H   UNL     1     112.715  42.651  18.980  1.00  0.00     0.293 HD
ENDBRANCH   6  24
BRANCH   8  26
ATOM     26  O   UNL     1     109.516  46.202  20.580  1.00  0.00    -0.508 OA
ATOM     27  H   UNL     1     109.080  46.712  21.339  1.00  0.00     0.293 HD
ENDBRANCH   8  26
TORSDOF 6
ENDMDL
MODEL 7
REMARK VINA RESULT:    -5.824      3.821      4.431
REMARK INTER + INTRA:          -7.339
REMARK INTER:                  -7.018
REMARK INTRA:                  -0.321
REMARK UNBOUND:                -0.322
REMARK SMILES O=c1c(O)c(-c2ccc(O)c(O)c2)oc2cc(O)cc(O)c12
REMARK SMILES IDX 5 1 3 2 2 3 1 4 22 5 20 6 19 7 17 8 16 9 15 10 14 11 6 12
REMARK SMILES IDX 7 13 8 14 9 15 13 16 11 17 10 18 12 20 4 22 21 24 18 26
REMARK H PARENT 10 19 12 21 4 23 21 25 18 27
REMARK Flexibility Score: inf
ROOT
ATOM      1  C   UNL     1     116.138  46.213  21.299  1.00  0.00     0.180 A 
ATOM      2  C   UNL     1     115.697  46.245  22.633  1.00  0.00     0.208 A 
ATOM      3  C   UNL     1     115.788  47.447  23.352  1.00  0.00     0.238 A 
ATOM      4  O   UNL     1     115.341  47.484  24.529  1.00  0.00    -0.285 OA
ATOM      5  C   UNL     1     116.334  48.597  22.734  1.00  0.00     0.111 A 
ATOM      6  C   UNL     1     116.513  49.858  23.380  1.00  0.00     0.134 A 
ATOM      7  C   UNL     1     116.941  50.963  22.634  1.00  0.00     0.093 A 
ATOM      8  C   UNL     1     117.261  50.838  21.283  1.00  0.00     0.123 A 
ATOM      9  C   UNL     1     117.149  49.596  20.655  1.00  0.00     0.094 A 
ATOM     10  C   UNL     1     116.688  48.484  21.364  1.00  0.00     0.146 A 
ATOM     11  O   UNL     1     116.585  47.325  20.727  1.00  0.00    -0.452 OA
ENDROOT
BRANCH   1  12
ATOM     12  C   UNL     1     116.097  44.976  20.485  1.00  0.00     0.025 A 
ATOM     13  C   UNL     1     117.204  44.113  20.484  1.00  0.00     0.016 A 
ATOM     14  C   UNL     1     117.177  42.930  19.741  1.00  0.00     0.051 A 
ATOM     15  C   UNL     1     116.040  42.585  18.999  1.00  0.00     0.157 A 
ATOM     16  C   UNL     1     114.948  44.617  19.757  1.00  0.00     0.062 A 
ATOM     17  C   UNL     1     114.919  43.432  19.013  1.00  0.00     0.158 A 
BRANCH  15  18
ATOM     18  O   UNL     1     116.018  41.405  18.257  1.00  0.00    -0.504 OA
ATOM     19  H   UNL     1     116.310  40.522  18.656  1.00  0.00     0.293 HD
ENDBRANCH  15  18
BRANCH  17  20
ATOM     20  O   UNL     1     113.765  43.110  18.298  1.00  0.00    -0.504 OA
ATOM     21  H   UNL     1     113.589  43.474  17.369  1.00  0.00     0.293 HD
ENDBRANCH  17  20
ENDBRANCH   1  12
BRANCH   2  22
ATOM     22  O   UNL     1     115.141  45.103  23.217  1.00  0.00    -0.502 OA
ATOM     23  H   UNL     1     115.395  44.166  22.930  1.00  0.00     0.293 HD
ENDBRANCH   2  22
BRANCH   6  24
ATOM     24  O   UNL     1     116.309  50.069  24.747  1.00  0.00    -0.507 OA
ATOM     25  H   UNL     1     116.861  50.688  25.321  1.00  0.00     0.293 HD
ENDBRANCH   6  24
BRANCH   8  26
ATOM     26  O   UNL     1     117.701  51.955  20.575  1.00  0.00    -0.508 OA
ATOM     27  H   UNL     1     117.240  52.259  19.725  1.00  0.00     0.293 HD
ENDBRANCH   8  26
TORSDOF 6
ENDMDL
MODEL 8
REMARK VINA RESULT:    -5.799      2.627      7.948
REMARK INTER + INTRA:          -7.308
REMARK INTER:                  -7.010
REMARK INTRA:                  -0.298
REMARK UNBOUND:                -0.322
REMARK SMILES O=c1c(O)c(-c2ccc(O)c(O)c2)oc2cc(O)cc(O)c12
REMARK SMILES IDX 5 1 3 2 2 3 1 4 22 5 20 6 19 7 17 8 16 9 15 10 14 11 6 12
REMARK SMILES IDX 7 13 8 14 9 15 13 16 11 17 10 18 12 20 4 22 21 24 18 26
REMARK H PARENT 10 19 12 21 4 23 21 25 18 27
REMARK Flexibility Score: inf
ROOT
ATOM      1  C   UNL     1     112.594  46.817  21.525  1.00  0.00     0.180 A 
ATOM      2  C   UNL     1     111.744  46.669  20.414  1.00  0.00     0.208 A 
ATOM      3  C   UNL     1     110.415  46.268  20.622  1.00  0.00     0.238 A 
ATOM      4  O   UNL     1     109.645  46.190  19.629  1.00  0.00    -0.285 OA
ATOM      5  C   UNL     1     109.956  46.004  21.935  1.00  0.00     0.111 A 
ATOM      6  C   UNL     1     108.641  45.552  22.258  1.00  0.00     0.134 A 
ATOM      7  C   UNL     1     108.257  45.449  23.601  1.00  0.00     0.093 A 
ATOM      8  C   UNL     1     109.158  45.716  24.630  1.00  0.00     0.123 A 
ATOM      9  C   UNL     1     110.465  46.100  24.325  1.00  0.00     0.094 A 
ATOM     10  C   UNL     1     110.867  46.248  22.996  1.00  0.00     0.146 A 
ATOM     11  O   UNL     1     112.115  46.625  22.749  1.00  0.00    -0.452 OA
ENDROOT
BRANCH   1  12
ATOM     12  C   UNL     1     114.014  47.213  21.384  1.00  0.00     0.025 A 
ATOM     13  C   UNL     1     114.401  48.523  21.708  1.00  0.00     0.016 A 
ATOM     14  C   UNL     1     115.739  48.911  21.603  1.00  0.00     0.051 A 
ATOM     15  C   UNL     1     116.711  47.992  21.186  1.00  0.00     0.157 A 
ATOM     16  C   UNL     1     114.995  46.287  20.986  1.00  0.00     0.062 A 
ATOM     17  C   UNL     1     116.337  46.673  20.882  1.00  0.00     0.158 A 
BRANCH  15  18
ATOM     18  O   UNL     1     118.045  48.384  21.080  1.00  0.00    -0.504 OA
ATOM     19  H   UNL     1     118.481  48.546  20.180  1.00  0.00     0.293 HD
ENDBRANCH  15  18
BRANCH  17  20
ATOM     20  O   UNL     1     117.283  45.731  20.479  1.00  0.00    -0.504 OA
ATOM     21  H   UNL     1     117.167  44.741  20.659  1.00  0.00     0.293 HD
ENDBRANCH  17  20
ENDBRANCH   1  12
BRANCH   2  22
ATOM     22  O   UNL     1     112.212  46.956  19.129  1.00  0.00    -0.502 OA
ATOM     23  H   UNL     1     113.092  46.597  18.777  1.00  0.00     0.293 HD
ENDBRANCH   2  22
BRANCH   6  24
ATOM     24  O   UNL     1     107.691  45.171  21.306  1.00  0.00    -0.507 OA
ATOM     25  H   UNL     1     107.829  45.213  20.308  1.00  0.00     0.293 HD
ENDBRANCH   6  24
BRANCH   8  26
ATOM     26  O   UNL     1     108.746  45.587  25.956  1.00  0.00    -0.508 OA
ATOM     27  H   UNL     1     108.877  46.335  26.626  1.00  0.00     0.293 HD
ENDBRANCH   8  26
TORSDOF 6
ENDMDL
MODEL 9
REMARK VINA RESULT:    -5.716      6.342     11.127
REMARK INTER + INTRA:          -7.208
REMARK INTER:                  -6.883
REMARK INTRA:                  -0.325
REMARK UNBOUND:                -0.322
REMARK SMILES O=c1c(O)c(-c2ccc(O)c(O)c2)oc2cc(O)cc(O)c12
REMARK SMILES IDX 5 1 3 2 2 3 1 4 22 5 20 6 19 7 17 8 16 9 15 10 14 11 6 12
REMARK SMILES IDX 7 13 8 14 9 15 13 16 11 17 10 18 12 20 4 22 21 24 18 26
REMARK H PARENT 10 19 12 21 4 23 21 25 18 27
REMARK Flexibility Score: inf
ROOT
ATOM      1  C   UNL     1     108.097  43.248  23.137  1.00  0.00     0.180 A 
ATOM      2  C   UNL     1     108.733  42.068  22.712  1.00  0.00     0.208 A 
ATOM      3  C   UNL     1     108.468  40.869  23.392  1.00  0.00     0.238 A 
ATOM      4  O   UNL     1     108.998  39.806  22.972  1.00  0.00    -0.285 OA
ATOM      5  C   UNL     1     107.585  40.866  24.498  1.00  0.00     0.111 A 
ATOM      6  C   UNL     1     107.275  39.717  25.286  1.00  0.00     0.134 A 
ATOM      7  C   UNL     1     106.287  39.802  26.275  1.00  0.00     0.093 A 
ATOM      8  C   UNL     1     105.646  41.009  26.549  1.00  0.00     0.123 A 
ATOM      9  C   UNL     1     105.985  42.155  25.825  1.00  0.00     0.094 A 
ATOM     10  C   UNL     1     106.939  42.092  24.808  1.00  0.00     0.146 A 
ATOM     11  O   UNL     1     107.224  43.201  24.137  1.00  0.00    -0.452 OA
ENDROOT
BRANCH   1  12
ATOM     12  C   UNL     1     108.345  44.555  22.487  1.00  0.00     0.025 A 
ATOM     13  C   UNL     1     107.553  44.945  21.395  1.00  0.00     0.016 A 
ATOM     14  C   UNL     1     107.755  46.182  20.780  1.00  0.00     0.051 A 
ATOM     15  C   UNL     1     108.742  47.055  21.256  1.00  0.00     0.157 A 
ATOM     16  C   UNL     1     109.321  45.443  22.975  1.00  0.00     0.062 A 
ATOM     17  C   UNL     1     109.525  46.684  22.361  1.00  0.00     0.158 A 
BRANCH  15  18
ATOM     18  O   UNL     1     108.943  48.289  20.638  1.00  0.00    -0.504 OA
ATOM     19  H   UNL     1     109.567  48.984  21.029  1.00  0.00     0.293 HD
ENDBRANCH  15  18
BRANCH  17  20
ATOM     20  O   UNL     1     110.506  47.537  22.868  1.00  0.00    -0.504 OA
ATOM     21  H   UNL     1     111.309  47.190  23.377  1.00  0.00     0.293 HD
ENDBRANCH  17  20
ENDBRANCH   1  12
BRANCH   2  22
ATOM     22  O   UNL     1     109.585  42.089  21.604  1.00  0.00    -0.502 OA
ATOM     23  H   UNL     1     109.263  42.333  20.675  1.00  0.00     0.293 HD
ENDBRANCH   2  22
BRANCH   6  24
ATOM     24  O   UNL     1     107.922  38.484  25.155  1.00  0.00    -0.507 OA
ATOM     25  H   UNL     1     107.557  37.696  24.643  1.00  0.00     0.293 HD
ENDBRANCH   6  24
BRANCH   8  26
ATOM     26  O   UNL     1     104.680  41.062  27.552  1.00  0.00    -0.508 OA
ATOM     27  H   UNL     1     104.832  40.634  28.457  1.00  0.00     0.293 HD
ENDBRANCH   8  26
TORSDOF 6
ENDMDL
