MODEL 1
REMARK VINA RESULT:    -8.671      0.000      0.000
REMARK INTER + INTRA:         -16.203
REMARK INTER:                 -14.248
REMARK INTRA:                  -1.955
REMARK UNBOUND:                -1.955
REMARK SMILES C[C@H]1O[C@H](OC[C@H]2O[C@H](Oc3c(-c4ccc(O)c(O)c4)oc4cc(O)cc(O)c4c3=O)[C@@H](O)[C@@H](O)[C@@H]2O)[C@@H](O)[C@H](O)[C@@H]1O
REMARK SMILES IDX 7 1 36 2 34 3 32 4 9 5 8 6 6 7 5 8 4 9 1 10 2 11 42 12 3 13
REMARK SMILES IDX 40 14 38 15 43 16 41 18 39 20 37 22 35 24 10 26 11 27 12 28
REMARK SMILES IDX 30 29 21 30 29 31 31 32 22 33 27 34 23 35 26 36 24 37 13 38
REMARK SMILES IDX 20 39 14 40 18 41 15 42 16 43 19 44 17 46 28 48 25 50 33 52
REMARK H PARENT 43 17 41 19 39 21 37 23 35 25 19 45 17 47 28 49 25 51 33 53
REMARK Flexibility Score: inf
ROOT
ATOM      1  C   UNL     1      20.746  59.934 161.738  1.00  0.00     0.180 C 
ATOM      2  C   UNL     1      21.043  61.262 161.011  1.00  0.00     0.177 C 
ATOM      3  C   UNL     1      20.609  61.153 159.536  1.00  0.00     0.180 C 
ATOM      4  C   UNL     1      19.175  60.573 159.404  1.00  0.00     0.214 C 
ATOM      5  C   UNL     1      18.997  59.330 160.293  1.00  0.00     0.339 C 
ATOM      6  O   UNL     1      19.367  59.616 161.634  1.00  0.00    -0.332 OA
ENDROOT
BRANCH   1   7
ATOM      7  C   UNL     1      21.125  59.996 163.235  1.00  0.00     0.198 C 
BRANCH   7   8
ATOM      8  O   UNL     1      19.962  59.922 164.040  1.00  0.00    -0.347 OA
BRANCH   8   9
ATOM      9  C   UNL     1      19.939  58.716 164.797  1.00  0.00     0.281 C 
ATOM     10  C   UNL     1      22.319  59.581 167.472  1.00  0.00     0.041 C 
ATOM     11  C   UNL     1      21.038  59.688 166.641  1.00  0.00     0.150 C 
ATOM     12  C   UNL     1      19.793  59.566 167.553  1.00  0.00     0.174 C 
ATOM     13  O   UNL     1      21.058  58.651 165.670  1.00  0.00    -0.344 OA
ATOM     14  C   UNL     1      18.515  59.612 166.703  1.00  0.00     0.179 C 
ATOM     15  C   UNL     1      18.607  58.581 165.563  1.00  0.00     0.202 C 
BRANCH  12  16
ATOM     16  O   UNL     1      19.780  60.608 168.496  1.00  0.00    -0.388 OA
ATOM     17  H   UNL     1      19.965  60.192 169.380  1.00  0.00     0.211 HD
ENDBRANCH  12  16
BRANCH  14  18
ATOM     18  O   UNL     1      18.328  60.911 166.192  1.00  0.00    -0.387 OA
ATOM     19  H   UNL     1      17.559  60.856 165.568  1.00  0.00     0.211 HD
ENDBRANCH  14  18
BRANCH  15  20
ATOM     20  O   UNL     1      18.528  57.287 166.103  1.00  0.00    -0.385 OA
ATOM     21  H   UNL     1      18.629  56.638 165.357  1.00  0.00     0.211 HD
ENDBRANCH  15  20
ENDBRANCH   8   9
ENDBRANCH   7   8
ENDBRANCH   1   7
BRANCH   2  22
ATOM     22  O   UNL     1      22.420  61.528 161.073  1.00  0.00    -0.387 OA
ATOM     23  H   UNL     1      22.675  61.505 162.031  1.00  0.00     0.211 HD
ENDBRANCH   2  22
BRANCH   3  24
ATOM     24  O   UNL     1      20.686  62.417 158.931  1.00  0.00    -0.387 OA
ATOM     25  H   UNL     1      20.378  63.078 159.607  1.00  0.00     0.211 HD
ENDBRANCH   3  24
BRANCH   5  26
ATOM     26  O   UNL     1      19.754  58.229 159.772  1.00  0.00    -0.454 OA
BRANCH  26  27
ATOM     27  C   UNL     1      19.338  56.889 159.659  1.00  0.00     0.214 A 
ATOM     28  C   UNL     1      19.998  55.785 160.251  1.00  0.00     0.180 A 
ATOM     29  C   UNL     1      18.170  56.643 158.923  1.00  0.00     0.239 A 
ATOM     30  O   UNL     1      19.438  54.584 160.207  1.00  0.00    -0.452 OA
ATOM     31  C   UNL     1      17.650  55.333 158.820  1.00  0.00     0.111 A 
ATOM     32  O   UNL     1      17.576  57.624 158.409  1.00  0.00    -0.285 OA
ATOM     33  C   UNL     1      18.313  54.322 159.558  1.00  0.00     0.146 A 
ATOM     34  C   UNL     1      16.486  54.980 158.076  1.00  0.00     0.134 A 
ATOM     35  C   UNL     1      17.796  53.027 159.610  1.00  0.00     0.094 A 
ATOM     36  C   UNL     1      15.974  53.680 158.172  1.00  0.00     0.093 A 
ATOM     37  C   UNL     1      16.619  52.708 158.939  1.00  0.00     0.123 A 
BRANCH  28  38
ATOM     38  C   UNL     1      21.318  55.870 160.897  1.00  0.00     0.025 A 
ATOM     39  C   UNL     1      21.433  56.410 162.187  1.00  0.00     0.062 A 
ATOM     40  C   UNL     1      22.448  55.319 160.277  1.00  0.00     0.016 A 
ATOM     41  C   UNL     1      22.677  56.450 162.832  1.00  0.00     0.158 A 
ATOM     42  C   UNL     1      23.691  55.363 160.912  1.00  0.00     0.051 A 
ATOM     43  C   UNL     1      23.812  55.928 162.188  1.00  0.00     0.157 A 
BRANCH  41  44
ATOM     44  O   UNL     1      22.788  57.006 164.108  1.00  0.00    -0.504 OA
ATOM     45  H   UNL     1      22.672  58.000 164.268  1.00  0.00     0.293 HD
ENDBRANCH  41  44
BRANCH  43  46
ATOM     46  O   UNL     1      25.065  55.963 162.798  1.00  0.00    -0.504 OA
ATOM     47  H   UNL     1      25.853  56.456 162.390  1.00  0.00     0.293 HD
ENDBRANCH  43  46
ENDBRANCH  28  38
BRANCH  34  48
ATOM     48  O   UNL     1      15.818  55.858 157.216  1.00  0.00    -0.507 OA
ATOM     49  H   UNL     1      16.267  56.436 156.521  1.00  0.00     0.293 HD
ENDBRANCH  34  48
BRANCH  37  50
ATOM     50  O   UNL     1      16.103  51.418 159.030  1.00  0.00    -0.508 OA
ATOM     51  H   UNL     1      16.458  50.662 158.453  1.00  0.00     0.293 HD
ENDBRANCH  37  50
ENDBRANCH  26  27
ENDBRANCH   5  26
BRANCH   4  52
ATOM     52  O   UNL     1      18.163  61.510 159.697  1.00  0.00    -0.384 OA
ATOM     53  H   UNL     1      18.534  62.431 159.639  1.00  0.00     0.211 HD
ENDBRANCH   4  52
TORSDOF 16
ENDMDL
MODEL 2
REMARK VINA RESULT:    -8.644      3.413      8.290
REMARK INTER + INTRA:         -16.158
REMARK INTER:                 -13.733
REMARK INTRA:                  -2.425
REMARK UNBOUND:                -1.955
REMARK SMILES C[C@H]1O[C@H](OC[C@H]2O[C@H](Oc3c(-c4ccc(O)c(O)c4)oc4cc(O)cc(O)c4c3=O)[C@@H](O)[C@@H](O)[C@@H]2O)[C@@H](O)[C@H](O)[C@@H]1O
REMARK SMILES IDX 7 1 36 2 34 3 32 4 9 5 8 6 6 7 5 8 4 9 1 10 2 11 42 12 3 13
REMARK SMILES IDX 40 14 38 15 43 16 41 18 39 20 37 22 35 24 10 26 11 27 12 28
REMARK SMILES IDX 30 29 21 30 29 31 31 32 22 33 27 34 23 35 26 36 24 37 13 38
REMARK SMILES IDX 20 39 14 40 18 41 15 42 16 43 19 44 17 46 28 48 25 50 33 52
REMARK H PARENT 43 17 41 19 39 21 37 23 35 25 19 45 17 47 28 49 25 51 33 53
REMARK Flexibility Score: inf
ROOT
ATOM      1  C   UNL     1      19.013  56.285 160.710  1.00  0.00     0.180 C 
ATOM      2  C   UNL     1      17.728  57.137 160.671  1.00  0.00     0.177 C 
ATOM      3  C   UNL     1      18.100  58.630 160.586  1.00  0.00     0.180 C 
ATOM      4  C   UNL     1      19.162  58.892 159.485  1.00  0.00     0.214 C 
ATOM      5  C   UNL     1      20.314  57.875 159.575  1.00  0.00     0.339 C 
ATOM      6  O   UNL     1      19.811  56.547 159.566  1.00  0.00    -0.332 OA
ENDROOT
BRANCH   1   7
ATOM      7  C   UNL     1      18.703  54.771 160.756  1.00  0.00     0.198 C 
BRANCH   7   8
ATOM      8  O   UNL     1      17.519  54.490 160.032  1.00  0.00    -0.347 OA
BRANCH   8   9
ATOM      9  C   UNL     1      17.729  53.439 159.093  1.00  0.00     0.281 C 
ATOM     10  C   UNL     1      14.297  53.003 157.827  1.00  0.00     0.041 C 
ATOM     11  C   UNL     1      15.619  53.731 158.084  1.00  0.00     0.150 C 
ATOM     12  C   UNL     1      16.233  54.221 156.751  1.00  0.00     0.174 C 
ATOM     13  O   UNL     1      16.495  52.827 158.743  1.00  0.00    -0.344 OA
ATOM     14  C   UNL     1      17.588  54.895 157.013  1.00  0.00     0.179 C 
ATOM     15  C   UNL     1      18.481  53.962 157.852  1.00  0.00     0.202 C 
BRANCH  12  16
ATOM     16  O   UNL     1      15.362  55.127 156.121  1.00  0.00    -0.388 OA
ATOM     17  H   UNL     1      14.524  55.133 156.656  1.00  0.00     0.211 HD
ENDBRANCH  12  16
BRANCH  14  18
ATOM     18  O   UNL     1      17.390  56.125 157.668  1.00  0.00    -0.387 OA
ATOM     19  H   UNL     1      16.727  55.953 158.386  1.00  0.00     0.211 HD
ENDBRANCH  14  18
BRANCH  15  20
ATOM     20  O   UNL     1      18.870  52.865 157.067  1.00  0.00    -0.385 OA
ATOM     21  H   UNL     1      19.102  52.118 157.680  1.00  0.00     0.211 HD
ENDBRANCH  15  20
ENDBRANCH   8   9
ENDBRANCH   7   8
ENDBRANCH   1   7
BRANCH   2  22
ATOM     22  O   UNL     1      16.982  56.909 161.839  1.00  0.00    -0.387 OA
ATOM     23  H   UNL     1      16.939  55.926 161.965  1.00  0.00     0.211 HD
ENDBRANCH   2  22
BRANCH   3  24
ATOM     24  O   UNL     1      16.943  59.388 160.343  1.00  0.00    -0.387 OA
ATOM     25  H   UNL     1      17.177  60.336 160.526  1.00  0.00     0.211 HD
ENDBRANCH   3  24
BRANCH   5  26
ATOM     26  O   UNL     1      21.108  58.119 160.743  1.00  0.00    -0.454 OA
BRANCH  26  27
ATOM     27  C   UNL     1      22.511  58.063 160.845  1.00  0.00     0.214 A 
ATOM     28  C   UNL     1      23.386  59.140 160.565  1.00  0.00     0.180 A 
ATOM     29  C   UNL     1      23.071  56.853 161.278  1.00  0.00     0.239 A 
ATOM     30  O   UNL     1      24.678  59.025 160.838  1.00  0.00    -0.452 OA
ATOM     31  C   UNL     1      24.467  56.737 161.470  1.00  0.00     0.111 A 
ATOM     32  O   UNL     1      22.294  55.900 161.540  1.00  0.00    -0.285 OA
ATOM     33  C   UNL     1      25.237  57.911 161.288  1.00  0.00     0.146 A 
ATOM     34  C   UNL     1      25.131  55.544 161.883  1.00  0.00     0.134 A 
ATOM     35  C   UNL     1      26.603  57.916 161.575  1.00  0.00     0.094 A 
ATOM     36  C   UNL     1      26.496  55.587 162.192  1.00  0.00     0.093 A 
ATOM     37  C   UNL     1      27.229  56.766 162.046  1.00  0.00     0.123 A 
BRANCH  28  38
ATOM     38  C   UNL     1      22.957  60.402 159.939  1.00  0.00     0.025 A 
ATOM     39  C   UNL     1      23.163  61.620 160.606  1.00  0.00     0.062 A 
ATOM     40  C   UNL     1      22.442  60.409 158.635  1.00  0.00     0.016 A 
ATOM     41  C   UNL     1      22.805  62.831 159.999  1.00  0.00     0.158 A 
ATOM     42  C   UNL     1      22.077  61.612 158.029  1.00  0.00     0.051 A 
ATOM     43  C   UNL     1      22.254  62.826 158.705  1.00  0.00     0.157 A 
BRANCH  41  44
ATOM     44  O   UNL     1      22.994  64.038 160.676  1.00  0.00    -0.504 OA
ATOM     45  H   UNL     1      23.193  64.066 161.669  1.00  0.00     0.293 HD
ENDBRANCH  41  44
BRANCH  43  46
ATOM     46  O   UNL     1      21.878  64.013 158.079  1.00  0.00    -0.504 OA
ATOM     47  H   UNL     1      21.239  64.674 158.510  1.00  0.00     0.293 HD
ENDBRANCH  43  46
ENDBRANCH  28  38
BRANCH  34  48
ATOM     48  O   UNL     1      24.502  54.299 161.978  1.00  0.00    -0.507 OA
ATOM     49  H   UNL     1      24.740  53.582 162.649  1.00  0.00     0.293 HD
ENDBRANCH  34  48
BRANCH  37  50
ATOM     50  O   UNL     1      28.587  56.802 162.357  1.00  0.00    -0.508 OA
ATOM     51  H   UNL     1      29.125  57.660 162.288  1.00  0.00     0.293 HD
ENDBRANCH  37  50
ENDBRANCH  26  27
ENDBRANCH   5  26
BRANCH   4  52
ATOM     52  O   UNL     1      18.630  58.887 158.179  1.00  0.00    -0.384 OA
ATOM     53  H   UNL     1      18.577  57.952 157.845  1.00  0.00     0.211 HD
ENDBRANCH   4  52
TORSDOF 16
ENDMDL
MODEL 3
REMARK VINA RESULT:    -8.639      2.166      8.651
REMARK INTER + INTRA:         -16.149
REMARK INTER:                 -14.781
REMARK INTRA:                  -1.368
REMARK UNBOUND:                -1.955
REMARK SMILES C[C@H]1O[C@H](OC[C@H]2O[C@H](Oc3c(-c4ccc(O)c(O)c4)oc4cc(O)cc(O)c4c3=O)[C@@H](O)[C@@H](O)[C@@H]2O)[C@@H](O)[C@H](O)[C@@H]1O
REMARK SMILES IDX 7 1 36 2 34 3 32 4 9 5 8 6 6 7 5 8 4 9 1 10 2 11 42 12 3 13
REMARK SMILES IDX 40 14 38 15 43 16 41 18 39 20 37 22 35 24 10 26 11 27 12 28
REMARK SMILES IDX 30 29 21 30 29 31 31 32 22 33 27 34 23 35 26 36 24 37 13 38
REMARK SMILES IDX 20 39 14 40 18 41 15 42 16 43 19 44 17 46 28 48 25 50 33 52
REMARK H PARENT 43 17 41 19 39 21 37 23 35 25 19 45 17 47 28 49 25 51 33 53
REMARK Flexibility Score: inf
ROOT
ATOM      1  C   UNL     1      18.566  54.127 160.200  1.00  0.00     0.180 C 
ATOM      2  C   UNL     1      20.017  53.833 159.765  1.00  0.00     0.177 C 
ATOM      3  C   UNL     1      20.941  54.969 160.245  1.00  0.00     0.180 C 
ATOM      4  C   UNL     1      20.700  55.308 161.740  1.00  0.00     0.214 C 
ATOM      5  C   UNL     1      19.196  55.437 162.043  1.00  0.00     0.339 C 
ATOM      6  O   UNL     1      18.498  54.279 161.609  1.00  0.00    -0.332 OA
ENDROOT
BRANCH   1   7
ATOM      7  C   UNL     1      17.596  52.999 159.780  1.00  0.00     0.198 C 
BRANCH   7   8
ATOM      8  O   UNL     1      17.004  53.300 158.530  1.00  0.00    -0.347 OA
BRANCH   8   9
ATOM      9  C   UNL     1      16.402  52.144 157.956  1.00  0.00     0.281 C 
ATOM     10  C   UNL     1      12.915  52.620 159.045  1.00  0.00     0.041 C 
ATOM     11  C   UNL     1      14.211  52.944 158.298  1.00  0.00     0.150 C 
ATOM     12  C   UNL     1      13.939  53.090 156.782  1.00  0.00     0.174 C 
ATOM     13  O   UNL     1      15.134  51.894 158.549  1.00  0.00    -0.344 OA
ATOM     14  C   UNL     1      15.255  53.353 156.035  1.00  0.00     0.179 C 
ATOM     15  C   UNL     1      16.298  52.289 156.424  1.00  0.00     0.202 C 
BRANCH  12  16
ATOM     16  O   UNL     1      13.038  54.143 156.551  1.00  0.00    -0.388 OA
ATOM     17  H   UNL     1      12.223  53.737 156.151  1.00  0.00     0.211 HD
ENDBRANCH  12  16
BRANCH  14  18
ATOM     18  O   UNL     1      15.721  54.647 156.334  1.00  0.00    -0.387 OA
ATOM     19  H   UNL     1      15.564  54.782 157.304  1.00  0.00     0.211 HD
ENDBRANCH  14  18
BRANCH  15  20
ATOM     20  O   UNL     1      15.920  51.050 155.880  1.00  0.00    -0.385 OA
ATOM     21  H   UNL     1      15.280  50.623 156.509  1.00  0.00     0.211 HD
ENDBRANCH  15  20
ENDBRANCH   8   9
ENDBRANCH   7   8
ENDBRANCH   1   7
BRANCH   2  22
ATOM     22  O   UNL     1      20.075  53.746 158.365  1.00  0.00    -0.387 OA
ATOM     23  H   UNL     1      19.202  53.383 158.063  1.00  0.00     0.211 HD
ENDBRANCH   2  22
BRANCH   3  24
ATOM     24  O   UNL     1      22.280  54.604 160.033  1.00  0.00    -0.387 OA
ATOM     25  H   UNL     1      22.718  54.591 160.926  1.00  0.00     0.211 HD
ENDBRANCH   3  24
BRANCH   5  26
ATOM     26  O   UNL     1      18.663  56.621 161.435  1.00  0.00    -0.454 OA
BRANCH  26  27
ATOM     27  C   UNL     1      19.265  57.892 161.379  1.00  0.00     0.214 A 
ATOM     28  C   UNL     1      19.582  58.688 162.506  1.00  0.00     0.180 A 
ATOM     29  C   UNL     1      19.591  58.388 160.108  1.00  0.00     0.239 A 
ATOM     30  O   UNL     1      20.283  59.802 162.348  1.00  0.00    -0.452 OA
ATOM     31  C   UNL     1      20.259  59.626 159.972  1.00  0.00     0.111 A 
ATOM     32  O   UNL     1      19.324  57.676 159.108  1.00  0.00    -0.285 OA
ATOM     33  C   UNL     1      20.646  60.279 161.167  1.00  0.00     0.146 A 
ATOM     34  C   UNL     1      20.610  60.223 158.725  1.00  0.00     0.134 A 
ATOM     35  C   UNL     1      21.414  61.444 161.122  1.00  0.00     0.094 A 
ATOM     36  C   UNL     1      21.407  61.374 158.713  1.00  0.00     0.093 A 
ATOM     37  C   UNL     1      21.814  61.980 159.902  1.00  0.00     0.123 A 
BRANCH  28  38
ATOM     38  C   UNL     1      19.142  58.378 163.877  1.00  0.00     0.025 A 
ATOM     39  C   UNL     1      17.911  57.737 164.089  1.00  0.00     0.062 A 
ATOM     40  C   UNL     1      19.990  58.620 164.966  1.00  0.00     0.016 A 
ATOM     41  C   UNL     1      17.505  57.392 165.385  1.00  0.00     0.158 A 
ATOM     42  C   UNL     1      19.587  58.285 166.260  1.00  0.00     0.051 A 
ATOM     43  C   UNL     1      18.346  57.673 166.477  1.00  0.00     0.157 A 
BRANCH  41  44
ATOM     44  O   UNL     1      16.271  56.772 165.592  1.00  0.00    -0.504 OA
ATOM     45  H   UNL     1      15.732  56.388 164.823  1.00  0.00     0.293 HD
ENDBRANCH  41  44
BRANCH  43  46
ATOM     46  O   UNL     1      17.965  57.351 167.779  1.00  0.00    -0.504 OA
ATOM     47  H   UNL     1      18.616  56.961 168.453  1.00  0.00     0.293 HD
ENDBRANCH  43  46
ENDBRANCH  28  38
BRANCH  34  48
ATOM     48  O   UNL     1      20.182  59.740 157.485  1.00  0.00    -0.507 OA
ATOM     49  H   UNL     1      20.791  59.391 156.759  1.00  0.00     0.293 HD
ENDBRANCH  34  48
BRANCH  37  50
ATOM     50  O   UNL     1      22.608  63.125 159.882  1.00  0.00    -0.508 OA
ATOM     51  H   UNL     1      23.603  63.085 160.078  1.00  0.00     0.293 HD
ENDBRANCH  37  50
ENDBRANCH  26  27
ENDBRANCH   5  26
BRANCH   4  52
ATOM     52  O   UNL     1      21.281  54.378 162.627  1.00  0.00    -0.384 OA
ATOM     53  H   UNL     1      21.185  53.460 162.256  1.00  0.00     0.211 HD
ENDBRANCH   4  52
TORSDOF 16
ENDMDL
MODEL 4
REMARK VINA RESULT:    -8.578      3.711      7.784
REMARK INTER + INTRA:         -16.049
REMARK INTER:                 -14.347
REMARK INTRA:                  -1.701
REMARK UNBOUND:                -1.955
REMARK SMILES C[C@H]1O[C@H](OC[C@H]2O[C@H](Oc3c(-c4ccc(O)c(O)c4)oc4cc(O)cc(O)c4c3=O)[C@@H](O)[C@@H](O)[C@@H]2O)[C@@H](O)[C@H](O)[C@@H]1O
REMARK SMILES IDX 7 1 36 2 34 3 32 4 9 5 8 6 6 7 5 8 4 9 1 10 2 11 42 12 3 13
REMARK SMILES IDX 40 14 38 15 43 16 41 18 39 20 37 22 35 24 10 26 11 27 12 28
REMARK SMILES IDX 30 29 21 30 29 31 31 32 22 33 27 34 23 35 26 36 24 37 13 38
REMARK SMILES IDX 20 39 14 40 18 41 15 42 16 43 19 44 17 46 28 48 25 50 33 52
REMARK H PARENT 43 17 41 19 39 21 37 23 35 25 19 45 17 47 28 49 25 51 33 53
REMARK Flexibility Score: inf
ROOT
ATOM      1  C   UNL     1      18.476  58.134 158.078  1.00  0.00     0.180 C 
ATOM      2  C   UNL     1      17.472  59.239 158.468  1.00  0.00     0.177 C 
ATOM      3  C   UNL     1      18.101  60.159 159.532  1.00  0.00     0.180 C 
ATOM      4  C   UNL     1      19.531  60.606 159.126  1.00  0.00     0.214 C 
ATOM      5  C   UNL     1      20.366  59.410 158.633  1.00  0.00     0.339 C 
ATOM      6  O   UNL     1      19.681  58.713 157.604  1.00  0.00    -0.332 OA
ENDROOT
BRANCH   1   7
ATOM      7  C   UNL     1      17.913  57.201 156.982  1.00  0.00     0.198 C 
BRANCH   7   8
ATOM      8  O   UNL     1      18.122  55.846 157.335  1.00  0.00    -0.347 OA
BRANCH   8   9
ATOM      9  C   UNL     1      17.357  55.491 158.483  1.00  0.00     0.281 C 
ATOM     10  C   UNL     1      14.537  53.752 156.871  1.00  0.00     0.041 C 
ATOM     11  C   UNL     1      15.993  53.991 157.281  1.00  0.00     0.150 C 
ATOM     12  C   UNL     1      16.551  52.756 158.027  1.00  0.00     0.174 C 
ATOM     13  O   UNL     1      16.029  55.143 158.111  1.00  0.00    -0.344 OA
ATOM     14  C   UNL     1      17.991  53.029 158.488  1.00  0.00     0.179 C 
ATOM     15  C   UNL     1      18.047  54.356 159.267  1.00  0.00     0.202 C 
BRANCH  12  16
ATOM     16  O   UNL     1      16.524  51.629 157.187  1.00  0.00    -0.388 OA
ATOM     17  H   UNL     1      16.975  51.895 156.342  1.00  0.00     0.211 HD
ENDBRANCH  12  16
BRANCH  14  18
ATOM     18  O   UNL     1      18.851  53.062 157.374  1.00  0.00    -0.387 OA
ATOM     19  H   UNL     1      19.774  53.064 157.736  1.00  0.00     0.211 HD
ENDBRANCH  14  18
BRANCH  15  20
ATOM     20  O   UNL     1      17.392  54.198 160.499  1.00  0.00    -0.385 OA
ATOM     21  H   UNL     1      17.554  53.270 160.814  1.00  0.00     0.211 HD
ENDBRANCH  15  20
ENDBRANCH   8   9
ENDBRANCH   7   8
ENDBRANCH   1   7
BRANCH   2  22
ATOM     22  O   UNL     1      16.310  58.649 158.991  1.00  0.00    -0.387 OA
ATOM     23  H   UNL     1      16.406  58.651 159.979  1.00  0.00     0.211 HD
ENDBRANCH   2  22
BRANCH   3  24
ATOM     24  O   UNL     1      17.276  61.276 159.733  1.00  0.00    -0.387 OA
ATOM     25  H   UNL     1      16.660  61.322 158.953  1.00  0.00     0.211 HD
ENDBRANCH   3  24
BRANCH   5  26
ATOM     26  O   UNL     1      20.684  58.538 159.726  1.00  0.00    -0.454 OA
BRANCH  26  27
ATOM     27  C   UNL     1      21.962  58.089 160.111  1.00  0.00     0.214 A 
ATOM     28  C   UNL     1      23.113  58.908 160.200  1.00  0.00     0.180 A 
ATOM     29  C   UNL     1      22.086  56.735 160.451  1.00  0.00     0.239 A 
ATOM     30  O   UNL     1      24.231  58.416 160.718  1.00  0.00    -0.452 OA
ATOM     31  C   UNL     1      23.320  56.222 160.913  1.00  0.00     0.111 A 
ATOM     32  O   UNL     1      21.061  56.011 160.386  1.00  0.00    -0.285 OA
ATOM     33  C   UNL     1      24.373  57.152 161.090  1.00  0.00     0.146 A 
ATOM     34  C   UNL     1      23.551  54.858 161.259  1.00  0.00     0.134 A 
ATOM     35  C   UNL     1      25.585  56.753 161.656  1.00  0.00     0.094 A 
ATOM     36  C   UNL     1      24.766  54.494 161.852  1.00  0.00     0.093 A 
ATOM     37  C   UNL     1      25.777  55.434 162.057  1.00  0.00     0.123 A 
BRANCH  28  38
ATOM     38  C   UNL     1      23.172  60.295 159.710  1.00  0.00     0.025 A 
ATOM     39  C   UNL     1      22.892  61.359 160.582  1.00  0.00     0.062 A 
ATOM     40  C   UNL     1      23.611  60.570 158.407  1.00  0.00     0.016 A 
ATOM     41  C   UNL     1      22.994  62.685 160.141  1.00  0.00     0.158 A 
ATOM     42  C   UNL     1      23.707  61.888 157.960  1.00  0.00     0.051 A 
ATOM     43  C   UNL     1      23.399  62.950 158.820  1.00  0.00     0.157 A 
BRANCH  41  44
ATOM     44  O   UNL     1      22.695  63.738 161.008  1.00  0.00    -0.504 OA
ATOM     45  H   UNL     1      22.515  63.581 161.993  1.00  0.00     0.293 HD
ENDBRANCH  41  44
BRANCH  43  46
ATOM     46  O   UNL     1      23.499  64.258 158.348  1.00  0.00    -0.504 OA
ATOM     47  H   UNL     1      24.145  64.520 157.611  1.00  0.00     0.293 HD
ENDBRANCH  43  46
ENDBRANCH  28  38
BRANCH  34  48
ATOM     48  O   UNL     1      22.635  53.830 161.016  1.00  0.00    -0.507 OA
ATOM     49  H   UNL     1      22.875  52.914 160.665  1.00  0.00     0.293 HD
ENDBRANCH  34  48
BRANCH  37  50
ATOM     50  O   UNL     1      26.982  55.065 162.649  1.00  0.00    -0.508 OA
ATOM     51  H   UNL     1      27.852  55.062 162.125  1.00  0.00     0.293 HD
ENDBRANCH  37  50
ENDBRANCH  26  27
ENDBRANCH   5  26
BRANCH   4  52
ATOM     52  O   UNL     1      19.545  61.623 158.150  1.00  0.00    -0.384 OA
ATOM     53  H   UNL     1      19.516  61.216 157.243  1.00  0.00     0.211 HD
ENDBRANCH   4  52
TORSDOF 16
ENDMDL
MODEL 5
REMARK VINA RESULT:    -8.565      2.468      7.886
REMARK INTER + INTRA:         -16.027
REMARK INTER:                 -13.801
REMARK INTRA:                  -2.226
REMARK UNBOUND:                -1.955
REMARK SMILES C[C@H]1O[C@H](OC[C@H]2O[C@H](Oc3c(-c4ccc(O)c(O)c4)oc4cc(O)cc(O)c4c3=O)[C@@H](O)[C@@H](O)[C@@H]2O)[C@@H](O)[C@H](O)[C@@H]1O
REMARK SMILES IDX 7 1 36 2 34 3 32 4 9 5 8 6 6 7 5 8 4 9 1 10 2 11 42 12 3 13
REMARK SMILES IDX 40 14 38 15 43 16 41 18 39 20 37 22 35 24 10 26 11 27 12 28
REMARK SMILES IDX 30 29 21 30 29 31 31 32 22 33 27 34 23 35 26 36 24 37 13 38
REMARK SMILES IDX 20 39 14 40 18 41 15 42 16 43 19 44 17 46 28 48 25 50 33 52
REMARK H PARENT 43 17 41 19 39 21 37 23 35 25 19 45 17 47 28 49 25 51 33 53
REMARK Flexibility Score: inf
ROOT
ATOM      1  C   UNL     1      19.041  57.315 161.258  1.00  0.00     0.180 C 
ATOM      2  C   UNL     1      19.731  57.001 162.601  1.00  0.00     0.177 C 
ATOM      3  C   UNL     1      20.967  57.906 162.771  1.00  0.00     0.180 C 
ATOM      4  C   UNL     1      20.633  59.392 162.471  1.00  0.00     0.214 C 
ATOM      5  C   UNL     1      19.826  59.525 161.167  1.00  0.00     0.339 C 
ATOM      6  O   UNL     1      18.681  58.686 161.199  1.00  0.00    -0.332 OA
ENDROOT
BRANCH   1   7
ATOM      7  C   UNL     1      17.768  56.463 161.048  1.00  0.00     0.198 C 
BRANCH   7   8
ATOM      8  O   UNL     1      17.799  55.835 159.780  1.00  0.00    -0.347 OA
BRANCH   8   9
ATOM      9  C   UNL     1      18.718  54.746 159.769  1.00  0.00     0.281 C 
ATOM     10  C   UNL     1      16.365  51.916 159.614  1.00  0.00     0.041 C 
ATOM     11  C   UNL     1      17.072  53.184 159.130  1.00  0.00     0.150 C 
ATOM     12  C   UNL     1      17.718  52.946 157.745  1.00  0.00     0.174 C 
ATOM     13  O   UNL     1      18.056  53.531 160.095  1.00  0.00    -0.344 OA
ATOM     14  C   UNL     1      18.477  54.204 157.297  1.00  0.00     0.179 C 
ATOM     15  C   UNL     1      19.440  54.657 158.410  1.00  0.00     0.202 C 
BRANCH  12  16
ATOM     16  O   UNL     1      16.730  52.621 156.799  1.00  0.00    -0.388 OA
ATOM     17  H   UNL     1      16.712  51.629 156.738  1.00  0.00     0.211 HD
ENDBRANCH  12  16
BRANCH  14  18
ATOM     18  O   UNL     1      17.561  55.225 156.978  1.00  0.00    -0.387 OA
ATOM     19  H   UNL     1      17.974  56.073 157.284  1.00  0.00     0.211 HD
ENDBRANCH  14  18
BRANCH  15  20
ATOM     20  O   UNL     1      20.490  53.731 158.518  1.00  0.00    -0.385 OA
ATOM     21  H   UNL     1      21.082  53.847 157.729  1.00  0.00     0.211 HD
ENDBRANCH  15  20
ENDBRANCH   8   9
ENDBRANCH   7   8
ENDBRANCH   1   7
BRANCH   2  22
ATOM     22  O   UNL     1      20.133  55.656 162.615  1.00  0.00    -0.387 OA
ATOM     23  H   UNL     1      20.225  55.373 161.669  1.00  0.00     0.211 HD
ENDBRANCH   2  22
BRANCH   3  24
ATOM     24  O   UNL     1      21.472  57.769 164.074  1.00  0.00    -0.387 OA
ATOM     25  H   UNL     1      20.870  57.135 164.550  1.00  0.00     0.211 HD
ENDBRANCH   3  24
BRANCH   5  26
ATOM     26  O   UNL     1      20.654  59.227 160.035  1.00  0.00    -0.454 OA
BRANCH  26  27
ATOM     27  C   UNL     1      21.828  59.896 159.641  1.00  0.00     0.214 A 
ATOM     28  C   UNL     1      23.131  59.346 159.699  1.00  0.00     0.180 A 
ATOM     29  C   UNL     1      21.682  61.195 159.133  1.00  0.00     0.239 A 
ATOM     30  O   UNL     1      24.148  60.006 159.163  1.00  0.00    -0.452 OA
ATOM     31  C   UNL     1      22.805  61.908 158.654  1.00  0.00     0.111 A 
ATOM     32  O   UNL     1      20.525  61.680 159.068  1.00  0.00    -0.285 OA
ATOM     33  C   UNL     1      24.041  61.217 158.636  1.00  0.00     0.146 A 
ATOM     34  C   UNL     1      22.762  63.239 158.143  1.00  0.00     0.134 A 
ATOM     35  C   UNL     1      25.173  61.803 158.068  1.00  0.00     0.094 A 
ATOM     36  C   UNL     1      23.906  63.788 157.552  1.00  0.00     0.093 A 
ATOM     37  C   UNL     1      25.105  63.074 157.507  1.00  0.00     0.123 A 
BRANCH  28  38
ATOM     38  C   UNL     1      23.453  58.073 160.366  1.00  0.00     0.025 A 
ATOM     39  C   UNL     1      22.860  56.881 159.923  1.00  0.00     0.062 A 
ATOM     40  C   UNL     1      24.429  58.025 161.371  1.00  0.00     0.016 A 
ATOM     41  C   UNL     1      23.197  55.657 160.517  1.00  0.00     0.158 A 
ATOM     42  C   UNL     1      24.763  56.810 161.971  1.00  0.00     0.051 A 
ATOM     43  C   UNL     1      24.150  55.623 161.550  1.00  0.00     0.157 A 
BRANCH  41  44
ATOM     44  O   UNL     1      22.589  54.476 160.084  1.00  0.00    -0.504 OA
ATOM     45  H   UNL     1      23.119  53.623 159.950  1.00  0.00     0.293 HD
ENDBRANCH  41  44
BRANCH  43  46
ATOM     46  O   UNL     1      24.498  54.423 162.168  1.00  0.00    -0.504 OA
ATOM     47  H   UNL     1      24.202  54.194 163.112  1.00  0.00     0.293 HD
ENDBRANCH  43  46
ENDBRANCH  28  38
BRANCH  34  48
ATOM     48  O   UNL     1      21.634  64.063 158.218  1.00  0.00    -0.507 OA
ATOM     49  H   UNL     1      20.785  63.927 157.689  1.00  0.00     0.293 HD
ENDBRANCH  34  48
BRANCH  37  50
ATOM     50  O   UNL     1      26.239  63.626 156.916  1.00  0.00    -0.508 OA
ATOM     51  H   UNL     1      26.177  64.202 156.082  1.00  0.00     0.293 HD
ENDBRANCH  37  50
ENDBRANCH  26  27
ENDBRANCH   5  26
BRANCH   4  52
ATOM     52  O   UNL     1      19.943  60.034 163.520  1.00  0.00    -0.384 OA
ATOM     53  H   UNL     1      20.486  59.991 164.352  1.00  0.00     0.211 HD
ENDBRANCH   4  52
TORSDOF 16
ENDMDL
MODEL 6
REMARK VINA RESULT:    -8.506      1.898      7.426
REMARK INTER + INTRA:         -15.931
REMARK INTER:                 -13.834
REMARK INTRA:                  -2.097
REMARK UNBOUND:                -1.955
REMARK SMILES C[C@H]1O[C@H](OC[C@H]2O[C@H](Oc3c(-c4ccc(O)c(O)c4)oc4cc(O)cc(O)c4c3=O)[C@@H](O)[C@@H](O)[C@@H]2O)[C@@H](O)[C@H](O)[C@@H]1O
REMARK SMILES IDX 7 1 36 2 34 3 32 4 9 5 8 6 6 7 5 8 4 9 1 10 2 11 42 12 3 13
REMARK SMILES IDX 40 14 38 15 43 16 41 18 39 20 37 22 35 24 10 26 11 27 12 28
REMARK SMILES IDX 30 29 21 30 29 31 31 32 22 33 27 34 23 35 26 36 24 37 13 38
REMARK SMILES IDX 20 39 14 40 18 41 15 42 16 43 19 44 17 46 28 48 25 50 33 52
REMARK H PARENT 43 17 41 19 39 21 37 23 35 25 19 45 17 47 28 49 25 51 33 53
REMARK Flexibility Score: inf
ROOT
ATOM      1  C   UNL     1      18.552  57.665 158.748  1.00  0.00     0.180 C 
ATOM      2  C   UNL     1      17.545  58.834 158.713  1.00  0.00     0.177 C 
ATOM      3  C   UNL     1      17.558  59.569 160.067  1.00  0.00     0.180 C 
ATOM      4  C   UNL     1      19.005  59.889 160.529  1.00  0.00     0.214 C 
ATOM      5  C   UNL     1      19.919  58.660 160.376  1.00  0.00     0.339 C 
ATOM      6  O   UNL     1      19.851  58.147 159.054  1.00  0.00    -0.332 OA
ENDROOT
BRANCH   1   7
ATOM      7  C   UNL     1      18.612  56.912 157.400  1.00  0.00     0.198 C 
BRANCH   7   8
ATOM      8  O   UNL     1      18.581  55.513 157.616  1.00  0.00    -0.347 OA
BRANCH   8   9
ATOM      9  C   UNL     1      17.650  55.173 158.639  1.00  0.00     0.281 C 
ATOM     10  C   UNL     1      14.662  54.491 156.594  1.00  0.00     0.041 C 
ATOM     11  C   UNL     1      16.088  54.286 157.113  1.00  0.00     0.150 C 
ATOM     12  C   UNL     1      16.266  52.843 157.642  1.00  0.00     0.174 C 
ATOM     13  O   UNL     1      16.319  55.236 158.143  1.00  0.00    -0.344 OA
ATOM     14  C   UNL     1      17.679  52.666 158.216  1.00  0.00     0.179 C 
ATOM     15  C   UNL     1      17.975  53.787 159.230  1.00  0.00     0.202 C 
BRANCH  12  16
ATOM     16  O   UNL     1      16.051  51.917 156.606  1.00  0.00    -0.388 OA
ATOM     17  H   UNL     1      16.744  51.212 156.708  1.00  0.00     0.211 HD
ENDBRANCH  12  16
BRANCH  14  18
ATOM     18  O   UNL     1      18.623  52.671 157.171  1.00  0.00    -0.387 OA
ATOM     19  H   UNL     1      18.795  53.624 156.958  1.00  0.00     0.211 HD
ENDBRANCH  14  18
BRANCH  15  20
ATOM     20  O   UNL     1      17.189  53.591 160.377  1.00  0.00    -0.385 OA
ATOM     21  H   UNL     1      17.800  53.400 161.137  1.00  0.00     0.211 HD
ENDBRANCH  15  20
ENDBRANCH   8   9
ENDBRANCH   7   8
ENDBRANCH   1   7
BRANCH   2  22
ATOM     22  O   UNL     1      16.256  58.330 158.469  1.00  0.00    -0.387 OA
ATOM     23  H   UNL     1      15.747  58.420 159.316  1.00  0.00     0.211 HD
ENDBRANCH   2  22
BRANCH   3  24
ATOM     24  O   UNL     1      16.802  60.748 159.967  1.00  0.00    -0.387 OA
ATOM     25  H   UNL     1      16.582  60.866 159.005  1.00  0.00     0.211 HD
ENDBRANCH   3  24
BRANCH   5  26
ATOM     26  O   UNL     1      19.573  57.656 161.339  1.00  0.00    -0.454 OA
BRANCH  26  27
ATOM     27  C   UNL     1      19.624  57.769 162.741  1.00  0.00     0.214 A 
ATOM     28  C   UNL     1      20.798  58.033 163.489  1.00  0.00     0.180 A 
ATOM     29  C   UNL     1      18.415  57.632 163.437  1.00  0.00     0.239 A 
ATOM     30  O   UNL     1      20.709  58.268 164.790  1.00  0.00    -0.452 OA
ATOM     31  C   UNL     1      18.373  57.799 164.840  1.00  0.00     0.111 A 
ATOM     32  O   UNL     1      17.371  57.412 162.774  1.00  0.00    -0.285 OA
ATOM     33  C   UNL     1      19.577  58.190 165.475  1.00  0.00     0.146 A 
ATOM     34  C   UNL     1      17.199  57.655 165.638  1.00  0.00     0.134 A 
ATOM     35  C   UNL     1      19.595  58.494 166.837  1.00  0.00     0.094 A 
ATOM     36  C   UNL     1      17.241  57.997 166.995  1.00  0.00     0.093 A 
ATOM     37  C   UNL     1      18.429  58.420 167.593  1.00  0.00     0.123 A 
BRANCH  28  38
ATOM     38  C   UNL     1      22.153  58.025 162.914  1.00  0.00     0.025 A 
ATOM     39  C   UNL     1      22.895  56.834 162.885  1.00  0.00     0.062 A 
ATOM     40  C   UNL     1      22.670  59.173 162.299  1.00  0.00     0.016 A 
ATOM     41  C   UNL     1      24.166  56.803 162.295  1.00  0.00     0.158 A 
ATOM     42  C   UNL     1      23.939  59.150 161.717  1.00  0.00     0.051 A 
ATOM     43  C   UNL     1      24.692  57.970 161.713  1.00  0.00     0.157 A 
BRANCH  41  44
ATOM     44  O   UNL     1      24.907  55.619 162.287  1.00  0.00    -0.504 OA
ATOM     45  H   UNL     1      24.646  54.832 161.704  1.00  0.00     0.293 HD
ENDBRANCH  41  44
BRANCH  43  46
ATOM     46  O   UNL     1      25.958  57.973 161.129  1.00  0.00    -0.504 OA
ATOM     47  H   UNL     1      26.667  57.288 161.369  1.00  0.00     0.293 HD
ENDBRANCH  43  46
ENDBRANCH  28  38
BRANCH  34  48
ATOM     48  O   UNL     1      15.985  57.160 165.151  1.00  0.00    -0.507 OA
ATOM     49  H   UNL     1      15.134  57.697 165.069  1.00  0.00     0.293 HD
ENDBRANCH  34  48
BRANCH  37  50
ATOM     50  O   UNL     1      18.464  58.760 168.943  1.00  0.00    -0.508 OA
ATOM     51  H   UNL     1      19.152  58.360 169.574  1.00  0.00     0.293 HD
ENDBRANCH  37  50
ENDBRANCH  26  27
ENDBRANCH   5  26
BRANCH   4  52
ATOM     52  O   UNL     1      19.578  60.988 159.857  1.00  0.00    -0.384 OA
ATOM     53  H   UNL     1      20.342  61.342 160.386  1.00  0.00     0.211 HD
ENDBRANCH   4  52
TORSDOF 16
ENDMDL
MODEL 7
REMARK VINA RESULT:    -8.452      2.872      5.899
REMARK INTER + INTRA:         -15.842
REMARK INTER:                 -14.271
REMARK INTRA:                  -1.571
REMARK UNBOUND:                -1.955
REMARK SMILES C[C@H]1O[C@H](OC[C@H]2O[C@H](Oc3c(-c4ccc(O)c(O)c4)oc4cc(O)cc(O)c4c3=O)[C@@H](O)[C@@H](O)[C@@H]2O)[C@@H](O)[C@H](O)[C@@H]1O
REMARK SMILES IDX 7 1 36 2 34 3 32 4 9 5 8 6 6 7 5 8 4 9 1 10 2 11 42 12 3 13
REMARK SMILES IDX 40 14 38 15 43 16 41 18 39 20 37 22 35 24 10 26 11 27 12 28
REMARK SMILES IDX 30 29 21 30 29 31 31 32 22 33 27 34 23 35 26 36 24 37 13 38
REMARK SMILES IDX 20 39 14 40 18 41 15 42 16 43 19 44 17 46 28 48 25 50 33 52
REMARK H PARENT 43 17 41 19 39 21 37 23 35 25 19 45 17 47 28 49 25 51 33 53
REMARK Flexibility Score: inf
ROOT
ATOM      1  C   UNL     1      21.967  56.560 160.498  1.00  0.00     0.180 C 
ATOM      2  C   UNL     1      21.300  57.083 161.787  1.00  0.00     0.177 C 
ATOM      3  C   UNL     1      19.808  56.696 161.792  1.00  0.00     0.180 C 
ATOM      4  C   UNL     1      19.606  55.197 161.443  1.00  0.00     0.214 C 
ATOM      5  C   UNL     1      20.442  54.798 160.214  1.00  0.00     0.339 C 
ATOM      6  O   UNL     1      21.804  55.154 160.398  1.00  0.00    -0.332 OA
ENDROOT
BRANCH   1   7
ATOM      7  C   UNL     1      23.478  56.884 160.455  1.00  0.00     0.198 C 
BRANCH   7   8
ATOM      8  O   UNL     1      23.910  57.379 161.709  1.00  0.00    -0.347 OA
BRANCH   8   9
ATOM      9  C   UNL     1      25.006  58.277 161.556  1.00  0.00     0.281 C 
ATOM     10  C   UNL     1      25.736  59.018 165.090  1.00  0.00     0.041 C 
ATOM     11  C   UNL     1      25.604  58.155 163.833  1.00  0.00     0.150 C 
ATOM     12  C   UNL     1      26.941  57.437 163.528  1.00  0.00     0.174 C 
ATOM     13  O   UNL     1      25.228  59.004 162.757  1.00  0.00    -0.344 OA
ATOM     14  C   UNL     1      26.816  56.624 162.231  1.00  0.00     0.179 C 
ATOM     15  C   UNL     1      26.270  57.520 161.103  1.00  0.00     0.202 C 
BRANCH  12  16
ATOM     16  O   UNL     1      27.289  56.589 164.593  1.00  0.00    -0.388 OA
ATOM     17  H   UNL     1      27.635  57.174 165.319  1.00  0.00     0.211 HD
ENDBRANCH  12  16
BRANCH  14  18
ATOM     18  O   UNL     1      25.975  55.514 162.444  1.00  0.00    -0.387 OA
ATOM     19  H   UNL     1      25.914  55.043 161.573  1.00  0.00     0.211 HD
ENDBRANCH  14  18
BRANCH  15  20
ATOM     20  O   UNL     1      27.251  58.457 160.742  1.00  0.00    -0.385 OA
ATOM     21  H   UNL     1      28.038  57.959 160.398  1.00  0.00     0.211 HD
ENDBRANCH  15  20
ENDBRANCH   8   9
ENDBRANCH   7   8
ENDBRANCH   1   7
BRANCH   2  22
ATOM     22  O   UNL     1      21.419  58.482 161.838  1.00  0.00    -0.387 OA
ATOM     23  H   UNL     1      22.262  58.716 161.372  1.00  0.00     0.211 HD
ENDBRANCH   2  22
BRANCH   3  24
ATOM     24  O   UNL     1      19.253  56.988 163.048  1.00  0.00    -0.387 OA
ATOM     25  H   UNL     1      19.725  56.415 163.710  1.00  0.00     0.211 HD
ENDBRANCH   3  24
BRANCH   5  26
ATOM     26  O   UNL     1      19.907  55.399 159.027  1.00  0.00    -0.454 OA
BRANCH  26  27
ATOM     27  C   UNL     1      18.573  55.353 158.578  1.00  0.00     0.214 A 
ATOM     28  C   UNL     1      17.775  56.487 158.294  1.00  0.00     0.180 A 
ATOM     29  C   UNL     1      18.012  54.083 158.379  1.00  0.00     0.239 A 
ATOM     30  O   UNL     1      16.584  56.329 157.734  1.00  0.00    -0.452 OA
ATOM     31  C   UNL     1      16.701  53.952 157.866  1.00  0.00     0.111 A 
ATOM     32  O   UNL     1      18.724  53.076 158.618  1.00  0.00    -0.285 OA
ATOM     33  C   UNL     1      16.038  55.146 157.492  1.00  0.00     0.146 A 
ATOM     34  C   UNL     1      16.036  52.709 157.653  1.00  0.00     0.134 A 
ATOM     35  C   UNL     1      14.792  55.100 156.865  1.00  0.00     0.094 A 
ATOM     36  C   UNL     1      14.800  52.692 156.994  1.00  0.00     0.093 A 
ATOM     37  C   UNL     1      14.182  53.878 156.595  1.00  0.00     0.123 A 
BRANCH  28  38
ATOM     38  C   UNL     1      18.169  57.867 158.621  1.00  0.00     0.025 A 
ATOM     39  C   UNL     1      17.228  58.752 159.171  1.00  0.00     0.062 A 
ATOM     40  C   UNL     1      19.503  58.276 158.489  1.00  0.00     0.016 A 
ATOM     41  C   UNL     1      17.603  60.053 159.533  1.00  0.00     0.158 A 
ATOM     42  C   UNL     1      19.881  59.573 158.842  1.00  0.00     0.051 A 
ATOM     43  C   UNL     1      18.936  60.466 159.362  1.00  0.00     0.157 A 
BRANCH  41  44
ATOM     44  O   UNL     1      16.657  60.935 160.061  1.00  0.00    -0.504 OA
ATOM     45  H   UNL     1      15.691  60.926 159.753  1.00  0.00     0.293 HD
ENDBRANCH  41  44
BRANCH  43  46
ATOM     46  O   UNL     1      19.338  61.757 159.702  1.00  0.00    -0.504 OA
ATOM     47  H   UNL     1      19.757  62.390 159.028  1.00  0.00     0.293 HD
ENDBRANCH  43  46
ENDBRANCH  28  38
BRANCH  34  48
ATOM     48  O   UNL     1      16.533  51.477 158.090  1.00  0.00    -0.507 OA
ATOM     49  H   UNL     1      16.572  50.639 157.529  1.00  0.00     0.293 HD
ENDBRANCH  34  48
BRANCH  37  50
ATOM     50  O   UNL     1      12.953  53.854 155.940  1.00  0.00    -0.508 OA
ATOM     51  H   UNL     1      12.720  53.124 155.275  1.00  0.00     0.293 HD
ENDBRANCH  37  50
ENDBRANCH  26  27
ENDBRANCH   5  26
BRANCH   4  52
ATOM     52  O   UNL     1      19.898  54.328 162.514  1.00  0.00    -0.384 OA
ATOM     53  H   UNL     1      19.262  54.493 163.260  1.00  0.00     0.211 HD
ENDBRANCH   4  52
TORSDOF 16
ENDMDL
MODEL 8
REMARK VINA RESULT:    -8.425      3.579      8.902
REMARK INTER + INTRA:         -15.798
REMARK INTER:                 -12.423
REMARK INTRA:                  -3.376
REMARK UNBOUND:                -1.955
REMARK SMILES C[C@H]1O[C@H](OC[C@H]2O[C@H](Oc3c(-c4ccc(O)c(O)c4)oc4cc(O)cc(O)c4c3=O)[C@@H](O)[C@@H](O)[C@@H]2O)[C@@H](O)[C@H](O)[C@@H]1O
REMARK SMILES IDX 7 1 36 2 34 3 32 4 9 5 8 6 6 7 5 8 4 9 1 10 2 11 42 12 3 13
REMARK SMILES IDX 40 14 38 15 43 16 41 18 39 20 37 22 35 24 10 26 11 27 12 28
REMARK SMILES IDX 30 29 21 30 29 31 31 32 22 33 27 34 23 35 26 36 24 37 13 38
REMARK SMILES IDX 20 39 14 40 18 41 15 42 16 43 19 44 17 46 28 48 25 50 33 52
REMARK H PARENT 43 17 41 19 39 21 37 23 35 25 19 45 17 47 28 49 25 51 33 53
REMARK Flexibility Score: inf
ROOT
ATOM      1  C   UNL     1      20.448  56.020 160.239  1.00  0.00     0.180 C 
ATOM      2  C   UNL     1      21.276  54.802 160.700  1.00  0.00     0.177 C 
ATOM      3  C   UNL     1      22.777  55.098 160.517  1.00  0.00     0.180 C 
ATOM      4  C   UNL     1      23.162  56.483 161.102  1.00  0.00     0.214 C 
ATOM      5  C   UNL     1      22.163  57.567 160.659  1.00  0.00     0.339 C 
ATOM      6  O   UNL     1      20.833  57.177 160.965  1.00  0.00    -0.332 OA
ENDROOT
BRANCH   1   7
ATOM      7  C   UNL     1      18.931  55.797 160.436  1.00  0.00     0.198 C 
BRANCH   7   8
ATOM      8  O   UNL     1      18.335  55.378 159.223  1.00  0.00    -0.347 OA
BRANCH   8   9
ATOM      9  C   UNL     1      17.133  54.652 159.466  1.00  0.00     0.281 C 
ATOM     10  C   UNL     1      15.532  54.918 156.159  1.00  0.00     0.041 C 
ATOM     11  C   UNL     1      16.597  54.499 157.176  1.00  0.00     0.150 C 
ATOM     12  C   UNL     1      16.797  52.965 157.147  1.00  0.00     0.174 C 
ATOM     13  O   UNL     1      16.168  54.930 158.461  1.00  0.00    -0.344 OA
ATOM     14  C   UNL     1      17.822  52.549 158.213  1.00  0.00     0.179 C 
ATOM     15  C   UNL     1      17.425  53.142 159.578  1.00  0.00     0.202 C 
BRANCH  12  16
ATOM     16  O   UNL     1      17.237  52.558 155.876  1.00  0.00    -0.388 OA
ATOM     17  H   UNL     1      17.569  53.375 155.416  1.00  0.00     0.211 HD
ENDBRANCH  12  16
BRANCH  14  18
ATOM     18  O   UNL     1      19.107  52.980 157.833  1.00  0.00    -0.387 OA
ATOM     19  H   UNL     1      19.371  52.416 157.060  1.00  0.00     0.211 HD
ENDBRANCH  14  18
BRANCH  15  20
ATOM     20  O   UNL     1      16.269  52.494 160.045  1.00  0.00    -0.385 OA
ATOM     21  H   UNL     1      16.419  52.249 160.995  1.00  0.00     0.211 HD
ENDBRANCH  15  20
ENDBRANCH   8   9
ENDBRANCH   7   8
ENDBRANCH   1   7
BRANCH   2  22
ATOM     22  O   UNL     1      20.924  53.682 159.929  1.00  0.00    -0.387 OA
ATOM     23  H   UNL     1      21.701  53.066 159.946  1.00  0.00     0.211 HD
ENDBRANCH   2  22
BRANCH   3  24
ATOM     24  O   UNL     1      23.532  54.081 161.124  1.00  0.00    -0.387 OA
ATOM     25  H   UNL     1      24.150  53.729 160.429  1.00  0.00     0.211 HD
ENDBRANCH   3  24
BRANCH   5  26
ATOM     26  O   UNL     1      22.312  57.843 159.260  1.00  0.00    -0.454 OA
BRANCH  26  27
ATOM     27  C   UNL     1      22.343  59.108 158.642  1.00  0.00     0.214 A 
ATOM     28  C   UNL     1      21.200  59.831 158.223  1.00  0.00     0.180 A 
ATOM     29  C   UNL     1      23.602  59.694 158.452  1.00  0.00     0.239 A 
ATOM     30  O   UNL     1      21.334  61.077 157.789  1.00  0.00    -0.452 OA
ATOM     31  C   UNL     1      23.713  60.990 157.899  1.00  0.00     0.111 A 
ATOM     32  O   UNL     1      24.616  59.059 158.836  1.00  0.00    -0.285 OA
ATOM     33  C   UNL     1      22.504  61.680 157.637  1.00  0.00     0.146 A 
ATOM     34  C   UNL     1      24.947  61.660 157.646  1.00  0.00     0.134 A 
ATOM     35  C   UNL     1      22.523  63.007 157.206  1.00  0.00     0.094 A 
ATOM     36  C   UNL     1      24.934  63.001 157.243  1.00  0.00     0.093 A 
ATOM     37  C   UNL     1      23.731  63.675 157.030  1.00  0.00     0.123 A 
BRANCH  28  38
ATOM     38  C   UNL     1      19.839  59.270 158.197  1.00  0.00     0.025 A 
ATOM     39  C   UNL     1      18.909  59.644 159.179  1.00  0.00     0.062 A 
ATOM     40  C   UNL     1      19.430  58.448 157.139  1.00  0.00     0.016 A 
ATOM     41  C   UNL     1      17.596  59.156 159.137  1.00  0.00     0.158 A 
ATOM     42  C   UNL     1      18.126  57.952 157.095  1.00  0.00     0.051 A 
ATOM     43  C   UNL     1      17.205  58.301 158.091  1.00  0.00     0.157 A 
BRANCH  41  44
ATOM     44  O   UNL     1      16.681  59.517 160.128  1.00  0.00    -0.504 OA
ATOM     45  H   UNL     1      16.811  59.246 161.096  1.00  0.00     0.293 HD
ENDBRANCH  41  44
BRANCH  43  46
ATOM     46  O   UNL     1      15.909  57.790 158.027  1.00  0.00    -0.504 OA
ATOM     47  H   UNL     1      15.168  58.257 157.515  1.00  0.00     0.293 HD
ENDBRANCH  43  46
ENDBRANCH  28  38
BRANCH  34  48
ATOM     48  O   UNL     1      26.199  61.045 157.750  1.00  0.00    -0.507 OA
ATOM     49  H   UNL     1      26.821  61.133 158.541  1.00  0.00     0.293 HD
ENDBRANCH  34  48
BRANCH  37  50
ATOM     50  O   UNL     1      23.725  65.010 156.630  1.00  0.00    -0.508 OA
ATOM     51  H   UNL     1      24.533  65.435 156.185  1.00  0.00     0.293 HD
ENDBRANCH  37  50
ENDBRANCH  26  27
ENDBRANCH   5  26
BRANCH   4  52
ATOM     52  O   UNL     1      23.269  56.488 162.508  1.00  0.00    -0.384 OA
ATOM     53  H   UNL     1      22.581  55.885 162.896  1.00  0.00     0.211 HD
ENDBRANCH   4  52
TORSDOF 16
ENDMDL
MODEL 9
REMARK VINA RESULT:    -8.326      2.530      7.896
REMARK INTER + INTRA:         -15.636
REMARK INTER:                 -13.830
REMARK INTRA:                  -1.806
REMARK UNBOUND:                -1.955
REMARK SMILES C[C@H]1O[C@H](OC[C@H]2O[C@H](Oc3c(-c4ccc(O)c(O)c4)oc4cc(O)cc(O)c4c3=O)[C@@H](O)[C@@H](O)[C@@H]2O)[C@@H](O)[C@H](O)[C@@H]1O
REMARK SMILES IDX 7 1 36 2 34 3 32 4 9 5 8 6 6 7 5 8 4 9 1 10 2 11 42 12 3 13
REMARK SMILES IDX 40 14 38 15 43 16 41 18 39 20 37 22 35 24 10 26 11 27 12 28
REMARK SMILES IDX 30 29 21 30 29 31 31 32 22 33 27 34 23 35 26 36 24 37 13 38
REMARK SMILES IDX 20 39 14 40 18 41 15 42 16 43 19 44 17 46 28 48 25 50 33 52
REMARK H PARENT 43 17 41 19 39 21 37 23 35 25 19 45 17 47 28 49 25 51 33 53
REMARK Flexibility Score: inf
ROOT
ATOM      1  C   UNL     1      19.411  58.097 162.282  1.00  0.00     0.180 C 
ATOM      2  C   UNL     1      19.533  58.569 163.745  1.00  0.00     0.177 C 
ATOM      3  C   UNL     1      20.945  59.136 163.990  1.00  0.00     0.180 C 
ATOM      4  C   UNL     1      21.357  60.140 162.880  1.00  0.00     0.214 C 
ATOM      5  C   UNL     1      21.048  59.576 161.481  1.00  0.00     0.339 C 
ATOM      6  O   UNL     1      19.691  59.169 161.395  1.00  0.00    -0.332 OA
ENDROOT
BRANCH   1   7
ATOM      7  C   UNL     1      17.999  57.552 161.965  1.00  0.00     0.198 C 
BRANCH   7   8
ATOM      8  O   UNL     1      18.081  56.476 161.049  1.00  0.00    -0.347 OA
BRANCH   8   9
ATOM      9  C   UNL     1      18.495  55.278 161.701  1.00  0.00     0.281 C 
ATOM     10  C   UNL     1      17.670  52.805 159.098  1.00  0.00     0.041 C 
ATOM     11  C   UNL     1      18.393  54.002 159.722  1.00  0.00     0.150 C 
ATOM     12  C   UNL     1      19.925  53.787 159.684  1.00  0.00     0.174 C 
ATOM     13  O   UNL     1      17.934  54.141 161.059  1.00  0.00    -0.344 OA
ATOM     14  C   UNL     1      20.637  54.963 160.367  1.00  0.00     0.179 C 
ATOM     15  C   UNL     1      20.033  55.198 161.765  1.00  0.00     0.202 C 
BRANCH  12  16
ATOM     16  O   UNL     1      20.364  53.669 158.354  1.00  0.00    -0.388 OA
ATOM     17  H   UNL     1      21.244  54.129 158.305  1.00  0.00     0.211 HD
ENDBRANCH  12  16
BRANCH  14  18
ATOM     18  O   UNL     1      20.523  56.118 159.570  1.00  0.00    -0.387 OA
ATOM     19  H   UNL     1      21.357  56.168 159.034  1.00  0.00     0.211 HD
ENDBRANCH  14  18
BRANCH  15  20
ATOM     20  O   UNL     1      20.393  54.135 162.609  1.00  0.00    -0.385 OA
ATOM     21  H   UNL     1      20.670  54.519 163.482  1.00  0.00     0.211 HD
ENDBRANCH  15  20
ENDBRANCH   8   9
ENDBRANCH   7   8
ENDBRANCH   1   7
BRANCH   2  22
ATOM     22  O   UNL     1      19.312  57.481 164.606  1.00  0.00    -0.387 OA
ATOM     23  H   UNL     1      18.643  56.897 164.165  1.00  0.00     0.211 HD
ENDBRANCH   2  22
BRANCH   3  24
ATOM     24  O   UNL     1      20.990  59.752 165.251  1.00  0.00    -0.387 OA
ATOM     25  H   UNL     1      20.621  60.668 165.136  1.00  0.00     0.211 HD
ENDBRANCH   3  24
BRANCH   5  26
ATOM     26  O   UNL     1      21.934  58.492 161.172  1.00  0.00    -0.454 OA
BRANCH  26  27
ATOM     27  C   UNL     1      23.341  58.528 161.135  1.00  0.00     0.214 A 
ATOM     28  C   UNL     1      24.110  59.634 160.699  1.00  0.00     0.180 A 
ATOM     29  C   UNL     1      24.020  57.388 161.588  1.00  0.00     0.239 A 
ATOM     30  O   UNL     1      25.428  59.617 160.847  1.00  0.00    -0.452 OA
ATOM     31  C   UNL     1      25.432  57.371 161.646  1.00  0.00     0.111 A 
ATOM     32  O   UNL     1      23.338  56.412 161.989  1.00  0.00    -0.285 OA
ATOM     33  C   UNL     1      26.101  58.574 161.312  1.00  0.00     0.146 A 
ATOM     34  C   UNL     1      26.212  56.254 162.068  1.00  0.00     0.134 A 
ATOM     35  C   UNL     1      27.484  58.681 161.458  1.00  0.00     0.094 A 
ATOM     36  C   UNL     1      27.594  56.401 162.235  1.00  0.00     0.093 A 
ATOM     37  C   UNL     1      28.229  57.608 161.939  1.00  0.00     0.123 A 
BRANCH  28  38
ATOM     38  C   UNL     1      23.540  60.819 160.037  1.00  0.00     0.025 A 
ATOM     39  C   UNL     1      23.619  62.074 160.660  1.00  0.00     0.062 A 
ATOM     40  C   UNL     1      23.013  60.724 158.742  1.00  0.00     0.016 A 
ATOM     41  C   UNL     1      23.124  63.218 160.018  1.00  0.00     0.158 A 
ATOM     42  C   UNL     1      22.512  61.859 158.101  1.00  0.00     0.051 A 
ATOM     43  C   UNL     1      22.563  63.107 158.734  1.00  0.00     0.157 A 
BRANCH  41  44
ATOM     44  O   UNL     1      23.188  64.461 160.652  1.00  0.00    -0.504 OA
ATOM     45  H   UNL     1      22.564  64.703 161.413  1.00  0.00     0.293 HD
ENDBRANCH  41  44
BRANCH  43  46
ATOM     46  O   UNL     1      22.053  64.224 158.074  1.00  0.00    -0.504 OA
ATOM     47  H   UNL     1      21.072  64.481 158.123  1.00  0.00     0.293 HD
ENDBRANCH  43  46
ENDBRANCH  28  38
BRANCH  34  48
ATOM     48  O   UNL     1      25.680  54.983 162.308  1.00  0.00    -0.507 OA
ATOM     49  H   UNL     1      24.763  54.677 162.016  1.00  0.00     0.293 HD
ENDBRANCH  34  48
BRANCH  37  50
ATOM     50  O   UNL     1      29.605  57.748 162.108  1.00  0.00    -0.508 OA
ATOM     51  H   UNL     1      30.091  58.595 161.831  1.00  0.00     0.293 HD
ENDBRANCH  37  50
ENDBRANCH  26  27
ENDBRANCH   5  26
BRANCH   4  52
ATOM     52  O   UNL     1      20.757  61.408 163.019  1.00  0.00    -0.384 OA
ATOM     53  H   UNL     1      20.828  61.907 162.162  1.00  0.00     0.211 HD
ENDBRANCH   4  52
TORSDOF 16
ENDMDL
