MODEL 1
REMARK VINA RESULT:    -3.428      0.000      0.000
REMARK INTER + INTRA:          -4.170
REMARK INTER:                  -4.029
REMARK INTRA:                  -0.140
REMARK UNBOUND:                -0.140
REMARK SMILES O=C([O-])C=Cc1ccc(O)c(O)c1
REMARK SMILES IDX 6 1 13 2 7 3 11 4 8 5 9 6 5 7 4 8 2 9 1 10 3 11 12 12 10 14
REMARK H PARENT 12 13 10 15
REMARK Flexibility Score: inf
ROOT
ATOM      1  C   UNL     1     -10.406 -19.891  19.898  1.00  0.00    -0.022 A 
ATOM      2  C   UNL     1     -10.243 -20.622  21.086  1.00  0.00     0.058 A 
ATOM      3  C   UNL     1     -10.295 -18.490  19.943  1.00  0.00     0.012 A 
ATOM      4  C   UNL     1      -9.949 -19.982  22.296  1.00  0.00     0.157 A 
ATOM      5  C   UNL     1     -10.002 -17.844  21.145  1.00  0.00     0.051 A 
ATOM      6  C   UNL     1      -9.823 -18.573  22.325  1.00  0.00     0.157 A 
ENDROOT
BRANCH   1   7
ATOM      7  C   UNL     1     -10.727 -20.628  18.649  1.00  0.00     0.010 C 
ATOM      8  C   UNL     1     -10.662 -20.083  17.425  1.00  0.00     0.025 C 
BRANCH   8   9
ATOM      9  C   UNL     1     -10.977 -20.848  16.207  1.00  0.00     0.064 C 
ATOM     10  O   UNL     1     -11.121 -22.099  16.242  1.00  0.00    -0.545 OA
ATOM     11  O   UNL     1     -11.119 -20.178  14.999  1.00  0.00    -0.545 OA
ENDBRANCH   8   9
ENDBRANCH   1   7
BRANCH   4  12
ATOM     12  O   UNL     1      -9.792 -20.777  23.433  1.00  0.00    -0.504 OA
ATOM     13  H   UNL     1      -9.155 -21.558  23.492  1.00  0.00     0.293 HD
ENDBRANCH   4  12
BRANCH   6  14
ATOM     14  O   UNL     1      -9.530 -17.866  23.493  1.00  0.00    -0.504 OA
ATOM     15  H   UNL     1      -9.931 -16.969  23.725  1.00  0.00     0.293 HD
ENDBRANCH   6  14
TORSDOF 4
ENDMDL
MODEL 2
REMARK VINA RESULT:    -3.420      1.280      5.823
REMARK INTER + INTRA:          -4.160
REMARK INTER:                  -4.026
REMARK INTRA:                  -0.134
REMARK UNBOUND:                -0.140
REMARK SMILES O=C([O-])C=Cc1ccc(O)c(O)c1
REMARK SMILES IDX 6 1 13 2 7 3 11 4 8 5 9 6 5 7 4 8 2 9 1 10 3 11 12 12 10 14
REMARK H PARENT 12 13 10 15
REMARK Flexibility Score: inf
ROOT
ATOM      1  C   UNL     1     -10.299 -19.946  19.037  1.00  0.00    -0.022 A 
ATOM      2  C   UNL     1      -9.455 -20.954  18.544  1.00  0.00     0.058 A 
ATOM      3  C   UNL     1     -11.125 -19.252  18.134  1.00  0.00     0.012 A 
ATOM      4  C   UNL     1      -9.445 -21.292  17.184  1.00  0.00     0.157 A 
ATOM      5  C   UNL     1     -11.121 -19.581  16.778  1.00  0.00     0.051 A 
ATOM      6  C   UNL     1     -10.293 -20.598  16.290  1.00  0.00     0.157 A 
ENDROOT
BRANCH   1   7
ATOM      7  C   UNL     1     -10.255 -19.628  20.486  1.00  0.00     0.010 C 
ATOM      8  C   UNL     1      -9.902 -18.431  20.976  1.00  0.00     0.025 C 
BRANCH   8   9
ATOM      9  C   UNL     1      -9.882 -18.149  22.421  1.00  0.00     0.064 C 
ATOM     10  O   UNL     1     -10.820 -18.524  23.172  1.00  0.00    -0.545 OA
ATOM     11  O   UNL     1      -8.806 -17.459  22.966  1.00  0.00    -0.545 OA
ENDBRANCH   8   9
ENDBRANCH   1   7
BRANCH   4  12
ATOM     12  O   UNL     1      -8.587 -22.312  16.772  1.00  0.00    -0.504 OA
ATOM     13  H   UNL     1      -7.955 -22.236  15.987  1.00  0.00     0.293 HD
ENDBRANCH   4  12
BRANCH   6  14
ATOM     14  O   UNL     1     -10.340 -20.879  14.923  1.00  0.00    -0.504 OA
ATOM     15  H   UNL     1     -11.053 -21.447  14.487  1.00  0.00     0.293 HD
ENDBRANCH   6  14
TORSDOF 4
ENDMDL
MODEL 3
REMARK VINA RESULT:    -3.347     19.875     20.376
REMARK INTER + INTRA:          -4.075
REMARK INTER:                  -3.942
REMARK INTRA:                  -0.133
REMARK UNBOUND:                -0.140
REMARK SMILES O=C([O-])C=Cc1ccc(O)c(O)c1
REMARK SMILES IDX 6 1 13 2 7 3 11 4 8 5 9 6 5 7 4 8 2 9 1 10 3 11 12 12 10 14
REMARK H PARENT 12 13 10 15
REMARK Flexibility Score: inf
ROOT
ATOM      1  C   UNL     1       8.083 -21.688  12.021  1.00  0.00    -0.022 A 
ATOM      2  C   UNL     1       8.605 -20.548  12.653  1.00  0.00     0.058 A 
ATOM      3  C   UNL     1       7.402 -22.643  12.798  1.00  0.00     0.012 A 
ATOM      4  C   UNL     1       8.435 -20.339  14.027  1.00  0.00     0.157 A 
ATOM      5  C   UNL     1       7.229 -22.442  14.168  1.00  0.00     0.051 A 
ATOM      6  C   UNL     1       7.734 -21.298  14.795  1.00  0.00     0.157 A 
ENDROOT
BRANCH   1   7
ATOM      7  C   UNL     1       8.306 -21.857  10.562  1.00  0.00     0.010 C 
ATOM      8  C   UNL     1       8.556 -20.840   9.725  1.00  0.00     0.025 C 
BRANCH   8   9
ATOM      9  C   UNL     1       8.784 -21.047   8.284  1.00  0.00     0.064 C 
ATOM     10  O   UNL     1       9.125 -20.094   7.534  1.00  0.00    -0.545 OA
ATOM     11  O   UNL     1       8.621 -22.316   7.745  1.00  0.00    -0.545 OA
ENDBRANCH   8   9
ENDBRANCH   1   7
BRANCH   4  12
ATOM     12  O   UNL     1       8.974 -19.177  14.582  1.00  0.00    -0.504 OA
ATOM     13  H   UNL     1       9.628 -18.574  14.105  1.00  0.00     0.293 HD
ENDBRANCH   4  12
BRANCH   6  14
ATOM     14  O   UNL     1       7.524 -21.158  16.168  1.00  0.00    -0.504 OA
ATOM     15  H   UNL     1       6.898 -20.479  16.577  1.00  0.00     0.293 HD
ENDBRANCH   6  14
TORSDOF 4
ENDMDL
MODEL 4
REMARK VINA RESULT:    -3.324     19.234     20.290
REMARK INTER + INTRA:          -4.047
REMARK INTER:                  -3.910
REMARK INTRA:                  -0.137
REMARK UNBOUND:                -0.140
REMARK SMILES O=C([O-])C=Cc1ccc(O)c(O)c1
REMARK SMILES IDX 6 1 13 2 7 3 11 4 8 5 9 6 5 7 4 8 2 9 1 10 3 11 12 12 10 14
REMARK H PARENT 12 13 10 15
REMARK Flexibility Score: inf
ROOT
ATOM      1  C   UNL     1       7.683 -21.428  12.692  1.00  0.00    -0.022 A 
ATOM      2  C   UNL     1       7.679 -22.363  11.644  1.00  0.00     0.058 A 
ATOM      3  C   UNL     1       8.065 -20.103  12.417  1.00  0.00     0.012 A 
ATOM      4  C   UNL     1       8.021 -21.990  10.338  1.00  0.00     0.157 A 
ATOM      5  C   UNL     1       8.408 -19.723  11.118  1.00  0.00     0.051 A 
ATOM      6  C   UNL     1       8.388 -20.650  10.071  1.00  0.00     0.157 A 
ENDROOT
BRANCH   1   7
ATOM      7  C   UNL     1       7.320 -21.888  14.056  1.00  0.00     0.010 C 
ATOM      8  C   UNL     1       7.625 -21.215  15.175  1.00  0.00     0.025 C 
BRANCH   8   9
ATOM      9  C   UNL     1       7.237 -21.697  16.512  1.00  0.00     0.064 C 
ATOM     10  O   UNL     1       7.901 -22.590  17.101  1.00  0.00    -0.545 OA
ATOM     11  O   UNL     1       6.121 -21.154  17.134  1.00  0.00    -0.545 OA
ENDBRANCH   8   9
ENDBRANCH   1   7
BRANCH   4  12
ATOM     12  O   UNL     1       7.984 -22.973   9.348  1.00  0.00    -0.504 OA
ATOM     13  H   UNL     1       8.702 -23.672   9.218  1.00  0.00     0.293 HD
ENDBRANCH   4  12
BRANCH   6  14
ATOM     14  O   UNL     1       8.740 -20.204   8.795  1.00  0.00    -0.504 OA
ATOM     15  H   UNL     1       8.503 -20.690   7.942  1.00  0.00     0.293 HD
ENDBRANCH   6  14
TORSDOF 4
ENDMDL
MODEL 5
REMARK VINA RESULT:    -3.205      1.497      2.545
REMARK INTER + INTRA:          -3.907
REMARK INTER:                  -3.775
REMARK INTRA:                  -0.132
REMARK UNBOUND:                -0.140
REMARK SMILES O=C([O-])C=Cc1ccc(O)c(O)c1
REMARK SMILES IDX 6 1 13 2 7 3 11 4 8 5 9 6 5 7 4 8 2 9 1 10 3 11 12 12 10 14
REMARK H PARENT 12 13 10 15
REMARK Flexibility Score: inf
ROOT
ATOM      1  C   UNL     1      -9.835 -21.062  18.822  1.00  0.00    -0.022 A 
ATOM      2  C   UNL     1     -10.253 -19.844  19.382  1.00  0.00     0.058 A 
ATOM      3  C   UNL     1      -9.534 -22.136  19.680  1.00  0.00     0.012 A 
ATOM      4  C   UNL     1     -10.396 -19.695  20.767  1.00  0.00     0.157 A 
ATOM      5  C   UNL     1      -9.674 -21.995  21.061  1.00  0.00     0.051 A 
ATOM      6  C   UNL     1     -10.106 -20.787  21.618  1.00  0.00     0.157 A 
ENDROOT
BRANCH   1   7
ATOM      7  C   UNL     1      -9.693 -21.154  17.347  1.00  0.00     0.010 C 
ATOM      8  C   UNL     1     -10.308 -20.330  16.486  1.00  0.00     0.025 C 
BRANCH   8   9
ATOM      9  C   UNL     1     -10.133 -20.444  15.028  1.00  0.00     0.064 C 
ATOM     10  O   UNL     1     -11.125 -20.494  14.254  1.00  0.00    -0.545 OA
ATOM     11  O   UNL     1      -8.850 -20.494  14.498  1.00  0.00    -0.545 OA
ENDBRANCH   8   9
ENDBRANCH   1   7
BRANCH   4  12
ATOM     12  O   UNL     1     -10.825 -18.457  21.249  1.00  0.00    -0.504 OA
ATOM     13  H   UNL     1     -10.753 -17.593  20.730  1.00  0.00     0.293 HD
ENDBRANCH   4  12
BRANCH   6  14
ATOM     14  O   UNL     1     -10.228 -20.714  23.008  1.00  0.00    -0.504 OA
ATOM     15  H   UNL     1      -9.781 -21.355  23.648  1.00  0.00     0.293 HD
ENDBRANCH   6  14
TORSDOF 4
ENDMDL
MODEL 6
REMARK VINA RESULT:    -3.004      1.496      2.162
REMARK INTER + INTRA:          -3.671
REMARK INTER:                  -3.543
REMARK INTRA:                  -0.128
REMARK UNBOUND:                -0.140
REMARK SMILES O=C([O-])C=Cc1ccc(O)c(O)c1
REMARK SMILES IDX 6 1 13 2 7 3 11 4 8 5 9 6 5 7 4 8 2 9 1 10 3 11 12 12 10 14
REMARK H PARENT 12 13 10 15
REMARK Flexibility Score: inf
ROOT
ATOM      1  C   UNL     1     -10.626 -19.357  20.648  1.00  0.00    -0.022 A 
ATOM      2  C   UNL     1      -9.752 -18.269  20.492  1.00  0.00     0.058 A 
ATOM      3  C   UNL     1     -11.072 -19.688  21.941  1.00  0.00     0.012 A 
ATOM      4  C   UNL     1      -9.344 -17.503  21.591  1.00  0.00     0.157 A 
ATOM      5  C   UNL     1     -10.670 -18.930  23.041  1.00  0.00     0.051 A 
ATOM      6  C   UNL     1      -9.812 -17.836  22.883  1.00  0.00     0.157 A 
ENDROOT
BRANCH   1   7
ATOM      7  C   UNL     1     -11.013 -20.136  19.445  1.00  0.00     0.010 C 
ATOM      8  C   UNL     1     -10.133 -20.625  18.559  1.00  0.00     0.025 C 
BRANCH   8   9
ATOM      9  C   UNL     1     -10.554 -21.404  17.383  1.00  0.00     0.064 C 
ATOM     10  O   UNL     1     -11.125 -22.520  17.509  1.00  0.00    -0.545 OA
ATOM     11  O   UNL     1     -10.320 -20.898  16.111  1.00  0.00    -0.545 OA
ENDBRANCH   8   9
ENDBRANCH   1   7
BRANCH   4  12
ATOM     12  O   UNL     1      -8.481 -16.432  21.355  1.00  0.00    -0.504 OA
ATOM     13  H   UNL     1      -7.546 -16.365  21.731  1.00  0.00     0.293 HD
ENDBRANCH   4  12
BRANCH   6  14
ATOM     14  O   UNL     1      -9.451 -17.119  24.026  1.00  0.00    -0.504 OA
ATOM     15  H   UNL     1      -9.725 -16.163  24.202  1.00  0.00     0.293 HD
ENDBRANCH   6  14
TORSDOF 4
ENDMDL
MODEL 7
REMARK VINA RESULT:    -2.776     18.900     20.057
REMARK INTER + INTRA:          -3.404
REMARK INTER:                  -3.273
REMARK INTRA:                  -0.131
REMARK UNBOUND:                -0.140
REMARK SMILES O=C([O-])C=Cc1ccc(O)c(O)c1
REMARK SMILES IDX 6 1 13 2 7 3 11 4 8 5 9 6 5 7 4 8 2 9 1 10 3 11 12 12 10 14
REMARK H PARENT 12 13 10 15
REMARK Flexibility Score: inf
ROOT
ATOM      1  C   UNL     1       7.276 -22.315  12.729  1.00  0.00    -0.022 A 
ATOM      2  C   UNL     1       8.054 -21.239  12.274  1.00  0.00     0.058 A 
ATOM      3  C   UNL     1       6.619 -23.124  11.785  1.00  0.00     0.012 A 
ATOM      4  C   UNL     1       8.203 -20.979  10.905  1.00  0.00     0.157 A 
ATOM      5  C   UNL     1       6.761 -22.872  10.419  1.00  0.00     0.051 A 
ATOM      6  C   UNL     1       7.550 -21.810   9.965  1.00  0.00     0.157 A 
ENDROOT
BRANCH   1   7
ATOM      7  C   UNL     1       7.150 -22.532  14.193  1.00  0.00     0.010 C 
ATOM      8  C   UNL     1       7.230 -21.548  15.101  1.00  0.00     0.025 C 
BRANCH   8   9
ATOM      9  C   UNL     1       7.088 -21.800  16.545  1.00  0.00     0.064 C 
ATOM     10  O   UNL     1       6.141 -21.296  17.205  1.00  0.00    -0.545 OA
ATOM     11  O   UNL     1       8.015 -22.609  17.190  1.00  0.00    -0.545 OA
ENDBRANCH   8   9
ENDBRANCH   1   7
BRANCH   4  12
ATOM     12  O   UNL     1       9.000 -19.896  10.530  1.00  0.00    -0.504 OA
ATOM     13  H   UNL     1       9.481 -19.830   9.645  1.00  0.00     0.293 HD
ENDBRANCH   4  12
BRANCH   6  14
ATOM     14  O   UNL     1       7.652 -21.615   8.586  1.00  0.00    -0.504 OA
ATOM     15  H   UNL     1       8.433 -21.157   8.137  1.00  0.00     0.293 HD
ENDBRANCH   6  14
TORSDOF 4
ENDMDL
MODEL 8
REMARK VINA RESULT:    -2.775      3.908      6.682
REMARK INTER + INTRA:          -3.402
REMARK INTER:                  -3.264
REMARK INTRA:                  -0.138
REMARK UNBOUND:                -0.140
REMARK SMILES O=C([O-])C=Cc1ccc(O)c(O)c1
REMARK SMILES IDX 6 1 13 2 7 3 11 4 8 5 9 6 5 7 4 8 2 9 1 10 3 11 12 12 10 14
REMARK H PARENT 12 13 10 15
REMARK Flexibility Score: inf
ROOT
ATOM      1  C   UNL     1      -7.965 -22.625  19.026  1.00  0.00    -0.022 A 
ATOM      2  C   UNL     1      -8.264 -22.110  17.754  1.00  0.00     0.058 A 
ATOM      3  C   UNL     1      -6.673 -23.125  19.268  1.00  0.00     0.012 A 
ATOM      4  C   UNL     1      -7.295 -22.064  16.744  1.00  0.00     0.157 A 
ATOM      5  C   UNL     1      -5.701 -23.084  18.267  1.00  0.00     0.051 A 
ATOM      6  C   UNL     1      -5.994 -22.555  17.006  1.00  0.00     0.157 A 
ENDROOT
BRANCH   1   7
ATOM      7  C   UNL     1      -9.039 -22.654  20.050  1.00  0.00     0.010 C 
ATOM      8  C   UNL     1      -8.808 -22.645  21.371  1.00  0.00     0.025 C 
BRANCH   8   9
ATOM      9  C   UNL     1      -9.901 -22.663  22.359  1.00  0.00     0.064 C 
ATOM     10  O   UNL     1     -11.056 -23.054  22.047  1.00  0.00    -0.545 OA
ATOM     11  O   UNL     1      -9.650 -22.244  23.659  1.00  0.00    -0.545 OA
ENDBRANCH   8   9
ENDBRANCH   1   7
BRANCH   4  12
ATOM     12  O   UNL     1      -7.664 -21.529  15.509  1.00  0.00    -0.504 OA
ATOM     13  H   UNL     1      -7.797 -22.079  14.672  1.00  0.00     0.293 HD
ENDBRANCH   4  12
BRANCH   6  14
ATOM     14  O   UNL     1      -4.976 -22.542  16.050  1.00  0.00    -0.504 OA
ATOM     15  H   UNL     1      -4.013 -22.313  16.254  1.00  0.00     0.293 HD
ENDBRANCH   6  14
TORSDOF 4
ENDMDL
MODEL 9
REMARK VINA RESULT:    -2.243      2.218      5.644
REMARK INTER + INTRA:          -2.777
REMARK INTER:                  -2.650
REMARK INTRA:                  -0.127
REMARK UNBOUND:                -0.140
REMARK SMILES O=C([O-])C=Cc1ccc(O)c(O)c1
REMARK SMILES IDX 6 1 13 2 7 3 11 4 8 5 9 6 5 7 4 8 2 9 1 10 3 11 12 12 10 14
REMARK H PARENT 12 13 10 15
REMARK Flexibility Score: inf
ROOT
ATOM      1  C   UNL     1     -10.922 -20.981  20.084  1.00  0.00    -0.022 A 
ATOM      2  C   UNL     1     -10.996 -19.579  20.049  1.00  0.00     0.058 A 
ATOM      3  C   UNL     1     -10.942 -21.691  18.870  1.00  0.00     0.012 A 
ATOM      4  C   UNL     1     -11.062 -18.886  18.833  1.00  0.00     0.157 A 
ATOM      5  C   UNL     1     -11.008 -21.009  17.654  1.00  0.00     0.051 A 
ATOM      6  C   UNL     1     -11.064 -19.612  17.619  1.00  0.00     0.157 A 
ENDROOT
BRANCH   1   7
ATOM      7  C   UNL     1     -10.865 -21.656  21.405  1.00  0.00     0.010 C 
ATOM      8  C   UNL     1      -9.773 -21.680  22.183  1.00  0.00     0.025 C 
BRANCH   8   9
ATOM      9  C   UNL     1      -9.758 -22.351  23.494  1.00  0.00     0.064 C 
ATOM     10  O   UNL     1      -8.702 -22.863  23.952  1.00  0.00    -0.545 OA
ATOM     11  O   UNL     1     -10.928 -22.417  24.239  1.00  0.00    -0.545 OA
ENDBRANCH   8   9
ENDBRANCH   1   7
BRANCH   4  12
ATOM     12  O   UNL     1     -11.123 -17.493  18.878  1.00  0.00    -0.504 OA
ATOM     13  H   UNL     1     -10.625 -16.884  18.245  1.00  0.00     0.293 HD
ENDBRANCH   4  12
BRANCH   6  14
ATOM     14  O   UNL     1     -11.125 -18.992  16.369  1.00  0.00    -0.504 OA
ATOM     15  H   UNL     1     -10.316 -18.662  15.862  1.00  0.00     0.293 HD
ENDBRANCH   6  14
TORSDOF 4
ENDMDL
