MODEL 1
REMARK VINA RESULT:    -4.278      0.000      0.000
REMARK INTER + INTRA:          -4.528
REMARK INTER:                  -4.528
REMARK INTRA:                   0.000
REMARK UNBOUND:                 0.000
REMARK SMILES O=c1ccc2cc(O)c(O)cc2o1
REMARK SMILES IDX 4 1 3 2 2 3 1 4 13 5 12 6 11 7 9 8 7 9 6 10 5 11 8 12 10 14
REMARK H PARENT 8 13 10 15
REMARK Flexibility Score: inf
ROOT
ATOM      1  C   UNL     1      73.005  38.375  21.251  1.00  0.00     0.019 A 
ATOM      2  C   UNL     1      72.620  37.515  20.222  1.00  0.00     0.094 A 
ATOM      3  C   UNL     1      73.248  37.625  18.976  1.00  0.00     0.336 A 
ATOM      4  O   UNL     1      72.915  36.858  18.035  1.00  0.00    -0.246 OA
ATOM      5  O   UNL     1      74.198  38.536  18.778  1.00  0.00    -0.423 OA
ATOM      6  C   UNL     1      74.594  39.375  19.732  1.00  0.00     0.142 A 
ATOM      7  C   UNL     1      75.597  40.313  19.467  1.00  0.00     0.098 A 
ATOM      8  C   UNL     1      76.020  41.198  20.464  1.00  0.00     0.161 A 
ATOM      9  C   UNL     1      75.435  41.148  21.743  1.00  0.00     0.158 A 
ATOM     10  C   UNL     1      74.428  40.209  22.014  1.00  0.00     0.062 A 
ATOM     11  C   UNL     1      74.006  39.323  21.015  1.00  0.00     0.022 A 
ENDROOT
BRANCH   9  12
ATOM     12  O   UNL     1      75.854  42.030  22.737  1.00  0.00    -0.504 OA
ATOM     13  H   UNL     1      76.644  42.651  22.597  1.00  0.00     0.293 HD
ENDBRANCH   9  12
BRANCH   8  14
ATOM     14  O   UNL     1      77.023  42.122  20.167  1.00  0.00    -0.504 OA
ATOM     15  H   UNL     1      77.917  42.117  20.643  1.00  0.00     0.293 HD
ENDBRANCH   8  14
TORSDOF 2
ENDMDL
MODEL 2
REMARK VINA RESULT:    -4.276      2.802      4.282
REMARK INTER + INTRA:          -4.526
REMARK INTER:                  -4.526
REMARK INTRA:                   0.000
REMARK UNBOUND:                 0.000
REMARK SMILES O=c1ccc2cc(O)c(O)cc2o1
REMARK SMILES IDX 4 1 3 2 2 3 1 4 13 5 12 6 11 7 9 8 7 9 6 10 5 11 8 12 10 14
REMARK H PARENT 8 13 10 15
REMARK Flexibility Score: inf
ROOT
ATOM      1  C   UNL     1      75.452  40.899  18.697  1.00  0.00     0.019 A 
ATOM      2  C   UNL     1      76.542  41.323  17.937  1.00  0.00     0.094 A 
ATOM      3  C   UNL     1      77.706  41.738  18.594  1.00  0.00     0.336 A 
ATOM      4  O   UNL     1      78.701  42.125  17.926  1.00  0.00    -0.246 OA
ATOM      5  O   UNL     1      77.770  41.727  19.924  1.00  0.00    -0.423 OA
ATOM      6  C   UNL     1      76.754  41.331  20.685  1.00  0.00     0.142 A 
ATOM      7  C   UNL     1      76.877  41.341  22.078  1.00  0.00     0.098 A 
ATOM      8  C   UNL     1      75.813  40.925  22.886  1.00  0.00     0.161 A 
ATOM      9  C   UNL     1      74.611  40.493  22.297  1.00  0.00     0.158 A 
ATOM     10  C   UNL     1      74.481  40.481  20.900  1.00  0.00     0.062 A 
ATOM     11  C   UNL     1      75.547  40.898  20.093  1.00  0.00     0.022 A 
ENDROOT
BRANCH   9  12
ATOM     12  O   UNL     1      73.550  40.079  23.101  1.00  0.00    -0.504 OA
ATOM     13  H   UNL     1      72.889  40.742  23.491  1.00  0.00     0.293 HD
ENDBRANCH   9  12
BRANCH   8  14
ATOM     14  O   UNL     1      75.969  40.946  24.273  1.00  0.00    -0.504 OA
ATOM     15  H   UNL     1      75.927  40.103  24.832  1.00  0.00     0.293 HD
ENDBRANCH   8  14
TORSDOF 2
ENDMDL
MODEL 3
REMARK VINA RESULT:    -4.166      1.700      2.789
REMARK INTER + INTRA:          -4.410
REMARK INTER:                  -4.410
REMARK INTRA:                   0.000
REMARK UNBOUND:                 0.000
REMARK SMILES O=c1ccc2cc(O)c(O)cc2o1
REMARK SMILES IDX 4 1 3 2 2 3 1 4 13 5 12 6 11 7 9 8 7 9 6 10 5 11 8 12 10 14
REMARK H PARENT 8 13 10 15
REMARK Flexibility Score: inf
ROOT
ATOM      1  C   UNL     1      75.101  38.996  19.118  1.00  0.00     0.019 A 
ATOM      2  C   UNL     1      74.643  37.938  18.332  1.00  0.00     0.094 A 
ATOM      3  C   UNL     1      73.367  37.418  18.573  1.00  0.00     0.336 A 
ATOM      4  O   UNL     1      72.936  36.463  17.875  1.00  0.00    -0.246 OA
ATOM      5  O   UNL     1      72.603  37.926  19.537  1.00  0.00    -0.423 OA
ATOM      6  C   UNL     1      73.001  38.934  20.309  1.00  0.00     0.142 A 
ATOM      7  C   UNL     1      72.155  39.427  21.307  1.00  0.00     0.098 A 
ATOM      8  C   UNL     1      72.566  40.488  22.123  1.00  0.00     0.161 A 
ATOM      9  C   UNL     1      73.837  41.063  21.940  1.00  0.00     0.158 A 
ATOM     10  C   UNL     1      74.690  40.572  20.939  1.00  0.00     0.062 A 
ATOM     11  C   UNL     1      74.277  39.511  20.124  1.00  0.00     0.022 A 
ENDROOT
BRANCH   9  12
ATOM     12  O   UNL     1      74.248  42.119  22.752  1.00  0.00    -0.504 OA
ATOM     13  H   UNL     1      73.606  42.582  23.386  1.00  0.00     0.293 HD
ENDBRANCH   9  12
BRANCH   8  14
ATOM     14  O   UNL     1      71.699  40.957  23.110  1.00  0.00    -0.504 OA
ATOM     15  H   UNL     1      71.424  40.385  23.900  1.00  0.00     0.293 HD
ENDBRANCH   8  14
TORSDOF 2
ENDMDL
MODEL 4
REMARK VINA RESULT:    -4.084      1.056      2.282
REMARK INTER + INTRA:          -4.323
REMARK INTER:                  -4.323
REMARK INTRA:                   0.000
REMARK UNBOUND:                 0.000
REMARK SMILES O=c1ccc2cc(O)c(O)cc2o1
REMARK SMILES IDX 4 1 3 2 2 3 1 4 13 5 12 6 11 7 9 8 7 9 6 10 5 11 8 12 10 14
REMARK H PARENT 8 13 10 15
REMARK Flexibility Score: inf
ROOT
ATOM      1  C   UNL     1      75.096  38.713  18.134  1.00  0.00     0.019 A 
ATOM      2  C   UNL     1      74.218  37.660  17.878  1.00  0.00     0.094 A 
ATOM      3  C   UNL     1      73.300  37.287  18.867  1.00  0.00     0.336 A 
ATOM      4  O   UNL     1      72.499  36.339  18.654  1.00  0.00    -0.246 OA
ATOM      5  O   UNL     1      73.267  37.928  20.032  1.00  0.00    -0.423 OA
ATOM      6  C   UNL     1      74.087  38.937  20.317  1.00  0.00     0.142 A 
ATOM      7  C   UNL     1      74.007  39.574  21.559  1.00  0.00     0.098 A 
ATOM      8  C   UNL     1      74.865  40.636  21.866  1.00  0.00     0.161 A 
ATOM      9  C   UNL     1      75.815  41.068  20.922  1.00  0.00     0.158 A 
ATOM     10  C   UNL     1      75.899  40.432  19.674  1.00  0.00     0.062 A 
ATOM     11  C   UNL     1      75.039  39.370  19.368  1.00  0.00     0.022 A 
ENDROOT
BRANCH   9  12
ATOM     12  O   UNL     1      76.671  42.125  21.227  1.00  0.00    -0.504 OA
ATOM     13  H   UNL     1      76.323  42.992  21.621  1.00  0.00     0.293 HD
ENDBRANCH   9  12
BRANCH   8  14
ATOM     14  O   UNL     1      74.760  41.250  23.115  1.00  0.00    -0.504 OA
ATOM     15  H   UNL     1      73.944  41.135  23.704  1.00  0.00     0.293 HD
ENDBRANCH   8  14
TORSDOF 2
ENDMDL
MODEL 5
REMARK VINA RESULT:    -4.030      1.078      5.031
REMARK INTER + INTRA:          -4.266
REMARK INTER:                  -4.266
REMARK INTRA:                   0.000
REMARK UNBOUND:                 0.000
REMARK SMILES O=c1ccc2cc(O)c(O)cc2o1
REMARK SMILES IDX 4 1 3 2 2 3 1 4 13 5 12 6 11 7 9 8 7 9 6 10 5 11 8 12 10 14
REMARK H PARENT 8 13 10 15
REMARK Flexibility Score: inf
ROOT
ATOM      1  C   UNL     1      75.872  40.639  19.354  1.00  0.00     0.019 A 
ATOM      2  C   UNL     1      76.272  41.474  20.398  1.00  0.00     0.094 A 
ATOM      3  C   UNL     1      75.745  41.259  21.677  1.00  0.00     0.336 A 
ATOM      4  O   UNL     1      76.094  42.001  22.632  1.00  0.00    -0.246 OA
ATOM      5  O   UNL     1      74.877  40.274  21.891  1.00  0.00    -0.423 OA
ATOM      6  C   UNL     1      74.469  39.457  20.924  1.00  0.00     0.142 A 
ATOM      7  C   UNL     1      73.554  38.438  21.208  1.00  0.00     0.098 A 
ATOM      8  C   UNL     1      73.120  37.574  20.197  1.00  0.00     0.161 A 
ATOM      9  C   UNL     1      73.606  37.727  18.885  1.00  0.00     0.158 A 
ATOM     10  C   UNL     1      74.524  38.748  18.595  1.00  0.00     0.062 A 
ATOM     11  C   UNL     1      74.957  39.612  19.608  1.00  0.00     0.022 A 
ENDROOT
BRANCH   9  12
ATOM     12  O   UNL     1      73.173  36.868  17.877  1.00  0.00    -0.504 OA
ATOM     13  H   UNL     1      72.557  37.185  17.137  1.00  0.00     0.293 HD
ENDBRANCH   9  12
BRANCH   8  14
ATOM     14  O   UNL     1      72.206  36.568  20.513  1.00  0.00    -0.504 OA
ATOM     15  H   UNL     1      72.213  35.669  20.047  1.00  0.00     0.293 HD
ENDBRANCH   8  14
TORSDOF 2
ENDMDL
MODEL 6
REMARK VINA RESULT:    -3.936      2.027      3.027
REMARK INTER + INTRA:          -4.166
REMARK INTER:                  -4.166
REMARK INTRA:                   0.000
REMARK UNBOUND:                 0.000
REMARK SMILES O=c1ccc2cc(O)c(O)cc2o1
REMARK SMILES IDX 4 1 3 2 2 3 1 4 13 5 12 6 11 7 9 8 7 9 6 10 5 11 8 12 10 14
REMARK H PARENT 8 13 10 15
REMARK Flexibility Score: inf
ROOT
ATOM      1  C   UNL     1      75.844  41.315  18.724  1.00  0.00     0.019 A 
ATOM      2  C   UNL     1      74.837  40.729  17.957  1.00  0.00     0.094 A 
ATOM      3  C   UNL     1      73.833  39.999  18.603  1.00  0.00     0.336 A 
ATOM      4  O   UNL     1      72.915  39.462  17.928  1.00  0.00    -0.246 OA
ATOM      5  O   UNL     1      73.839  39.868  19.927  1.00  0.00    -0.423 OA
ATOM      6  C   UNL     1      74.781  40.411  20.695  1.00  0.00     0.142 A 
ATOM      7  C   UNL     1      74.737  40.241  22.082  1.00  0.00     0.098 A 
ATOM      8  C   UNL     1      75.723  40.809  22.896  1.00  0.00     0.161 A 
ATOM      9  C   UNL     1      76.766  41.557  22.319  1.00  0.00     0.158 A 
ATOM     10  C   UNL     1      76.814  41.731  20.928  1.00  0.00     0.062 A 
ATOM     11  C   UNL     1      75.826  41.162  20.114  1.00  0.00     0.022 A 
ENDROOT
BRANCH   9  12
ATOM     12  O   UNL     1      77.749  42.123  23.130  1.00  0.00    -0.504 OA
ATOM     13  H   UNL     1      78.659  42.376  22.761  1.00  0.00     0.293 HD
ENDBRANCH   9  12
BRANCH   8  14
ATOM     14  O   UNL     1      75.651  40.620  24.277  1.00  0.00    -0.504 OA
ATOM     15  H   UNL     1      76.460  40.727  24.877  1.00  0.00     0.293 HD
ENDBRANCH   8  14
TORSDOF 2
ENDMDL
MODEL 7
REMARK VINA RESULT:    -3.873      3.903      4.193
REMARK INTER + INTRA:          -4.099
REMARK INTER:                  -4.099
REMARK INTRA:                   0.000
REMARK UNBOUND:                 0.000
REMARK SMILES O=c1ccc2cc(O)c(O)cc2o1
REMARK SMILES IDX 4 1 3 2 2 3 1 4 13 5 12 6 11 7 9 8 7 9 6 10 5 11 8 12 10 14
REMARK H PARENT 8 13 10 15
REMARK Flexibility Score: inf
ROOT
ATOM      1  C   UNL     1      69.456  40.293  21.733  1.00  0.00     0.019 A 
ATOM      2  C   UNL     1      68.542  40.858  20.845  1.00  0.00     0.094 A 
ATOM      3  C   UNL     1      69.022  41.606  19.764  1.00  0.00     0.336 A 
ATOM      4  O   UNL     1      68.213  42.125  18.950  1.00  0.00    -0.246 OA
ATOM      5  O   UNL     1      70.331  41.773  19.588  1.00  0.00    -0.423 OA
ATOM      6  C   UNL     1      71.235  41.251  20.412  1.00  0.00     0.142 A 
ATOM      7  C   UNL     1      72.598  41.460  20.178  1.00  0.00     0.098 A 
ATOM      8  C   UNL     1      73.556  40.914  21.039  1.00  0.00     0.161 A 
ATOM      9  C   UNL     1      73.149  40.150  22.148  1.00  0.00     0.158 A 
ATOM     10  C   UNL     1      71.783  39.937  22.388  1.00  0.00     0.062 A 
ATOM     11  C   UNL     1      70.826  40.484  21.524  1.00  0.00     0.022 A 
ENDROOT
BRANCH   9  12
ATOM     12  O   UNL     1      74.103  39.606  23.008  1.00  0.00    -0.504 OA
ATOM     13  H   UNL     1      75.078  39.880  22.960  1.00  0.00     0.293 HD
ENDBRANCH   9  12
BRANCH   8  14
ATOM     14  O   UNL     1      74.908  41.141  20.778  1.00  0.00    -0.504 OA
ATOM     15  H   UNL     1      75.271  42.068  20.588  1.00  0.00     0.293 HD
ENDBRANCH   8  14
TORSDOF 2
ENDMDL
MODEL 8
REMARK VINA RESULT:    -3.798      4.057      4.632
REMARK INTER + INTRA:          -4.021
REMARK INTER:                  -4.021
REMARK INTRA:                   0.000
REMARK UNBOUND:                 0.000
REMARK SMILES O=c1ccc2cc(O)c(O)cc2o1
REMARK SMILES IDX 4 1 3 2 2 3 1 4 13 5 12 6 11 7 9 8 7 9 6 10 5 11 8 12 10 14
REMARK H PARENT 8 13 10 15
REMARK Flexibility Score: inf
ROOT
ATOM      1  C   UNL     1      70.794  42.011  19.268  1.00  0.00     0.019 A 
ATOM      2  C   UNL     1      69.412  41.992  19.453  1.00  0.00     0.094 A 
ATOM      3  C   UNL     1      68.889  41.359  20.587  1.00  0.00     0.336 A 
ATOM      4  O   UNL     1      67.643  41.331  20.772  1.00  0.00    -0.246 OA
ATOM      5  O   UNL     1      69.699  40.786  21.473  1.00  0.00    -0.423 OA
ATOM      6  C   UNL     1      71.022  40.781  21.334  1.00  0.00     0.142 A 
ATOM      7  C   UNL     1      71.825  40.163  22.298  1.00  0.00     0.098 A 
ATOM      8  C   UNL     1      73.217  40.154  22.160  1.00  0.00     0.161 A 
ATOM      9  C   UNL     1      73.817  40.770  21.046  1.00  0.00     0.158 A 
ATOM     10  C   UNL     1      73.016  41.392  20.076  1.00  0.00     0.062 A 
ATOM     11  C   UNL     1      71.623  41.400  20.216  1.00  0.00     0.022 A 
ENDROOT
BRANCH   9  12
ATOM     12  O   UNL     1      75.204  40.761  20.907  1.00  0.00    -0.504 OA
ATOM     13  H   UNL     1      75.801  40.284  21.573  1.00  0.00     0.293 HD
ENDBRANCH   9  12
BRANCH   8  14
ATOM     14  O   UNL     1      73.990  39.529  23.139  1.00  0.00    -0.504 OA
ATOM     15  H   UNL     1      73.879  38.547  23.366  1.00  0.00     0.293 HD
ENDBRANCH   8  14
TORSDOF 2
ENDMDL
MODEL 9
REMARK VINA RESULT:    -3.274      1.794      4.516
REMARK INTER + INTRA:          -3.465
REMARK INTER:                  -3.465
REMARK INTRA:                   0.000
REMARK UNBOUND:                 0.000
REMARK SMILES O=c1ccc2cc(O)c(O)cc2o1
REMARK SMILES IDX 4 1 3 2 2 3 1 4 13 5 12 6 11 7 9 8 7 9 6 10 5 11 8 12 10 14
REMARK H PARENT 8 13 10 15
REMARK Flexibility Score: inf
ROOT
ATOM      1  C   UNL     1      75.234  40.977  20.755  1.00  0.00     0.019 A 
ATOM      2  C   UNL     1      76.153  41.768  20.065  1.00  0.00     0.094 A 
ATOM      3  C   UNL     1      76.494  41.423  18.753  1.00  0.00     0.336 A 
ATOM      4  O   UNL     1      77.321  42.125  18.114  1.00  0.00    -0.246 OA
ATOM      5  O   UNL     1      75.949  40.356  18.173  1.00  0.00    -0.423 OA
ATOM      6  C   UNL     1      75.069  39.575  18.795  1.00  0.00     0.142 A 
ATOM      7  C   UNL     1      74.529  38.467  18.135  1.00  0.00     0.098 A 
ATOM      8  C   UNL     1      73.604  37.641  18.782  1.00  0.00     0.161 A 
ATOM      9  C   UNL     1      73.211  37.924  20.103  1.00  0.00     0.158 A 
ATOM     10  C   UNL     1      73.750  39.035  20.770  1.00  0.00     0.062 A 
ATOM     11  C   UNL     1      74.677  39.861  20.121  1.00  0.00     0.022 A 
ENDROOT
BRANCH   9  12
ATOM     12  O   UNL     1      72.290  37.101  20.749  1.00  0.00    -0.504 OA
ATOM     13  H   UNL     1      71.305  37.117  20.509  1.00  0.00     0.293 HD
ENDBRANCH   9  12
BRANCH   8  14
ATOM     14  O   UNL     1      73.083  36.542  18.097  1.00  0.00    -0.504 OA
ATOM     15  H   UNL     1      73.589  36.088  17.346  1.00  0.00     0.293 HD
ENDBRANCH   8  14
TORSDOF 2
ENDMDL
