MODEL 1
REMARK VINA RESULT:    -7.231      0.000      0.000
REMARK INTER + INTRA:         -12.498
REMARK INTER:                 -10.612
REMARK INTRA:                  -1.885
REMARK UNBOUND:                -1.885
REMARK SMILES O=c1c(O[C@@H]2O[C@H](CO)[C@H](O)[C@H](O)[C@H]2O)c(-c2ccc(O)c(O)c2)oc2cc(O)cc(O)c12
REMARK SMILES IDX 4 1 3 2 16 3 25 4 2 5 26 6 1 7 33 8 27 9 31 10 28 11 30 12
REMARK SMILES IDX 17 13 18 14 19 15 20 16 24 17 22 18 21 19 23 21 32 23 29 25
REMARK SMILES IDX 5 27 14 28 6 29 12 30 7 31 10 32 15 33 13 35 8 37 9 38 11 40
REMARK H PARENT 21 20 23 22 32 24 29 26 15 34 13 36 9 39 11 41
REMARK Flexibility Score: inf
ROOT
ATOM      1  O   UNL     1      -7.194  13.158  12.698  1.00  0.00    -0.454 OA
ENDROOT
BRANCH   1   2
ATOM      2  C   UNL     1      -7.463  14.034  11.636  1.00  0.00     0.214 A 
ATOM      3  C   UNL     1      -6.427  14.421  10.725  1.00  0.00     0.180 A 
ATOM      4  O   UNL     1      -6.885  15.336   9.839  1.00  0.00    -0.452 OA
ATOM      5  C   UNL     1      -8.799  14.450  11.507  1.00  0.00     0.239 A 
ATOM      6  C   UNL     1      -8.119  15.787   9.687  1.00  0.00     0.146 A 
ATOM      7  O   UNL     1      -9.641  14.048  12.364  1.00  0.00    -0.285 OA
ATOM      8  C   UNL     1      -9.174  15.295  10.469  1.00  0.00     0.111 A 
ATOM      9  C   UNL     1      -8.348  16.776   8.734  1.00  0.00     0.094 A 
ATOM     10  C   UNL     1     -10.500  15.720  10.176  1.00  0.00     0.134 A 
ATOM     11  C   UNL     1      -9.630  17.278   8.520  1.00  0.00     0.123 A 
ATOM     12  C   UNL     1     -10.710  16.727   9.216  1.00  0.00     0.093 A 
BRANCH   3  13
ATOM     13  C   UNL     1      -5.340  14.822   9.771  1.00  0.00     0.025 A 
ATOM     14  C   UNL     1      -4.288  15.678  10.213  1.00  0.00     0.016 A 
ATOM     15  C   UNL     1      -3.221  15.971   9.356  1.00  0.00     0.051 A 
ATOM     16  C   UNL     1      -3.217  15.477   8.042  1.00  0.00     0.157 A 
ATOM     17  C   UNL     1      -5.430  14.547   8.367  1.00  0.00     0.062 A 
ATOM     18  C   UNL     1      -4.332  14.804   7.529  1.00  0.00     0.158 A 
BRANCH  16  19
ATOM     19  O   UNL     1      -2.079  15.652   7.271  1.00  0.00    -0.504 OA
ATOM     20  H   UNL     1      -1.748  16.562   6.973  1.00  0.00     0.293 HD
ENDBRANCH  16  19
BRANCH  18  21
ATOM     21  O   UNL     1      -4.327  14.307   6.229  1.00  0.00    -0.504 OA
ATOM     22  H   UNL     1      -3.869  14.813   5.480  1.00  0.00     0.293 HD
ENDBRANCH  18  21
ENDBRANCH   3  13
BRANCH  10  23
ATOM     23  O   UNL     1     -11.623  15.183  10.796  1.00  0.00    -0.507 OA
ATOM     24  H   UNL     1     -12.143  14.392  10.432  1.00  0.00     0.293 HD
ENDBRANCH  10  23
BRANCH  11  25
ATOM     25  O   UNL     1      -9.847  18.291   7.585  1.00  0.00    -0.508 OA
ATOM     26  H   UNL     1      -9.535  19.228   7.777  1.00  0.00     0.293 HD
ENDBRANCH  11  25
ENDBRANCH   1   2
BRANCH   1  27
ATOM     27  C   UNL     1      -6.806  11.777  12.566  1.00  0.00     0.339 C 
ATOM     28  C   UNL     1      -6.018  11.359  13.843  1.00  0.00     0.214 C 
ATOM     29  O   UNL     1      -7.947  10.962  12.285  1.00  0.00    -0.332 OA
ATOM     30  C   UNL     1      -6.946  11.268  15.086  1.00  0.00     0.180 C 
ATOM     31  C   UNL     1      -8.636  10.428  13.412  1.00  0.00     0.179 C 
ATOM     32  C   UNL     1      -8.452  11.237  14.716  1.00  0.00     0.177 C 
BRANCH  28  33
ATOM     33  O   UNL     1      -5.316  10.162  13.627  1.00  0.00    -0.384 OA
ATOM     34  H   UNL     1      -4.364  10.294  13.892  1.00  0.00     0.211 HD
ENDBRANCH  28  33
BRANCH  30  35
ATOM     35  O   UNL     1      -6.667  12.352  15.929  1.00  0.00    -0.387 OA
ATOM     36  H   UNL     1      -5.708  12.549  15.839  1.00  0.00     0.211 HD
ENDBRANCH  30  35
BRANCH  31  37
ATOM     37  C   UNL     1     -10.123  10.267  13.059  1.00  0.00     0.191 C 
BRANCH  37  38
ATOM     38  O   UNL     1     -10.677  11.509  12.720  1.00  0.00    -0.394 OA
ATOM     39  H   UNL     1     -10.820  12.022  13.557  1.00  0.00     0.210 HD
ENDBRANCH  37  38
ENDBRANCH  31  37
BRANCH  32  40
ATOM     40  O   UNL     1      -8.980  12.538  14.548  1.00  0.00    -0.387 OA
ATOM     41  H   UNL     1      -9.092  12.946  15.455  1.00  0.00     0.211 HD
ENDBRANCH  32  40
ENDBRANCH   1  27
TORSDOF 12
ENDMDL
MODEL 2
REMARK VINA RESULT:    -7.181      2.924      7.252
REMARK INTER + INTRA:         -12.425
REMARK INTER:                 -10.287
REMARK INTRA:                  -2.138
REMARK UNBOUND:                -1.885
REMARK SMILES O=c1c(O[C@@H]2O[C@H](CO)[C@H](O)[C@H](O)[C@H]2O)c(-c2ccc(O)c(O)c2)oc2cc(O)cc(O)c12
REMARK SMILES IDX 4 1 3 2 16 3 25 4 2 5 26 6 1 7 33 8 27 9 31 10 28 11 30 12
REMARK SMILES IDX 17 13 18 14 19 15 20 16 24 17 22 18 21 19 23 21 32 23 29 25
REMARK SMILES IDX 5 27 14 28 6 29 12 30 7 31 10 32 15 33 13 35 8 37 9 38 11 40
REMARK H PARENT 21 20 23 22 32 24 29 26 15 34 13 36 9 39 11 41
REMARK Flexibility Score: inf
ROOT
ATOM      1  O   UNL     1      -7.565  15.226   9.033  1.00  0.00    -0.454 OA
ENDROOT
BRANCH   1   2
ATOM      2  C   UNL     1      -7.935  15.400  10.375  1.00  0.00     0.214 A 
ATOM      3  C   UNL     1      -8.715  16.533  10.778  1.00  0.00     0.180 A 
ATOM      4  O   UNL     1      -8.879  16.548  12.122  1.00  0.00    -0.452 OA
ATOM      5  C   UNL     1      -7.541  14.381  11.258  1.00  0.00     0.239 A 
ATOM      6  C   UNL     1      -8.507  15.636  13.006  1.00  0.00     0.146 A 
ATOM      7  O   UNL     1      -6.857  13.418  10.799  1.00  0.00    -0.285 OA
ATOM      8  C   UNL     1      -7.885  14.445  12.603  1.00  0.00     0.111 A 
ATOM      9  C   UNL     1      -8.738  15.891  14.354  1.00  0.00     0.094 A 
ATOM     10  C   UNL     1      -7.623  13.445  13.580  1.00  0.00     0.134 A 
ATOM     11  C   UNL     1      -8.380  14.961  15.328  1.00  0.00     0.123 A 
ATOM     12  C   UNL     1      -7.855  13.725  14.940  1.00  0.00     0.093 A 
BRANCH   3  13
ATOM     13  C   UNL     1      -9.533  17.720  11.197  1.00  0.00     0.025 A 
ATOM     14  C   UNL     1     -10.950  17.700  11.032  1.00  0.00     0.016 A 
ATOM     15  C   UNL     1     -11.722  18.761  11.513  1.00  0.00     0.051 A 
ATOM     16  C   UNL     1     -11.102  19.875  12.101  1.00  0.00     0.157 A 
ATOM     17  C   UNL     1      -8.922  18.963  11.565  1.00  0.00     0.062 A 
ATOM     18  C   UNL     1      -9.707  20.002  12.091  1.00  0.00     0.158 A 
BRANCH  16  19
ATOM     19  O   UNL     1     -11.896  20.835  12.706  1.00  0.00    -0.504 OA
ATOM     20  H   UNL     1     -12.363  21.572  12.191  1.00  0.00     0.293 HD
ENDBRANCH  16  19
BRANCH  18  21
ATOM     21  O   UNL     1      -9.090  21.102  12.679  1.00  0.00    -0.504 OA
ATOM     22  H   UNL     1      -9.025  21.185  13.687  1.00  0.00     0.293 HD
ENDBRANCH  18  21
ENDBRANCH   3  13
BRANCH  10  23
ATOM     23  O   UNL     1      -7.145  12.179  13.260  1.00  0.00    -0.507 OA
ATOM     24  H   UNL     1      -7.701  11.466  12.800  1.00  0.00     0.293 HD
ENDBRANCH  10  23
BRANCH  11  25
ATOM     25  O   UNL     1      -8.586  15.237  16.680  1.00  0.00    -0.508 OA
ATOM     26  H   UNL     1      -7.815  15.193  17.326  1.00  0.00     0.293 HD
ENDBRANCH  11  25
ENDBRANCH   1   2
BRANCH   1  27
ATOM     27  C   UNL     1      -6.854  16.187   8.229  1.00  0.00     0.339 C 
ATOM     28  C   UNL     1      -5.338  16.100   8.576  1.00  0.00     0.214 C 
ATOM     29  O   UNL     1      -7.152  15.999   6.843  1.00  0.00    -0.332 OA
ATOM     30  C   UNL     1      -4.705  14.781   8.054  1.00  0.00     0.180 C 
ATOM     31  C   UNL     1      -6.302  15.106   6.129  1.00  0.00     0.179 C 
ATOM     32  C   UNL     1      -5.594  14.053   7.011  1.00  0.00     0.177 C 
BRANCH  28  33
ATOM     33  O   UNL     1      -4.651  17.231   8.105  1.00  0.00    -0.384 OA
ATOM     34  H   UNL     1      -4.230  17.012   7.228  1.00  0.00     0.211 HD
ENDBRANCH  28  33
BRANCH  30  35
ATOM     35  O   UNL     1      -4.448  13.947   9.151  1.00  0.00    -0.387 OA
ATOM     36  H   UNL     1      -3.499  14.058   9.382  1.00  0.00     0.211 HD
ENDBRANCH  30  35
BRANCH  31  37
ATOM     37  C   UNL     1      -7.109  14.441   5.002  1.00  0.00     0.191 C 
BRANCH  37  38
ATOM     38  O   UNL     1      -6.546  13.200   4.673  1.00  0.00    -0.394 OA
ATOM     39  H   UNL     1      -7.080  12.805   3.936  1.00  0.00     0.210 HD
ENDBRANCH  37  38
ENDBRANCH  31  37
BRANCH  32  40
ATOM     40  O   UNL     1      -6.558  13.223   7.628  1.00  0.00    -0.387 OA
ATOM     41  H   UNL     1      -6.946  13.723   8.403  1.00  0.00     0.211 HD
ENDBRANCH  32  40
ENDBRANCH   1  27
TORSDOF 12
ENDMDL
MODEL 3
REMARK VINA RESULT:    -7.044      3.247      6.785
REMARK INTER + INTRA:         -12.224
REMARK INTER:                 -10.620
REMARK INTRA:                  -1.604
REMARK UNBOUND:                -1.885
REMARK SMILES O=c1c(O[C@@H]2O[C@H](CO)[C@H](O)[C@H](O)[C@H]2O)c(-c2ccc(O)c(O)c2)oc2cc(O)cc(O)c12
REMARK SMILES IDX 4 1 3 2 16 3 25 4 2 5 26 6 1 7 33 8 27 9 31 10 28 11 30 12
REMARK SMILES IDX 17 13 18 14 19 15 20 16 24 17 22 18 21 19 23 21 32 23 29 25
REMARK SMILES IDX 5 27 14 28 6 29 12 30 7 31 10 32 15 33 13 35 8 37 9 38 11 40
REMARK H PARENT 21 20 23 22 32 24 29 26 15 34 13 36 9 39 11 41
REMARK Flexibility Score: inf
ROOT
ATOM      1  O   UNL     1      -6.132  15.235   9.522  1.00  0.00    -0.454 OA
ENDROOT
BRANCH   1   2
ATOM      2  C   UNL     1      -6.697  15.543  10.768  1.00  0.00     0.214 A 
ATOM      3  C   UNL     1      -6.874  16.906  11.175  1.00  0.00     0.180 A 
ATOM      4  O   UNL     1      -7.349  16.971  12.441  1.00  0.00    -0.452 OA
ATOM      5  C   UNL     1      -7.114  14.447  11.542  1.00  0.00     0.239 A 
ATOM      6  C   UNL     1      -7.730  15.978  13.228  1.00  0.00     0.146 A 
ATOM      7  O   UNL     1      -6.915  13.281  11.090  1.00  0.00    -0.285 OA
ATOM      8  C   UNL     1      -7.713  14.649  12.780  1.00  0.00     0.111 A 
ATOM      9  C   UNL     1      -8.141  16.282  14.522  1.00  0.00     0.094 A 
ATOM     10  C   UNL     1      -8.253  13.636  13.620  1.00  0.00     0.134 A 
ATOM     11  C   UNL     1      -8.567  15.278  15.390  1.00  0.00     0.123 A 
ATOM     12  C   UNL     1      -8.655  13.962  14.929  1.00  0.00     0.093 A 
BRANCH   3  13
ATOM     13  C   UNL     1      -7.059  18.335  11.597  1.00  0.00     0.025 A 
ATOM     14  C   UNL     1      -5.974  19.046  12.190  1.00  0.00     0.016 A 
ATOM     15  C   UNL     1      -6.114  20.405  12.491  1.00  0.00     0.051 A 
ATOM     16  C   UNL     1      -7.339  21.054  12.270  1.00  0.00     0.157 A 
ATOM     17  C   UNL     1      -8.353  18.952  11.619  1.00  0.00     0.062 A 
ATOM     18  C   UNL     1      -8.470  20.328  11.877  1.00  0.00     0.158 A 
BRANCH  16  19
ATOM     19  O   UNL     1      -7.400  22.428  12.430  1.00  0.00    -0.504 OA
ATOM     20  H   UNL     1      -7.419  23.076  11.651  1.00  0.00     0.293 HD
ENDBRANCH  16  19
BRANCH  18  21
ATOM     21  O   UNL     1      -9.684  20.970  11.651  1.00  0.00    -0.504 OA
ATOM     22  H   UNL     1     -10.172  20.864  10.769  1.00  0.00     0.293 HD
ENDBRANCH  18  21
ENDBRANCH   3  13
BRANCH  10  23
ATOM     23  O   UNL     1      -8.413  12.317  13.211  1.00  0.00    -0.507 OA
ATOM     24  H   UNL     1      -7.963  11.923  12.391  1.00  0.00     0.293 HD
ENDBRANCH  10  23
BRANCH  11  25
ATOM     25  O   UNL     1      -8.947  15.586  16.697  1.00  0.00    -0.508 OA
ATOM     26  H   UNL     1      -8.759  14.937  17.442  1.00  0.00     0.293 HD
ENDBRANCH  11  25
ENDBRANCH   1   2
BRANCH   1  27
ATOM     27  C   UNL     1      -5.932  16.165   8.440  1.00  0.00     0.339 C 
ATOM     28  C   UNL     1      -4.553  15.870   7.780  1.00  0.00     0.214 C 
ATOM     29  O   UNL     1      -7.039  16.124   7.534  1.00  0.00    -0.332 OA
ATOM     30  C   UNL     1      -4.567  14.530   6.994  1.00  0.00     0.180 C 
ATOM     31  C   UNL     1      -6.940  15.196   6.458  1.00  0.00     0.179 C 
ATOM     32  C   UNL     1      -6.001  13.999   6.729  1.00  0.00     0.177 C 
BRANCH  28  33
ATOM     33  O   UNL     1      -4.144  16.944   6.973  1.00  0.00    -0.384 OA
ATOM     34  H   UNL     1      -4.078  17.764   7.535  1.00  0.00     0.211 HD
ENDBRANCH  28  33
BRANCH  30  35
ATOM     35  O   UNL     1      -3.816  13.587   7.709  1.00  0.00    -0.387 OA
ATOM     36  H   UNL     1      -3.222  14.087   8.312  1.00  0.00     0.211 HD
ENDBRANCH  30  35
BRANCH  31  37
ATOM     37  C   UNL     1      -8.352  14.723   6.076  1.00  0.00     0.191 C 
BRANCH  37  38
ATOM     38  O   UNL     1      -8.290  13.468   5.453  1.00  0.00    -0.394 OA
ATOM     39  H   UNL     1      -7.640  12.909   5.952  1.00  0.00     0.210 HD
ENDBRANCH  37  38
ENDBRANCH  31  37
BRANCH  32  40
ATOM     40  O   UNL     1      -6.493  13.244   7.818  1.00  0.00    -0.387 OA
ATOM     41  H   UNL     1      -7.171  13.800   8.300  1.00  0.00     0.211 HD
ENDBRANCH  32  40
ENDBRANCH   1  27
TORSDOF 12
ENDMDL
MODEL 4
REMARK VINA RESULT:    -6.885      4.137      6.992
REMARK INTER + INTRA:         -11.991
REMARK INTER:                 -10.576
REMARK INTRA:                  -1.414
REMARK UNBOUND:                -1.885
REMARK SMILES O=c1c(O[C@@H]2O[C@H](CO)[C@H](O)[C@H](O)[C@H]2O)c(-c2ccc(O)c(O)c2)oc2cc(O)cc(O)c12
REMARK SMILES IDX 4 1 3 2 16 3 25 4 2 5 26 6 1 7 33 8 27 9 31 10 28 11 30 12
REMARK SMILES IDX 17 13 18 14 19 15 20 16 24 17 22 18 21 19 23 21 32 23 29 25
REMARK SMILES IDX 5 27 14 28 6 29 12 30 7 31 10 32 15 33 13 35 8 37 9 38 11 40
REMARK H PARENT 21 20 23 22 32 24 29 26 15 34 13 36 9 39 11 41
REMARK Flexibility Score: inf
ROOT
ATOM      1  O   UNL     1      -6.362  15.795   8.727  1.00  0.00    -0.454 OA
ENDROOT
BRANCH   1   2
ATOM      2  C   UNL     1      -7.344  16.438   9.494  1.00  0.00     0.214 A 
ATOM      3  C   UNL     1      -8.697  16.522   9.030  1.00  0.00     0.180 A 
ATOM      4  O   UNL     1      -9.451  17.259   9.879  1.00  0.00    -0.452 OA
ATOM      5  C   UNL     1      -6.924  16.934  10.740  1.00  0.00     0.239 A 
ATOM      6  C   UNL     1      -9.106  17.775  11.047  1.00  0.00     0.146 A 
ATOM      7  O   UNL     1      -5.705  16.805  11.059  1.00  0.00    -0.285 OA
ATOM      8  C   UNL     1      -7.829  17.562  11.587  1.00  0.00     0.111 A 
ATOM      9  C   UNL     1     -10.041  18.548  11.729  1.00  0.00     0.094 A 
ATOM     10  C   UNL     1      -7.555  18.030  12.902  1.00  0.00     0.134 A 
ATOM     11  C   UNL     1      -9.739  19.104  12.971  1.00  0.00     0.123 A 
ATOM     12  C   UNL     1      -8.510  18.817  13.572  1.00  0.00     0.093 A 
BRANCH   3  13
ATOM     13  C   UNL     1     -10.114  16.606   8.541  1.00  0.00     0.025 A 
ATOM     14  C   UNL     1     -10.469  17.575   7.556  1.00  0.00     0.016 A 
ATOM     15  C   UNL     1     -11.763  17.589   7.027  1.00  0.00     0.051 A 
ATOM     16  C   UNL     1     -12.731  16.692   7.508  1.00  0.00     0.157 A 
ATOM     17  C   UNL     1     -11.175  15.886   9.181  1.00  0.00     0.062 A 
ATOM     18  C   UNL     1     -12.459  15.872   8.610  1.00  0.00     0.158 A 
BRANCH  16  19
ATOM     19  O   UNL     1     -13.953  16.624   6.859  1.00  0.00    -0.504 OA
ATOM     20  H   UNL     1     -14.101  16.972   5.920  1.00  0.00     0.293 HD
ENDBRANCH  16  19
BRANCH  18  21
ATOM     21  O   UNL     1     -13.414  14.978   9.084  1.00  0.00    -0.504 OA
ATOM     22  H   UNL     1     -14.399  15.122   8.898  1.00  0.00     0.293 HD
ENDBRANCH  18  21
ENDBRANCH   3  13
BRANCH  10  23
ATOM     23  O   UNL     1      -6.373  17.744  13.578  1.00  0.00    -0.507 OA
ATOM     24  H   UNL     1      -5.451  17.960  13.215  1.00  0.00     0.293 HD
ENDBRANCH  10  23
BRANCH  11  25
ATOM     25  O   UNL     1     -10.669  19.903  13.634  1.00  0.00    -0.508 OA
ATOM     26  H   UNL     1     -11.250  20.539  13.113  1.00  0.00     0.293 HD
ENDBRANCH  11  25
ENDBRANCH   1   2
BRANCH   1  27
ATOM     27  C   UNL     1      -5.923  16.201   7.416  1.00  0.00     0.339 C 
ATOM     28  C   UNL     1      -4.467  15.692   7.200  1.00  0.00     0.214 C 
ATOM     29  O   UNL     1      -6.853  15.764   6.420  1.00  0.00    -0.332 OA
ATOM     30  C   UNL     1      -4.416  14.148   7.042  1.00  0.00     0.180 C 
ATOM     31  C   UNL     1      -6.617  14.477   5.856  1.00  0.00     0.179 C 
ATOM     32  C   UNL     1      -5.807  13.521   6.759  1.00  0.00     0.177 C 
BRANCH  28  33
ATOM     33  O   UNL     1      -3.865  16.348   6.114  1.00  0.00    -0.384 OA
ATOM     34  H   UNL     1      -3.637  17.280   6.384  1.00  0.00     0.211 HD
ENDBRANCH  28  33
BRANCH  30  35
ATOM     35  O   UNL     1      -3.855  13.601   8.205  1.00  0.00    -0.387 OA
ATOM     36  H   UNL     1      -4.562  13.589   8.889  1.00  0.00     0.211 HD
ENDBRANCH  30  35
BRANCH  31  37
ATOM     37  C   UNL     1      -7.963  13.856   5.448  1.00  0.00     0.191 C 
BRANCH  37  38
ATOM     38  O   UNL     1      -8.007  12.507   5.829  1.00  0.00    -0.394 OA
ATOM     39  H   UNL     1      -8.932  12.300   6.123  1.00  0.00     0.210 HD
ENDBRANCH  37  38
ENDBRANCH  31  37
BRANCH  32  40
ATOM     40  O   UNL     1      -6.523  13.270   7.952  1.00  0.00    -0.387 OA
ATOM     41  H   UNL     1      -7.500  13.300   7.738  1.00  0.00     0.211 HD
ENDBRANCH  32  40
ENDBRANCH   1  27
TORSDOF 12
ENDMDL
MODEL 5
REMARK VINA RESULT:    -6.830      3.013      6.433
REMARK INTER + INTRA:         -11.909
REMARK INTER:                  -9.991
REMARK INTRA:                  -1.918
REMARK UNBOUND:                -1.885
REMARK SMILES O=c1c(O[C@@H]2O[C@H](CO)[C@H](O)[C@H](O)[C@H]2O)c(-c2ccc(O)c(O)c2)oc2cc(O)cc(O)c12
REMARK SMILES IDX 4 1 3 2 16 3 25 4 2 5 26 6 1 7 33 8 27 9 31 10 28 11 30 12
REMARK SMILES IDX 17 13 18 14 19 15 20 16 24 17 22 18 21 19 23 21 32 23 29 25
REMARK SMILES IDX 5 27 14 28 6 29 12 30 7 31 10 32 15 33 13 35 8 37 9 38 11 40
REMARK H PARENT 21 20 23 22 32 24 29 26 15 34 13 36 9 39 11 41
REMARK Flexibility Score: inf
ROOT
ATOM      1  O   UNL     1      -6.976  17.267  11.505  1.00  0.00    -0.454 OA
ENDROOT
BRANCH   1   2
ATOM      2  C   UNL     1      -7.039  16.619  10.263  1.00  0.00     0.214 A 
ATOM      3  C   UNL     1      -8.242  16.645   9.484  1.00  0.00     0.180 A 
ATOM      4  O   UNL     1      -8.110  15.885   8.372  1.00  0.00    -0.452 OA
ATOM      5  C   UNL     1      -5.852  16.006   9.828  1.00  0.00     0.239 A 
ATOM      6  C   UNL     1      -7.032  15.261   7.926  1.00  0.00     0.146 A 
ATOM      7  O   UNL     1      -4.841  16.044  10.591  1.00  0.00    -0.285 OA
ATOM      8  C   UNL     1      -5.804  15.363   8.597  1.00  0.00     0.111 A 
ATOM      9  C   UNL     1      -7.145  14.488   6.774  1.00  0.00     0.094 A 
ATOM     10  C   UNL     1      -4.649  14.779   8.005  1.00  0.00     0.134 A 
ATOM     11  C   UNL     1      -6.039  13.821   6.251  1.00  0.00     0.123 A 
ATOM     12  C   UNL     1      -4.786  13.993   6.846  1.00  0.00     0.093 A 
BRANCH   3  13
ATOM     13  C   UNL     1      -9.504  16.675   8.671  1.00  0.00     0.025 A 
ATOM     14  C   UNL     1      -9.681  17.679   7.674  1.00  0.00     0.016 A 
ATOM     15  C   UNL     1     -10.809  17.649   6.847  1.00  0.00     0.051 A 
ATOM     16  C   UNL     1     -11.797  16.670   7.039  1.00  0.00     0.157 A 
ATOM     17  C   UNL     1     -10.633  15.857   9.002  1.00  0.00     0.062 A 
ATOM     18  C   UNL     1     -11.738  15.802   8.136  1.00  0.00     0.158 A 
BRANCH  16  19
ATOM     19  O   UNL     1     -12.820  16.569   6.111  1.00  0.00    -0.504 OA
ATOM     20  H   UNL     1     -12.667  16.622   5.111  1.00  0.00     0.293 HD
ENDBRANCH  16  19
BRANCH  18  21
ATOM     21  O   UNL     1     -12.713  14.827   8.324  1.00  0.00    -0.504 OA
ATOM     22  H   UNL     1     -12.722  14.255   9.160  1.00  0.00     0.293 HD
ENDBRANCH  18  21
ENDBRANCH   3  13
BRANCH  10  23
ATOM     23  O   UNL     1      -3.368  14.947   8.517  1.00  0.00    -0.507 OA
ATOM     24  H   UNL     1      -2.581  15.277   7.968  1.00  0.00     0.293 HD
ENDBRANCH  10  23
BRANCH  11  25
ATOM     25  O   UNL     1      -6.167  13.022   5.114  1.00  0.00    -0.508 OA
ATOM     26  H   UNL     1      -6.958  13.140   4.502  1.00  0.00     0.293 HD
ENDBRANCH  11  25
ENDBRANCH   1   2
BRANCH   1  27
ATOM     27  C   UNL     1      -8.092  17.501  12.386  1.00  0.00     0.339 C 
ATOM     28  C   UNL     1      -8.540  16.139  12.992  1.00  0.00     0.214 C 
ATOM     29  O   UNL     1      -7.761  18.497  13.358  1.00  0.00    -0.332 OA
ATOM     30  C   UNL     1      -7.498  15.591  14.006  1.00  0.00     0.180 C 
ATOM     31  C   UNL     1      -7.187  18.028  14.574  1.00  0.00     0.179 C 
ATOM     32  C   UNL     1      -6.472  16.663  14.460  1.00  0.00     0.177 C 
BRANCH  28  33
ATOM     33  O   UNL     1      -9.819  16.241  13.563  1.00  0.00    -0.384 OA
ATOM     34  H   UNL     1      -9.915  17.140  13.982  1.00  0.00     0.211 HD
ENDBRANCH  28  33
BRANCH  30  35
ATOM     35  O   UNL     1      -6.842  14.497  13.422  1.00  0.00    -0.387 OA
ATOM     36  H   UNL     1      -7.536  13.917  13.036  1.00  0.00     0.211 HD
ENDBRANCH  30  35
BRANCH  31  37
ATOM     37  C   UNL     1      -6.245  19.108  15.131  1.00  0.00     0.191 C 
BRANCH  37  38
ATOM     38  O   UNL     1      -5.468  19.651  14.099  1.00  0.00    -0.394 OA
ATOM     39  H   UNL     1      -5.956  19.521  13.245  1.00  0.00     0.210 HD
ENDBRANCH  37  38
ENDBRANCH  31  37
BRANCH  32  40
ATOM     40  O   UNL     1      -5.386  16.768  13.560  1.00  0.00    -0.387 OA
ATOM     41  H   UNL     1      -4.570  16.415  14.018  1.00  0.00     0.211 HD
ENDBRANCH  32  40
ENDBRANCH   1  27
TORSDOF 12
ENDMDL
MODEL 6
REMARK VINA RESULT:    -6.816      2.029      6.849
REMARK INTER + INTRA:         -11.889
REMARK INTER:                  -9.829
REMARK INTRA:                  -2.059
REMARK UNBOUND:                -1.885
REMARK SMILES O=c1c(O[C@@H]2O[C@H](CO)[C@H](O)[C@H](O)[C@H]2O)c(-c2ccc(O)c(O)c2)oc2cc(O)cc(O)c12
REMARK SMILES IDX 4 1 3 2 16 3 25 4 2 5 26 6 1 7 33 8 27 9 31 10 28 11 30 12
REMARK SMILES IDX 17 13 18 14 19 15 20 16 24 17 22 18 21 19 23 21 32 23 29 25
REMARK SMILES IDX 5 27 14 28 6 29 12 30 7 31 10 32 15 33 13 35 8 37 9 38 11 40
REMARK H PARENT 21 20 23 22 32 24 29 26 15 34 13 36 9 39 11 41
REMARK Flexibility Score: inf
ROOT
ATOM      1  O   UNL     1      -5.904  15.299   9.879  1.00  0.00    -0.454 OA
ENDROOT
BRANCH   1   2
ATOM      2  C   UNL     1      -6.991  15.318  10.766  1.00  0.00     0.214 A 
ATOM      3  C   UNL     1      -7.227  14.221  11.657  1.00  0.00     0.180 A 
ATOM      4  O   UNL     1      -8.372  14.408  12.355  1.00  0.00    -0.452 OA
ATOM      5  C   UNL     1      -7.775  16.483  10.752  1.00  0.00     0.239 A 
ATOM      6  C   UNL     1      -9.166  15.466  12.362  1.00  0.00     0.146 A 
ATOM      7  O   UNL     1      -7.479  17.398   9.927  1.00  0.00    -0.285 OA
ATOM      8  C   UNL     1      -8.857  16.612  11.614  1.00  0.00     0.111 A 
ATOM      9  C   UNL     1     -10.328  15.413  13.126  1.00  0.00     0.094 A 
ATOM     10  C   UNL     1      -9.676  17.766  11.760  1.00  0.00     0.134 A 
ATOM     11  C   UNL     1     -11.195  16.504  13.184  1.00  0.00     0.123 A 
ATOM     12  C   UNL     1     -10.852  17.690  12.529  1.00  0.00     0.093 A 
BRANCH   3  13
ATOM     13  C   UNL     1      -7.470  13.071  12.591  1.00  0.00     0.025 A 
ATOM     14  C   UNL     1      -6.837  13.047  13.869  1.00  0.00     0.016 A 
ATOM     15  C   UNL     1      -7.141  12.030  14.779  1.00  0.00     0.051 A 
ATOM     16  C   UNL     1      -8.018  10.996  14.413  1.00  0.00     0.157 A 
ATOM     17  C   UNL     1      -8.153  11.885  12.163  1.00  0.00     0.062 A 
ATOM     18  C   UNL     1      -8.492  10.894  13.100  1.00  0.00     0.158 A 
BRANCH  16  19
ATOM     19  O   UNL     1      -8.420  10.093  15.383  1.00  0.00    -0.504 OA
ATOM     20  H   UNL     1      -9.357   9.710  15.429  1.00  0.00     0.293 HD
ENDBRANCH  16  19
BRANCH  18  21
ATOM     21  O   UNL     1      -9.368   9.875  12.737  1.00  0.00    -0.504 OA
ATOM     22  H   UNL     1     -10.371  10.000  12.809  1.00  0.00     0.293 HD
ENDBRANCH  18  21
ENDBRANCH   3  13
BRANCH  10  23
ATOM     23  O   UNL     1      -9.371  18.990  11.175  1.00  0.00    -0.507 OA
ATOM     24  H   UNL     1      -9.472  19.881  11.650  1.00  0.00     0.293 HD
ENDBRANCH  10  23
BRANCH  11  25
ATOM     25  O   UNL     1     -12.374  16.432  13.926  1.00  0.00    -0.508 OA
ATOM     26  H   UNL     1     -12.571  17.128  14.626  1.00  0.00     0.293 HD
ENDBRANCH  11  25
ENDBRANCH   1   2
BRANCH   1  27
ATOM     27  C   UNL     1      -5.578  14.224   8.977  1.00  0.00     0.339 C 
ATOM     28  C   UNL     1      -6.657  14.172   7.855  1.00  0.00     0.214 C 
ATOM     29  O   UNL     1      -4.237  14.362   8.497  1.00  0.00    -0.332 OA
ATOM     30  C   UNL     1      -6.542  15.385   6.892  1.00  0.00     0.180 C 
ATOM     31  C   UNL     1      -4.068  15.118   7.302  1.00  0.00     0.179 C 
ATOM     32  C   UNL     1      -5.193  16.140   7.026  1.00  0.00     0.177 C 
BRANCH  28  33
ATOM     33  O   UNL     1      -6.603  12.950   7.164  1.00  0.00    -0.384 OA
ATOM     34  H   UNL     1      -7.301  12.950   6.453  1.00  0.00     0.211 HD
ENDBRANCH  28  33
BRANCH  30  35
ATOM     35  O   UNL     1      -7.618  16.250   7.135  1.00  0.00    -0.387 OA
ATOM     36  H   UNL     1      -8.169  16.263   6.321  1.00  0.00     0.211 HD
ENDBRANCH  30  35
BRANCH  31  37
ATOM     37  C   UNL     1      -2.690  15.797   7.331  1.00  0.00     0.191 C 
BRANCH  37  38
ATOM     38  O   UNL     1      -2.408  16.374   6.085  1.00  0.00    -0.394 OA
ATOM     39  H   UNL     1      -3.249  16.397   5.559  1.00  0.00     0.210 HD
ENDBRANCH  37  38
ENDBRANCH  31  37
BRANCH  32  40
ATOM     40  O   UNL     1      -5.229  17.101   8.063  1.00  0.00    -0.387 OA
ATOM     41  H   UNL     1      -4.615  16.794   8.791  1.00  0.00     0.211 HD
ENDBRANCH  32  40
ENDBRANCH   1  27
TORSDOF 12
ENDMDL
MODEL 7
REMARK VINA RESULT:    -6.809      2.786      7.354
REMARK INTER + INTRA:         -11.879
REMARK INTER:                 -10.306
REMARK INTRA:                  -1.573
REMARK UNBOUND:                -1.885
REMARK SMILES O=c1c(O[C@@H]2O[C@H](CO)[C@H](O)[C@H](O)[C@H]2O)c(-c2ccc(O)c(O)c2)oc2cc(O)cc(O)c12
REMARK SMILES IDX 4 1 3 2 16 3 25 4 2 5 26 6 1 7 33 8 27 9 31 10 28 11 30 12
REMARK SMILES IDX 17 13 18 14 19 15 20 16 24 17 22 18 21 19 23 21 32 23 29 25
REMARK SMILES IDX 5 27 14 28 6 29 12 30 7 31 10 32 15 33 13 35 8 37 9 38 11 40
REMARK H PARENT 21 20 23 22 32 24 29 26 15 34 13 36 9 39 11 41
REMARK Flexibility Score: inf
ROOT
ATOM      1  O   UNL     1      -5.653  15.623   9.970  1.00  0.00    -0.454 OA
ENDROOT
BRANCH   1   2
ATOM      2  C   UNL     1      -6.192  15.616  11.265  1.00  0.00     0.214 A 
ATOM      3  C   UNL     1      -6.804  14.434  11.797  1.00  0.00     0.180 A 
ATOM      4  O   UNL     1      -7.333  14.677  13.019  1.00  0.00    -0.452 OA
ATOM      5  C   UNL     1      -6.042  16.804  12.000  1.00  0.00     0.239 A 
ATOM      6  C   UNL     1      -7.252  15.779  13.746  1.00  0.00     0.146 A 
ATOM      7  O   UNL     1      -5.482  17.792  11.439  1.00  0.00    -0.285 OA
ATOM      8  C   UNL     1      -6.516  16.888  13.303  1.00  0.00     0.111 A 
ATOM      9  C   UNL     1      -7.925  15.818  14.963  1.00  0.00     0.094 A 
ATOM     10  C   UNL     1      -6.355  17.997  14.180  1.00  0.00     0.134 A 
ATOM     11  C   UNL     1      -7.863  16.947  15.778  1.00  0.00     0.123 A 
ATOM     12  C   UNL     1      -7.052  18.022  15.403  1.00  0.00     0.093 A 
BRANCH   3  13
ATOM     13  C   UNL     1      -7.443  13.194  12.351  1.00  0.00     0.025 A 
ATOM     14  C   UNL     1      -6.627  12.148  12.874  1.00  0.00     0.016 A 
ATOM     15  C   UNL     1      -7.222  11.038  13.482  1.00  0.00     0.051 A 
ATOM     16  C   UNL     1      -8.621  10.920  13.521  1.00  0.00     0.157 A 
ATOM     17  C   UNL     1      -8.842  12.928  12.183  1.00  0.00     0.062 A 
ATOM     18  C   UNL     1      -9.432  11.835  12.839  1.00  0.00     0.158 A 
BRANCH  16  19
ATOM     19  O   UNL     1      -9.180   9.893  14.263  1.00  0.00    -0.504 OA
ATOM     20  H   UNL     1      -9.074   9.815  15.268  1.00  0.00     0.293 HD
ENDBRANCH  16  19
BRANCH  18  21
ATOM     21  O   UNL     1     -10.819  11.725  12.882  1.00  0.00    -0.504 OA
ATOM     22  H   UNL     1     -11.335  11.968  13.719  1.00  0.00     0.293 HD
ENDBRANCH  18  21
ENDBRANCH   3  13
BRANCH  10  23
ATOM     23  O   UNL     1      -5.529  19.078  13.892  1.00  0.00    -0.507 OA
ATOM     24  H   UNL     1      -4.516  19.039  13.933  1.00  0.00     0.293 HD
ENDBRANCH  10  23
BRANCH  11  25
ATOM     25  O   UNL     1      -8.566  16.991  16.982  1.00  0.00    -0.508 OA
ATOM     26  H   UNL     1      -8.540  16.205  17.609  1.00  0.00     0.293 HD
ENDBRANCH  11  25
ENDBRANCH   1   2
BRANCH   1  27
ATOM     27  C   UNL     1      -5.389  14.457   9.167  1.00  0.00     0.339 C 
ATOM     28  C   UNL     1      -6.528  14.310   8.115  1.00  0.00     0.214 C 
ATOM     29  O   UNL     1      -4.075  14.523   8.605  1.00  0.00    -0.332 OA
ATOM     30  C   UNL     1      -6.452  15.418   7.028  1.00  0.00     0.180 C 
ATOM     31  C   UNL     1      -3.963  15.151   7.332  1.00  0.00     0.179 C 
ATOM     32  C   UNL     1      -5.089  16.160   7.013  1.00  0.00     0.177 C 
BRANCH  28  33
ATOM     33  O   UNL     1      -6.525  13.024   7.550  1.00  0.00    -0.384 OA
ATOM     34  H   UNL     1      -5.683  12.558   7.810  1.00  0.00     0.211 HD
ENDBRANCH  28  33
BRANCH  30  35
ATOM     35  O   UNL     1      -7.503  16.321   7.239  1.00  0.00    -0.387 OA
ATOM     36  H   UNL     1      -7.957  16.048   8.068  1.00  0.00     0.211 HD
ENDBRANCH  30  35
BRANCH  31  37
ATOM     37  C   UNL     1      -2.577  15.807   7.218  1.00  0.00     0.191 C 
BRANCH  37  38
ATOM     38  O   UNL     1      -2.639  16.926   6.376  1.00  0.00    -0.394 OA
ATOM     39  H   UNL     1      -1.813  17.459   6.509  1.00  0.00     0.210 HD
ENDBRANCH  37  38
ENDBRANCH  31  37
BRANCH  32  40
ATOM     40  O   UNL     1      -5.057  17.221   7.947  1.00  0.00    -0.387 OA
ATOM     41  H   UNL     1      -5.962  17.647   7.962  1.00  0.00     0.211 HD
ENDBRANCH  32  40
ENDBRANCH   1  27
TORSDOF 12
ENDMDL
MODEL 8
REMARK VINA RESULT:    -6.802      2.772      6.974
REMARK INTER + INTRA:         -11.869
REMARK INTER:                  -9.630
REMARK INTRA:                  -2.239
REMARK UNBOUND:                -1.885
REMARK SMILES O=c1c(O[C@@H]2O[C@H](CO)[C@H](O)[C@H](O)[C@H]2O)c(-c2ccc(O)c(O)c2)oc2cc(O)cc(O)c12
REMARK SMILES IDX 4 1 3 2 16 3 25 4 2 5 26 6 1 7 33 8 27 9 31 10 28 11 30 12
REMARK SMILES IDX 17 13 18 14 19 15 20 16 24 17 22 18 21 19 23 21 32 23 29 25
REMARK SMILES IDX 5 27 14 28 6 29 12 30 7 31 10 32 15 33 13 35 8 37 9 38 11 40
REMARK H PARENT 21 20 23 22 32 24 29 26 15 34 13 36 9 39 11 41
REMARK Flexibility Score: inf
ROOT
ATOM      1  O   UNL     1     -10.961  16.503  11.896  1.00  0.00    -0.454 OA
ENDROOT
BRANCH   1   2
ATOM      2  C   UNL     1      -9.779  15.837  11.540  1.00  0.00     0.214 A 
ATOM      3  C   UNL     1      -9.298  14.734  12.317  1.00  0.00     0.180 A 
ATOM      4  O   UNL     1      -8.103  14.303  11.849  1.00  0.00    -0.452 OA
ATOM      5  C   UNL     1      -9.151  16.287  10.366  1.00  0.00     0.239 A 
ATOM      6  C   UNL     1      -7.449  14.705  10.771  1.00  0.00     0.146 A 
ATOM      7  O   UNL     1      -9.660  17.268   9.749  1.00  0.00    -0.285 OA
ATOM      8  C   UNL     1      -7.989  15.673   9.912  1.00  0.00     0.111 A 
ATOM      9  C   UNL     1      -6.199  14.149  10.512  1.00  0.00     0.094 A 
ATOM     10  C   UNL     1      -7.305  15.973   8.702  1.00  0.00     0.134 A 
ATOM     11  C   UNL     1      -5.472  14.523   9.384  1.00  0.00     0.123 A 
ATOM     12  C   UNL     1      -6.038  15.409   8.463  1.00  0.00     0.093 A 
BRANCH   3  13
ATOM     13  C   UNL     1      -8.797  13.577  13.133  1.00  0.00     0.025 A 
ATOM     14  C   UNL     1      -9.450  12.312  13.046  1.00  0.00     0.016 A 
ATOM     15  C   UNL     1      -8.925  11.209  13.727  1.00  0.00     0.051 A 
ATOM     16  C   UNL     1      -7.794  11.359  14.546  1.00  0.00     0.157 A 
ATOM     17  C   UNL     1      -7.812  13.751  14.160  1.00  0.00     0.062 A 
ATOM     18  C   UNL     1      -7.261  12.629  14.801  1.00  0.00     0.158 A 
BRANCH  16  19
ATOM     19  O   UNL     1      -7.207  10.224  15.081  1.00  0.00    -0.504 OA
ATOM     20  H   UNL     1      -6.593  10.246  15.887  1.00  0.00     0.293 HD
ENDBRANCH  16  19
BRANCH  18  21
ATOM     21  O   UNL     1      -6.137  12.779  15.607  1.00  0.00    -0.504 OA
ATOM     22  H   UNL     1      -5.307  12.218  15.452  1.00  0.00     0.293 HD
ENDBRANCH  18  21
ENDBRANCH   3  13
BRANCH  10  23
ATOM     23  O   UNL     1      -7.829  16.808   7.722  1.00  0.00    -0.507 OA
ATOM     24  H   UNL     1      -7.903  17.815   7.821  1.00  0.00     0.293 HD
ENDBRANCH  10  23
BRANCH  11  25
ATOM     25  O   UNL     1      -4.206  13.986   9.147  1.00  0.00    -0.508 OA
ATOM     26  H   UNL     1      -4.069  12.989   9.179  1.00  0.00     0.293 HD
ENDBRANCH  11  25
ENDBRANCH   1   2
BRANCH   1  27
ATOM     27  C   UNL     1     -11.227  17.110  13.175  1.00  0.00     0.339 C 
ATOM     28  C   UNL     1     -10.302  18.353  13.337  1.00  0.00     0.214 C 
ATOM     29  O   UNL     1     -12.623  17.394  13.313  1.00  0.00    -0.332 OA
ATOM     30  C   UNL     1     -10.722  19.509  12.389  1.00  0.00     0.180 C 
ATOM     31  C   UNL     1     -13.054  18.676  12.865  1.00  0.00     0.179 C 
ATOM     32  C   UNL     1     -12.144  19.321  11.796  1.00  0.00     0.177 C 
BRANCH  28  33
ATOM     33  O   UNL     1     -10.253  18.769  14.677  1.00  0.00    -0.384 OA
ATOM     34  H   UNL     1     -11.180  18.955  14.992  1.00  0.00     0.211 HD
ENDBRANCH  28  33
BRANCH  30  35
ATOM     35  O   UNL     1      -9.771  19.612  11.365  1.00  0.00    -0.387 OA
ATOM     36  H   UNL     1      -9.989  18.925  10.696  1.00  0.00     0.211 HD
ENDBRANCH  30  35
BRANCH  31  37
ATOM     37  C   UNL     1     -14.507  18.570  12.373  1.00  0.00     0.191 C 
BRANCH  37  38
ATOM     38  O   UNL     1     -14.732  17.311  11.798  1.00  0.00    -0.394 OA
ATOM     39  H   UNL     1     -13.987  17.120  11.172  1.00  0.00     0.210 HD
ENDBRANCH  37  38
ENDBRANCH  31  37
BRANCH  32  40
ATOM     40  O   UNL     1     -12.128  18.515  10.635  1.00  0.00    -0.387 OA
ATOM     41  H   UNL     1     -12.608  17.662  10.843  1.00  0.00     0.211 HD
ENDBRANCH  32  40
ENDBRANCH   1  27
TORSDOF 12
ENDMDL
MODEL 9
REMARK VINA RESULT:    -6.750      2.922      4.100
REMARK INTER + INTRA:         -11.793
REMARK INTER:                  -9.586
REMARK INTRA:                  -2.207
REMARK UNBOUND:                -1.885
REMARK SMILES O=c1c(O[C@@H]2O[C@H](CO)[C@H](O)[C@H](O)[C@H]2O)c(-c2ccc(O)c(O)c2)oc2cc(O)cc(O)c12
REMARK SMILES IDX 4 1 3 2 16 3 25 4 2 5 26 6 1 7 33 8 27 9 31 10 28 11 30 12
REMARK SMILES IDX 17 13 18 14 19 15 20 16 24 17 22 18 21 19 23 21 32 23 29 25
REMARK SMILES IDX 5 27 14 28 6 29 12 30 7 31 10 32 15 33 13 35 8 37 9 38 11 40
REMARK H PARENT 21 20 23 22 32 24 29 26 15 34 13 36 9 39 11 41
REMARK Flexibility Score: inf
ROOT
ATOM      1  O   UNL     1      -7.670  14.586  12.274  1.00  0.00    -0.454 OA
ENDROOT
BRANCH   1   2
ATOM      2  C   UNL     1      -6.637  15.534  12.239  1.00  0.00     0.214 A 
ATOM      3  C   UNL     1      -5.847  15.712  11.056  1.00  0.00     0.180 A 
ATOM      4  O   UNL     1      -4.856  16.608  11.272  1.00  0.00    -0.452 OA
ATOM      5  C   UNL     1      -6.475  16.311  13.398  1.00  0.00     0.239 A 
ATOM      6  C   UNL     1      -4.635  17.346  12.347  1.00  0.00     0.146 A 
ATOM      7  O   UNL     1      -7.229  16.077  14.389  1.00  0.00    -0.285 OA
ATOM      8  C   UNL     1      -5.499  17.298  13.452  1.00  0.00     0.111 A 
ATOM      9  C   UNL     1      -3.513  18.170  12.364  1.00  0.00     0.094 A 
ATOM     10  C   UNL     1      -5.287  18.205  14.527  1.00  0.00     0.134 A 
ATOM     11  C   UNL     1      -3.238  18.980  13.464  1.00  0.00     0.123 A 
ATOM     12  C   UNL     1      -4.142  19.023  14.529  1.00  0.00     0.093 A 
BRANCH   3  13
ATOM     13  C   UNL     1      -5.023  15.897   9.815  1.00  0.00     0.025 A 
ATOM     14  C   UNL     1      -5.596  16.522   8.668  1.00  0.00     0.016 A 
ATOM     15  C   UNL     1      -4.802  16.786   7.548  1.00  0.00     0.051 A 
ATOM     16  C   UNL     1      -3.458  16.379   7.525  1.00  0.00     0.157 A 
ATOM     17  C   UNL     1      -3.739  15.277   9.665  1.00  0.00     0.062 A 
ATOM     18  C   UNL     1      -2.934  15.589   8.556  1.00  0.00     0.158 A 
BRANCH  16  19
ATOM     19  O   UNL     1      -2.658  16.790   6.472  1.00  0.00    -0.504 OA
ATOM     20  H   UNL     1      -1.672  17.000   6.575  1.00  0.00     0.293 HD
ENDBRANCH  16  19
BRANCH  18  21
ATOM     21  O   UNL     1      -1.601  15.190   8.539  1.00  0.00    -0.504 OA
ATOM     22  H   UNL     1      -1.227  14.660   7.761  1.00  0.00     0.293 HD
ENDBRANCH  18  21
ENDBRANCH   3  13
BRANCH  10  23
ATOM     23  O   UNL     1      -6.167  18.334  15.595  1.00  0.00    -0.507 OA
ATOM     24  H   UNL     1      -5.925  18.778  16.474  1.00  0.00     0.293 HD
ENDBRANCH  10  23
BRANCH  11  25
ATOM     25  O   UNL     1      -2.095  19.779  13.486  1.00  0.00    -0.508 OA
ATOM     26  H   UNL     1      -1.381  19.617  14.177  1.00  0.00     0.293 HD
ENDBRANCH  11  25
ENDBRANCH   1   2
BRANCH   1  27
ATOM     27  C   UNL     1      -7.540  13.192  11.935  1.00  0.00     0.339 C 
ATOM     28  C   UNL     1      -6.610  12.511  12.981  1.00  0.00     0.214 C 
ATOM     29  O   UNL     1      -8.829  12.585  11.810  1.00  0.00    -0.332 OA
ATOM     30  C   UNL     1      -7.297  12.394  14.370  1.00  0.00     0.180 C 
ATOM     31  C   UNL     1      -9.377  12.015  12.995  1.00  0.00     0.179 C 
ATOM     32  C   UNL     1      -8.831  12.620  14.308  1.00  0.00     0.177 C 
BRANCH  28  33
ATOM     33  O   UNL     1      -6.160  11.265  12.515  1.00  0.00    -0.384 OA
ATOM     34  H   UNL     1      -6.021  10.659  13.294  1.00  0.00     0.211 HD
ENDBRANCH  28  33
BRANCH  30  35
ATOM     35  O   UNL     1      -6.698  13.314  15.241  1.00  0.00    -0.387 OA
ATOM     36  H   UNL     1      -6.793  14.203  14.833  1.00  0.00     0.211 HD
ENDBRANCH  30  35
BRANCH  31  37
ATOM     37  C   UNL     1     -10.910  12.108  12.931  1.00  0.00     0.191 C 
BRANCH  37  38
ATOM     38  O   UNL     1     -11.296  13.236  12.194  1.00  0.00    -0.394 OA
ATOM     39  H   UNL     1     -10.485  13.776  12.009  1.00  0.00     0.210 HD
ENDBRANCH  37  38
ENDBRANCH  31  37
BRANCH  32  40
ATOM     40  O   UNL     1      -9.164  13.992  14.375  1.00  0.00    -0.387 OA
ATOM     41  H   UNL     1      -8.942  14.320  15.294  1.00  0.00     0.211 HD
ENDBRANCH  32  40
ENDBRANCH   1  27
TORSDOF 12
ENDMDL
