MODEL 1
REMARK VINA RESULT:    -4.051      0.000      0.000
REMARK INTER + INTRA:          -5.080
REMARK INTER:                  -4.762
REMARK INTRA:                  -0.318
REMARK UNBOUND:                -0.318
REMARK SMILES O=c1cc(-c2ccc(O)c(O)c2)oc2cc(O)cc(O)c12
REMARK SMILES IDX 4 1 3 2 2 3 1 4 21 5 19 6 18 7 16 8 15 9 14 10 13 11 5 12
REMARK SMILES IDX 6 13 7 14 8 15 12 16 10 17 9 18 11 20 20 22 17 24
REMARK H PARENT 9 19 11 21 20 23 17 25
REMARK Flexibility Score: inf
ROOT
ATOM      1  C   UNL     1       7.631  -1.236  -2.527  1.00  0.00     0.138 A 
ATOM      2  C   UNL     1       6.981  -1.713  -3.673  1.00  0.00     0.100 A 
ATOM      3  C   UNL     1       6.997  -3.079  -3.959  1.00  0.00     0.197 A 
ATOM      4  O   UNL     1       6.458  -3.468  -5.026  1.00  0.00    -0.289 OA
ATOM      5  C   UNL     1       7.643  -3.974  -3.074  1.00  0.00     0.107 A 
ATOM      6  C   UNL     1       7.689  -5.391  -3.242  1.00  0.00     0.134 A 
ATOM      7  C   UNL     1       8.457  -6.165  -2.364  1.00  0.00     0.093 A 
ATOM      8  C   UNL     1       9.131  -5.581  -1.289  1.00  0.00     0.123 A 
ATOM      9  C   UNL     1       9.048  -4.205  -1.085  1.00  0.00     0.094 A 
ATOM     10  C   UNL     1       8.319  -3.402  -1.963  1.00  0.00     0.146 A 
ATOM     11  O   UNL     1       8.277  -2.092  -1.742  1.00  0.00    -0.456 OA
ENDROOT
BRANCH   1  12
ATOM     12  C   UNL     1       7.644   0.206  -2.174  1.00  0.00     0.021 A 
ATOM     13  C   UNL     1       6.919   1.156  -2.919  1.00  0.00     0.016 A 
ATOM     14  C   UNL     1       6.941   2.506  -2.559  1.00  0.00     0.051 A 
ATOM     15  C   UNL     1       7.679   2.930  -1.447  1.00  0.00     0.157 A 
ATOM     16  C   UNL     1       8.373   0.639  -1.051  1.00  0.00     0.062 A 
ATOM     17  C   UNL     1       8.396   1.990  -0.689  1.00  0.00     0.158 A 
BRANCH  15  18
ATOM     18  O   UNL     1       7.700   4.278  -1.092  1.00  0.00    -0.504 OA
ATOM     19  H   UNL     1       8.558   4.816  -1.102  1.00  0.00     0.293 HD
ENDBRANCH  15  18
BRANCH  17  20
ATOM     20  O   UNL     1       9.138   2.380   0.425  1.00  0.00    -0.504 OA
ATOM     21  H   UNL     1       9.555   3.300   0.500  1.00  0.00     0.293 HD
ENDBRANCH  17  20
ENDBRANCH   1  12
BRANCH   6  22
ATOM     22  O   UNL     1       6.985  -6.082  -4.231  1.00  0.00    -0.507 OA
ATOM     23  H   UNL     1       7.405  -6.671  -4.934  1.00  0.00     0.293 HD
ENDBRANCH   6  22
BRANCH   8  24
ATOM     24  O   UNL     1       9.881  -6.361  -0.411  1.00  0.00    -0.508 OA
ATOM     25  H   UNL     1      10.200  -7.288  -0.667  1.00  0.00     0.293 HD
ENDBRANCH   8  24
TORSDOF 5
ENDMDL
MODEL 2
REMARK VINA RESULT:    -4.001      1.208      1.465
REMARK INTER + INTRA:          -5.021
REMARK INTER:                  -4.704
REMARK INTRA:                  -0.317
REMARK UNBOUND:                -0.318
REMARK SMILES O=c1cc(-c2ccc(O)c(O)c2)oc2cc(O)cc(O)c12
REMARK SMILES IDX 4 1 3 2 2 3 1 4 21 5 19 6 18 7 16 8 15 9 14 10 13 11 5 12
REMARK SMILES IDX 6 13 7 14 8 15 12 16 10 17 9 18 11 20 20 22 17 24
REMARK H PARENT 9 19 11 21 20 23 17 25
REMARK Flexibility Score: inf
ROOT
ATOM      1  C   UNL     1       7.715  -1.698  -2.500  1.00  0.00     0.138 A 
ATOM      2  C   UNL     1       7.341  -2.619  -3.488  1.00  0.00     0.100 A 
ATOM      3  C   UNL     1       7.664  -3.967  -3.332  1.00  0.00     0.197 A 
ATOM      4  O   UNL     1       7.370  -4.759  -4.263  1.00  0.00    -0.289 OA
ATOM      5  C   UNL     1       8.339  -4.398  -2.165  1.00  0.00     0.107 A 
ATOM      6  C   UNL     1       8.683  -5.753  -1.880  1.00  0.00     0.134 A 
ATOM      7  C   UNL     1       9.454  -6.045  -0.747  1.00  0.00     0.093 A 
ATOM      8  C   UNL     1       9.840  -5.038   0.141  1.00  0.00     0.123 A 
ATOM      9  C   UNL     1       9.462  -3.720  -0.101  1.00  0.00     0.094 A 
ATOM     10  C   UNL     1       8.723  -3.392  -1.239  1.00  0.00     0.146 A 
ATOM     11  O   UNL     1       8.396  -2.119  -1.440  1.00  0.00    -0.456 OA
ENDROOT
BRANCH   1  12
ATOM     12  C   UNL     1       7.395  -0.251  -2.614  1.00  0.00     0.021 A 
ATOM     13  C   UNL     1       6.539   0.240  -3.619  1.00  0.00     0.016 A 
ATOM     14  C   UNL     1       6.248   1.604  -3.697  1.00  0.00     0.051 A 
ATOM     15  C   UNL     1       6.798   2.499  -2.772  1.00  0.00     0.157 A 
ATOM     16  C   UNL     1       7.934   0.654  -1.682  1.00  0.00     0.062 A 
ATOM     17  C   UNL     1       7.644   2.020  -1.758  1.00  0.00     0.158 A 
BRANCH  15  18
ATOM     18  O   UNL     1       6.506   3.860  -2.854  1.00  0.00    -0.504 OA
ATOM     19  H   UNL     1       7.205   4.565  -2.651  1.00  0.00     0.293 HD
ENDBRANCH  15  18
BRANCH  17  20
ATOM     20  O   UNL     1       8.205   2.885  -0.820  1.00  0.00    -0.504 OA
ATOM     21  H   UNL     1       8.363   2.609   0.142  1.00  0.00     0.293 HD
ENDBRANCH  17  20
ENDBRANCH   1  12
BRANCH   6  22
ATOM     22  O   UNL     1       8.277  -6.842  -2.655  1.00  0.00    -0.507 OA
ATOM     23  H   UNL     1       7.354  -7.248  -2.641  1.00  0.00     0.293 HD
ENDBRANCH   6  22
BRANCH   8  24
ATOM     24  O   UNL     1      10.594  -5.340   1.274  1.00  0.00    -0.508 OA
ATOM     25  H   UNL     1      10.234  -5.943   2.004  1.00  0.00     0.293 HD
ENDBRANCH   8  24
TORSDOF 5
ENDMDL
MODEL 3
REMARK VINA RESULT:    -3.970      1.152      2.719
REMARK INTER + INTRA:          -4.984
REMARK INTER:                  -4.689
REMARK INTRA:                  -0.295
REMARK UNBOUND:                -0.318
REMARK SMILES O=c1cc(-c2ccc(O)c(O)c2)oc2cc(O)cc(O)c12
REMARK SMILES IDX 4 1 3 2 2 3 1 4 21 5 19 6 18 7 16 8 15 9 14 10 13 11 5 12
REMARK SMILES IDX 6 13 7 14 8 15 12 16 10 17 9 18 11 20 20 22 17 24
REMARK H PARENT 9 19 11 21 20 23 17 25
REMARK Flexibility Score: inf
ROOT
ATOM      1  C   UNL     1       7.981  -1.369  -2.027  1.00  0.00     0.138 A 
ATOM      2  C   UNL     1       8.820  -1.698  -0.954  1.00  0.00     0.100 A 
ATOM      3  C   UNL     1       9.181  -3.029  -0.743  1.00  0.00     0.197 A 
ATOM      4  O   UNL     1       9.884  -3.300   0.264  1.00  0.00    -0.289 OA
ATOM      5  C   UNL     1       8.722  -4.031  -1.629  1.00  0.00     0.107 A 
ATOM      6  C   UNL     1       9.058  -5.415  -1.535  1.00  0.00     0.134 A 
ATOM      7  C   UNL     1       8.450  -6.333  -2.402  1.00  0.00     0.093 A 
ATOM      8  C   UNL     1       7.566  -5.909  -3.396  1.00  0.00     0.123 A 
ATOM      9  C   UNL     1       7.273  -4.554  -3.531  1.00  0.00     0.094 A 
ATOM     10  C   UNL     1       7.836  -3.618  -2.660  1.00  0.00     0.146 A 
ATOM     11  O   UNL     1       7.519  -2.336  -2.813  1.00  0.00    -0.456 OA
ENDROOT
BRANCH   1  12
ATOM     12  C   UNL     1       7.567   0.031  -2.300  1.00  0.00     0.021 A 
ATOM     13  C   UNL     1       6.696   0.352  -3.359  1.00  0.00     0.016 A 
ATOM     14  C   UNL     1       6.316   1.676  -3.588  1.00  0.00     0.051 A 
ATOM     15  C   UNL     1       6.790   2.702  -2.760  1.00  0.00     0.157 A 
ATOM     16  C   UNL     1       8.029   1.066  -1.466  1.00  0.00     0.062 A 
ATOM     17  C   UNL     1       7.649   2.393  -1.693  1.00  0.00     0.158 A 
BRANCH  15  18
ATOM     18  O   UNL     1       6.409   4.023  -2.992  1.00  0.00    -0.504 OA
ATOM     19  H   UNL     1       6.819   4.569  -3.740  1.00  0.00     0.293 HD
ENDBRANCH  15  18
BRANCH  17  20
ATOM     20  O   UNL     1       8.137   3.390  -0.849  1.00  0.00    -0.504 OA
ATOM     21  H   UNL     1       9.038   3.828  -0.997  1.00  0.00     0.293 HD
ENDBRANCH  17  20
ENDBRANCH   1  12
BRANCH   6  22
ATOM     22  O   UNL     1       9.992  -5.932  -0.635  1.00  0.00    -0.507 OA
ATOM     23  H   UNL     1       9.805  -6.660   0.038  1.00  0.00     0.293 HD
ENDBRANCH   6  22
BRANCH   8  24
ATOM     24  O   UNL     1       6.978  -6.828  -4.264  1.00  0.00    -0.508 OA
ATOM     25  H   UNL     1       7.441  -7.123  -5.116  1.00  0.00     0.293 HD
ENDBRANCH   8  24
TORSDOF 5
ENDMDL
MODEL 4
REMARK VINA RESULT:    -3.964      1.434      6.642
REMARK INTER + INTRA:          -4.977
REMARK INTER:                  -4.660
REMARK INTRA:                  -0.318
REMARK UNBOUND:                -0.318
REMARK SMILES O=c1cc(-c2ccc(O)c(O)c2)oc2cc(O)cc(O)c12
REMARK SMILES IDX 4 1 3 2 2 3 1 4 21 5 19 6 18 7 16 8 15 9 14 10 13 11 5 12
REMARK SMILES IDX 6 13 7 14 8 15 12 16 10 17 9 18 11 20 20 22 17 24
REMARK H PARENT 9 19 11 21 20 23 17 25
REMARK Flexibility Score: inf
ROOT
ATOM      1  C   UNL     1       7.689  -1.826  -2.495  1.00  0.00     0.138 A 
ATOM      2  C   UNL     1       6.861  -1.589  -3.600  1.00  0.00     0.100 A 
ATOM      3  C   UNL     1       6.461  -0.285  -3.896  1.00  0.00     0.197 A 
ATOM      4  O   UNL     1       5.668  -0.111  -4.857  1.00  0.00    -0.289 OA
ATOM      5  C   UNL     1       6.918   0.789  -3.097  1.00  0.00     0.107 A 
ATOM      6  C   UNL     1       6.608   2.163  -3.327  1.00  0.00     0.134 A 
ATOM      7  C   UNL     1       7.022   3.128  -2.401  1.00  0.00     0.093 A 
ATOM      8  C   UNL     1       7.786   2.777  -1.286  1.00  0.00     0.123 A 
ATOM      9  C   UNL     1       8.140   1.445  -1.081  1.00  0.00     0.094 A 
ATOM     10  C   UNL     1       7.713   0.454  -1.968  1.00  0.00     0.146 A 
ATOM     11  O   UNL     1       8.060  -0.806  -1.728  1.00  0.00    -0.456 OA
ENDROOT
BRANCH   1  12
ATOM     12  C   UNL     1       8.147  -3.193  -2.136  1.00  0.00     0.021 A 
ATOM     13  C   UNL     1       7.875  -4.303  -2.958  1.00  0.00     0.016 A 
ATOM     14  C   UNL     1       8.325  -5.577  -2.600  1.00  0.00     0.051 A 
ATOM     15  C   UNL     1       9.061  -5.763  -1.424  1.00  0.00     0.157 A 
ATOM     16  C   UNL     1       8.897  -3.387  -0.962  1.00  0.00     0.062 A 
ATOM     17  C   UNL     1       9.349  -4.661  -0.602  1.00  0.00     0.158 A 
BRANCH  15  18
ATOM     18  O   UNL     1       9.508  -7.035  -1.069  1.00  0.00    -0.504 OA
ATOM     19  H   UNL     1       9.063  -7.567  -0.331  1.00  0.00     0.293 HD
ENDBRANCH  15  18
BRANCH  17  20
ATOM     20  O   UNL     1      10.081  -4.812   0.575  1.00  0.00    -0.504 OA
ATOM     21  H   UNL     1      10.551  -4.033   1.021  1.00  0.00     0.293 HD
ENDBRANCH  17  20
ENDBRANCH   1  12
BRANCH   6  22
ATOM     22  O   UNL     1       5.924   2.630  -4.452  1.00  0.00    -0.507 OA
ATOM     23  H   UNL     1       4.972   2.965  -4.451  1.00  0.00     0.293 HD
ENDBRANCH   6  22
BRANCH   8  24
ATOM     24  O   UNL     1       8.207   3.746  -0.378  1.00  0.00    -0.508 OA
ATOM     25  H   UNL     1       7.555   4.206   0.247  1.00  0.00     0.293 HD
ENDBRANCH   8  24
TORSDOF 5
ENDMDL
MODEL 5
REMARK VINA RESULT:    -3.955      1.640      2.318
REMARK INTER + INTRA:          -4.966
REMARK INTER:                  -4.672
REMARK INTRA:                  -0.294
REMARK UNBOUND:                -0.318
REMARK SMILES O=c1cc(-c2ccc(O)c(O)c2)oc2cc(O)cc(O)c12
REMARK SMILES IDX 4 1 3 2 2 3 1 4 21 5 19 6 18 7 16 8 15 9 14 10 13 11 5 12
REMARK SMILES IDX 6 13 7 14 8 15 12 16 10 17 9 18 11 20 20 22 17 24
REMARK H PARENT 9 19 11 21 20 23 17 25
REMARK Flexibility Score: inf
ROOT
ATOM      1  C   UNL     1       7.637  -1.920  -2.654  1.00  0.00     0.138 A 
ATOM      2  C   UNL     1       7.253  -2.846  -3.633  1.00  0.00     0.100 A 
ATOM      3  C   UNL     1       7.583  -4.193  -3.477  1.00  0.00     0.197 A 
ATOM      4  O   UNL     1       7.279  -4.989  -4.401  1.00  0.00    -0.289 OA
ATOM      5  C   UNL     1       8.275  -4.617  -2.318  1.00  0.00     0.107 A 
ATOM      6  C   UNL     1       8.629  -5.970  -2.033  1.00  0.00     0.134 A 
ATOM      7  C   UNL     1       9.417  -6.255  -0.910  1.00  0.00     0.093 A 
ATOM      8  C   UNL     1       9.811  -5.244  -0.031  1.00  0.00     0.123 A 
ATOM      9  C   UNL     1       9.425  -3.928  -0.272  1.00  0.00     0.094 A 
ATOM     10  C   UNL     1       8.669  -3.606  -1.401  1.00  0.00     0.146 A 
ATOM     11  O   UNL     1       8.334  -2.335  -1.602  1.00  0.00    -0.456 OA
ENDROOT
BRANCH   1  12
ATOM     12  C   UNL     1       7.310  -0.475  -2.768  1.00  0.00     0.021 A 
ATOM     13  C   UNL     1       7.843   0.476  -1.877  1.00  0.00     0.016 A 
ATOM     14  C   UNL     1       7.527   1.830  -2.013  1.00  0.00     0.051 A 
ATOM     15  C   UNL     1       6.681   2.259  -3.043  1.00  0.00     0.157 A 
ATOM     16  C   UNL     1       6.471  -0.034  -3.808  1.00  0.00     0.062 A 
ATOM     17  C   UNL     1       6.152   1.321  -3.946  1.00  0.00     0.158 A 
BRANCH  15  18
ATOM     18  O   UNL     1       6.366   3.611  -3.176  1.00  0.00    -0.504 OA
ATOM     19  H   UNL     1       6.582   4.279  -2.446  1.00  0.00     0.293 HD
ENDBRANCH  15  18
BRANCH  17  20
ATOM     20  O   UNL     1       5.309   1.716  -4.984  1.00  0.00    -0.504 OA
ATOM     21  H   UNL     1       4.395   1.301  -5.123  1.00  0.00     0.293 HD
ENDBRANCH  17  20
ENDBRANCH   1  12
BRANCH   6  22
ATOM     22  O   UNL     1       8.216  -7.063  -2.799  1.00  0.00    -0.507 OA
ATOM     23  H   UNL     1       7.367  -7.099  -3.343  1.00  0.00     0.293 HD
ENDBRANCH   6  22
BRANCH   8  24
ATOM     24  O   UNL     1      10.581  -5.539   1.092  1.00  0.00    -0.508 OA
ATOM     25  H   UNL     1      11.398  -4.990   1.333  1.00  0.00     0.293 HD
ENDBRANCH   8  24
TORSDOF 5
ENDMDL
MODEL 6
REMARK VINA RESULT:    -3.940      8.319     10.028
REMARK INTER + INTRA:          -4.948
REMARK INTER:                  -4.632
REMARK INTRA:                  -0.316
REMARK UNBOUND:                -0.318
REMARK SMILES O=c1cc(-c2ccc(O)c(O)c2)oc2cc(O)cc(O)c12
REMARK SMILES IDX 4 1 3 2 2 3 1 4 21 5 19 6 18 7 16 8 15 9 14 10 13 11 5 12
REMARK SMILES IDX 6 13 7 14 8 15 12 16 10 17 9 18 11 20 20 22 17 24
REMARK H PARENT 9 19 11 21 20 23 17 25
REMARK Flexibility Score: inf
ROOT
ATOM      1  C   UNL     1       0.764   3.266  -1.283  1.00  0.00     0.138 A 
ATOM      2  C   UNL     1      -0.033   2.466  -2.112  1.00  0.00     0.100 A 
ATOM      3  C   UNL     1      -1.201   1.895  -1.605  1.00  0.00     0.197 A 
ATOM      4  O   UNL     1      -1.862   1.131  -2.354  1.00  0.00    -0.289 OA
ATOM      5  C   UNL     1      -1.586   2.153  -0.268  1.00  0.00     0.107 A 
ATOM      6  C   UNL     1      -2.777   1.657   0.344  1.00  0.00     0.134 A 
ATOM      7  C   UNL     1      -2.996   1.883   1.709  1.00  0.00     0.093 A 
ATOM      8  C   UNL     1      -2.098   2.636   2.468  1.00  0.00     0.123 A 
ATOM      9  C   UNL     1      -0.960   3.170   1.867  1.00  0.00     0.094 A 
ATOM     10  C   UNL     1      -0.696   2.934   0.516  1.00  0.00     0.146 A 
ATOM     11  O   UNL     1       0.408   3.448  -0.015  1.00  0.00    -0.456 OA
ENDROOT
BRANCH   1  12
ATOM     12  C   UNL     1       2.016   3.900  -1.771  1.00  0.00     0.021 A 
ATOM     13  C   UNL     1       2.576   3.566  -3.019  1.00  0.00     0.016 A 
ATOM     14  C   UNL     1       3.749   4.185  -3.457  1.00  0.00     0.051 A 
ATOM     15  C   UNL     1       4.379   5.151  -2.664  1.00  0.00     0.157 A 
ATOM     16  C   UNL     1       2.648   4.882  -0.986  1.00  0.00     0.062 A 
ATOM     17  C   UNL     1       3.823   5.502  -1.423  1.00  0.00     0.158 A 
BRANCH  15  18
ATOM     18  O   UNL     1       5.550   5.766  -3.105  1.00  0.00    -0.504 OA
ATOM     19  H   UNL     1       5.742   6.741  -2.912  1.00  0.00     0.293 HD
ENDBRANCH  15  18
BRANCH  17  20
ATOM     20  O   UNL     1       4.424   6.463  -0.611  1.00  0.00    -0.504 OA
ATOM     21  H   UNL     1       3.984   6.805   0.236  1.00  0.00     0.293 HD
ENDBRANCH  17  20
ENDBRANCH   1  12
BRANCH   6  22
ATOM     22  O   UNL     1      -3.778   0.966  -0.342  1.00  0.00    -0.507 OA
ATOM     23  H   UNL     1      -4.760   0.991  -0.111  1.00  0.00     0.293 HD
ENDBRANCH   6  22
BRANCH   8  24
ATOM     24  O   UNL     1      -2.331   2.869   3.822  1.00  0.00    -0.508 OA
ATOM     25  H   UNL     1      -2.561   3.793   4.169  1.00  0.00     0.293 HD
ENDBRANCH   8  24
TORSDOF 5
ENDMDL
MODEL 7
REMARK VINA RESULT:    -3.926      1.370      6.828
REMARK INTER + INTRA:          -4.932
REMARK INTER:                  -4.614
REMARK INTRA:                  -0.318
REMARK UNBOUND:                -0.318
REMARK SMILES O=c1cc(-c2ccc(O)c(O)c2)oc2cc(O)cc(O)c12
REMARK SMILES IDX 4 1 3 2 2 3 1 4 21 5 19 6 18 7 16 8 15 9 14 10 13 11 5 12
REMARK SMILES IDX 6 13 7 14 8 15 12 16 10 17 9 18 11 20 20 22 17 24
REMARK H PARENT 9 19 11 21 20 23 17 25
REMARK Flexibility Score: inf
ROOT
ATOM      1  C   UNL     1       7.598  -0.960  -2.492  1.00  0.00     0.138 A 
ATOM      2  C   UNL     1       6.862  -0.152  -3.369  1.00  0.00     0.100 A 
ATOM      3  C   UNL     1       6.797   1.225  -3.149  1.00  0.00     0.197 A 
ATOM      4  O   UNL     1       6.078   1.915  -3.916  1.00  0.00    -0.289 OA
ATOM      5  C   UNL     1       7.497   1.797  -2.061  1.00  0.00     0.107 A 
ATOM      6  C   UNL     1       7.536   3.192  -1.763  1.00  0.00     0.134 A 
ATOM      7  C   UNL     1       8.167   3.630  -0.591  1.00  0.00     0.093 A 
ATOM      8  C   UNL     1       8.813   2.730   0.259  1.00  0.00     0.123 A 
ATOM      9  C   UNL     1       8.827   1.372  -0.052  1.00  0.00     0.094 A 
ATOM     10  C   UNL     1       8.177   0.900  -1.194  1.00  0.00     0.146 A 
ATOM     11  O   UNL     1       8.202  -0.405  -1.446  1.00  0.00    -0.456 OA
ENDROOT
BRANCH   1  12
ATOM     12  C   UNL     1       7.703  -2.430  -2.680  1.00  0.00     0.021 A 
ATOM     13  C   UNL     1       7.049  -3.088  -3.738  1.00  0.00     0.016 A 
ATOM     14  C   UNL     1       7.173  -4.471  -3.897  1.00  0.00     0.051 A 
ATOM     15  C   UNL     1       7.956  -5.218  -3.010  1.00  0.00     0.157 A 
ATOM     16  C   UNL     1       8.498  -3.186  -1.800  1.00  0.00     0.062 A 
ATOM     17  C   UNL     1       8.624  -4.570  -1.957  1.00  0.00     0.158 A 
BRANCH  15  18
ATOM     18  O   UNL     1       8.076  -6.598  -3.170  1.00  0.00    -0.504 OA
ATOM     19  H   UNL     1       8.090  -7.025  -4.088  1.00  0.00     0.293 HD
ENDBRANCH  15  18
BRANCH  17  20
ATOM     20  O   UNL     1       9.413  -5.285  -1.057  1.00  0.00    -0.504 OA
ATOM     21  H   UNL     1       9.038  -6.035  -0.488  1.00  0.00     0.293 HD
ENDBRANCH  17  20
ENDBRANCH   1  12
BRANCH   6  22
ATOM     22  O   UNL     1       6.996   4.181  -2.588  1.00  0.00    -0.507 OA
ATOM     23  H   UNL     1       6.059   4.547  -2.514  1.00  0.00     0.293 HD
ENDBRANCH   6  22
BRANCH   8  24
ATOM     24  O   UNL     1       9.452   3.176   1.414  1.00  0.00    -0.508 OA
ATOM     25  H   UNL     1       9.812   2.527   2.105  1.00  0.00     0.293 HD
ENDBRANCH   8  24
TORSDOF 5
ENDMDL
MODEL 8
REMARK VINA RESULT:    -3.924      1.236      2.822
REMARK INTER + INTRA:          -4.930
REMARK INTER:                  -4.635
REMARK INTRA:                  -0.295
REMARK UNBOUND:                -0.318
REMARK SMILES O=c1cc(-c2ccc(O)c(O)c2)oc2cc(O)cc(O)c12
REMARK SMILES IDX 4 1 3 2 2 3 1 4 21 5 19 6 18 7 16 8 15 9 14 10 13 11 5 12
REMARK SMILES IDX 6 13 7 14 8 15 12 16 10 17 9 18 11 20 20 22 17 24
REMARK H PARENT 9 19 11 21 20 23 17 25
REMARK Flexibility Score: inf
ROOT
ATOM      1  C   UNL     1       7.669  -1.303  -2.469  1.00  0.00     0.138 A 
ATOM      2  C   UNL     1       8.400  -2.216  -1.697  1.00  0.00     0.100 A 
ATOM      3  C   UNL     1       8.378  -3.572  -2.026  1.00  0.00     0.197 A 
ATOM      4  O   UNL     1       8.994  -4.374  -1.278  1.00  0.00    -0.289 OA
ATOM      5  C   UNL     1       7.643  -4.010  -3.153  1.00  0.00     0.107 A 
ATOM      6  C   UNL     1       7.580  -5.361  -3.607  1.00  0.00     0.134 A 
ATOM      7  C   UNL     1       6.726  -5.694  -4.666  1.00  0.00     0.093 A 
ATOM      8  C   UNL     1       5.979  -4.715  -5.325  1.00  0.00     0.123 A 
ATOM      9  C   UNL     1       6.075  -3.385  -4.924  1.00  0.00     0.094 A 
ATOM     10  C   UNL     1       6.892  -3.026  -3.849  1.00  0.00     0.146 A 
ATOM     11  O   UNL     1       6.943  -1.747  -3.489  1.00  0.00    -0.456 OA
ENDROOT
BRANCH   1  12
ATOM     12  C   UNL     1       7.659   0.151  -2.165  1.00  0.00     0.021 A 
ATOM     13  C   UNL     1       6.914   1.062  -2.936  1.00  0.00     0.016 A 
ATOM     14  C   UNL     1       6.915   2.424  -2.623  1.00  0.00     0.051 A 
ATOM     15  C   UNL     1       7.652   2.898  -1.531  1.00  0.00     0.157 A 
ATOM     16  C   UNL     1       8.387   0.634  -1.062  1.00  0.00     0.062 A 
ATOM     17  C   UNL     1       8.390   1.996  -0.746  1.00  0.00     0.158 A 
BRANCH  15  18
ATOM     18  O   UNL     1       7.651   4.257  -1.221  1.00  0.00    -0.504 OA
ATOM     19  H   UNL     1       7.555   4.964  -1.940  1.00  0.00     0.293 HD
ENDBRANCH  15  18
BRANCH  17  20
ATOM     20  O   UNL     1       9.132   2.436   0.350  1.00  0.00    -0.504 OA
ATOM     21  H   UNL     1       9.978   1.967   0.651  1.00  0.00     0.293 HD
ENDBRANCH  17  20
ENDBRANCH   1  12
BRANCH   6  22
ATOM     22  O   UNL     1       8.347  -6.400  -3.074  1.00  0.00    -0.507 OA
ATOM     23  H   UNL     1       9.083  -6.284  -2.394  1.00  0.00     0.293 HD
ENDBRANCH   6  22
BRANCH   8  24
ATOM     24  O   UNL     1       5.144  -5.053  -6.388  1.00  0.00    -0.508 OA
ATOM     25  H   UNL     1       4.967  -4.407  -7.149  1.00  0.00     0.293 HD
ENDBRANCH   8  24
TORSDOF 5
ENDMDL
MODEL 9
REMARK VINA RESULT:    -3.874      1.370      7.285
REMARK INTER + INTRA:          -4.872
REMARK INTER:                  -4.577
REMARK INTRA:                  -0.295
REMARK UNBOUND:                -0.318
REMARK SMILES O=c1cc(-c2ccc(O)c(O)c2)oc2cc(O)cc(O)c12
REMARK SMILES IDX 4 1 3 2 2 3 1 4 21 5 19 6 18 7 16 8 15 9 14 10 13 11 5 12
REMARK SMILES IDX 6 13 7 14 8 15 12 16 10 17 9 18 11 20 20 22 17 24
REMARK H PARENT 9 19 11 21 20 23 17 25
REMARK Flexibility Score: inf
ROOT
ATOM      1  C   UNL     1       7.919  -1.386  -2.125  1.00  0.00     0.138 A 
ATOM      2  C   UNL     1       8.658  -0.818  -1.079  1.00  0.00     0.100 A 
ATOM      3  C   UNL     1       8.594   0.558  -0.855  1.00  0.00     0.197 A 
ATOM      4  O   UNL     1       9.316   1.046   0.051  1.00  0.00    -0.289 OA
ATOM      5  C   UNL     1       7.761   1.364  -1.667  1.00  0.00     0.107 A 
ATOM      6  C   UNL     1       7.586   2.771  -1.506  1.00  0.00     0.134 A 
ATOM      7  C   UNL     1       6.825   3.483  -2.442  1.00  0.00     0.093 A 
ATOM      8  C   UNL     1       6.185   2.830  -3.497  1.00  0.00     0.123 A 
ATOM      9  C   UNL     1       6.306   1.449  -3.632  1.00  0.00     0.094 A 
ATOM     10  C   UNL     1       7.085   0.715  -2.735  1.00  0.00     0.146 A 
ATOM     11  O   UNL     1       7.187  -0.599  -2.907  1.00  0.00    -0.456 OA
ENDROOT
BRANCH   1  12
ATOM     12  C   UNL     1       7.948  -2.844  -2.406  1.00  0.00     0.021 A 
ATOM     13  C   UNL     1       7.299  -3.394  -3.528  1.00  0.00     0.016 A 
ATOM     14  C   UNL     1       7.350  -4.768  -3.774  1.00  0.00     0.051 A 
ATOM     15  C   UNL     1       8.056  -5.615  -2.911  1.00  0.00     0.157 A 
ATOM     16  C   UNL     1       8.665  -3.701  -1.551  1.00  0.00     0.062 A 
ATOM     17  C   UNL     1       8.717  -5.077  -1.795  1.00  0.00     0.158 A 
BRANCH  15  18
ATOM     18  O   UNL     1       8.104  -6.987  -3.159  1.00  0.00    -0.504 OA
ATOM     19  H   UNL     1       8.684  -7.605  -2.605  1.00  0.00     0.293 HD
ENDBRANCH  15  18
BRANCH  17  20
ATOM     20  O   UNL     1       9.430  -5.894  -0.918  1.00  0.00    -0.504 OA
ATOM     21  H   UNL     1       9.793  -6.798  -1.197  1.00  0.00     0.293 HD
ENDBRANCH  17  20
ENDBRANCH   1  12
BRANCH   6  22
ATOM     22  O   UNL     1       8.111   3.506  -0.440  1.00  0.00    -0.507 OA
ATOM     23  H   UNL     1       9.086   3.534  -0.183  1.00  0.00     0.293 HD
ENDBRANCH   6  22
BRANCH   8  24
ATOM     24  O   UNL     1       5.418   3.544  -4.415  1.00  0.00    -0.508 OA
ATOM     25  H   UNL     1       4.896   3.076  -5.148  1.00  0.00     0.293 HD
ENDBRANCH   8  24
TORSDOF 5
ENDMDL
