MODEL 1
REMARK VINA RESULT:    15.025      0.000      0.000
REMARK INTER + INTRA:          33.502
REMARK INTER:                  34.349
REMARK INTRA:                  -0.846
REMARK UNBOUND:                -0.846
REMARK SMILES CCCCCCCCCCCCCCCCCCCCCCCC(=O)[O-]
REMARK SMILES IDX 13 1 14 2 15 3 16 4 17 5 18 6 19 7 20 8 21 9 22 10 23 11
REMARK SMILES IDX 24 12 25 13 26 14 12 15 11 16 10 17 9 18 8 19 7 20 6 21 5 22
REMARK SMILES IDX 4 23 3 24 2 25 1 26
REMARK H PARENT
REMARK Flexibility Score: inf
ROOT
ATOM      1  C   UNL     1     -26.866  13.106 -14.654  1.00  0.00     0.000 C 
ENDROOT
BRANCH   1   2
ATOM      2  C   UNL     1     -25.513  12.981 -15.371  1.00  0.00     0.000 C 
BRANCH   2   3
ATOM      3  C   UNL     1     -24.868  11.621 -15.080  1.00  0.00     0.000 C 
BRANCH   3   4
ATOM      4  C   UNL     1     -23.898  11.217 -16.202  1.00  0.00     0.000 C 
BRANCH   4   5
ATOM      5  C   UNL     1     -23.611   9.708 -16.221  1.00  0.00     0.000 C 
BRANCH   5   6
ATOM      6  C   UNL     1     -22.300   9.363 -16.948  1.00  0.00     0.000 C 
BRANCH   6   7
ATOM      7  C   UNL     1     -22.524   8.524 -18.217  1.00  0.00     0.000 C 
BRANCH   7   8
ATOM      8  C   UNL     1     -21.757   7.185 -18.211  1.00  0.00     0.000 C 
BRANCH   8   9
ATOM      9  C   UNL     1     -20.660   7.140 -19.285  1.00  0.00     0.000 C 
BRANCH   9  10
ATOM     10  C   UNL     1     -20.482   5.720 -19.834  1.00  0.00     0.006 C 
BRANCH  10  11
ATOM     11  C   UNL     1     -21.347   4.720 -19.059  1.00  0.00     0.053 C 
BRANCH  11  12
ATOM     12  C   UNL     1     -20.508   3.603 -18.524  1.00  0.00     0.041 C 
ATOM     13  O   UNL     1     -20.941   2.877 -17.591  1.00  0.00    -0.550 OA
ATOM     14  O   UNL     1     -19.231   3.387 -19.030  1.00  0.00    -0.550 OA
ENDBRANCH  11  12
ENDBRANCH  10  11
ENDBRANCH   9  10
ENDBRANCH   8   9
ENDBRANCH   7   8
ENDBRANCH   6   7
ENDBRANCH   5   6
ENDBRANCH   4   5
ENDBRANCH   3   4
ENDBRANCH   2   3
ENDBRANCH   1   2
BRANCH   1  15
ATOM     15  C   UNL     1     -27.785  14.168 -15.284  1.00  0.00     0.000 C 
BRANCH  15  16
ATOM     16  C   UNL     1     -28.862  14.744 -14.344  1.00  0.00     0.000 C 
BRANCH  16  17
ATOM     17  C   UNL     1     -29.080  16.264 -14.449  1.00  0.00     0.000 C 
BRANCH  17  18
ATOM     18  C   UNL     1     -29.540  16.899 -13.128  1.00  0.00    -0.000 C 
BRANCH  18  19
ATOM     19  C   UNL     1     -29.748  15.823 -12.053  1.00  0.00    -0.000 C 
BRANCH  19  20
ATOM     20  C   UNL     1     -30.641  16.301 -10.895  1.00  0.00    -0.000 C 
BRANCH  20  21
ATOM     21  C   UNL     1     -30.937  17.814 -10.881  1.00  0.00    -0.000 C 
BRANCH  21  22
ATOM     22  C   UNL     1     -32.429  18.189 -10.806  1.00  0.00    -0.000 C 
BRANCH  22  23
ATOM     23  C   UNL     1     -32.682  19.473  -9.996  1.00  0.00    -0.000 C 
BRANCH  23  24
ATOM     24  C   UNL     1     -32.561  20.744 -10.850  1.00  0.00    -0.000 C 
BRANCH  24  25
ATOM     25  C   UNL     1     -32.138  21.971 -10.029  1.00  0.00    -0.003 C 
ATOM     26  C   UNL     1     -33.121  23.123 -10.219  1.00  0.00     0.004 C 
ENDBRANCH  24  25
ENDBRANCH  23  24
ENDBRANCH  22  23
ENDBRANCH  21  22
ENDBRANCH  20  21
ENDBRANCH  19  20
ENDBRANCH  18  19
ENDBRANCH  17  18
ENDBRANCH  16  17
ENDBRANCH  15  16
ENDBRANCH   1  15
TORSDOF 22
ENDMDL
MODEL 2
REMARK VINA RESULT:    15.053      1.275      2.382
REMARK INTER + INTRA:          33.568
REMARK INTER:                  33.047
REMARK INTRA:                   0.521
REMARK UNBOUND:                -0.846
REMARK SMILES CCCCCCCCCCCCCCCCCCCCCCCC(=O)[O-]
REMARK SMILES IDX 13 1 14 2 15 3 16 4 17 5 18 6 19 7 20 8 21 9 22 10 23 11
REMARK SMILES IDX 24 12 25 13 26 14 12 15 11 16 10 17 9 18 8 19 7 20 6 21 5 22
REMARK SMILES IDX 4 23 3 24 2 25 1 26
REMARK H PARENT
REMARK Flexibility Score: inf
ROOT
ATOM      1  C   UNL     1     -24.742  12.170 -14.886  1.00  0.00     0.000 C 
ENDROOT
BRANCH   1   2
ATOM      2  C   UNL     1     -24.177  11.274 -15.998  1.00  0.00     0.000 C 
BRANCH   2   3
ATOM      3  C   UNL     1     -22.766  10.789 -15.642  1.00  0.00     0.000 C 
BRANCH   3   4
ATOM      4  C   UNL     1     -22.617   9.282 -15.903  1.00  0.00     0.000 C 
BRANCH   4   5
ATOM      5  C   UNL     1     -21.503   8.965 -16.913  1.00  0.00     0.000 C 
BRANCH   5   6
ATOM      6  C   UNL     1     -21.977   8.039 -18.046  1.00  0.00     0.000 C 
BRANCH   6   7
ATOM      7  C   UNL     1     -20.815   7.341 -18.773  1.00  0.00     0.000 C 
BRANCH   7   8
ATOM      8  C   UNL     1     -21.179   5.941 -19.312  1.00  0.00     0.000 C 
BRANCH   8   9
ATOM      9  C   UNL     1     -19.938   5.068 -19.544  1.00  0.00     0.000 C 
BRANCH   9  10
ATOM     10  C   UNL     1     -20.207   3.610 -19.154  1.00  0.00     0.006 C 
BRANCH  10  11
ATOM     11  C   UNL     1     -18.898   2.875 -18.843  1.00  0.00     0.053 C 
BRANCH  11  12
ATOM     12  C   UNL     1     -17.780   3.850 -18.654  1.00  0.00     0.041 C 
ATOM     13  O   UNL     1     -17.585   4.762 -19.500  1.00  0.00    -0.550 OA
ATOM     14  O   UNL     1     -16.927   3.729 -17.562  1.00  0.00    -0.550 OA
ENDBRANCH  11  12
ENDBRANCH  10  11
ENDBRANCH   9  10
ENDBRANCH   8   9
ENDBRANCH   7   8
ENDBRANCH   6   7
ENDBRANCH   5   6
ENDBRANCH   4   5
ENDBRANCH   3   4
ENDBRANCH   2   3
ENDBRANCH   1   2
BRANCH   1  15
ATOM     15  C   UNL     1     -25.636  13.303 -15.422  1.00  0.00     0.000 C 
BRANCH  15  16
ATOM     16  C   UNL     1     -27.038  13.388 -14.786  1.00  0.00     0.000 C 
BRANCH  16  17
ATOM     17  C   UNL     1     -27.845  14.649 -15.143  1.00  0.00     0.000 C 
BRANCH  17  18
ATOM     18  C   UNL     1     -29.201  14.718 -14.427  1.00  0.00    -0.000 C 
BRANCH  18  19
ATOM     19  C   UNL     1     -29.541  16.167 -14.048  1.00  0.00    -0.000 C 
BRANCH  19  20
ATOM     20  C   UNL     1     -29.722  16.361 -12.533  1.00  0.00    -0.000 C 
BRANCH  20  21
ATOM     21  C   UNL     1     -29.195  17.700 -11.980  1.00  0.00    -0.000 C 
BRANCH  21  22
ATOM     22  C   UNL     1     -29.741  18.099 -10.596  1.00  0.00    -0.000 C 
BRANCH  22  23
ATOM     23  C   UNL     1     -30.674  19.320 -10.651  1.00  0.00    -0.000 C 
BRANCH  23  24
ATOM     24  C   UNL     1     -32.157  18.938 -10.520  1.00  0.00    -0.000 C 
BRANCH  24  25
ATOM     25  C   UNL     1     -33.059  20.151 -10.245  1.00  0.00    -0.003 C 
ATOM     26  C   UNL     1     -32.357  21.452 -10.623  1.00  0.00     0.004 C 
ENDBRANCH  24  25
ENDBRANCH  23  24
ENDBRANCH  22  23
ENDBRANCH  21  22
ENDBRANCH  20  21
ENDBRANCH  19  20
ENDBRANCH  18  19
ENDBRANCH  17  18
ENDBRANCH  16  17
ENDBRANCH  15  16
ENDBRANCH   1  15
TORSDOF 22
ENDMDL
MODEL 3
REMARK VINA RESULT:    15.839      5.832     16.162
REMARK INTER + INTRA:          35.364
REMARK INTER:                  35.367
REMARK INTRA:                  -0.003
REMARK UNBOUND:                -0.846
REMARK SMILES CCCCCCCCCCCCCCCCCCCCCCCC(=O)[O-]
REMARK SMILES IDX 13 1 14 2 15 3 16 4 17 5 18 6 19 7 20 8 21 9 22 10 23 11
REMARK SMILES IDX 24 12 25 13 26 14 12 15 11 16 10 17 9 18 8 19 7 20 6 21 5 22
REMARK SMILES IDX 4 23 3 24 2 25 1 26
REMARK H PARENT
REMARK Flexibility Score: inf
ROOT
ATOM      1  C   UNL     1     -23.059   9.259 -16.285  1.00  0.00     0.000 C 
ENDROOT
BRANCH   1   2
ATOM      2  C   UNL     1     -22.880  10.703 -15.795  1.00  0.00     0.000 C 
BRANCH   2   3
ATOM      3  C   UNL     1     -23.968  11.614 -16.378  1.00  0.00     0.000 C 
BRANCH   3   4
ATOM      4  C   UNL     1     -25.173  11.712 -15.430  1.00  0.00     0.000 C 
BRANCH   4   5
ATOM      5  C   UNL     1     -25.743  13.137 -15.345  1.00  0.00     0.000 C 
BRANCH   5   6
ATOM      6  C   UNL     1     -27.257  13.185 -15.612  1.00  0.00     0.000 C 
BRANCH   6   7
ATOM      7  C   UNL     1     -28.059  13.715 -14.412  1.00  0.00     0.000 C 
BRANCH   7   8
ATOM      8  C   UNL     1     -28.500  15.186 -14.569  1.00  0.00     0.000 C 
BRANCH   8   9
ATOM      9  C   UNL     1     -29.708  15.526 -13.684  1.00  0.00     0.000 C 
BRANCH   9  10
ATOM     10  C   UNL     1     -29.489  16.845 -12.934  1.00  0.00     0.006 C 
BRANCH  10  11
ATOM     11  C   UNL     1     -29.668  16.653 -11.423  1.00  0.00     0.053 C 
BRANCH  11  12
ATOM     12  C   UNL     1     -29.983  17.957 -10.762  1.00  0.00     0.041 C 
ATOM     13  O   UNL     1     -30.972  18.638 -11.143  1.00  0.00    -0.550 OA
ATOM     14  O   UNL     1     -29.163  18.440  -9.749  1.00  0.00    -0.550 OA
ENDBRANCH  11  12
ENDBRANCH  10  11
ENDBRANCH   9  10
ENDBRANCH   8   9
ENDBRANCH   7   8
ENDBRANCH   6   7
ENDBRANCH   5   6
ENDBRANCH   4   5
ENDBRANCH   3   4
ENDBRANCH   2   3
ENDBRANCH   1   2
BRANCH   1  15
ATOM     15  C   UNL     1     -21.737   8.604 -16.726  1.00  0.00     0.000 C 
BRANCH  15  16
ATOM     16  C   UNL     1     -21.667   8.203 -18.213  1.00  0.00     0.000 C 
BRANCH  16  17
ATOM     17  C   UNL     1     -21.516   6.695 -18.479  1.00  0.00     0.000 C 
BRANCH  17  18
ATOM     18  C   UNL     1     -20.491   6.378 -19.577  1.00  0.00    -0.000 C 
BRANCH  18  19
ATOM     19  C   UNL     1     -20.286   4.863 -19.708  1.00  0.00    -0.000 C 
BRANCH  19  20
ATOM     20  C   UNL     1     -21.291   4.050 -18.875  1.00  0.00    -0.000 C 
BRANCH  20  21
ATOM     21  C   UNL     1     -20.676   2.904 -18.046  1.00  0.00    -0.000 C 
BRANCH  21  22
ATOM     22  C   UNL     1     -19.194   3.091 -17.667  1.00  0.00    -0.000 C 
BRANCH  22  23
ATOM     23  C   UNL     1     -18.279   3.252 -18.893  1.00  0.00    -0.000 C 
BRANCH  23  24
ATOM     24  C   UNL     1     -16.788   3.190 -18.529  1.00  0.00    -0.000 C 
BRANCH  24  25
ATOM     25  C   UNL     1     -15.942   4.193 -19.327  1.00  0.00    -0.003 C 
ATOM     26  C   UNL     1     -14.854   3.479 -20.125  1.00  0.00     0.004 C 
ENDBRANCH  24  25
ENDBRANCH  23  24
ENDBRANCH  22  23
ENDBRANCH  21  22
ENDBRANCH  20  21
ENDBRANCH  19  20
ENDBRANCH  18  19
ENDBRANCH  17  18
ENDBRANCH  16  17
ENDBRANCH  15  16
ENDBRANCH   1  15
TORSDOF 22
ENDMDL
MODEL 4
REMARK VINA RESULT:    16.727      9.017     14.933
REMARK INTER + INTRA:          37.393
REMARK INTER:                  36.655
REMARK INTRA:                   0.738
REMARK UNBOUND:                -0.846
REMARK SMILES CCCCCCCCCCCCCCCCCCCCCCCC(=O)[O-]
REMARK SMILES IDX 13 1 14 2 15 3 16 4 17 5 18 6 19 7 20 8 21 9 22 10 23 11
REMARK SMILES IDX 24 12 25 13 26 14 12 15 11 16 10 17 9 18 8 19 7 20 6 21 5 22
REMARK SMILES IDX 4 23 3 24 2 25 1 26
REMARK H PARENT
REMARK Flexibility Score: inf
ROOT
ATOM      1  C   UNL     1     -21.359   9.584 -16.172  1.00  0.00     0.000 C 
ENDROOT
BRANCH   1   2
ATOM      2  C   UNL     1     -22.746  10.241 -16.228  1.00  0.00     0.000 C 
BRANCH   2   3
ATOM      3  C   UNL     1     -23.849   9.203 -15.986  1.00  0.00     0.000 C 
BRANCH   3   4
ATOM      4  C   UNL     1     -25.025   9.411 -16.953  1.00  0.00     0.000 C 
BRANCH   4   5
ATOM      5  C   UNL     1     -24.668   9.052 -18.404  1.00  0.00     0.000 C 
BRANCH   5   6
ATOM      6  C   UNL     1     -23.323   9.652 -18.849  1.00  0.00     0.000 C 
BRANCH   6   7
ATOM      7  C   UNL     1     -23.441  10.503 -20.124  1.00  0.00     0.000 C 
BRANCH   7   8
ATOM      8  C   UNL     1     -24.281  11.784 -19.932  1.00  0.00     0.000 C 
BRANCH   8   9
ATOM      9  C   UNL     1     -23.512  12.871 -19.165  1.00  0.00     0.000 C 
BRANCH   9  10
ATOM     10  C   UNL     1     -22.732  13.777 -20.125  1.00  0.00     0.006 C 
BRANCH  10  11
ATOM     11  C   UNL     1     -21.528  14.412 -19.422  1.00  0.00     0.053 C 
BRANCH  11  12
ATOM     12  C   UNL     1     -21.531  15.896 -19.611  1.00  0.00     0.041 C 
ATOM     13  O   UNL     1     -20.445  16.519 -19.748  1.00  0.00    -0.550 OA
ATOM     14  O   UNL     1     -22.732  16.596 -19.599  1.00  0.00    -0.550 OA
ENDBRANCH  11  12
ENDBRANCH  10  11
ENDBRANCH   9  10
ENDBRANCH   8   9
ENDBRANCH   7   8
ENDBRANCH   6   7
ENDBRANCH   5   6
ENDBRANCH   4   5
ENDBRANCH   3   4
ENDBRANCH   2   3
ENDBRANCH   1   2
BRANCH   1  15
ATOM     15  C   UNL     1     -21.416   8.048 -16.261  1.00  0.00     0.000 C 
BRANCH  15  16
ATOM     16  C   UNL     1     -21.305   7.469 -17.686  1.00  0.00     0.000 C 
BRANCH  16  17
ATOM     17  C   UNL     1     -20.974   5.968 -17.760  1.00  0.00     0.000 C 
BRANCH  17  18
ATOM     18  C   UNL     1     -20.154   5.593 -19.002  1.00  0.00    -0.000 C 
BRANCH  18  19
ATOM     19  C   UNL     1     -20.923   4.596 -19.880  1.00  0.00    -0.000 C 
BRANCH  19  20
ATOM     20  C   UNL     1     -20.146   3.291 -20.124  1.00  0.00    -0.000 C 
BRANCH  20  21
ATOM     21  C   UNL     1     -18.756   3.226 -19.460  1.00  0.00    -0.000 C 
BRANCH  21  22
ATOM     22  C   UNL     1     -17.966   4.549 -19.459  1.00  0.00    -0.000 C 
BRANCH  22  23
ATOM     23  C   UNL     1     -16.623   4.442 -18.718  1.00  0.00    -0.000 C 
BRANCH  23  24
ATOM     24  C   UNL     1     -16.041   3.021 -18.750  1.00  0.00    -0.000 C 
BRANCH  24  25
ATOM     25  C   UNL     1     -14.722   2.938 -19.531  1.00  0.00    -0.003 C 
ATOM     26  C   UNL     1     -14.214   4.330 -19.898  1.00  0.00     0.004 C 
ENDBRANCH  24  25
ENDBRANCH  23  24
ENDBRANCH  22  23
ENDBRANCH  21  22
ENDBRANCH  20  21
ENDBRANCH  19  20
ENDBRANCH  18  19
ENDBRANCH  17  18
ENDBRANCH  16  17
ENDBRANCH  15  16
ENDBRANCH   1  15
TORSDOF 22
ENDMDL
MODEL 5
REMARK VINA RESULT:    16.806      2.970      3.745
REMARK INTER + INTRA:          37.574
REMARK INTER:                  38.242
REMARK INTRA:                  -0.668
REMARK UNBOUND:                -0.846
REMARK SMILES CCCCCCCCCCCCCCCCCCCCCCCC(=O)[O-]
REMARK SMILES IDX 13 1 14 2 15 3 16 4 17 5 18 6 19 7 20 8 21 9 22 10 23 11
REMARK SMILES IDX 24 12 25 13 26 14 12 15 11 16 10 17 9 18 8 19 7 20 6 21 5 22
REMARK SMILES IDX 4 23 3 24 2 25 1 26
REMARK H PARENT
REMARK Flexibility Score: inf
ROOT
ATOM      1  C   UNL     1     -27.991  13.618 -14.750  1.00  0.00     0.000 C 
ENDROOT
BRANCH   1   2
ATOM      2  C   UNL     1     -26.509  13.518 -15.141  1.00  0.00     0.000 C 
BRANCH   2   3
ATOM      3  C   UNL     1     -26.221  14.347 -16.399  1.00  0.00     0.000 C 
BRANCH   3   4
ATOM      4  C   UNL     1     -25.321  13.576 -17.375  1.00  0.00     0.000 C 
BRANCH   4   5
ATOM      5  C   UNL     1     -25.273  14.220 -18.770  1.00  0.00     0.000 C 
BRANCH   5   6
ATOM      6  C   UNL     1     -24.748  13.257 -19.849  1.00  0.00     0.000 C 
BRANCH   6   7
ATOM      7  C   UNL     1     -23.391  12.632 -19.484  1.00  0.00     0.000 C 
BRANCH   7   8
ATOM      8  C   UNL     1     -23.483  11.580 -18.358  1.00  0.00     0.000 C 
BRANCH   8   9
ATOM      9  C   UNL     1     -23.754  10.170 -18.903  1.00  0.00     0.000 C 
BRANCH   9  10
ATOM     10  C   UNL     1     -23.507   9.106 -17.828  1.00  0.00     0.006 C 
BRANCH  10  11
ATOM     11  C   UNL     1     -23.444   9.739 -16.433  1.00  0.00     0.053 C 
BRANCH  11  12
ATOM     12  C   UNL     1     -22.119   9.470 -15.794  1.00  0.00     0.041 C 
ATOM     13  O   UNL     1     -22.031   8.656 -14.837  1.00  0.00    -0.550 OA
ATOM     14  O   UNL     1     -20.986  10.148 -16.230  1.00  0.00    -0.550 OA
ENDBRANCH  11  12
ENDBRANCH  10  11
ENDBRANCH   9  10
ENDBRANCH   8   9
ENDBRANCH   7   8
ENDBRANCH   6   7
ENDBRANCH   5   6
ENDBRANCH   4   5
ENDBRANCH   3   4
ENDBRANCH   2   3
ENDBRANCH   1   2
BRANCH   1  15
ATOM     15  C   UNL     1     -28.555  15.044 -14.888  1.00  0.00     0.000 C 
BRANCH  15  16
ATOM     16  C   UNL     1     -29.330  15.564 -13.660  1.00  0.00     0.000 C 
BRANCH  16  17
ATOM     17  C   UNL     1     -29.277  17.087 -13.448  1.00  0.00     0.000 C 
BRANCH  17  18
ATOM     18  C   UNL     1     -29.555  17.502 -11.996  1.00  0.00    -0.000 C 
BRANCH  18  19
ATOM     19  C   UNL     1     -30.033  16.300 -11.170  1.00  0.00    -0.000 C 
BRANCH  19  20
ATOM     20  C   UNL     1     -31.566  16.206 -11.084  1.00  0.00    -0.000 C 
BRANCH  20  21
ATOM     21  C   UNL     1     -32.222  17.162 -10.068  1.00  0.00    -0.000 C 
BRANCH  21  22
ATOM     22  C   UNL     1     -32.921  18.390 -10.680  1.00  0.00    -0.000 C 
BRANCH  22  23
ATOM     23  C   UNL     1     -32.238  19.717 -10.305  1.00  0.00    -0.000 C 
BRANCH  23  24
ATOM     24  C   UNL     1     -33.223  20.894 -10.245  1.00  0.00    -0.000 C 
BRANCH  24  25
ATOM     25  C   UNL     1     -32.516  22.255 -10.171  1.00  0.00    -0.003 C 
ATOM     26  C   UNL     1     -31.201  22.231 -10.945  1.00  0.00     0.004 C 
ENDBRANCH  24  25
ENDBRANCH  23  24
ENDBRANCH  22  23
ENDBRANCH  21  22
ENDBRANCH  20  21
ENDBRANCH  19  20
ENDBRANCH  18  19
ENDBRANCH  17  18
ENDBRANCH  16  17
ENDBRANCH  15  16
ENDBRANCH   1  15
TORSDOF 22
ENDMDL
MODEL 6
REMARK VINA RESULT:    16.907      6.218     16.047
REMARK INTER + INTRA:          37.805
REMARK INTER:                  37.370
REMARK INTRA:                   0.435
REMARK UNBOUND:                -0.846
REMARK SMILES CCCCCCCCCCCCCCCCCCCCCCCC(=O)[O-]
REMARK SMILES IDX 13 1 14 2 15 3 16 4 17 5 18 6 19 7 20 8 21 9 22 10 23 11
REMARK SMILES IDX 24 12 25 13 26 14 12 15 11 16 10 17 9 18 8 19 7 20 6 21 5 22
REMARK SMILES IDX 4 23 3 24 2 25 1 26
REMARK H PARENT
REMARK Flexibility Score: inf
ROOT
ATOM      1  C   UNL     1     -26.825  12.525 -14.862  1.00  0.00     0.000 C 
ENDROOT
BRANCH   1   2
ATOM      2  C   UNL     1     -27.877  13.525 -15.362  1.00  0.00     0.000 C 
BRANCH   2   3
ATOM      3  C   UNL     1     -27.928  14.760 -14.455  1.00  0.00     0.000 C 
BRANCH   3   4
ATOM      4  C   UNL     1     -29.379  15.149 -14.131  1.00  0.00     0.000 C 
BRANCH   4   5
ATOM      5  C   UNL     1     -29.593  16.671 -14.113  1.00  0.00     0.000 C 
BRANCH   5   6
ATOM      6  C   UNL     1     -29.331  17.289 -12.729  1.00  0.00     0.000 C 
BRANCH   6   7
ATOM      7  C   UNL     1     -29.774  16.377 -11.573  1.00  0.00     0.000 C 
BRANCH   7   8
ATOM      8  C   UNL     1     -31.241  16.596 -11.146  1.00  0.00     0.000 C 
BRANCH   8   9
ATOM      9  C   UNL     1     -31.477  18.007 -10.586  1.00  0.00     0.000 C 
BRANCH   9  10
ATOM     10  C   UNL     1     -32.967  18.365 -10.601  1.00  0.00     0.006 C 
BRANCH  10  11
ATOM     11  C   UNL     1     -33.197  19.780 -10.060  1.00  0.00     0.053 C 
BRANCH  11  12
ATOM     12  C   UNL     1     -32.096  20.695 -10.496  1.00  0.00     0.041 C 
ATOM     13  O   UNL     1     -32.362  21.857 -10.900  1.00  0.00    -0.550 OA
ATOM     14  O   UNL     1     -30.779  20.249 -10.492  1.00  0.00    -0.550 OA
ENDBRANCH  11  12
ENDBRANCH  10  11
ENDBRANCH   9  10
ENDBRANCH   8   9
ENDBRANCH   7   8
ENDBRANCH   6   7
ENDBRANCH   5   6
ENDBRANCH   4   5
ENDBRANCH   3   4
ENDBRANCH   2   3
ENDBRANCH   1   2
BRANCH   1  15
ATOM     15  C   UNL     1     -25.427  12.772 -15.458  1.00  0.00     0.000 C 
BRANCH  15  16
ATOM     16  C   UNL     1     -24.386  11.673 -15.167  1.00  0.00     0.000 C 
BRANCH  16  17
ATOM     17  C   UNL     1     -23.551  11.223 -16.379  1.00  0.00     0.000 C 
BRANCH  17  18
ATOM     18  C   UNL     1     -23.145   9.744 -16.315  1.00  0.00    -0.000 C 
BRANCH  18  19
ATOM     19  C   UNL     1     -23.118   9.127 -17.720  1.00  0.00    -0.000 C 
BRANCH  19  20
ATOM     20  C   UNL     1     -21.911   8.200 -17.943  1.00  0.00    -0.000 C 
BRANCH  20  21
ATOM     21  C   UNL     1     -21.956   7.372 -19.243  1.00  0.00    -0.000 C 
BRANCH  21  22
ATOM     22  C   UNL     1     -21.347   5.960 -19.142  1.00  0.00    -0.000 C 
BRANCH  22  23
ATOM     23  C   UNL     1     -19.809   5.971 -19.150  1.00  0.00    -0.000 C 
BRANCH  23  24
ATOM     24  C   UNL     1     -19.211   4.671 -19.710  1.00  0.00    -0.000 C 
BRANCH  24  25
ATOM     25  C   UNL     1     -19.499   3.455 -18.818  1.00  0.00    -0.003 C 
ATOM     26  C   UNL     1     -18.207   2.877 -18.248  1.00  0.00     0.004 C 
ENDBRANCH  24  25
ENDBRANCH  23  24
ENDBRANCH  22  23
ENDBRANCH  21  22
ENDBRANCH  20  21
ENDBRANCH  19  20
ENDBRANCH  18  19
ENDBRANCH  17  18
ENDBRANCH  16  17
ENDBRANCH  15  16
ENDBRANCH   1  15
TORSDOF 22
ENDMDL
MODEL 7
REMARK VINA RESULT:    16.913      9.926     13.562
REMARK INTER + INTRA:          37.818
REMARK INTER:                  38.896
REMARK INTRA:                  -1.078
REMARK UNBOUND:                -0.846
REMARK SMILES CCCCCCCCCCCCCCCCCCCCCCCC(=O)[O-]
REMARK SMILES IDX 13 1 14 2 15 3 16 4 17 5 18 6 19 7 20 8 21 9 22 10 23 11
REMARK SMILES IDX 24 12 25 13 26 14 12 15 11 16 10 17 9 18 8 19 7 20 6 21 5 22
REMARK SMILES IDX 4 23 3 24 2 25 1 26
REMARK H PARENT
REMARK Flexibility Score: inf
ROOT
ATOM      1  C   UNL     1     -30.436  21.958 -11.012  1.00  0.00     0.000 C 
ENDROOT
BRANCH   1   2
ATOM      2  C   UNL     1     -29.590  22.318 -12.241  1.00  0.00     0.000 C 
BRANCH   2   3
ATOM      3  C   UNL     1     -28.345  21.427 -12.325  1.00  0.00     0.000 C 
BRANCH   3   4
ATOM      4  C   UNL     1     -27.181  22.165 -13.003  1.00  0.00     0.000 C 
BRANCH   4   5
ATOM      5  C   UNL     1     -26.453  23.125 -12.048  1.00  0.00     0.000 C 
BRANCH   5   6
ATOM      6  C   UNL     1     -25.788  22.395 -10.869  1.00  0.00     0.000 C 
BRANCH   6   7
ATOM      7  C   UNL     1     -26.408  22.765  -9.511  1.00  0.00     0.000 C 
BRANCH   7   8
ATOM      8  C   UNL     1     -27.132  21.587  -8.825  1.00  0.00     0.000 C 
BRANCH   8   9
ATOM      9  C   UNL     1     -26.511  21.239  -7.464  1.00  0.00     0.000 C 
BRANCH   9  10
ATOM     10  C   UNL     1     -25.146  20.563  -7.636  1.00  0.00     0.006 C 
BRANCH  10  11
ATOM     11  C   UNL     1     -24.019  21.602  -7.657  1.00  0.00     0.053 C 
BRANCH  11  12
ATOM     12  C   UNL     1     -23.526  21.871  -6.270  1.00  0.00     0.041 C 
ATOM     13  O   UNL     1     -22.373  22.342  -6.088  1.00  0.00    -0.550 OA
ATOM     14  O   UNL     1     -24.327  21.564  -5.175  1.00  0.00    -0.550 OA
ENDBRANCH  11  12
ENDBRANCH  10  11
ENDBRANCH   9  10
ENDBRANCH   8   9
ENDBRANCH   7   8
ENDBRANCH   6   7
ENDBRANCH   5   6
ENDBRANCH   4   5
ENDBRANCH   3   4
ENDBRANCH   2   3
ENDBRANCH   1   2
BRANCH   1  15
ATOM     15  C   UNL     1     -31.506  23.016 -10.686  1.00  0.00     0.000 C 
BRANCH  15  16
ATOM     16  C   UNL     1     -32.963  22.517 -10.751  1.00  0.00     0.000 C 
BRANCH  16  17
ATOM     17  C   UNL     1     -33.343  21.462  -9.696  1.00  0.00     0.000 C 
BRANCH  17  18
ATOM     18  C   UNL     1     -32.548  20.157  -9.838  1.00  0.00    -0.000 C 
BRANCH  18  19
ATOM     19  C   UNL     1     -33.410  19.063 -10.483  1.00  0.00    -0.000 C 
BRANCH  19  20
ATOM     20  C   UNL     1     -32.612  17.791 -10.816  1.00  0.00    -0.000 C 
BRANCH  20  21
ATOM     21  C   UNL     1     -31.202  17.725 -10.196  1.00  0.00    -0.000 C 
BRANCH  21  22
ATOM     22  C   UNL     1     -30.115  18.509 -10.956  1.00  0.00    -0.000 C 
BRANCH  22  23
ATOM     23  C   UNL     1     -29.284  17.620 -11.897  1.00  0.00    -0.000 C 
BRANCH  23  24
ATOM     24  C   UNL     1     -29.612  16.127 -11.743  1.00  0.00    -0.000 C 
BRANCH  24  25
ATOM     25  C   UNL     1     -29.746  15.408 -13.093  1.00  0.00    -0.003 C 
ATOM     26  C   UNL     1     -29.345  16.326 -14.244  1.00  0.00     0.004 C 
ENDBRANCH  24  25
ENDBRANCH  23  24
ENDBRANCH  22  23
ENDBRANCH  21  22
ENDBRANCH  20  21
ENDBRANCH  19  20
ENDBRANCH  18  19
ENDBRANCH  17  18
ENDBRANCH  16  17
ENDBRANCH  15  16
ENDBRANCH   1  15
TORSDOF 22
ENDMDL
MODEL 8
REMARK VINA RESULT:    17.073      9.066     12.638
REMARK INTER + INTRA:          38.183
REMARK INTER:                  38.900
REMARK INTRA:                  -0.716
REMARK UNBOUND:                -0.846
REMARK SMILES CCCCCCCCCCCCCCCCCCCCCCCC(=O)[O-]
REMARK SMILES IDX 13 1 14 2 15 3 16 4 17 5 18 6 19 7 20 8 21 9 22 10 23 11
REMARK SMILES IDX 24 12 25 13 26 14 12 15 11 16 10 17 9 18 8 19 7 20 6 21 5 22
REMARK SMILES IDX 4 23 3 24 2 25 1 26
REMARK H PARENT
REMARK Flexibility Score: inf
ROOT
ATOM      1  C   UNL     1     -30.671  21.942 -11.487  1.00  0.00     0.000 C 
ENDROOT
BRANCH   1   2
ATOM      2  C   UNL     1     -31.268  22.631 -10.251  1.00  0.00     0.000 C 
BRANCH   2   3
ATOM      3  C   UNL     1     -32.800  22.607 -10.303  1.00  0.00     0.000 C 
BRANCH   3   4
ATOM      4  C   UNL     1     -33.351  21.272  -9.776  1.00  0.00     0.000 C 
BRANCH   4   5
ATOM      5  C   UNL     1     -32.690  20.056 -10.442  1.00  0.00     0.000 C 
BRANCH   5   6
ATOM      6  C   UNL     1     -33.683  18.910 -10.701  1.00  0.00     0.000 C 
BRANCH   6   7
ATOM      7  C   UNL     1     -33.264  17.593 -10.026  1.00  0.00     0.000 C 
BRANCH   7   8
ATOM      8  C   UNL     1     -31.735  17.430  -9.894  1.00  0.00     0.000 C 
BRANCH   8   9
ATOM      9  C   UNL     1     -31.073  17.066 -11.231  1.00  0.00     0.000 C 
BRANCH   9  10
ATOM     10  C   UNL     1     -29.654  17.638 -11.318  1.00  0.00     0.006 C 
BRANCH  10  11
ATOM     11  C   UNL     1     -29.122  17.569 -12.754  1.00  0.00     0.053 C 
BRANCH  11  12
ATOM     12  C   UNL     1     -29.441  16.243 -13.370  1.00  0.00     0.041 C 
ATOM     13  O   UNL     1     -29.455  16.114 -14.622  1.00  0.00    -0.550 OA
ATOM     14  O   UNL     1     -29.761  15.159 -12.560  1.00  0.00    -0.550 OA
ENDBRANCH  11  12
ENDBRANCH  10  11
ENDBRANCH   9  10
ENDBRANCH   8   9
ENDBRANCH   7   8
ENDBRANCH   6   7
ENDBRANCH   5   6
ENDBRANCH   4   5
ENDBRANCH   3   4
ENDBRANCH   2   3
ENDBRANCH   1   2
BRANCH   1  15
ATOM     15  C   UNL     1     -29.273  21.350 -11.230  1.00  0.00     0.000 C 
BRANCH  15  16
ATOM     16  C   UNL     1     -28.477  20.975 -12.496  1.00  0.00     0.000 C 
BRANCH  16  17
ATOM     17  C   UNL     1     -27.398  21.989 -12.917  1.00  0.00     0.000 C 
BRANCH  17  18
ATOM     18  C   UNL     1     -27.183  23.102 -11.882  1.00  0.00    -0.000 C 
BRANCH  18  19
ATOM     19  C   UNL     1     -25.724  23.125 -11.405  1.00  0.00    -0.000 C 
BRANCH  19  20
ATOM     20  C   UNL     1     -25.538  22.485 -10.019  1.00  0.00    -0.000 C 
BRANCH  20  21
ATOM     21  C   UNL     1     -26.845  22.175  -9.262  1.00  0.00    -0.000 C 
BRANCH  21  22
ATOM     22  C   UNL     1     -26.679  21.335  -7.982  1.00  0.00    -0.000 C 
BRANCH  22  23
ATOM     23  C   UNL     1     -25.205  21.079  -7.622  1.00  0.00    -0.000 C 
BRANCH  23  24
ATOM     24  C   UNL     1     -24.886  21.422  -6.159  1.00  0.00    -0.000 C 
BRANCH  24  25
ATOM     25  C   UNL     1     -23.406  21.208  -5.810  1.00  0.00    -0.003 C 
ATOM     26  C   UNL     1     -22.573  22.432  -6.184  1.00  0.00     0.004 C 
ENDBRANCH  24  25
ENDBRANCH  23  24
ENDBRANCH  22  23
ENDBRANCH  21  22
ENDBRANCH  20  21
ENDBRANCH  19  20
ENDBRANCH  18  19
ENDBRANCH  17  18
ENDBRANCH  16  17
ENDBRANCH  15  16
ENDBRANCH   1  15
TORSDOF 22
ENDMDL
