MODEL 1
REMARK VINA RESULT:    -4.309      0.000      0.000
REMARK INTER + INTRA:         -15.696
REMARK INTER:                 -11.363
REMARK INTRA:                  -4.333
REMARK UNBOUND:                -4.333
REMARK SMILES CCCCCCCCCCCCCCCCCCCCCCCCCCCCCC(=O)[O-]
REMARK SMILES IDX 16 1 17 2 18 3 19 4 20 5 21 6 22 7 23 8 24 9 25 10 26 11
REMARK SMILES IDX 27 12 28 13 29 14 30 15 31 16 32 17 15 18 14 19 13 20 12 21
REMARK SMILES IDX 11 22 10 23 9 24 8 25 7 26 6 27 5 28 4 29 3 30 2 31 1 32
REMARK H PARENT
REMARK Flexibility Score: inf
ROOT
ATOM      1  C   UNL     1     119.766 114.868 113.763  1.00  0.00     0.000 C 
ENDROOT
BRANCH   1   2
ATOM      2  C   UNL     1     118.904 116.060 114.204  1.00  0.00     0.000 C 
BRANCH   2   3
ATOM      3  C   UNL     1     118.139 115.736 115.496  1.00  0.00     0.000 C 
BRANCH   3   4
ATOM      4  C   UNL     1     118.477 114.330 116.037  1.00  0.00     0.000 C 
BRANCH   4   5
ATOM      5  C   UNL     1     117.712 113.961 117.320  1.00  0.00     0.000 C 
BRANCH   5   6
ATOM      6  C   UNL     1     118.125 112.595 117.891  1.00  0.00     0.000 C 
BRANCH   6   7
ATOM      7  C   UNL     1     119.619 112.536 118.254  1.00  0.00     0.000 C 
BRANCH   7   8
ATOM      8  C   UNL     1     120.308 111.272 117.709  1.00  0.00     0.000 C 
BRANCH   8   9
ATOM      9  C   UNL     1     120.676 111.394 116.223  1.00  0.00     0.000 C 
BRANCH   9  10
ATOM     10  C   UNL     1     121.736 112.478 115.963  1.00  0.00     0.000 C 
BRANCH  10  11
ATOM     11  C   UNL     1     123.092 112.128 116.599  1.00  0.00     0.000 C 
BRANCH  11  12
ATOM     12  C   UNL     1     123.717 110.837 116.019  1.00  0.00     0.000 C 
BRANCH  12  13
ATOM     13  C   UNL     1     124.466 109.995 117.068  1.00  0.00     0.006 C 
BRANCH  13  14
ATOM     14  C   UNL     1     123.614 109.631 118.293  1.00  0.00     0.053 C 
BRANCH  14  15
ATOM     15  C   UNL     1     124.182 110.201 119.557  1.00  0.00     0.041 C 
ATOM     16  O   UNL     1     125.407 110.478 119.637  1.00  0.00    -0.550 OA
ATOM     17  O   UNL     1     123.351 110.441 120.643  1.00  0.00    -0.550 OA
ENDBRANCH  14  15
ENDBRANCH  13  14
ENDBRANCH  12  13
ENDBRANCH  11  12
ENDBRANCH  10  11
ENDBRANCH   9  10
ENDBRANCH   8   9
ENDBRANCH   7   8
ENDBRANCH   6   7
ENDBRANCH   5   6
ENDBRANCH   4   5
ENDBRANCH   3   4
ENDBRANCH   2   3
ENDBRANCH   1   2
BRANCH   1  18
ATOM     18  C   UNL     1     121.180 115.282 113.319  1.00  0.00     0.000 C 
BRANCH  18  19
ATOM     19  C   UNL     1     122.037 114.149 112.720  1.00  0.00     0.000 C 
BRANCH  19  20
ATOM     20  C   UNL     1     121.252 112.900 112.273  1.00  0.00     0.000 C 
BRANCH  20  21
ATOM     21  C   UNL     1     121.989 111.565 112.479  1.00  0.00     0.000 C 
BRANCH  21  22
ATOM     22  C   UNL     1     121.033 110.359 112.510  1.00  0.00     0.000 C 
BRANCH  22  23
ATOM     23  C   UNL     1     119.579 110.749 112.180  1.00  0.00     0.000 C 
BRANCH  23  24
ATOM     24  C   UNL     1     119.064 110.146 110.859  1.00  0.00    -0.000 C 
BRANCH  24  25
ATOM     25  C   UNL     1     120.194 109.556 109.985  1.00  0.00    -0.000 C 
BRANCH  25  26
ATOM     26  C   UNL     1     120.061 109.941 108.503  1.00  0.00    -0.000 C 
BRANCH  26  27
ATOM     27  C   UNL     1     121.407 110.383 107.903  1.00  0.00    -0.000 C 
BRANCH  27  28
ATOM     28  C   UNL     1     122.060 111.532 108.686  1.00  0.00    -0.000 C 
BRANCH  28  29
ATOM     29  C   UNL     1     121.205 112.810 108.689  1.00  0.00    -0.000 C 
BRANCH  29  30
ATOM     30  C   UNL     1     121.625 113.798 107.587  1.00  0.00    -0.000 C 
BRANCH  30  31
ATOM     31  C   UNL     1     120.866 113.569 106.271  1.00  0.00    -0.003 C 
ATOM     32  C   UNL     1     120.331 114.885 105.711  1.00  0.00     0.004 C 
ENDBRANCH  30  31
ENDBRANCH  29  30
ENDBRANCH  28  29
ENDBRANCH  27  28
ENDBRANCH  26  27
ENDBRANCH  25  26
ENDBRANCH  24  25
ENDBRANCH  23  24
ENDBRANCH  22  23
ENDBRANCH  21  22
ENDBRANCH  20  21
ENDBRANCH  19  20
ENDBRANCH  18  19
ENDBRANCH   1  18
TORSDOF 28
ENDMDL
MODEL 2
REMARK VINA RESULT:    -4.266      1.424      3.280
REMARK INTER + INTRA:         -15.583
REMARK INTER:                 -10.357
REMARK INTRA:                  -5.226
REMARK UNBOUND:                -4.333
REMARK SMILES CCCCCCCCCCCCCCCCCCCCCCCCCCCCCC(=O)[O-]
REMARK SMILES IDX 16 1 17 2 18 3 19 4 20 5 21 6 22 7 23 8 24 9 25 10 26 11
REMARK SMILES IDX 27 12 28 13 29 14 30 15 31 16 32 17 15 18 14 19 13 20 12 21
REMARK SMILES IDX 11 22 10 23 9 24 8 25 7 26 6 27 5 28 4 29 3 30 2 31 1 32
REMARK H PARENT
REMARK Flexibility Score: inf
ROOT
ATOM      1  C   UNL     1     121.054 113.020 114.292  1.00  0.00     0.000 C 
ENDROOT
BRANCH   1   2
ATOM      2  C   UNL     1     120.061 113.780 113.401  1.00  0.00     0.000 C 
BRANCH   2   3
ATOM      3  C   UNL     1     119.261 114.805 114.219  1.00  0.00     0.000 C 
BRANCH   3   4
ATOM      4  C   UNL     1     119.262 114.476 115.728  1.00  0.00     0.000 C 
BRANCH   4   5
ATOM      5  C   UNL     1     117.867 114.540 116.374  1.00  0.00     0.000 C 
BRANCH   5   6
ATOM      6  C   UNL     1     117.648 113.447 117.433  1.00  0.00     0.000 C 
BRANCH   6   7
ATOM      7  C   UNL     1     118.952 113.051 118.147  1.00  0.00     0.000 C 
BRANCH   7   8
ATOM      8  C   UNL     1     119.408 111.624 117.790  1.00  0.00     0.000 C 
BRANCH   8   9
ATOM      9  C   UNL     1     120.844 111.331 118.250  1.00  0.00     0.000 C 
BRANCH   9  10
ATOM     10  C   UNL     1     121.773 112.549 118.102  1.00  0.00     0.000 C 
BRANCH  10  11
ATOM     11  C   UNL     1     123.037 112.219 117.291  1.00  0.00     0.000 C 
BRANCH  11  12
ATOM     12  C   UNL     1     123.304 110.699 117.177  1.00  0.00     0.000 C 
BRANCH  12  13
ATOM     13  C   UNL     1     124.364 110.188 118.170  1.00  0.00     0.006 C 
BRANCH  13  14
ATOM     14  C   UNL     1     125.233 111.300 118.775  1.00  0.00     0.053 C 
BRANCH  14  15
ATOM     15  C   UNL     1     125.270 111.227 120.271  1.00  0.00     0.041 C 
ATOM     16  O   UNL     1     126.275 111.645 120.905  1.00  0.00    -0.550 OA
ATOM     17  O   UNL     1     124.185 110.712 120.968  1.00  0.00    -0.550 OA
ENDBRANCH  14  15
ENDBRANCH  13  14
ENDBRANCH  12  13
ENDBRANCH  11  12
ENDBRANCH  10  11
ENDBRANCH   9  10
ENDBRANCH   8   9
ENDBRANCH   7   8
ENDBRANCH   6   7
ENDBRANCH   5   6
ENDBRANCH   4   5
ENDBRANCH   3   4
ENDBRANCH   2   3
ENDBRANCH   1   2
BRANCH   1  18
ATOM     18  C   UNL     1     120.732 111.520 114.406  1.00  0.00     0.000 C 
BRANCH  18  19
ATOM     19  C   UNL     1     121.632 110.592 113.565  1.00  0.00     0.000 C 
BRANCH  19  20
ATOM     20  C   UNL     1     121.110 110.281 112.148  1.00  0.00     0.000 C 
BRANCH  20  21
ATOM     21  C   UNL     1     119.589 110.420 111.974  1.00  0.00     0.000 C 
BRANCH  21  22
ATOM     22  C   UNL     1     119.138 110.224 110.515  1.00  0.00     0.000 C 
BRANCH  22  23
ATOM     23  C   UNL     1     120.192 109.490 109.665  1.00  0.00     0.000 C 
BRANCH  23  24
ATOM     24  C   UNL     1     120.294 110.015 108.221  1.00  0.00    -0.000 C 
BRANCH  24  25
ATOM     25  C   UNL     1     119.841 111.487 108.082  1.00  0.00    -0.000 C 
BRANCH  25  26
ATOM     26  C   UNL     1     121.022 112.469 108.031  1.00  0.00    -0.000 C 
BRANCH  26  27
ATOM     27  C   UNL     1     121.340 113.053 109.418  1.00  0.00    -0.000 C 
BRANCH  27  28
ATOM     28  C   UNL     1     122.679 112.554 109.983  1.00  0.00    -0.000 C 
BRANCH  28  29
ATOM     29  C   UNL     1     123.116 113.325 111.240  1.00  0.00    -0.000 C 
BRANCH  29  30
ATOM     30  C   UNL     1     124.422 112.774 111.839  1.00  0.00    -0.000 C 
BRANCH  30  31
ATOM     31  C   UNL     1     124.557 113.083 113.338  1.00  0.00    -0.003 C 
ATOM     32  C   UNL     1     125.050 111.860 114.107  1.00  0.00     0.004 C 
ENDBRANCH  30  31
ENDBRANCH  29  30
ENDBRANCH  28  29
ENDBRANCH  27  28
ENDBRANCH  26  27
ENDBRANCH  25  26
ENDBRANCH  24  25
ENDBRANCH  23  24
ENDBRANCH  22  23
ENDBRANCH  21  22
ENDBRANCH  20  21
ENDBRANCH  19  20
ENDBRANCH  18  19
ENDBRANCH   1  18
TORSDOF 28
ENDMDL
MODEL 3
REMARK VINA RESULT:    -4.255      3.161      6.121
REMARK INTER + INTRA:         -15.553
REMARK INTER:                 -10.188
REMARK INTRA:                  -5.366
REMARK UNBOUND:                -4.333
REMARK SMILES CCCCCCCCCCCCCCCCCCCCCCCCCCCCCC(=O)[O-]
REMARK SMILES IDX 16 1 17 2 18 3 19 4 20 5 21 6 22 7 23 8 24 9 25 10 26 11
REMARK SMILES IDX 27 12 28 13 29 14 30 15 31 16 32 17 15 18 14 19 13 20 12 21
REMARK SMILES IDX 11 22 10 23 9 24 8 25 7 26 6 27 5 28 4 29 3 30 2 31 1 32
REMARK H PARENT
REMARK Flexibility Score: inf
ROOT
ATOM      1  C   UNL     1     120.230 111.144 108.648  1.00  0.00     0.000 C 
ENDROOT
BRANCH   1   2
ATOM      2  C   UNL     1     119.385 110.411 109.699  1.00  0.00     0.000 C 
BRANCH   2   3
ATOM      3  C   UNL     1     120.279 109.651 110.690  1.00  0.00     0.000 C 
BRANCH   3   4
ATOM      4  C   UNL     1     119.901 109.941 112.159  1.00  0.00     0.000 C 
BRANCH   4   5
ATOM      5  C   UNL     1     121.099 110.336 113.038  1.00  0.00     0.000 C 
BRANCH   5   6
ATOM      6  C   UNL     1     122.402 110.499 112.237  1.00  0.00     0.000 C 
BRANCH   6   7
ATOM      7  C   UNL     1     122.879 111.960 112.180  1.00  0.00     0.000 C 
BRANCH   7   8
ATOM      8  C   UNL     1     122.587 112.621 110.820  1.00  0.00     0.000 C 
BRANCH   8   9
ATOM      9  C   UNL     1     121.737 113.893 110.953  1.00  0.00     0.000 C 
BRANCH   9  10
ATOM     10  C   UNL     1     120.291 113.595 111.386  1.00  0.00     0.000 C 
BRANCH  10  11
ATOM     11  C   UNL     1     119.899 114.358 112.662  1.00  0.00     0.000 C 
BRANCH  11  12
ATOM     12  C   UNL     1     120.037 113.505 113.945  1.00  0.00     0.000 C 
BRANCH  12  13
ATOM     13  C   UNL     1     119.982 114.336 115.241  1.00  0.00     0.006 C 
BRANCH  13  14
ATOM     14  C   UNL     1     118.570 114.818 115.607  1.00  0.00     0.053 C 
BRANCH  14  15
ATOM     15  C   UNL     1     117.992 114.037 116.748  1.00  0.00     0.041 C 
ATOM     16  O   UNL     1     118.748 113.484 117.589  1.00  0.00    -0.550 OA
ATOM     17  O   UNL     1     116.615 113.934 116.890  1.00  0.00    -0.550 OA
ENDBRANCH  14  15
ENDBRANCH  13  14
ENDBRANCH  12  13
ENDBRANCH  11  12
ENDBRANCH  10  11
ENDBRANCH   9  10
ENDBRANCH   8   9
ENDBRANCH   7   8
ENDBRANCH   6   7
ENDBRANCH   5   6
ENDBRANCH   4   5
ENDBRANCH   3   4
ENDBRANCH   2   3
ENDBRANCH   1   2
BRANCH   1  18
ATOM     18  C   UNL     1     120.116 110.522 107.245  1.00  0.00     0.000 C 
BRANCH  18  19
ATOM     19  C   UNL     1     119.693 109.040 107.218  1.00  0.00     0.000 C 
BRANCH  19  20
ATOM     20  C   UNL     1     120.638 108.102 106.440  1.00  0.00     0.000 C 
BRANCH  20  21
ATOM     21  C   UNL     1     122.121 108.208 106.833  1.00  0.00     0.000 C 
BRANCH  21  22
ATOM     22  C   UNL     1     122.394 107.705 108.262  1.00  0.00     0.000 C 
BRANCH  22  23
ATOM     23  C   UNL     1     123.137 108.745 109.122  1.00  0.00     0.000 C 
BRANCH  23  24
ATOM     24  C   UNL     1     124.627 108.416 109.336  1.00  0.00    -0.000 C 
BRANCH  24  25
ATOM     25  C   UNL     1     125.570 109.524 108.811  1.00  0.00    -0.000 C 
BRANCH  25  26
ATOM     26  C   UNL     1     124.807 110.736 108.252  1.00  0.00    -0.000 C 
BRANCH  26  27
ATOM     27  C   UNL     1     124.804 110.750 106.714  1.00  0.00    -0.000 C 
BRANCH  27  28
ATOM     28  C   UNL     1     123.660 111.591 106.127  1.00  0.00    -0.000 C 
BRANCH  28  29
ATOM     29  C   UNL     1     123.121 112.635 107.120  1.00  0.00    -0.000 C 
BRANCH  29  30
ATOM     30  C   UNL     1     122.725 113.951 106.428  1.00  0.00    -0.000 C 
BRANCH  30  31
ATOM     31  C   UNL     1     121.579 113.764 105.422  1.00  0.00    -0.003 C 
ATOM     32  C   UNL     1     120.339 114.542 105.855  1.00  0.00     0.004 C 
ENDBRANCH  30  31
ENDBRANCH  29  30
ENDBRANCH  28  29
ENDBRANCH  27  28
ENDBRANCH  26  27
ENDBRANCH  25  26
ENDBRANCH  24  25
ENDBRANCH  23  24
ENDBRANCH  22  23
ENDBRANCH  21  22
ENDBRANCH  20  21
ENDBRANCH  19  20
ENDBRANCH  18  19
ENDBRANCH   1  18
TORSDOF 28
ENDMDL
MODEL 4
REMARK VINA RESULT:    -4.239      1.680      5.693
REMARK INTER + INTRA:         -15.511
REMARK INTER:                 -10.478
REMARK INTRA:                  -5.033
REMARK UNBOUND:                -4.333
REMARK SMILES CCCCCCCCCCCCCCCCCCCCCCCCCCCCCC(=O)[O-]
REMARK SMILES IDX 16 1 17 2 18 3 19 4 20 5 21 6 22 7 23 8 24 9 25 10 26 11
REMARK SMILES IDX 27 12 28 13 29 14 30 15 31 16 32 17 15 18 14 19 13 20 12 21
REMARK SMILES IDX 11 22 10 23 9 24 8 25 7 26 6 27 5 28 4 29 3 30 2 31 1 32
REMARK H PARENT
REMARK Flexibility Score: inf
ROOT
ATOM      1  C   UNL     1     119.061 110.386 111.720  1.00  0.00     0.000 C 
ENDROOT
BRANCH   1   2
ATOM      2  C   UNL     1     120.393 109.987 112.371  1.00  0.00     0.000 C 
BRANCH   2   3
ATOM      3  C   UNL     1     120.738 110.926 113.537  1.00  0.00     0.000 C 
BRANCH   3   4
ATOM      4  C   UNL     1     120.424 112.402 113.210  1.00  0.00     0.000 C 
BRANCH   4   5
ATOM      5  C   UNL     1     121.447 113.393 113.791  1.00  0.00     0.000 C 
BRANCH   5   6
ATOM      6  C   UNL     1     121.302 114.810 113.211  1.00  0.00     0.000 C 
BRANCH   6   7
ATOM      7  C   UNL     1     120.796 115.823 114.253  1.00  0.00     0.000 C 
BRANCH   7   8
ATOM      8  C   UNL     1     119.364 116.305 113.958  1.00  0.00     0.000 C 
BRANCH   8   9
ATOM      9  C   UNL     1     118.393 116.014 115.111  1.00  0.00     0.000 C 
BRANCH   9  10
ATOM     10  C   UNL     1     118.409 114.536 115.539  1.00  0.00     0.000 C 
BRANCH  10  11
ATOM     11  C   UNL     1     117.763 114.325 116.918  1.00  0.00     0.000 C 
BRANCH  11  12
ATOM     12  C   UNL     1     118.366 113.129 117.692  1.00  0.00     0.000 C 
BRANCH  12  13
ATOM     13  C   UNL     1     119.721 112.657 117.130  1.00  0.00     0.006 C 
BRANCH  13  14
ATOM     14  C   UNL     1     120.053 111.195 117.462  1.00  0.00     0.053 C 
BRANCH  14  15
ATOM     15  C   UNL     1     121.261 111.083 118.341  1.00  0.00     0.041 C 
ATOM     16  O   UNL     1     121.696 109.953 118.686  1.00  0.00    -0.550 OA
ATOM     17  O   UNL     1     121.918 112.231 118.767  1.00  0.00    -0.550 OA
ENDBRANCH  14  15
ENDBRANCH  13  14
ENDBRANCH  12  13
ENDBRANCH  11  12
ENDBRANCH  10  11
ENDBRANCH   9  10
ENDBRANCH   8   9
ENDBRANCH   7   8
ENDBRANCH   6   7
ENDBRANCH   5   6
ENDBRANCH   4   5
ENDBRANCH   3   4
ENDBRANCH   2   3
ENDBRANCH   1   2
BRANCH   1  18
ATOM     18  C   UNL     1     119.138 110.451 110.185  1.00  0.00     0.000 C 
BRANCH  18  19
ATOM     19  C   UNL     1     120.217 109.554 109.545  1.00  0.00     0.000 C 
BRANCH  19  20
ATOM     20  C   UNL     1     120.766 110.051 108.193  1.00  0.00     0.000 C 
BRANCH  20  21
ATOM     21  C   UNL     1     119.986 111.221 107.570  1.00  0.00     0.000 C 
BRANCH  21  22
ATOM     22  C   UNL     1     120.909 112.280 106.938  1.00  0.00     0.000 C 
BRANCH  22  23
ATOM     23  C   UNL     1     122.386 111.843 106.926  1.00  0.00     0.000 C 
BRANCH  23  24
ATOM     24  C   UNL     1     123.359 112.946 107.387  1.00  0.00    -0.000 C 
BRANCH  24  25
ATOM     25  C   UNL     1     124.280 112.492 108.542  1.00  0.00    -0.000 C 
BRANCH  25  26
ATOM     26  C   UNL     1     123.792 112.979 109.916  1.00  0.00    -0.000 C 
BRANCH  26  27
ATOM     27  C   UNL     1     122.959 111.907 110.640  1.00  0.00    -0.000 C 
BRANCH  27  28
ATOM     28  C   UNL     1     123.637 110.529 110.649  1.00  0.00    -0.000 C 
BRANCH  28  29
ATOM     29  C   UNL     1     124.715 110.406 111.739  1.00  0.00    -0.000 C 
BRANCH  29  30
ATOM     30  C   UNL     1     124.270 111.027 113.075  1.00  0.00    -0.000 C 
BRANCH  30  31
ATOM     31  C   UNL     1     124.253 110.005 114.222  1.00  0.00    -0.003 C 
ATOM     32  C   UNL     1     124.061 110.697 115.569  1.00  0.00     0.004 C 
ENDBRANCH  30  31
ENDBRANCH  29  30
ENDBRANCH  28  29
ENDBRANCH  27  28
ENDBRANCH  26  27
ENDBRANCH  25  26
ENDBRANCH  24  25
ENDBRANCH  23  24
ENDBRANCH  22  23
ENDBRANCH  21  22
ENDBRANCH  20  21
ENDBRANCH  19  20
ENDBRANCH  18  19
ENDBRANCH   1  18
TORSDOF 28
ENDMDL
MODEL 5
REMARK VINA RESULT:    -4.231      2.315      6.854
REMARK INTER + INTRA:         -15.490
REMARK INTER:                 -10.186
REMARK INTRA:                  -5.304
REMARK UNBOUND:                -4.333
REMARK SMILES CCCCCCCCCCCCCCCCCCCCCCCCCCCCCC(=O)[O-]
REMARK SMILES IDX 16 1 17 2 18 3 19 4 20 5 21 6 22 7 23 8 24 9 25 10 26 11
REMARK SMILES IDX 27 12 28 13 29 14 30 15 31 16 32 17 15 18 14 19 13 20 12 21
REMARK SMILES IDX 11 22 10 23 9 24 8 25 7 26 6 27 5 28 4 29 3 30 2 31 1 32
REMARK H PARENT
REMARK Flexibility Score: inf
ROOT
ATOM      1  C   UNL     1     120.594 111.956 114.044  1.00  0.00     0.000 C 
ENDROOT
BRANCH   1   2
ATOM      2  C   UNL     1     120.607 110.888 112.941  1.00  0.00     0.000 C 
BRANCH   2   3
ATOM      3  C   UNL     1     119.654 111.267 111.797  1.00  0.00     0.000 C 
BRANCH   3   4
ATOM      4  C   UNL     1     119.261 110.047 110.936  1.00  0.00     0.000 C 
BRANCH   4   5
ATOM      5  C   UNL     1     120.410 109.508 110.068  1.00  0.00     0.000 C 
BRANCH   5   6
ATOM      6  C   UNL     1     120.113 109.596 108.561  1.00  0.00     0.000 C 
BRANCH   6   7
ATOM      7  C   UNL     1     121.029 110.598 107.838  1.00  0.00     0.000 C 
BRANCH   7   8
ATOM      8  C   UNL     1     120.547 112.052 107.990  1.00  0.00     0.000 C 
BRANCH   8   9
ATOM      9  C   UNL     1     121.427 112.869 108.947  1.00  0.00     0.000 C 
BRANCH   9  10
ATOM     10  C   UNL     1     122.828 112.258 109.129  1.00  0.00     0.000 C 
BRANCH  10  11
ATOM     11  C   UNL     1     123.241 112.185 110.609  1.00  0.00     0.000 C 
BRANCH  11  12
ATOM     12  C   UNL     1     123.773 110.792 111.021  1.00  0.00     0.000 C 
BRANCH  12  13
ATOM     13  C   UNL     1     124.488 110.790 112.385  1.00  0.00     0.006 C 
BRANCH  13  14
ATOM     14  C   UNL     1     124.114 109.597 113.278  1.00  0.00     0.053 C 
BRANCH  14  15
ATOM     15  C   UNL     1     125.312 108.770 113.633  1.00  0.00     0.041 C 
ATOM     16  O   UNL     1     126.272 109.279 114.268  1.00  0.00    -0.550 OA
ATOM     17  O   UNL     1     125.358 107.429 113.276  1.00  0.00    -0.550 OA
ENDBRANCH  14  15
ENDBRANCH  13  14
ENDBRANCH  12  13
ENDBRANCH  11  12
ENDBRANCH  10  11
ENDBRANCH   9  10
ENDBRANCH   8   9
ENDBRANCH   7   8
ENDBRANCH   6   7
ENDBRANCH   5   6
ENDBRANCH   4   5
ENDBRANCH   3   4
ENDBRANCH   2   3
ENDBRANCH   1   2
BRANCH   1  18
ATOM     18  C   UNL     1     121.897 111.992 114.861  1.00  0.00     0.000 C 
BRANCH  18  19
ATOM     19  C   UNL     1     122.044 113.201 115.807  1.00  0.00     0.000 C 
BRANCH  19  20
ATOM     20  C   UNL     1     121.662 112.934 117.276  1.00  0.00     0.000 C 
BRANCH  20  21
ATOM     21  C   UNL     1     121.112 111.524 117.555  1.00  0.00     0.000 C 
BRANCH  21  22
ATOM     22  C   UNL     1     119.586 111.511 117.759  1.00  0.00     0.000 C 
BRANCH  22  23
ATOM     23  C   UNL     1     119.027 112.902 118.117  1.00  0.00     0.000 C 
BRANCH  23  24
ATOM     24  C   UNL     1     117.562 113.106 117.685  1.00  0.00    -0.000 C 
BRANCH  24  25
ATOM     25  C   UNL     1     117.368 114.349 116.785  1.00  0.00    -0.000 C 
BRANCH  25  26
ATOM     26  C   UNL     1     118.462 114.481 115.712  1.00  0.00    -0.000 C 
BRANCH  26  27
ATOM     27  C   UNL     1     118.518 115.902 115.125  1.00  0.00    -0.000 C 
BRANCH  27  28
ATOM     28  C   UNL     1     119.801 116.166 114.324  1.00  0.00    -0.000 C 
BRANCH  28  29
ATOM     29  C   UNL     1     119.587 116.049 112.805  1.00  0.00    -0.000 C 
BRANCH  29  30
ATOM     30  C   UNL     1     120.336 114.849 112.199  1.00  0.00    -0.000 C 
BRANCH  30  31
ATOM     31  C   UNL     1     121.857 114.949 112.390  1.00  0.00    -0.003 C 
ATOM     32  C   UNL     1     122.402 116.236 111.776  1.00  0.00     0.004 C 
ENDBRANCH  30  31
ENDBRANCH  29  30
ENDBRANCH  28  29
ENDBRANCH  27  28
ENDBRANCH  26  27
ENDBRANCH  25  26
ENDBRANCH  24  25
ENDBRANCH  23  24
ENDBRANCH  22  23
ENDBRANCH  21  22
ENDBRANCH  20  21
ENDBRANCH  19  20
ENDBRANCH  18  19
ENDBRANCH   1  18
TORSDOF 28
ENDMDL
MODEL 6
REMARK VINA RESULT:    -4.229      4.394      9.396
REMARK INTER + INTRA:         -15.485
REMARK INTER:                 -10.283
REMARK INTRA:                  -5.202
REMARK UNBOUND:                -4.333
REMARK SMILES CCCCCCCCCCCCCCCCCCCCCCCCCCCCCC(=O)[O-]
REMARK SMILES IDX 16 1 17 2 18 3 19 4 20 5 21 6 22 7 23 8 24 9 25 10 26 11
REMARK SMILES IDX 27 12 28 13 29 14 30 15 31 16 32 17 15 18 14 19 13 20 12 21
REMARK SMILES IDX 11 22 10 23 9 24 8 25 7 26 6 27 5 28 4 29 3 30 2 31 1 32
REMARK H PARENT
REMARK Flexibility Score: inf
ROOT
ATOM      1  C   UNL     1     119.656 111.101 111.773  1.00  0.00     0.000 C 
ENDROOT
BRANCH   1   2
ATOM      2  C   UNL     1     119.073 110.355 110.563  1.00  0.00     0.000 C 
BRANCH   2   3
ATOM      3  C   UNL     1     120.154 109.523 109.857  1.00  0.00     0.000 C 
BRANCH   3   4
ATOM      4  C   UNL     1     120.039 109.601 108.320  1.00  0.00     0.000 C 
BRANCH   4   5
ATOM      5  C   UNL     1     121.217 108.946 107.579  1.00  0.00     0.000 C 
BRANCH   5   6
ATOM      6  C   UNL     1     121.987 109.934 106.686  1.00  0.00     0.000 C 
BRANCH   6   7
ATOM      7  C   UNL     1     123.471 110.042 107.073  1.00  0.00     0.000 C 
BRANCH   7   8
ATOM      8  C   UNL     1     123.669 110.408 108.555  1.00  0.00     0.000 C 
BRANCH   8   9
ATOM      9  C   UNL     1     123.656 111.925 108.796  1.00  0.00     0.000 C 
BRANCH   9  10
ATOM     10  C   UNL     1     122.581 112.354 109.810  1.00  0.00     0.000 C 
BRANCH  10  11
ATOM     11  C   UNL     1     121.349 112.969 109.124  1.00  0.00     0.000 C 
BRANCH  11  12
ATOM     12  C   UNL     1     121.694 113.708 107.809  1.00  0.00     0.000 C 
BRANCH  12  13
ATOM     13  C   UNL     1     120.808 113.288 106.622  1.00  0.00     0.006 C 
BRANCH  13  14
ATOM     14  C   UNL     1     121.068 114.094 105.341  1.00  0.00     0.053 C 
BRANCH  14  15
ATOM     15  C   UNL     1     120.660 115.528 105.492  1.00  0.00     0.041 C 
ATOM     16  O   UNL     1     119.452 115.831 105.670  1.00  0.00    -0.550 OA
ATOM     17  O   UNL     1     121.621 116.529 105.453  1.00  0.00    -0.550 OA
ENDBRANCH  14  15
ENDBRANCH  13  14
ENDBRANCH  12  13
ENDBRANCH  11  12
ENDBRANCH  10  11
ENDBRANCH   9  10
ENDBRANCH   8   9
ENDBRANCH   7   8
ENDBRANCH   6   7
ENDBRANCH   5   6
ENDBRANCH   4   5
ENDBRANCH   3   4
ENDBRANCH   2   3
ENDBRANCH   1   2
BRANCH   1  18
ATOM     18  C   UNL     1     120.428 110.178 112.732  1.00  0.00     0.000 C 
BRANCH  18  19
ATOM     19  C   UNL     1     121.938 110.469 112.847  1.00  0.00     0.000 C 
BRANCH  19  20
ATOM     20  C   UNL     1     122.438 110.781 114.272  1.00  0.00     0.000 C 
BRANCH  20  21
ATOM     21  C   UNL     1     121.624 111.847 115.024  1.00  0.00     0.000 C 
BRANCH  21  22
ATOM     22  C   UNL     1     122.399 113.165 115.209  1.00  0.00     0.000 C 
BRANCH  22  23
ATOM     23  C   UNL     1     123.604 113.280 114.256  1.00  0.00     0.000 C 
BRANCH  23  24
ATOM     24  C   UNL     1     123.320 114.129 113.002  1.00  0.00    -0.000 C 
BRANCH  24  25
ATOM     25  C   UNL     1     122.120 115.087 113.183  1.00  0.00    -0.000 C 
BRANCH  25  26
ATOM     26  C   UNL     1     120.944 114.747 112.253  1.00  0.00    -0.000 C 
BRANCH  26  27
ATOM     27  C   UNL     1     119.658 114.450 113.042  1.00  0.00    -0.000 C 
BRANCH  27  28
ATOM     28  C   UNL     1     119.401 115.462 114.168  1.00  0.00    -0.000 C 
BRANCH  28  29
ATOM     29  C   UNL     1     119.264 114.794 115.547  1.00  0.00    -0.000 C 
BRANCH  29  30
ATOM     30  C   UNL     1     117.806 114.760 116.038  1.00  0.00    -0.000 C 
BRANCH  30  31
ATOM     31  C   UNL     1     117.643 113.954 117.336  1.00  0.00    -0.003 C 
ATOM     32  C   UNL     1     118.866 113.078 117.594  1.00  0.00     0.004 C 
ENDBRANCH  30  31
ENDBRANCH  29  30
ENDBRANCH  28  29
ENDBRANCH  27  28
ENDBRANCH  26  27
ENDBRANCH  25  26
ENDBRANCH  24  25
ENDBRANCH  23  24
ENDBRANCH  22  23
ENDBRANCH  21  22
ENDBRANCH  20  21
ENDBRANCH  19  20
ENDBRANCH  18  19
ENDBRANCH   1  18
TORSDOF 28
ENDMDL
MODEL 7
REMARK VINA RESULT:    -4.211      4.433      9.711
REMARK INTER + INTRA:         -15.438
REMARK INTER:                 -10.934
REMARK INTRA:                  -4.504
REMARK UNBOUND:                -4.333
REMARK SMILES CCCCCCCCCCCCCCCCCCCCCCCCCCCCCC(=O)[O-]
REMARK SMILES IDX 16 1 17 2 18 3 19 4 20 5 21 6 22 7 23 8 24 9 25 10 26 11
REMARK SMILES IDX 27 12 28 13 29 14 30 15 31 16 32 17 15 18 14 19 13 20 12 21
REMARK SMILES IDX 11 22 10 23 9 24 8 25 7 26 6 27 5 28 4 29 3 30 2 31 1 32
REMARK H PARENT
REMARK Flexibility Score: inf
ROOT
ATOM      1  C   UNL     1     119.250 110.904 111.370  1.00  0.00     0.000 C 
ENDROOT
BRANCH   1   2
ATOM      2  C   UNL     1     119.335 110.841 109.837  1.00  0.00     0.000 C 
BRANCH   2   3
ATOM      3  C   UNL     1     120.159 109.627 109.382  1.00  0.00     0.000 C 
BRANCH   3   4
ATOM      4  C   UNL     1     119.980 109.332 107.877  1.00  0.00     0.000 C 
BRANCH   4   5
ATOM      5  C   UNL     1     121.308 109.189 107.115  1.00  0.00     0.000 C 
BRANCH   5   6
ATOM      6  C   UNL     1     122.376 108.419 107.911  1.00  0.00     0.000 C 
BRANCH   6   7
ATOM      7  C   UNL     1     123.714 109.173 107.982  1.00  0.00     0.000 C 
BRANCH   7   8
ATOM      8  C   UNL     1     123.752 110.200 109.128  1.00  0.00     0.000 C 
BRANCH   8   9
ATOM      9  C   UNL     1     123.713 111.650 108.623  1.00  0.00     0.000 C 
BRANCH   9  10
ATOM     10  C   UNL     1     122.463 112.409 109.101  1.00  0.00     0.000 C 
BRANCH  10  11
ATOM     11  C   UNL     1     121.964 113.420 108.055  1.00  0.00     0.000 C 
BRANCH  11  12
ATOM     12  C   UNL     1     121.077 112.775 106.964  1.00  0.00     0.000 C 
BRANCH  12  13
ATOM     13  C   UNL     1     120.688 113.750 105.837  1.00  0.00     0.006 C 
BRANCH  13  14
ATOM     14  C   UNL     1     121.555 115.017 105.788  1.00  0.00     0.053 C 
BRANCH  14  15
ATOM     15  C   UNL     1     120.740 116.238 105.484  1.00  0.00     0.041 C 
ATOM     16  O   UNL     1     121.306 117.327 105.206  1.00  0.00    -0.550 OA
ATOM     17  O   UNL     1     119.354 116.166 105.493  1.00  0.00    -0.550 OA
ENDBRANCH  14  15
ENDBRANCH  13  14
ENDBRANCH  12  13
ENDBRANCH  11  12
ENDBRANCH  10  11
ENDBRANCH   9  10
ENDBRANCH   8   9
ENDBRANCH   7   8
ENDBRANCH   6   7
ENDBRANCH   5   6
ENDBRANCH   4   5
ENDBRANCH   3   4
ENDBRANCH   2   3
ENDBRANCH   1   2
BRANCH   1  18
ATOM     18  C   UNL     1     120.152 109.868 112.063  1.00  0.00     0.000 C 
BRANCH  18  19
ATOM     19  C   UNL     1     120.970 110.406 113.255  1.00  0.00     0.000 C 
BRANCH  19  20
ATOM     20  C   UNL     1     122.007 111.490 112.902  1.00  0.00     0.000 C 
BRANCH  20  21
ATOM     21  C   UNL     1     121.872 112.798 113.700  1.00  0.00     0.000 C 
BRANCH  21  22
ATOM     22  C   UNL     1     122.078 114.050 112.826  1.00  0.00     0.000 C 
BRANCH  22  23
ATOM     23  C   UNL     1     120.967 114.224 111.774  1.00  0.00     0.000 C 
BRANCH  23  24
ATOM     24  C   UNL     1     119.598 114.593 112.377  1.00  0.00    -0.000 C 
BRANCH  24  25
ATOM     25  C   UNL     1     119.586 115.996 113.028  1.00  0.00    -0.000 C 
BRANCH  25  26
ATOM     26  C   UNL     1     118.841 116.020 114.372  1.00  0.00    -0.000 C 
BRANCH  26  27
ATOM     27  C   UNL     1     119.058 114.723 115.170  1.00  0.00    -0.000 C 
BRANCH  27  28
ATOM     28  C   UNL     1     118.100 114.588 116.363  1.00  0.00    -0.000 C 
BRANCH  28  29
ATOM     29  C   UNL     1     118.321 113.291 117.158  1.00  0.00    -0.000 C 
BRANCH  29  30
ATOM     30  C   UNL     1     119.813 112.990 117.386  1.00  0.00    -0.000 C 
BRANCH  30  31
ATOM     31  C   UNL     1     120.195 111.562 116.968  1.00  0.00    -0.003 C 
ATOM     32  C   UNL     1     121.019 110.877 118.055  1.00  0.00     0.004 C 
ENDBRANCH  30  31
ENDBRANCH  29  30
ENDBRANCH  28  29
ENDBRANCH  27  28
ENDBRANCH  26  27
ENDBRANCH  25  26
ENDBRANCH  24  25
ENDBRANCH  23  24
ENDBRANCH  22  23
ENDBRANCH  21  22
ENDBRANCH  20  21
ENDBRANCH  19  20
ENDBRANCH  18  19
ENDBRANCH   1  18
TORSDOF 28
ENDMDL
MODEL 8
REMARK VINA RESULT:    -4.149      3.142      8.764
REMARK INTER + INTRA:         -15.273
REMARK INTER:                 -10.078
REMARK INTRA:                  -5.195
REMARK UNBOUND:                -4.333
REMARK SMILES CCCCCCCCCCCCCCCCCCCCCCCCCCCCCC(=O)[O-]
REMARK SMILES IDX 16 1 17 2 18 3 19 4 20 5 21 6 22 7 23 8 24 9 25 10 26 11
REMARK SMILES IDX 27 12 28 13 29 14 30 15 31 16 32 17 15 18 14 19 13 20 12 21
REMARK SMILES IDX 11 22 10 23 9 24 8 25 7 26 6 27 5 28 4 29 3 30 2 31 1 32
REMARK H PARENT
REMARK Flexibility Score: inf
ROOT
ATOM      1  C   UNL     1     119.620 111.190 109.036  1.00  0.00     0.000 C 
ENDROOT
BRANCH   1   2
ATOM      2  C   UNL     1     120.065 110.778 107.625  1.00  0.00     0.000 C 
BRANCH   2   3
ATOM      3  C   UNL     1     119.995 109.253 107.450  1.00  0.00     0.000 C 
BRANCH   3   4
ATOM      4  C   UNL     1     121.208 108.698 106.671  1.00  0.00     0.000 C 
BRANCH   4   5
ATOM      5  C   UNL     1     122.558 108.973 107.355  1.00  0.00     0.000 C 
BRANCH   5   6
ATOM      6  C   UNL     1     122.618 108.439 108.796  1.00  0.00     0.000 C 
BRANCH   6   7
ATOM      7  C   UNL     1     123.118 109.497 109.794  1.00  0.00     0.000 C 
BRANCH   7   8
ATOM      8  C   UNL     1     123.568 110.796 109.100  1.00  0.00     0.000 C 
BRANCH   8   9
ATOM      9  C   UNL     1     123.431 112.028 110.006  1.00  0.00     0.000 C 
BRANCH   9  10
ATOM     10  C   UNL     1     122.508 113.103 109.405  1.00  0.00     0.000 C 
BRANCH  10  11
ATOM     11  C   UNL     1     121.984 114.079 110.472  1.00  0.00     0.000 C 
BRANCH  11  12
ATOM     12  C   UNL     1     122.945 114.237 111.674  1.00  0.00     0.000 C 
BRANCH  12  13
ATOM     13  C   UNL     1     122.660 115.488 112.525  1.00  0.00     0.006 C 
BRANCH  13  14
ATOM     14  C   UNL     1     121.376 116.229 112.125  1.00  0.00     0.053 C 
BRANCH  14  15
ATOM     15  C   UNL     1     121.085 117.377 113.044  1.00  0.00     0.041 C 
ATOM     16  O   UNL     1     121.565 117.399 114.207  1.00  0.00    -0.550 OA
ATOM     17  O   UNL     1     120.295 118.432 112.607  1.00  0.00    -0.550 OA
ENDBRANCH  14  15
ENDBRANCH  13  14
ENDBRANCH  12  13
ENDBRANCH  11  12
ENDBRANCH  10  11
ENDBRANCH   9  10
ENDBRANCH   8   9
ENDBRANCH   7   8
ENDBRANCH   6   7
ENDBRANCH   5   6
ENDBRANCH   4   5
ENDBRANCH   3   4
ENDBRANCH   2   3
ENDBRANCH   1   2
BRANCH   1  18
ATOM     18  C   UNL     1     119.487 109.995 109.996  1.00  0.00     0.000 C 
BRANCH  18  19
ATOM     19  C   UNL     1     119.239 110.366 111.472  1.00  0.00     0.000 C 
BRANCH  19  20
ATOM     20  C   UNL     1     120.376 109.989 112.442  1.00  0.00     0.000 C 
BRANCH  20  21
ATOM     21  C   UNL     1     121.347 111.134 112.776  1.00  0.00     0.000 C 
BRANCH  21  22
ATOM     22  C   UNL     1     120.910 111.943 114.011  1.00  0.00     0.000 C 
BRANCH  22  23
ATOM     23  C   UNL     1     119.965 113.105 113.650  1.00  0.00     0.000 C 
BRANCH  23  24
ATOM     24  C   UNL     1     119.812 114.147 114.775  1.00  0.00    -0.000 C 
BRANCH  24  25
ATOM     25  C   UNL     1     120.194 113.591 116.167  1.00  0.00    -0.000 C 
BRANCH  25  26
ATOM     26  C   UNL     1     118.977 113.413 117.089  1.00  0.00    -0.000 C 
BRANCH  26  27
ATOM     27  C   UNL     1     119.113 112.167 117.981  1.00  0.00    -0.000 C 
BRANCH  27  28
ATOM     28  C   UNL     1     120.063 111.113 117.394  1.00  0.00    -0.000 C 
BRANCH  28  29
ATOM     29  C   UNL     1     121.209 110.748 118.352  1.00  0.00    -0.000 C 
BRANCH  29  30
ATOM     30  C   UNL     1     122.558 111.340 117.904  1.00  0.00    -0.000 C 
BRANCH  30  31
ATOM     31  C   UNL     1     122.824 112.723 118.515  1.00  0.00    -0.003 C 
ATOM     32  C   UNL     1     122.304 112.798 119.948  1.00  0.00     0.004 C 
ENDBRANCH  30  31
ENDBRANCH  29  30
ENDBRANCH  28  29
ENDBRANCH  27  28
ENDBRANCH  26  27
ENDBRANCH  25  26
ENDBRANCH  24  25
ENDBRANCH  23  24
ENDBRANCH  22  23
ENDBRANCH  21  22
ENDBRANCH  20  21
ENDBRANCH  19  20
ENDBRANCH  18  19
ENDBRANCH   1  18
TORSDOF 28
ENDMDL
MODEL 9
REMARK VINA RESULT:    -4.129      4.113      9.564
REMARK INTER + INTRA:         -15.220
REMARK INTER:                 -10.191
REMARK INTRA:                  -5.029
REMARK UNBOUND:                -4.333
REMARK SMILES CCCCCCCCCCCCCCCCCCCCCCCCCCCCCC(=O)[O-]
REMARK SMILES IDX 16 1 17 2 18 3 19 4 20 5 21 6 22 7 23 8 24 9 25 10 26 11
REMARK SMILES IDX 27 12 28 13 29 14 30 15 31 16 32 17 15 18 14 19 13 20 12 21
REMARK SMILES IDX 11 22 10 23 9 24 8 25 7 26 6 27 5 28 4 29 3 30 2 31 1 32
REMARK H PARENT
REMARK Flexibility Score: inf
ROOT
ATOM      1  C   UNL     1     120.601 109.993 112.235  1.00  0.00     0.000 C 
ENDROOT
BRANCH   1   2
ATOM      2  C   UNL     1     119.222 110.483 111.771  1.00  0.00     0.000 C 
BRANCH   2   3
ATOM      3  C   UNL     1     119.060 110.312 110.253  1.00  0.00     0.000 C 
BRANCH   3   4
ATOM      4  C   UNL     1     119.669 111.492 109.465  1.00  0.00     0.000 C 
BRANCH   4   5
ATOM      5  C   UNL     1     119.934 111.173 107.983  1.00  0.00     0.000 C 
BRANCH   5   6
ATOM      6  C   UNL     1     119.874 109.667 107.676  1.00  0.00     0.000 C 
BRANCH   6   7
ATOM      7  C   UNL     1     121.184 109.139 107.067  1.00  0.00     0.000 C 
BRANCH   7   8
ATOM      8  C   UNL     1     122.062 108.410 108.100  1.00  0.00     0.000 C 
BRANCH   8   9
ATOM      9  C   UNL     1     123.347 109.182 108.434  1.00  0.00     0.000 C 
BRANCH   9  10
ATOM     10  C   UNL     1     123.166 110.144 109.622  1.00  0.00     0.000 C 
BRANCH  10  11
ATOM     11  C   UNL     1     123.447 111.605 109.233  1.00  0.00     0.000 C 
BRANCH  11  12
ATOM     12  C   UNL     1     123.584 111.809 107.706  1.00  0.00     0.000 C 
BRANCH  12  13
ATOM     13  C   UNL     1     122.975 113.134 107.209  1.00  0.00     0.006 C 
BRANCH  13  14
ATOM     14  C   UNL     1     122.448 113.071 105.768  1.00  0.00     0.053 C 
BRANCH  14  15
ATOM     15  C   UNL     1     121.476 114.175 105.481  1.00  0.00     0.041 C 
ATOM     16  O   UNL     1     120.343 114.184 106.029  1.00  0.00    -0.550 OA
ATOM     17  O   UNL     1     121.831 115.204 104.619  1.00  0.00    -0.550 OA
ENDBRANCH  14  15
ENDBRANCH  13  14
ENDBRANCH  12  13
ENDBRANCH  11  12
ENDBRANCH  10  11
ENDBRANCH   9  10
ENDBRANCH   8   9
ENDBRANCH   7   8
ENDBRANCH   6   7
ENDBRANCH   5   6
ENDBRANCH   4   5
ENDBRANCH   3   4
ENDBRANCH   2   3
ENDBRANCH   1   2
BRANCH   1  18
ATOM     18  C   UNL     1     121.280 110.957 113.223  1.00  0.00     0.000 C 
BRANCH  18  19
ATOM     19  C   UNL     1     121.991 112.164 112.578  1.00  0.00     0.000 C 
BRANCH  19  20
ATOM     20  C   UNL     1     121.572 113.542 113.127  1.00  0.00     0.000 C 
BRANCH  20  21
ATOM     21  C   UNL     1     120.063 113.710 113.369  1.00  0.00     0.000 C 
BRANCH  21  22
ATOM     22  C   UNL     1     119.714 113.871 114.860  1.00  0.00     0.000 C 
BRANCH  22  23
ATOM     23  C   UNL     1     120.955 114.151 115.728  1.00  0.00     0.000 C 
BRANCH  23  24
ATOM     24  C   UNL     1     121.130 113.158 116.893  1.00  0.00    -0.000 C 
BRANCH  24  25
ATOM     25  C   UNL     1     120.331 111.849 116.692  1.00  0.00    -0.000 C 
BRANCH  25  26
ATOM     26  C   UNL     1     120.548 110.841 117.833  1.00  0.00    -0.000 C 
BRANCH  26  27
ATOM     27  C   UNL     1     121.487 111.397 118.917  1.00  0.00    -0.000 C 
BRANCH  27  28
ATOM     28  C   UNL     1     122.340 110.308 119.584  1.00  0.00    -0.000 C 
BRANCH  28  29
ATOM     29  C   UNL     1     123.267 109.588 118.589  1.00  0.00    -0.000 C 
BRANCH  29  30
ATOM     30  C   UNL     1     124.634 110.282 118.456  1.00  0.00    -0.000 C 
BRANCH  30  31
ATOM     31  C   UNL     1     125.070 110.443 116.992  1.00  0.00    -0.003 C 
ATOM     32  C   UNL     1     123.865 110.669 116.084  1.00  0.00     0.004 C 
ENDBRANCH  30  31
ENDBRANCH  29  30
ENDBRANCH  28  29
ENDBRANCH  27  28
ENDBRANCH  26  27
ENDBRANCH  25  26
ENDBRANCH  24  25
ENDBRANCH  23  24
ENDBRANCH  22  23
ENDBRANCH  21  22
ENDBRANCH  20  21
ENDBRANCH  19  20
ENDBRANCH  18  19
ENDBRANCH   1  18
TORSDOF 28
ENDMDL
