MODEL 1
REMARK VINA RESULT:    -5.557      0.000      0.000
REMARK INTER + INTRA:          -7.009
REMARK INTER:                  -6.694
REMARK INTRA:                  -0.315
REMARK UNBOUND:                -0.315
REMARK SMILES O=c1c(O)c(-c2ccc(O)c(O)c2)oc2cc(O)cc(O)c12
REMARK SMILES IDX 5 1 3 2 2 3 1 4 22 5 20 6 19 7 17 8 16 9 15 10 14 11 6 12
REMARK SMILES IDX 7 13 8 14 9 15 13 16 11 17 10 18 12 20 4 22 21 24 18 26
REMARK H PARENT 10 19 12 21 4 23 21 25 18 27
REMARK Flexibility Score: inf
ROOT
ATOM      1  C   UNL     1      -7.368  23.031  -8.966  1.00  0.00     0.180 A 
ATOM      2  C   UNL     1      -7.659  21.751  -9.476  1.00  0.00     0.208 A 
ATOM      3  C   UNL     1      -6.758  20.703  -9.234  1.00  0.00     0.238 A 
ATOM      4  O   UNL     1      -7.013  19.549  -9.676  1.00  0.00    -0.285 OA
ATOM      5  C   UNL     1      -5.576  20.954  -8.506  1.00  0.00     0.111 A 
ATOM      6  C   UNL     1      -4.615  19.953  -8.221  1.00  0.00     0.134 A 
ATOM      7  C   UNL     1      -3.459  20.285  -7.499  1.00  0.00     0.093 A 
ATOM      8  C   UNL     1      -3.246  21.593  -7.058  1.00  0.00     0.123 A 
ATOM      9  C   UNL     1      -4.192  22.585  -7.334  1.00  0.00     0.094 A 
ATOM     10  C   UNL     1      -5.351  22.274  -8.052  1.00  0.00     0.146 A 
ATOM     11  O   UNL     1      -6.236  23.234  -8.298  1.00  0.00    -0.452 OA
ENDROOT
BRANCH   1  12
ATOM     12  C   UNL     1      -8.277  24.182  -9.164  1.00  0.00     0.025 A 
ATOM     13  C   UNL     1      -9.201  24.564  -8.176  1.00  0.00     0.016 A 
ATOM     14  C   UNL     1     -10.031  25.670  -8.375  1.00  0.00     0.051 A 
ATOM     15  C   UNL     1      -9.943  26.417  -9.555  1.00  0.00     0.157 A 
ATOM     16  C   UNL     1      -8.178  24.948 -10.338  1.00  0.00     0.062 A 
ATOM     17  C   UNL     1      -9.009  26.056 -10.541  1.00  0.00     0.158 A 
BRANCH  15  18
ATOM     18  O   UNL     1     -10.776  27.519  -9.752  1.00  0.00    -0.504 OA
ATOM     19  H   UNL     1     -10.627  28.166 -10.518  1.00  0.00     0.293 HD
ENDBRANCH  15  18
BRANCH  17  20
ATOM     20  O   UNL     1      -8.890  26.784 -11.724  1.00  0.00    -0.504 OA
ATOM     21  H   UNL     1      -8.763  27.789 -11.727  1.00  0.00     0.293 HD
ENDBRANCH  17  20
ENDBRANCH   1  12
BRANCH   2  22
ATOM     22  O   UNL     1      -8.812  21.540 -10.236  1.00  0.00    -0.502 OA
ATOM     23  H   UNL     1      -9.608  22.166 -10.201  1.00  0.00     0.293 HD
ENDBRANCH   2  22
BRANCH   6  24
ATOM     24  O   UNL     1      -4.799  18.639  -8.650  1.00  0.00    -0.507 OA
ATOM     25  H   UNL     1      -5.702  18.181  -8.595  1.00  0.00     0.293 HD
ENDBRANCH   6  24
BRANCH   8  26
ATOM     26  O   UNL     1      -2.089  21.897  -6.343  1.00  0.00    -0.508 OA
ATOM     27  H   UNL     1      -1.934  21.538  -5.408  1.00  0.00     0.293 HD
ENDBRANCH   8  26
TORSDOF 6
ENDMDL
MODEL 2
REMARK VINA RESULT:    -5.449      1.591      6.886
REMARK INTER + INTRA:          -6.879
REMARK INTER:                  -6.700
REMARK INTRA:                  -0.179
REMARK UNBOUND:                -0.315
REMARK SMILES O=c1c(O)c(-c2ccc(O)c(O)c2)oc2cc(O)cc(O)c12
REMARK SMILES IDX 5 1 3 2 2 3 1 4 22 5 20 6 19 7 17 8 16 9 15 10 14 11 6 12
REMARK SMILES IDX 7 13 8 14 9 15 13 16 11 17 10 18 12 20 4 22 21 24 18 26
REMARK H PARENT 10 19 12 21 4 23 21 25 18 27
REMARK Flexibility Score: inf
ROOT
ATOM      1  C   UNL     1      -7.398  23.375  -9.363  1.00  0.00     0.180 A 
ATOM      2  C   UNL     1      -8.681  23.552  -8.811  1.00  0.00     0.208 A 
ATOM      3  C   UNL     1      -9.362  24.757  -9.047  1.00  0.00     0.238 A 
ATOM      4  O   UNL     1     -10.516  24.923  -8.567  1.00  0.00    -0.285 OA
ATOM      5  C   UNL     1      -8.743  25.768  -9.811  1.00  0.00     0.111 A 
ATOM      6  C   UNL     1      -9.358  27.012 -10.093  1.00  0.00     0.134 A 
ATOM      7  C   UNL     1      -8.673  27.971 -10.853  1.00  0.00     0.093 A 
ATOM      8  C   UNL     1      -7.388  27.712 -11.335  1.00  0.00     0.123 A 
ATOM      9  C   UNL     1      -6.775  26.485 -11.062  1.00  0.00     0.094 A 
ATOM     10  C   UNL     1      -7.442  25.516 -10.307  1.00  0.00     0.146 A 
ATOM     11  O   UNL     1      -6.840  24.356 -10.065  1.00  0.00    -0.452 OA
ENDROOT
BRANCH   1  12
ATOM     12  C   UNL     1      -6.626  22.126  -9.174  1.00  0.00     0.025 A 
ATOM     13  C   UNL     1      -7.084  20.898  -9.681  1.00  0.00     0.016 A 
ATOM     14  C   UNL     1      -6.325  19.737  -9.511  1.00  0.00     0.051 A 
ATOM     15  C   UNL     1      -5.095  19.787  -8.846  1.00  0.00     0.157 A 
ATOM     16  C   UNL     1      -5.380  22.175  -8.526  1.00  0.00     0.062 A 
ATOM     17  C   UNL     1      -4.618  21.014  -8.353  1.00  0.00     0.158 A 
BRANCH  15  18
ATOM     18  O   UNL     1      -4.341  18.626  -8.676  1.00  0.00    -0.504 OA
ATOM     19  H   UNL     1      -3.430  18.645  -8.232  1.00  0.00     0.293 HD
ENDBRANCH  15  18
BRANCH  17  20
ATOM     20  O   UNL     1      -3.393  21.099  -7.693  1.00  0.00    -0.504 OA
ATOM     21  H   UNL     1      -3.078  20.383  -7.050  1.00  0.00     0.293 HD
ENDBRANCH  17  20
ENDBRANCH   1  12
BRANCH   2  22
ATOM     22  O   UNL     1      -9.252  22.555  -8.016  1.00  0.00    -0.502 OA
ATOM     23  H   UNL     1      -9.530  22.718  -7.056  1.00  0.00     0.293 HD
ENDBRANCH   2  22
BRANCH   6  24
ATOM     24  O   UNL     1     -10.640  27.301  -9.623  1.00  0.00    -0.507 OA
ATOM     25  H   UNL     1     -11.459  26.821  -9.980  1.00  0.00     0.293 HD
ENDBRANCH   6  24
BRANCH   8  26
ATOM     26  O   UNL     1      -6.728  28.682 -12.088  1.00  0.00    -0.508 OA
ATOM     27  H   UNL     1      -6.263  28.452 -12.958  1.00  0.00     0.293 HD
ENDBRANCH   8  26
TORSDOF 6
ENDMDL
MODEL 3
REMARK VINA RESULT:    -5.287      1.512      2.147
REMARK INTER + INTRA:          -6.684
REMARK INTER:                  -6.492
REMARK INTRA:                  -0.193
REMARK UNBOUND:                -0.315
REMARK SMILES O=c1c(O)c(-c2ccc(O)c(O)c2)oc2cc(O)cc(O)c12
REMARK SMILES IDX 5 1 3 2 2 3 1 4 22 5 20 6 19 7 17 8 16 9 15 10 14 11 6 12
REMARK SMILES IDX 7 13 8 14 9 15 13 16 11 17 10 18 12 20 4 22 21 24 18 26
REMARK H PARENT 10 19 12 21 4 23 21 25 18 27
REMARK Flexibility Score: inf
ROOT
ATOM      1  C   UNL     1      -7.877  24.213  -9.677  1.00  0.00     0.180 A 
ATOM      2  C   UNL     1      -8.534  22.968  -9.674  1.00  0.00     0.208 A 
ATOM      3  C   UNL     1      -7.781  21.804  -9.452  1.00  0.00     0.238 A 
ATOM      4  O   UNL     1      -8.360  20.684  -9.435  1.00  0.00    -0.285 OA
ATOM      5  C   UNL     1      -6.387  21.902  -9.257  1.00  0.00     0.111 A 
ATOM      6  C   UNL     1      -5.556  20.778  -9.031  1.00  0.00     0.134 A 
ATOM      7  C   UNL     1      -4.176  20.958  -8.856  1.00  0.00     0.093 A 
ATOM      8  C   UNL     1      -3.613  22.235  -8.904  1.00  0.00     0.123 A 
ATOM      9  C   UNL     1      -4.428  23.349  -9.125  1.00  0.00     0.094 A 
ATOM     10  C   UNL     1      -5.806  23.191  -9.301  1.00  0.00     0.146 A 
ATOM     11  O   UNL     1      -6.560  24.266  -9.506  1.00  0.00    -0.452 OA
ENDROOT
BRANCH   1  12
ATOM     12  C   UNL     1      -8.604  25.486  -9.886  1.00  0.00     0.025 A 
ATOM     13  C   UNL     1      -8.439  26.239 -11.061  1.00  0.00     0.016 A 
ATOM     14  C   UNL     1      -9.155  27.425 -11.246  1.00  0.00     0.051 A 
ATOM     15  C   UNL     1     -10.054  27.868 -10.270  1.00  0.00     0.157 A 
ATOM     16  C   UNL     1      -9.523  25.925  -8.918  1.00  0.00     0.062 A 
ATOM     17  C   UNL     1     -10.242  27.112  -9.100  1.00  0.00     0.158 A 
BRANCH  15  18
ATOM     18  O   UNL     1     -10.765  29.054 -10.457  1.00  0.00    -0.504 OA
ATOM     19  H   UNL     1     -11.562  29.291  -9.877  1.00  0.00     0.293 HD
ENDBRANCH  15  18
BRANCH  17  20
ATOM     20  O   UNL     1     -11.135  27.522  -8.111  1.00  0.00    -0.504 OA
ATOM     21  H   UNL     1     -10.825  27.794  -7.186  1.00  0.00     0.293 HD
ENDBRANCH  17  20
ENDBRANCH   1  12
BRANCH   2  22
ATOM     22  O   UNL     1      -9.908  22.894  -9.917  1.00  0.00    -0.502 OA
ATOM     23  H   UNL     1     -10.288  22.473 -10.757  1.00  0.00     0.293 HD
ENDBRANCH   2  22
BRANCH   6  24
ATOM     24  O   UNL     1      -6.090  19.490  -8.980  1.00  0.00    -0.507 OA
ATOM     25  H   UNL     1      -5.516  18.684  -8.759  1.00  0.00     0.293 HD
ENDBRANCH   6  24
BRANCH   8  26
ATOM     26  O   UNL     1      -2.239  22.386  -8.728  1.00  0.00    -0.508 OA
ATOM     27  H   UNL     1      -1.630  22.639  -9.497  1.00  0.00     0.293 HD
ENDBRANCH   8  26
TORSDOF 6
ENDMDL
MODEL 4
REMARK VINA RESULT:    -5.176      2.831      7.012
REMARK INTER + INTRA:          -6.550
REMARK INTER:                  -6.272
REMARK INTRA:                  -0.279
REMARK UNBOUND:                -0.315
REMARK SMILES O=c1c(O)c(-c2ccc(O)c(O)c2)oc2cc(O)cc(O)c12
REMARK SMILES IDX 5 1 3 2 2 3 1 4 22 5 20 6 19 7 17 8 16 9 15 10 14 11 6 12
REMARK SMILES IDX 7 13 8 14 9 15 13 16 11 17 10 18 12 20 4 22 21 24 18 26
REMARK H PARENT 10 19 12 21 4 23 21 25 18 27
REMARK Flexibility Score: inf
ROOT
ATOM      1  C   UNL     1      -5.840  22.003  -6.615  1.00  0.00     0.180 A 
ATOM      2  C   UNL     1      -6.798  21.801  -5.603  1.00  0.00     0.208 A 
ATOM      3  C   UNL     1      -8.154  21.726  -5.958  1.00  0.00     0.238 A 
ATOM      4  O   UNL     1      -9.020  21.533  -5.062  1.00  0.00    -0.285 OA
ATOM      5  C   UNL     1      -8.530  21.875  -7.309  1.00  0.00     0.111 A 
ATOM      6  C   UNL     1      -9.875  21.816  -7.750  1.00  0.00     0.134 A 
ATOM      7  C   UNL     1     -10.169  21.983  -9.111  1.00  0.00     0.093 A 
ATOM      8  C   UNL     1      -9.148  22.208 -10.037  1.00  0.00     0.123 A 
ATOM      9  C   UNL     1      -7.818  22.265  -9.609  1.00  0.00     0.094 A 
ATOM     10  C   UNL     1      -7.504  22.100  -8.257  1.00  0.00     0.146 A 
ATOM     11  O   UNL     1      -6.233  22.155  -7.876  1.00  0.00    -0.452 OA
ENDROOT
BRANCH   1  12
ATOM     12  C   UNL     1      -4.390  22.075  -6.323  1.00  0.00     0.025 A 
ATOM     13  C   UNL     1      -3.720  23.308  -6.239  1.00  0.00     0.016 A 
ATOM     14  C   UNL     1      -2.357  23.351  -5.938  1.00  0.00     0.051 A 
ATOM     15  C   UNL     1      -1.646  22.168  -5.703  1.00  0.00     0.157 A 
ATOM     16  C   UNL     1      -3.677  20.892  -6.066  1.00  0.00     0.062 A 
ATOM     17  C   UNL     1      -2.311  20.932  -5.765  1.00  0.00     0.158 A 
BRANCH  15  18
ATOM     18  O   UNL     1      -0.284  22.215  -5.405  1.00  0.00    -0.504 OA
ATOM     19  H   UNL     1       0.056  22.610  -4.536  1.00  0.00     0.293 HD
ENDBRANCH  15  18
BRANCH  17  20
ATOM     20  O   UNL     1      -1.634  19.736  -5.529  1.00  0.00    -0.504 OA
ATOM     21  H   UNL     1      -2.081  18.834  -5.641  1.00  0.00     0.293 HD
ENDBRANCH  17  20
ENDBRANCH   1  12
BRANCH   2  22
ATOM     22  O   UNL     1      -6.404  21.705  -4.266  1.00  0.00    -0.502 OA
ATOM     23  H   UNL     1      -5.467  21.432  -3.995  1.00  0.00     0.293 HD
ENDBRANCH   2  22
BRANCH   6  24
ATOM     24  O   UNL     1     -10.916  21.595  -6.848  1.00  0.00    -0.507 OA
ATOM     25  H   UNL     1     -11.046  20.699  -6.392  1.00  0.00     0.293 HD
ENDBRANCH   6  24
BRANCH   8  26
ATOM     26  O   UNL     1      -9.467  22.372 -11.384  1.00  0.00    -0.508 OA
ATOM     27  H   UNL     1     -10.261  22.929 -11.677  1.00  0.00     0.293 HD
ENDBRANCH   8  26
TORSDOF 6
ENDMDL
MODEL 5
REMARK VINA RESULT:    -5.118      1.765      7.186
REMARK INTER + INTRA:          -6.481
REMARK INTER:                  -6.372
REMARK INTRA:                  -0.109
REMARK UNBOUND:                -0.315
REMARK SMILES O=c1c(O)c(-c2ccc(O)c(O)c2)oc2cc(O)cc(O)c12
REMARK SMILES IDX 5 1 3 2 2 3 1 4 22 5 20 6 19 7 17 8 16 9 15 10 14 11 6 12
REMARK SMILES IDX 7 13 8 14 9 15 13 16 11 17 10 18 12 20 4 22 21 24 18 26
REMARK H PARENT 10 19 12 21 4 23 21 25 18 27
REMARK Flexibility Score: inf
ROOT
ATOM      1  C   UNL     1      -6.030  23.241  -9.134  1.00  0.00     0.180 A 
ATOM      2  C   UNL     1      -5.182  24.258  -9.613  1.00  0.00     0.208 A 
ATOM      3  C   UNL     1      -5.724  25.525  -9.878  1.00  0.00     0.238 A 
ATOM      4  O   UNL     1      -4.972  26.447 -10.297  1.00  0.00    -0.285 OA
ATOM      5  C   UNL     1      -7.102  25.750  -9.679  1.00  0.00     0.111 A 
ATOM      6  C   UNL     1      -7.727  26.996  -9.925  1.00  0.00     0.134 A 
ATOM      7  C   UNL     1      -9.106  27.137  -9.711  1.00  0.00     0.093 A 
ATOM      8  C   UNL     1      -9.870  26.058  -9.259  1.00  0.00     0.123 A 
ATOM      9  C   UNL     1      -9.259  24.825  -9.013  1.00  0.00     0.094 A 
ATOM     10  C   UNL     1      -7.885  24.665  -9.218  1.00  0.00     0.146 A 
ATOM     11  O   UNL     1      -7.328  23.485  -8.973  1.00  0.00    -0.452 OA
ENDROOT
BRANCH   1  12
ATOM     12  C   UNL     1      -5.530  21.885  -8.815  1.00  0.00     0.025 A 
ATOM     13  C   UNL     1      -5.992  20.753  -9.508  1.00  0.00     0.016 A 
ATOM     14  C   UNL     1      -5.488  19.485  -9.206  1.00  0.00     0.051 A 
ATOM     15  C   UNL     1      -4.507  19.331  -8.219  1.00  0.00     0.157 A 
ATOM     16  C   UNL     1      -4.532  21.727  -7.839  1.00  0.00     0.062 A 
ATOM     17  C   UNL     1      -4.024  20.459  -7.534  1.00  0.00     0.158 A 
BRANCH  15  18
ATOM     18  O   UNL     1      -4.008  18.064  -7.917  1.00  0.00    -0.504 OA
ATOM     19  H   UNL     1      -3.179  17.942  -7.346  1.00  0.00     0.293 HD
ENDBRANCH  15  18
BRANCH  17  20
ATOM     20  O   UNL     1      -3.043  20.341  -6.550  1.00  0.00    -0.504 OA
ATOM     21  H   UNL     1      -3.271  20.129  -5.586  1.00  0.00     0.293 HD
ENDBRANCH  17  20
ENDBRANCH   1  12
BRANCH   2  22
ATOM     22  O   UNL     1      -3.830  23.996  -9.849  1.00  0.00    -0.502 OA
ATOM     23  H   UNL     1      -3.273  24.550 -10.488  1.00  0.00     0.293 HD
ENDBRANCH   2  22
BRANCH   6  24
ATOM     24  O   UNL     1      -6.991  28.091 -10.379  1.00  0.00    -0.507 OA
ATOM     25  H   UNL     1      -7.017  28.986  -9.902  1.00  0.00     0.293 HD
ENDBRANCH   6  24
BRANCH   8  26
ATOM     26  O   UNL     1     -11.239  26.224  -9.055  1.00  0.00    -0.508 OA
ATOM     27  H   UNL     1     -11.669  27.141  -9.066  1.00  0.00     0.293 HD
ENDBRANCH   8  26
TORSDOF 6
ENDMDL
MODEL 6
REMARK VINA RESULT:    -5.056      2.829      6.845
REMARK INTER + INTRA:          -6.406
REMARK INTER:                  -6.080
REMARK INTRA:                  -0.325
REMARK UNBOUND:                -0.315
REMARK SMILES O=c1c(O)c(-c2ccc(O)c(O)c2)oc2cc(O)cc(O)c12
REMARK SMILES IDX 5 1 3 2 2 3 1 4 22 5 20 6 19 7 17 8 16 9 15 10 14 11 6 12
REMARK SMILES IDX 7 13 8 14 9 15 13 16 11 17 10 18 12 20 4 22 21 24 18 26
REMARK H PARENT 10 19 12 21 4 23 21 25 18 27
REMARK Flexibility Score: inf
ROOT
ATOM      1  C   UNL     1      -5.121  22.199  -7.637  1.00  0.00     0.180 A 
ATOM      2  C   UNL     1      -5.105  22.420  -9.027  1.00  0.00     0.208 A 
ATOM      3  C   UNL     1      -6.321  22.418  -9.729  1.00  0.00     0.238 A 
ATOM      4  O   UNL     1      -6.322  22.626 -10.972  1.00  0.00    -0.285 OA
ATOM      5  C   UNL     1      -7.525  22.175  -9.035  1.00  0.00     0.111 A 
ATOM      6  C   UNL     1      -8.792  22.152  -9.667  1.00  0.00     0.134 A 
ATOM      7  C   UNL     1      -9.944  21.894  -8.909  1.00  0.00     0.093 A 
ATOM      8  C   UNL     1      -9.853  21.659  -7.535  1.00  0.00     0.123 A 
ATOM      9  C   UNL     1      -8.606  21.682  -6.904  1.00  0.00     0.094 A 
ATOM     10  C   UNL     1      -7.446  21.938  -7.643  1.00  0.00     0.146 A 
ATOM     11  O   UNL     1      -6.273  21.958  -7.019  1.00  0.00    -0.452 OA
ENDROOT
BRANCH   1  12
ATOM     12  C   UNL     1      -3.882  22.205  -6.826  1.00  0.00     0.025 A 
ATOM     13  C   UNL     1      -3.326  23.405  -6.349  1.00  0.00     0.016 A 
ATOM     14  C   UNL     1      -2.170  23.383  -5.564  1.00  0.00     0.051 A 
ATOM     15  C   UNL     1      -1.561  22.166  -5.233  1.00  0.00     0.157 A 
ATOM     16  C   UNL     1      -3.280  20.986  -6.474  1.00  0.00     0.062 A 
ATOM     17  C   UNL     1      -2.122  20.961  -5.688  1.00  0.00     0.158 A 
BRANCH  15  18
ATOM     18  O   UNL     1      -0.406  22.149  -4.452  1.00  0.00    -0.504 OA
ATOM     19  H   UNL     1       0.516  22.202  -4.867  1.00  0.00     0.293 HD
ENDBRANCH  15  18
BRANCH  17  20
ATOM     20  O   UNL     1      -1.545  19.732  -5.371  1.00  0.00    -0.504 OA
ATOM     21  H   UNL     1      -0.561  19.545  -5.522  1.00  0.00     0.293 HD
ENDBRANCH  17  20
ENDBRANCH   1  12
BRANCH   2  22
ATOM     22  O   UNL     1      -3.895  22.609  -9.699  1.00  0.00    -0.502 OA
ATOM     23  H   UNL     1      -3.626  23.503 -10.092  1.00  0.00     0.293 HD
ENDBRANCH   2  22
BRANCH   6  24
ATOM     24  O   UNL     1      -8.915  22.381 -11.038  1.00  0.00    -0.507 OA
ATOM     25  H   UNL     1      -8.848  23.314 -11.430  1.00  0.00     0.293 HD
ENDBRANCH   6  24
BRANCH   8  26
ATOM     26  O   UNL     1     -11.012  21.404  -6.804  1.00  0.00    -0.508 OA
ATOM     27  H   UNL     1     -11.544  20.552  -6.934  1.00  0.00     0.293 HD
ENDBRANCH   8  26
TORSDOF 6
ENDMDL
MODEL 7
REMARK VINA RESULT:    -5.041      1.648      6.888
REMARK INTER + INTRA:          -6.388
REMARK INTER:                  -6.103
REMARK INTRA:                  -0.285
REMARK UNBOUND:                -0.315
REMARK SMILES O=c1c(O)c(-c2ccc(O)c(O)c2)oc2cc(O)cc(O)c12
REMARK SMILES IDX 5 1 3 2 2 3 1 4 22 5 20 6 19 7 17 8 16 9 15 10 14 11 6 12
REMARK SMILES IDX 7 13 8 14 9 15 13 16 11 17 10 18 12 20 4 22 21 24 18 26
REMARK H PARENT 10 19 12 21 4 23 21 25 18 27
REMARK Flexibility Score: inf
ROOT
ATOM      1  C   UNL     1      -6.485  23.070  -7.964  1.00  0.00     0.180 A 
ATOM      2  C   UNL     1      -7.778  22.972  -7.414  1.00  0.00     0.208 A 
ATOM      3  C   UNL     1      -8.797  23.788  -7.927  1.00  0.00     0.238 A 
ATOM      4  O   UNL     1      -9.962  23.701  -7.451  1.00  0.00    -0.285 OA
ATOM      5  C   UNL     1      -8.505  24.700  -8.963  1.00  0.00     0.111 A 
ATOM      6  C   UNL     1      -9.474  25.561  -9.533  1.00  0.00     0.134 A 
ATOM      7  C   UNL     1      -9.102  26.448 -10.555  1.00  0.00     0.093 A 
ATOM      8  C   UNL     1      -7.784  26.491 -11.015  1.00  0.00     0.123 A 
ATOM      9  C   UNL     1      -6.823  25.642 -10.458  1.00  0.00     0.094 A 
ATOM     10  C   UNL     1      -7.174  24.751  -9.439  1.00  0.00     0.146 A 
ATOM     11  O   UNL     1      -6.243  23.952  -8.929  1.00  0.00    -0.452 OA
ENDROOT
BRANCH   1  12
ATOM     12  C   UNL     1      -5.362  22.230  -7.489  1.00  0.00     0.025 A 
ATOM     13  C   UNL     1      -4.405  22.729  -6.589  1.00  0.00     0.016 A 
ATOM     14  C   UNL     1      -3.368  21.909  -6.136  1.00  0.00     0.051 A 
ATOM     15  C   UNL     1      -3.279  20.579  -6.563  1.00  0.00     0.157 A 
ATOM     16  C   UNL     1      -5.280  20.889  -7.899  1.00  0.00     0.062 A 
ATOM     17  C   UNL     1      -4.242  20.065  -7.448  1.00  0.00     0.158 A 
BRANCH  15  18
ATOM     18  O   UNL     1      -2.241  19.764  -6.111  1.00  0.00    -0.504 OA
ATOM     19  H   UNL     1      -2.283  18.756  -6.196  1.00  0.00     0.293 HD
ENDBRANCH  15  18
BRANCH  17  20
ATOM     20  O   UNL     1      -4.186  18.743  -7.887  1.00  0.00    -0.504 OA
ATOM     21  H   UNL     1      -3.537  18.442  -8.604  1.00  0.00     0.293 HD
ENDBRANCH  17  20
ENDBRANCH   1  12
BRANCH   2  22
ATOM     22  O   UNL     1      -8.030  22.096  -6.356  1.00  0.00    -0.502 OA
ATOM     23  H   UNL     1      -7.355  21.924  -5.620  1.00  0.00     0.293 HD
ENDBRANCH   2  22
BRANCH   6  24
ATOM     24  O   UNL     1     -10.798  25.543  -9.094  1.00  0.00    -0.507 OA
ATOM     25  H   UNL     1     -11.496  24.948  -9.527  1.00  0.00     0.293 HD
ENDBRANCH   6  24
BRANCH   8  26
ATOM     26  O   UNL     1      -7.440  27.381 -12.031  1.00  0.00    -0.508 OA
ATOM     27  H   UNL     1      -6.651  28.010 -11.940  1.00  0.00     0.293 HD
ENDBRANCH   8  26
TORSDOF 6
ENDMDL
MODEL 8
REMARK VINA RESULT:    -4.933      3.141      5.841
REMARK INTER + INTRA:          -6.258
REMARK INTER:                  -5.937
REMARK INTRA:                  -0.320
REMARK UNBOUND:                -0.315
REMARK SMILES O=c1c(O)c(-c2ccc(O)c(O)c2)oc2cc(O)cc(O)c12
REMARK SMILES IDX 5 1 3 2 2 3 1 4 22 5 20 6 19 7 17 8 16 9 15 10 14 11 6 12
REMARK SMILES IDX 7 13 8 14 9 15 13 16 11 17 10 18 12 20 4 22 21 24 18 26
REMARK H PARENT 10 19 12 21 4 23 21 25 18 27
REMARK Flexibility Score: inf
ROOT
ATOM      1  C   UNL     1      -7.370  24.962  -9.606  1.00  0.00     0.180 A 
ATOM      2  C   UNL     1      -8.023  25.701 -10.611  1.00  0.00     0.208 A 
ATOM      3  C   UNL     1      -7.297  26.667 -11.324  1.00  0.00     0.238 A 
ATOM      4  O   UNL     1      -7.868  27.327 -12.234  1.00  0.00    -0.285 OA
ATOM      5  C   UNL     1      -5.940  26.892 -11.009  1.00  0.00     0.111 A 
ATOM      6  C   UNL     1      -5.139  27.850 -11.677  1.00  0.00     0.134 A 
ATOM      7  C   UNL     1      -3.799  28.021 -11.299  1.00  0.00     0.093 A 
ATOM      8  C   UNL     1      -3.247  27.258 -10.267  1.00  0.00     0.123 A 
ATOM      9  C   UNL     1      -4.033  26.310  -9.604  1.00  0.00     0.094 A 
ATOM     10  C   UNL     1      -5.370  26.123  -9.968  1.00  0.00     0.146 A 
ATOM     11  O   UNL     1      -6.094  25.213  -9.325  1.00  0.00    -0.452 OA
ENDROOT
BRANCH   1  12
ATOM     12  C   UNL     1      -8.063  23.914  -8.823  1.00  0.00     0.025 A 
ATOM     13  C   UNL     1      -8.806  24.231  -7.672  1.00  0.00     0.016 A 
ATOM     14  C   UNL     1      -9.472  23.228  -6.964  1.00  0.00     0.051 A 
ATOM     15  C   UNL     1      -9.417  21.899  -7.399  1.00  0.00     0.157 A 
ATOM     16  C   UNL     1      -8.028  22.582  -9.267  1.00  0.00     0.062 A 
ATOM     17  C   UNL     1      -8.693  21.574  -8.559  1.00  0.00     0.158 A 
BRANCH  15  18
ATOM     18  O   UNL     1     -10.081  20.899  -6.688  1.00  0.00    -0.504 OA
ATOM     19  H   UNL     1      -9.614  20.362  -5.966  1.00  0.00     0.293 HD
ENDBRANCH  15  18
BRANCH  17  20
ATOM     20  O   UNL     1      -8.624  20.262  -9.024  1.00  0.00    -0.504 OA
ATOM     21  H   UNL     1      -8.131  19.537  -8.516  1.00  0.00     0.293 HD
ENDBRANCH  17  20
ENDBRANCH   1  12
BRANCH   2  22
ATOM     22  O   UNL     1      -9.380  25.493 -10.870  1.00  0.00    -0.502 OA
ATOM     23  H   UNL     1     -10.048  25.289 -10.137  1.00  0.00     0.293 HD
ENDBRANCH   2  22
BRANCH   6  24
ATOM     24  O   UNL     1      -5.662  28.628 -12.710  1.00  0.00    -0.507 OA
ATOM     25  H   UNL     1      -5.225  28.664 -13.625  1.00  0.00     0.293 HD
ENDBRANCH   6  24
BRANCH   8  26
ATOM     26  O   UNL     1      -1.914  27.448  -9.910  1.00  0.00    -0.508 OA
ATOM     27  H   UNL     1      -1.566  27.179  -8.997  1.00  0.00     0.293 HD
ENDBRANCH   8  26
TORSDOF 6
ENDMDL
MODEL 9
REMARK VINA RESULT:    -4.902      2.459      3.608
REMARK INTER + INTRA:          -6.221
REMARK INTER:                  -5.889
REMARK INTRA:                  -0.332
REMARK UNBOUND:                -0.315
REMARK SMILES O=c1c(O)c(-c2ccc(O)c(O)c2)oc2cc(O)cc(O)c12
REMARK SMILES IDX 5 1 3 2 2 3 1 4 22 5 20 6 19 7 17 8 16 9 15 10 14 11 6 12
REMARK SMILES IDX 7 13 8 14 9 15 13 16 11 17 10 18 12 20 4 22 21 24 18 26
REMARK H PARENT 10 19 12 21 4 23 21 25 18 27
REMARK Flexibility Score: inf
ROOT
ATOM      1  C   UNL     1      -6.247  22.110  -7.931  1.00  0.00     0.180 A 
ATOM      2  C   UNL     1      -5.391  20.993  -7.898  1.00  0.00     0.208 A 
ATOM      3  C   UNL     1      -4.112  21.133  -7.338  1.00  0.00     0.238 A 
ATOM      4  O   UNL     1      -3.341  20.136  -7.292  1.00  0.00    -0.285 OA
ATOM      5  C   UNL     1      -3.703  22.389  -6.840  1.00  0.00     0.111 A 
ATOM      6  C   UNL     1      -2.430  22.615  -6.263  1.00  0.00     0.134 A 
ATOM      7  C   UNL     1      -2.095  23.896  -5.800  1.00  0.00     0.093 A 
ATOM      8  C   UNL     1      -3.004  24.951  -5.903  1.00  0.00     0.123 A 
ATOM      9  C   UNL     1      -4.264  24.734  -6.470  1.00  0.00     0.094 A 
ATOM     10  C   UNL     1      -4.617  23.464  -6.937  1.00  0.00     0.146 A 
ATOM     11  O   UNL     1      -5.821  23.282  -7.468  1.00  0.00    -0.452 OA
ENDROOT
BRANCH   1  12
ATOM     12  C   UNL     1      -7.616  22.037  -8.489  1.00  0.00     0.025 A 
ATOM     13  C   UNL     1      -8.713  21.668  -7.691  1.00  0.00     0.016 A 
ATOM     14  C   UNL     1      -9.999  21.629  -8.234  1.00  0.00     0.051 A 
ATOM     15  C   UNL     1     -10.213  21.971  -9.575  1.00  0.00     0.157 A 
ATOM     16  C   UNL     1      -7.838  22.399  -9.828  1.00  0.00     0.062 A 
ATOM     17  C   UNL     1      -9.126  22.361 -10.376  1.00  0.00     0.158 A 
BRANCH  15  18
ATOM     18  O   UNL     1     -11.498  21.929 -10.114  1.00  0.00    -0.504 OA
ATOM     19  H   UNL     1     -12.158  21.204  -9.858  1.00  0.00     0.293 HD
ENDBRANCH  15  18
BRANCH  17  20
ATOM     20  O   UNL     1      -9.304  22.715 -11.712  1.00  0.00    -0.504 OA
ATOM     21  H   UNL     1     -10.000  22.269 -12.298  1.00  0.00     0.293 HD
ENDBRANCH  17  20
ENDBRANCH   1  12
BRANCH   2  22
ATOM     22  O   UNL     1      -5.802  19.773  -8.442  1.00  0.00    -0.502 OA
ATOM     23  H   UNL     1      -5.553  19.486  -9.380  1.00  0.00     0.293 HD
ENDBRANCH   2  22
BRANCH   6  24
ATOM     24  O   UNL     1      -1.500  21.582  -6.149  1.00  0.00    -0.507 OA
ATOM     25  H   UNL     1      -0.504  21.748  -6.247  1.00  0.00     0.293 HD
ENDBRANCH   6  24
BRANCH   8  26
ATOM     26  O   UNL     1      -2.646  26.214  -5.435  1.00  0.00    -0.508 OA
ATOM     27  H   UNL     1      -1.765  26.374  -4.962  1.00  0.00     0.293 HD
ENDBRANCH   8  26
TORSDOF 6
ENDMDL
