MODEL 1
REMARK VINA RESULT:    -2.984      0.000      0.000
REMARK INTER + INTRA:          -8.487
REMARK INTER:                  -6.473
REMARK INTRA:                  -2.013
REMARK UNBOUND:                -2.013
REMARK SMILES CCCCCCCCCCCCCCCCCCCCCC(=O)[O-]
REMARK SMILES IDX 12 1 11 2 10 3 9 4 8 5 7 6 6 7 5 8 4 9 3 10 2 11 1 12 13 13
REMARK SMILES IDX 14 14 15 15 16 16 17 17 18 18 19 19 20 20 21 21 22 22 23 23
REMARK SMILES IDX 24 24
REMARK H PARENT
REMARK Flexibility Score: inf
ROOT
ATOM      1  C   UNL     1      22.919  33.172  12.729  1.00  0.00     0.000 C 
ENDROOT
BRANCH   1   2
ATOM      2  C   UNL     1      22.105  33.902  13.813  1.00  0.00     0.000 C 
BRANCH   2   3
ATOM      3  C   UNL     1      22.466  33.504  15.261  1.00  0.00     0.000 C 
BRANCH   3   4
ATOM      4  C   UNL     1      21.460  32.569  15.967  1.00  0.00    -0.000 C 
BRANCH   4   5
ATOM      5  C   UNL     1      20.903  31.405  15.125  1.00  0.00    -0.000 C 
BRANCH   5   6
ATOM      6  C   UNL     1      19.552  30.875  15.630  1.00  0.00    -0.000 C 
BRANCH   6   7
ATOM      7  C   UNL     1      18.358  31.711  15.134  1.00  0.00    -0.000 C 
BRANCH   7   8
ATOM      8  C   UNL     1      17.063  30.892  14.941  1.00  0.00    -0.000 C 
BRANCH   8   9
ATOM      9  C   UNL     1      15.868  31.505  15.696  1.00  0.00    -0.000 C 
BRANCH   9  10
ATOM     10  C   UNL     1      14.528  30.877  15.287  1.00  0.00    -0.000 C 
BRANCH  10  11
ATOM     11  C   UNL     1      13.321  31.702  15.757  1.00  0.00    -0.003 C 
ATOM     12  C   UNL     1      13.116  32.928  14.873  1.00  0.00     0.004 C 
ENDBRANCH  10  11
ENDBRANCH   9  10
ENDBRANCH   8   9
ENDBRANCH   7   8
ENDBRANCH   6   7
ENDBRANCH   5   6
ENDBRANCH   4   5
ENDBRANCH   3   4
ENDBRANCH   2   3
ENDBRANCH   1   2
BRANCH   1  13
ATOM     13  C   UNL     1      23.261  34.066  11.523  1.00  0.00     0.000 C 
BRANCH  13  14
ATOM     14  C   UNL     1      24.201  33.374  10.513  1.00  0.00     0.000 C 
BRANCH  14  15
ATOM     15  C   UNL     1      25.381  32.623  11.160  1.00  0.00     0.000 C 
BRANCH  15  16
ATOM     16  C   UNL     1      26.434  33.514  11.842  1.00  0.00     0.000 C 
BRANCH  16  17
ATOM     17  C   UNL     1      26.995  32.899  13.136  1.00  0.00     0.000 C 
BRANCH  17  18
ATOM     18  C   UNL     1      26.022  33.014  14.325  1.00  0.00     0.000 C 
BRANCH  18  19
ATOM     19  C   UNL     1      26.527  33.871  15.503  1.00  0.00     0.000 C 
BRANCH  19  20
ATOM     20  C   UNL     1      25.692  35.146  15.718  1.00  0.00     0.006 C 
BRANCH  20  21
ATOM     21  C   UNL     1      25.280  35.801  14.391  1.00  0.00     0.053 C 
BRANCH  21  22
ATOM     22  C   UNL     1      24.345  36.951  14.602  1.00  0.00     0.041 C 
ATOM     23  O   UNL     1      23.616  37.357  13.658  1.00  0.00    -0.550 OA
ATOM     24  O   UNL     1      24.286  37.583  15.838  1.00  0.00    -0.550 OA
ENDBRANCH  21  22
ENDBRANCH  20  21
ENDBRANCH  19  20
ENDBRANCH  18  19
ENDBRANCH  17  18
ENDBRANCH  16  17
ENDBRANCH  15  16
ENDBRANCH  14  15
ENDBRANCH  13  14
ENDBRANCH   1  13
TORSDOF 20
ENDMDL
MODEL 2
REMARK VINA RESULT:    -2.618      3.792      8.854
REMARK INTER + INTRA:          -7.693
REMARK INTER:                  -5.660
REMARK INTRA:                  -2.034
REMARK UNBOUND:                -2.013
REMARK SMILES CCCCCCCCCCCCCCCCCCCCCC(=O)[O-]
REMARK SMILES IDX 12 1 11 2 10 3 9 4 8 5 7 6 6 7 5 8 4 9 3 10 2 11 1 12 13 13
REMARK SMILES IDX 14 14 15 15 16 16 17 17 18 18 19 19 20 20 21 21 22 22 23 23
REMARK SMILES IDX 24 24
REMARK H PARENT
REMARK Flexibility Score: inf
ROOT
ATOM      1  C   UNL     1      23.082  34.496  12.510  1.00  0.00     0.000 C 
ENDROOT
BRANCH   1   2
ATOM      2  C   UNL     1      23.141  34.263  10.990  1.00  0.00     0.000 C 
BRANCH   2   3
ATOM      3  C   UNL     1      24.318  33.377  10.524  1.00  0.00     0.000 C 
BRANCH   3   4
ATOM      4  C   UNL     1      25.236  32.844  11.645  1.00  0.00    -0.000 C 
BRANCH   4   5
ATOM      5  C   UNL     1      24.769  31.559  12.357  1.00  0.00    -0.000 C 
BRANCH   5   6
ATOM      6  C   UNL     1      24.911  31.620  13.886  1.00  0.00    -0.000 C 
BRANCH   6   7
ATOM      7  C   UNL     1      26.298  32.111  14.339  1.00  0.00    -0.000 C 
BRANCH   7   8
ATOM      8  C   UNL     1      26.244  33.241  15.391  1.00  0.00    -0.000 C 
BRANCH   8   9
ATOM      9  C   UNL     1      26.020  34.623  14.748  1.00  0.00    -0.000 C 
BRANCH   9  10
ATOM     10  C   UNL     1      25.002  35.474  15.522  1.00  0.00    -0.000 C 
BRANCH  10  11
ATOM     11  C   UNL     1      24.444  36.635  14.686  1.00  0.00    -0.003 C 
ATOM     12  C   UNL     1      23.842  37.715  15.579  1.00  0.00     0.004 C 
ENDBRANCH  10  11
ENDBRANCH   9  10
ENDBRANCH   8   9
ENDBRANCH   7   8
ENDBRANCH   6   7
ENDBRANCH   5   6
ENDBRANCH   4   5
ENDBRANCH   3   4
ENDBRANCH   2   3
ENDBRANCH   1   2
BRANCH   1  13
ATOM     13  C   UNL     1      21.690  34.226  13.111  1.00  0.00     0.000 C 
BRANCH  13  14
ATOM     14  C   UNL     1      21.711  34.130  14.651  1.00  0.00     0.000 C 
BRANCH  14  15
ATOM     15  C   UNL     1      21.728  32.687  15.193  1.00  0.00     0.000 C 
BRANCH  15  16
ATOM     16  C   UNL     1      20.465  32.257  15.960  1.00  0.00     0.000 C 
BRANCH  16  17
ATOM     17  C   UNL     1      19.310  31.841  15.033  1.00  0.00     0.000 C 
BRANCH  17  18
ATOM     18  C   UNL     1      18.214  31.042  15.765  1.00  0.00     0.000 C 
BRANCH  18  19
ATOM     19  C   UNL     1      16.863  30.957  15.027  1.00  0.00     0.000 C 
BRANCH  19  20
ATOM     20  C   UNL     1      15.660  30.897  15.984  1.00  0.00     0.006 C 
BRANCH  20  21
ATOM     21  C   UNL     1      14.746  32.123  15.846  1.00  0.00     0.053 C 
BRANCH  21  22
ATOM     22  C   UNL     1      13.348  31.739  15.469  1.00  0.00     0.041 C 
ATOM     23  O   UNL     1      12.370  32.184  16.125  1.00  0.00    -0.550 OA
ATOM     24  O   UNL     1      13.127  30.880  14.399  1.00  0.00    -0.550 OA
ENDBRANCH  21  22
ENDBRANCH  20  21
ENDBRANCH  19  20
ENDBRANCH  18  19
ENDBRANCH  17  18
ENDBRANCH  16  17
ENDBRANCH  15  16
ENDBRANCH  14  15
ENDBRANCH  13  14
ENDBRANCH   1  13
TORSDOF 20
ENDMDL
MODEL 3
REMARK VINA RESULT:    -2.483      2.035      3.638
REMARK INTER + INTRA:          -7.400
REMARK INTER:                  -5.739
REMARK INTRA:                  -1.660
REMARK UNBOUND:                -2.013
REMARK SMILES CCCCCCCCCCCCCCCCCCCCCC(=O)[O-]
REMARK SMILES IDX 12 1 11 2 10 3 9 4 8 5 7 6 6 7 5 8 4 9 3 10 2 11 1 12 13 13
REMARK SMILES IDX 14 14 15 15 16 16 17 17 18 18 19 19 20 20 21 21 22 22 23 23
REMARK SMILES IDX 24 24
REMARK H PARENT
REMARK Flexibility Score: inf
ROOT
ATOM      1  C   UNL     1      23.808  35.420  13.898  1.00  0.00     0.000 C 
ENDROOT
BRANCH   1   2
ATOM      2  C   UNL     1      22.560  36.226  14.300  1.00  0.00     0.000 C 
BRANCH   2   3
ATOM      3  C   UNL     1      22.039  35.930  15.724  1.00  0.00     0.000 C 
BRANCH   3   4
ATOM      4  C   UNL     1      21.984  34.438  16.118  1.00  0.00    -0.000 C 
BRANCH   4   5
ATOM      5  C   UNL     1      21.540  33.456  15.015  1.00  0.00    -0.000 C 
BRANCH   5   6
ATOM      6  C   UNL     1      21.905  31.993  15.314  1.00  0.00    -0.000 C 
BRANCH   6   7
ATOM      7  C   UNL     1      20.811  31.253  16.104  1.00  0.00    -0.000 C 
BRANCH   7   8
ATOM      8  C   UNL     1      19.442  31.968  16.090  1.00  0.00    -0.000 C 
BRANCH   8   9
ATOM      9  C   UNL     1      18.266  30.974  16.123  1.00  0.00    -0.000 C 
BRANCH   9  10
ATOM     10  C   UNL     1      17.123  31.383  15.182  1.00  0.00    -0.000 C 
BRANCH  10  11
ATOM     11  C   UNL     1      15.754  30.875  15.659  1.00  0.00    -0.003 C 
ATOM     12  C   UNL     1      14.644  31.846  15.272  1.00  0.00     0.004 C 
ENDBRANCH  10  11
ENDBRANCH   9  10
ENDBRANCH   8   9
ENDBRANCH   7   8
ENDBRANCH   6   7
ENDBRANCH   5   6
ENDBRANCH   4   5
ENDBRANCH   3   4
ENDBRANCH   2   3
ENDBRANCH   1   2
BRANCH   1  13
ATOM     13  C   UNL     1      25.127  36.105  14.298  1.00  0.00     0.000 C 
BRANCH  13  14
ATOM     14  C   UNL     1      26.182  35.110  14.828  1.00  0.00     0.000 C 
BRANCH  14  15
ATOM     15  C   UNL     1      25.640  34.108  15.864  1.00  0.00     0.000 C 
BRANCH  15  16
ATOM     16  C   UNL     1      26.494  32.845  16.069  1.00  0.00     0.000 C 
BRANCH  16  17
ATOM     17  C   UNL     1      25.753  31.550  15.691  1.00  0.00     0.000 C 
BRANCH  17  18
ATOM     18  C   UNL     1      26.332  30.875  14.432  1.00  0.00     0.000 C 
BRANCH  18  19
ATOM     19  C   UNL     1      25.781  31.404  13.094  1.00  0.00     0.000 C 
BRANCH  19  20
ATOM     20  C   UNL     1      26.661  32.504  12.475  1.00  0.00     0.006 C 
BRANCH  20  21
ATOM     21  C   UNL     1      25.828  33.625  11.838  1.00  0.00     0.053 C 
BRANCH  21  22
ATOM     22  C   UNL     1      24.651  33.087  11.084  1.00  0.00     0.041 C 
ATOM     23  O   UNL     1      24.814  32.531   9.966  1.00  0.00    -0.550 OA
ATOM     24  O   UNL     1      23.371  33.212  11.611  1.00  0.00    -0.550 OA
ENDBRANCH  21  22
ENDBRANCH  20  21
ENDBRANCH  19  20
ENDBRANCH  18  19
ENDBRANCH  17  18
ENDBRANCH  16  17
ENDBRANCH  15  16
ENDBRANCH  14  15
ENDBRANCH  13  14
ENDBRANCH   1  13
TORSDOF 20
ENDMDL
MODEL 4
REMARK VINA RESULT:    -2.360      3.270      6.633
REMARK INTER + INTRA:          -7.133
REMARK INTER:                  -4.846
REMARK INTRA:                  -2.286
REMARK UNBOUND:                -2.013
REMARK SMILES CCCCCCCCCCCCCCCCCCCCCC(=O)[O-]
REMARK SMILES IDX 12 1 11 2 10 3 9 4 8 5 7 6 6 7 5 8 4 9 3 10 2 11 1 12 13 13
REMARK SMILES IDX 14 14 15 15 16 16 17 17 18 18 19 19 20 20 21 21 22 22 23 23
REMARK SMILES IDX 24 24
REMARK H PARENT
REMARK Flexibility Score: inf
ROOT
ATOM      1  C   UNL     1      24.603  34.847  14.295  1.00  0.00     0.000 C 
ENDROOT
BRANCH   1   2
ATOM      2  C   UNL     1      25.844  35.045  13.406  1.00  0.00     0.000 C 
BRANCH   2   3
ATOM      3  C   UNL     1      27.116  34.331  13.914  1.00  0.00     0.000 C 
BRANCH   3   4
ATOM      4  C   UNL     1      27.521  33.059  13.139  1.00  0.00    -0.000 C 
BRANCH   4   5
ATOM      5  C   UNL     1      27.070  31.716  13.746  1.00  0.00    -0.000 C 
BRANCH   5   6
ATOM      6  C   UNL     1      26.017  30.984  12.899  1.00  0.00    -0.000 C 
BRANCH   6   7
ATOM      7  C   UNL     1      25.977  31.472  11.440  1.00  0.00    -0.000 C 
BRANCH   7   8
ATOM      8  C   UNL     1      24.813  30.878  10.617  1.00  0.00    -0.000 C 
BRANCH   8   9
ATOM      9  C   UNL     1      23.926  31.971   9.992  1.00  0.00    -0.000 C 
BRANCH   9  10
ATOM     10  C   UNL     1      24.256  33.373  10.523  1.00  0.00    -0.000 C 
BRANCH  10  11
ATOM     11  C   UNL     1      23.046  34.318  10.492  1.00  0.00    -0.003 C 
ATOM     12  C   UNL     1      22.523  34.587  11.899  1.00  0.00     0.004 C 
ENDBRANCH  10  11
ENDBRANCH   9  10
ENDBRANCH   8   9
ENDBRANCH   7   8
ENDBRANCH   6   7
ENDBRANCH   5   6
ENDBRANCH   4   5
ENDBRANCH   3   4
ENDBRANCH   2   3
ENDBRANCH   1   2
BRANCH   1  13
ATOM     13  C   UNL     1      24.725  33.643  15.247  1.00  0.00     0.000 C 
BRANCH  13  14
ATOM     14  C   UNL     1      23.429  33.375  16.042  1.00  0.00     0.000 C 
BRANCH  14  15
ATOM     15  C   UNL     1      22.604  32.183  15.520  1.00  0.00     0.000 C 
BRANCH  15  16
ATOM     16  C   UNL     1      21.103  32.457  15.320  1.00  0.00     0.000 C 
BRANCH  16  17
ATOM     17  C   UNL     1      20.609  33.694  16.091  1.00  0.00     0.000 C 
BRANCH  17  18
ATOM     18  C   UNL     1      20.841  35.009  15.323  1.00  0.00     0.000 C 
BRANCH  18  19
ATOM     19  C   UNL     1      21.575  36.109  16.115  1.00  0.00     0.000 C 
BRANCH  19  20
ATOM     20  C   UNL     1      22.158  37.210  15.212  1.00  0.00     0.006 C 
BRANCH  20  21
ATOM     21  C   UNL     1      23.418  37.848  15.815  1.00  0.00     0.053 C 
BRANCH  21  22
ATOM     22  C   UNL     1      24.175  38.654  14.805  1.00  0.00     0.041 C 
ATOM     23  O   UNL     1      25.046  39.483  15.179  1.00  0.00    -0.550 OA
ATOM     24  O   UNL     1      23.910  38.498  13.450  1.00  0.00    -0.550 OA
ENDBRANCH  21  22
ENDBRANCH  20  21
ENDBRANCH  19  20
ENDBRANCH  18  19
ENDBRANCH  17  18
ENDBRANCH  16  17
ENDBRANCH  15  16
ENDBRANCH  14  15
ENDBRANCH  13  14
ENDBRANCH   1  13
TORSDOF 20
ENDMDL
MODEL 5
REMARK VINA RESULT:    -2.321      1.112      2.064
REMARK INTER + INTRA:          -7.048
REMARK INTER:                  -5.230
REMARK INTRA:                  -1.819
REMARK UNBOUND:                -2.013
REMARK SMILES CCCCCCCCCCCCCCCCCCCCCC(=O)[O-]
REMARK SMILES IDX 12 1 11 2 10 3 9 4 8 5 7 6 6 7 5 8 4 9 3 10 2 11 1 12 13 13
REMARK SMILES IDX 14 14 15 15 16 16 17 17 18 18 19 19 20 20 21 21 22 22 23 23
REMARK SMILES IDX 24 24
REMARK H PARENT
REMARK Flexibility Score: inf
ROOT
ATOM      1  C   UNL     1      24.319  34.171  11.751  1.00  0.00     0.000 C 
ENDROOT
BRANCH   1   2
ATOM      2  C   UNL     1      22.932  34.486  12.337  1.00  0.00     0.000 C 
BRANCH   2   3
ATOM      3  C   UNL     1      22.370  33.395  13.275  1.00  0.00     0.000 C 
BRANCH   3   4
ATOM      4  C   UNL     1      22.418  33.723  14.783  1.00  0.00    -0.000 C 
BRANCH   4   5
ATOM      5  C   UNL     1      21.095  34.189  15.423  1.00  0.00    -0.000 C 
BRANCH   5   6
ATOM      6  C   UNL     1      20.309  33.055  16.100  1.00  0.00    -0.000 C 
BRANCH   6   7
ATOM      7  C   UNL     1      20.355  31.738  15.305  1.00  0.00    -0.000 C 
BRANCH   7   8
ATOM      8  C   UNL     1      19.082  30.876  15.457  1.00  0.00    -0.000 C 
BRANCH   8   9
ATOM      9  C   UNL     1      17.814  31.628  15.010  1.00  0.00    -0.000 C 
BRANCH   9  10
ATOM     10  C   UNL     1      16.548  31.120  15.716  1.00  0.00    -0.000 C 
BRANCH  10  11
ATOM     11  C   UNL     1      15.310  31.970  15.395  1.00  0.00    -0.003 C 
ATOM     12  C   UNL     1      14.105  31.088  15.082  1.00  0.00     0.004 C 
ENDBRANCH  10  11
ENDBRANCH   9  10
ENDBRANCH   8   9
ENDBRANCH   7   8
ENDBRANCH   6   7
ENDBRANCH   5   6
ENDBRANCH   4   5
ENDBRANCH   3   4
ENDBRANCH   2   3
ENDBRANCH   1   2
BRANCH   1  13
ATOM     13  C   UNL     1      24.460  32.714  11.274  1.00  0.00     0.000 C 
BRANCH  13  14
ATOM     14  C   UNL     1      24.924  31.759  12.396  1.00  0.00     0.000 C 
BRANCH  14  15
ATOM     15  C   UNL     1      26.289  32.124  13.010  1.00  0.00     0.000 C 
BRANCH  15  16
ATOM     16  C   UNL     1      26.237  32.693  14.439  1.00  0.00     0.000 C 
BRANCH  16  17
ATOM     17  C   UNL     1      27.223  33.854  14.660  1.00  0.00     0.000 C 
BRANCH  17  18
ATOM     18  C   UNL     1      26.821  34.765  15.835  1.00  0.00     0.000 C 
BRANCH  18  19
ATOM     19  C   UNL     1      25.308  34.832  16.125  1.00  0.00     0.000 C 
BRANCH  19  20
ATOM     20  C   UNL     1      24.759  36.269  16.117  1.00  0.00     0.006 C 
BRANCH  20  21
ATOM     21  C   UNL     1      24.666  36.847  14.698  1.00  0.00     0.053 C 
BRANCH  21  22
ATOM     22  C   UNL     1      23.508  37.786  14.551  1.00  0.00     0.041 C 
ATOM     23  O   UNL     1      22.367  37.456  14.968  1.00  0.00    -0.550 OA
ATOM     24  O   UNL     1      23.688  39.022  13.942  1.00  0.00    -0.550 OA
ENDBRANCH  21  22
ENDBRANCH  20  21
ENDBRANCH  19  20
ENDBRANCH  18  19
ENDBRANCH  17  18
ENDBRANCH  16  17
ENDBRANCH  15  16
ENDBRANCH  14  15
ENDBRANCH  13  14
ENDBRANCH   1  13
TORSDOF 20
ENDMDL
MODEL 6
REMARK VINA RESULT:    -2.274      3.167      6.419
REMARK INTER + INTRA:          -6.946
REMARK INTER:                  -4.840
REMARK INTRA:                  -2.106
REMARK UNBOUND:                -2.013
REMARK SMILES CCCCCCCCCCCCCCCCCCCCCC(=O)[O-]
REMARK SMILES IDX 12 1 11 2 10 3 9 4 8 5 7 6 6 7 5 8 4 9 3 10 2 11 1 12 13 13
REMARK SMILES IDX 14 14 15 15 16 16 17 17 18 18 19 19 20 20 21 21 22 22 23 23
REMARK SMILES IDX 24 24
REMARK H PARENT
REMARK Flexibility Score: inf
ROOT
ATOM      1  C   UNL     1      23.651  31.512  14.948  1.00  0.00     0.000 C 
ENDROOT
BRANCH   1   2
ATOM      2  C   UNL     1      22.291  30.878  15.290  1.00  0.00     0.000 C 
BRANCH   2   3
ATOM      3  C   UNL     1      21.336  31.799  16.081  1.00  0.00     0.000 C 
BRANCH   3   4
ATOM      4  C   UNL     1      20.454  32.737  15.228  1.00  0.00    -0.000 C 
BRANCH   4   5
ATOM      5  C   UNL     1      20.389  34.210  15.677  1.00  0.00    -0.000 C 
BRANCH   5   6
ATOM      6  C   UNL     1      21.747  34.774  16.124  1.00  0.00    -0.000 C 
BRANCH   6   7
ATOM      7  C   UNL     1      22.407  35.663  15.055  1.00  0.00    -0.000 C 
BRANCH   7   8
ATOM      8  C   UNL     1      22.835  37.052  15.578  1.00  0.00    -0.000 C 
BRANCH   8   9
ATOM      9  C   UNL     1      24.344  37.301  15.399  1.00  0.00    -0.000 C 
BRANCH   9  10
ATOM     10  C   UNL     1      24.732  37.535  13.931  1.00  0.00    -0.000 C 
BRANCH  10  11
ATOM     11  C   UNL     1      24.055  38.776  13.331  1.00  0.00    -0.003 C 
ATOM     12  C   UNL     1      24.312  40.010  14.190  1.00  0.00     0.004 C 
ENDBRANCH  10  11
ENDBRANCH   9  10
ENDBRANCH   8   9
ENDBRANCH   7   8
ENDBRANCH   6   7
ENDBRANCH   5   6
ENDBRANCH   4   5
ENDBRANCH   3   4
ENDBRANCH   2   3
ENDBRANCH   1   2
BRANCH   1  13
ATOM     13  C   UNL     1      24.712  31.300  16.043  1.00  0.00     0.000 C 
BRANCH  13  14
ATOM     14  C   UNL     1      26.155  31.445  15.515  1.00  0.00     0.000 C 
BRANCH  14  15
ATOM     15  C   UNL     1      26.711  32.880  15.585  1.00  0.00     0.000 C 
BRANCH  15  16
ATOM     16  C   UNL     1      25.880  33.945  14.850  1.00  0.00     0.000 C 
BRANCH  16  17
ATOM     17  C   UNL     1      26.620  34.567  13.653  1.00  0.00     0.000 C 
BRANCH  17  18
ATOM     18  C   UNL     1      26.926  33.545  12.541  1.00  0.00     0.000 C 
BRANCH  18  19
ATOM     19  C   UNL     1      25.982  33.600  11.324  1.00  0.00     0.000 C 
BRANCH  19  20
ATOM     20  C   UNL     1      24.833  32.582  11.409  1.00  0.00     0.006 C 
BRANCH  20  21
ATOM     21  C   UNL     1      23.614  33.142  12.156  1.00  0.00     0.053 C 
BRANCH  21  22
ATOM     22  C   UNL     1      23.097  34.397  11.522  1.00  0.00     0.041 C 
ATOM     23  O   UNL     1      23.414  35.522  11.991  1.00  0.00    -0.550 OA
ATOM     24  O   UNL     1      22.255  34.323  10.418  1.00  0.00    -0.550 OA
ENDBRANCH  21  22
ENDBRANCH  20  21
ENDBRANCH  19  20
ENDBRANCH  18  19
ENDBRANCH  17  18
ENDBRANCH  16  17
ENDBRANCH  15  16
ENDBRANCH  14  15
ENDBRANCH  13  14
ENDBRANCH   1  13
TORSDOF 20
ENDMDL
MODEL 7
REMARK VINA RESULT:    -2.150      1.620      3.168
REMARK INTER + INTRA:          -6.676
REMARK INTER:                  -4.464
REMARK INTRA:                  -2.212
REMARK UNBOUND:                -2.013
REMARK SMILES CCCCCCCCCCCCCCCCCCCCCC(=O)[O-]
REMARK SMILES IDX 12 1 11 2 10 3 9 4 8 5 7 6 6 7 5 8 4 9 3 10 2 11 1 12 13 13
REMARK SMILES IDX 14 14 15 15 16 16 17 17 18 18 19 19 20 20 21 21 22 22 23 23
REMARK SMILES IDX 24 24
REMARK H PARENT
REMARK Flexibility Score: inf
ROOT
ATOM      1  C   UNL     1      24.265  32.949   9.931  1.00  0.00     0.000 C 
ENDROOT
BRANCH   1   2
ATOM      2  C   UNL     1      24.064  33.786  11.207  1.00  0.00     0.000 C 
BRANCH   2   3
ATOM      3  C   UNL     1      22.712  33.553  11.918  1.00  0.00     0.000 C 
BRANCH   3   4
ATOM      4  C   UNL     1      22.164  34.755  12.720  1.00  0.00    -0.000 C 
BRANCH   4   5
ATOM      5  C   UNL     1      21.894  34.510  14.217  1.00  0.00    -0.000 C 
BRANCH   5   6
ATOM      6  C   UNL     1      22.477  33.187  14.737  1.00  0.00    -0.000 C 
BRANCH   6   7
ATOM      7  C   UNL     1      21.834  32.727  16.058  1.00  0.00    -0.000 C 
BRANCH   7   8
ATOM      8  C   UNL     1      21.567  31.208  16.124  1.00  0.00    -0.000 C 
BRANCH   8   9
ATOM      9  C   UNL     1      20.064  30.877  16.061  1.00  0.00    -0.000 C 
BRANCH   9  10
ATOM     10  C   UNL     1      19.198  32.120  15.807  1.00  0.00    -0.000 C 
BRANCH  10  11
ATOM     11  C   UNL     1      18.072  31.860  14.796  1.00  0.00    -0.003 C 
ATOM     12  C   UNL     1      16.778  31.470  15.504  1.00  0.00     0.004 C 
ENDBRANCH  10  11
ENDBRANCH   9  10
ENDBRANCH   8   9
ENDBRANCH   7   8
ENDBRANCH   6   7
ENDBRANCH   5   6
ENDBRANCH   4   5
ENDBRANCH   3   4
ENDBRANCH   2   3
ENDBRANCH   1   2
BRANCH   1  13
ATOM     13  C   UNL     1      24.952  31.597  10.195  1.00  0.00     0.000 C 
BRANCH  13  14
ATOM     14  C   UNL     1      25.039  31.252  11.697  1.00  0.00     0.000 C 
BRANCH  14  15
ATOM     15  C   UNL     1      26.478  31.078  12.222  1.00  0.00     0.000 C 
BRANCH  15  16
ATOM     16  C   UNL     1      26.648  31.235  13.743  1.00  0.00     0.000 C 
BRANCH  16  17
ATOM     17  C   UNL     1      25.336  31.597  14.461  1.00  0.00     0.000 C 
BRANCH  17  18
ATOM     18  C   UNL     1      25.567  32.288  15.819  1.00  0.00     0.000 C 
BRANCH  18  19
ATOM     19  C   UNL     1      26.917  33.018  15.960  1.00  0.00     0.000 C 
BRANCH  19  20
ATOM     20  C   UNL     1      26.765  34.546  16.055  1.00  0.00     0.006 C 
BRANCH  20  21
ATOM     21  C   UNL     1      26.275  35.164  14.738  1.00  0.00     0.053 C 
BRANCH  21  22
ATOM     22  C   UNL     1      25.084  36.049  14.944  1.00  0.00     0.041 C 
ATOM     23  O   UNL     1      24.780  36.914  14.081  1.00  0.00    -0.550 OA
ATOM     24  O   UNL     1      24.316  35.925  16.095  1.00  0.00    -0.550 OA
ENDBRANCH  21  22
ENDBRANCH  20  21
ENDBRANCH  19  20
ENDBRANCH  18  19
ENDBRANCH  17  18
ENDBRANCH  16  17
ENDBRANCH  15  16
ENDBRANCH  14  15
ENDBRANCH  13  14
ENDBRANCH   1  13
TORSDOF 20
ENDMDL
MODEL 8
REMARK VINA RESULT:    -1.989      3.693      6.130
REMARK INTER + INTRA:          -6.329
REMARK INTER:                  -4.198
REMARK INTRA:                  -2.131
REMARK UNBOUND:                -2.013
REMARK SMILES CCCCCCCCCCCCCCCCCCCCCC(=O)[O-]
REMARK SMILES IDX 12 1 11 2 10 3 9 4 8 5 7 6 6 7 5 8 4 9 3 10 2 11 1 12 13 13
REMARK SMILES IDX 14 14 15 15 16 16 17 17 18 18 19 19 20 20 21 21 22 22 23 23
REMARK SMILES IDX 24 24
REMARK H PARENT
REMARK Flexibility Score: inf
ROOT
ATOM      1  C   UNL     1      26.032  35.353  15.931  1.00  0.00     0.000 C 
ENDROOT
BRANCH   1   2
ATOM      2  C   UNL     1      26.923  34.345  15.183  1.00  0.00     0.000 C 
BRANCH   2   3
ATOM      3  C   UNL     1      26.598  34.194  13.681  1.00  0.00     0.000 C 
BRANCH   3   4
ATOM      4  C   UNL     1      26.896  32.808  13.070  1.00  0.00    -0.000 C 
BRANCH   4   5
ATOM      5  C   UNL     1      26.104  31.620  13.652  1.00  0.00    -0.000 C 
BRANCH   5   6
ATOM      6  C   UNL     1      26.344  31.402  15.154  1.00  0.00    -0.000 C 
BRANCH   6   7
ATOM      7  C   UNL     1      25.051  31.080  15.926  1.00  0.00    -0.000 C 
BRANCH   7   8
ATOM      8  C   UNL     1      23.762  31.382  15.132  1.00  0.00    -0.000 C 
BRANCH   8   9
ATOM      9  C   UNL     1      22.500  30.875  15.856  1.00  0.00    -0.000 C 
BRANCH   9  10
ATOM     10  C   UNL     1      21.256  31.713  15.528  1.00  0.00    -0.000 C 
BRANCH  10  11
ATOM     11  C   UNL     1      21.607  33.121  15.025  1.00  0.00    -0.003 C 
ATOM     12  C   UNL     1      20.783  34.183  15.747  1.00  0.00     0.004 C 
ENDBRANCH  10  11
ENDBRANCH   9  10
ENDBRANCH   8   9
ENDBRANCH   7   8
ENDBRANCH   6   7
ENDBRANCH   5   6
ENDBRANCH   4   5
ENDBRANCH   3   4
ENDBRANCH   2   3
ENDBRANCH   1   2
BRANCH   1  13
ATOM     13  C   UNL     1      24.581  34.868  16.105  1.00  0.00     0.000 C 
BRANCH  13  14
ATOM     14  C   UNL     1      23.561  36.026  16.125  1.00  0.00     0.000 C 
BRANCH  14  15
ATOM     15  C   UNL     1      24.197  37.428  16.069  1.00  0.00     0.000 C 
BRANCH  15  16
ATOM     16  C   UNL     1      23.683  38.341  14.942  1.00  0.00     0.000 C 
BRANCH  16  17
ATOM     17  C   UNL     1      23.954  37.773  13.537  1.00  0.00     0.000 C 
BRANCH  17  18
ATOM     18  C   UNL     1      23.132  36.505  13.236  1.00  0.00     0.000 C 
BRANCH  18  19
ATOM     19  C   UNL     1      23.896  35.391  12.494  1.00  0.00     0.000 C 
BRANCH  19  20
ATOM     20  C   UNL     1      22.980  34.510  11.627  1.00  0.00     0.006 C 
BRANCH  20  21
ATOM     21  C   UNL     1      23.257  33.013  11.824  1.00  0.00     0.053 C 
BRANCH  21  22
ATOM     22  C   UNL     1      24.210  32.481  10.798  1.00  0.00     0.041 C 
ATOM     23  O   UNL     1      25.188  33.177  10.419  1.00  0.00    -0.550 OA
ATOM     24  O   UNL     1      24.009  31.219  10.250  1.00  0.00    -0.550 OA
ENDBRANCH  21  22
ENDBRANCH  20  21
ENDBRANCH  19  20
ENDBRANCH  18  19
ENDBRANCH  17  18
ENDBRANCH  16  17
ENDBRANCH  15  16
ENDBRANCH  14  15
ENDBRANCH  13  14
ENDBRANCH   1  13
TORSDOF 20
ENDMDL
