MODEL 1
REMARK VINA RESULT:     3.372      0.000      0.000
REMARK INTER + INTRA:           3.997
REMARK INTER:                   4.062
REMARK INTRA:                  -0.065
REMARK UNBOUND:                -0.065
REMARK SMILES O=c1c(O)c(-c2ccc(O)c(O)c2)oc2cc(O)cc(O)c12
REMARK SMILES IDX 5 1 3 2 2 3 1 4 22 5 20 6 19 7 17 8 16 9 15 10 14 11 6 12
REMARK SMILES IDX 7 13 8 14 9 15 13 16 11 17 10 18 12 20 4 22 21 24 18 26
REMARK H PARENT 10 19 12 21 4 23 21 25 18 27
REMARK Flexibility Score: inf
ROOT
ATOM      1  C   UNL     1      13.797  -9.671  26.880  1.00  0.00     0.180 A 
ATOM      2  C   UNL     1      12.671  -9.447  27.697  1.00  0.00     0.208 A 
ATOM      3  C   UNL     1      12.314 -10.420  28.642  1.00  0.00     0.238 A 
ATOM      4  O   UNL     1      11.315 -10.226  29.386  1.00  0.00    -0.285 OA
ATOM      5  C   UNL     1      13.071 -11.606  28.741  1.00  0.00     0.111 A 
ATOM      6  C   UNL     1      12.775 -12.638  29.664  1.00  0.00     0.134 A 
ATOM      7  C   UNL     1      13.572 -13.793  29.695  1.00  0.00     0.093 A 
ATOM      8  C   UNL     1      14.656 -13.935  28.821  1.00  0.00     0.123 A 
ATOM      9  C   UNL     1      14.951 -12.919  27.911  1.00  0.00     0.094 A 
ATOM     10  C   UNL     1      14.171 -11.761  27.865  1.00  0.00     0.146 A 
ATOM     11  O   UNL     1      14.479 -10.808  26.992  1.00  0.00    -0.452 OA
ENDROOT
BRANCH   1  12
ATOM     12  C   UNL     1      14.249  -8.684  25.874  1.00  0.00     0.025 A 
ATOM     13  C   UNL     1      14.500  -7.345  26.223  1.00  0.00     0.016 A 
ATOM     14  C   UNL     1      14.949  -6.436  25.260  1.00  0.00     0.051 A 
ATOM     15  C   UNL     1      15.166  -6.855  23.941  1.00  0.00     0.157 A 
ATOM     16  C   UNL     1      14.488  -9.102  24.554  1.00  0.00     0.062 A 
ATOM     17  C   UNL     1      14.938  -8.191  23.588  1.00  0.00     0.158 A 
BRANCH  15  18
ATOM     18  O   UNL     1      15.611  -5.951  22.978  1.00  0.00    -0.504 OA
ATOM     19  H   UNL     1      15.746  -6.228  22.012  1.00  0.00     0.293 HD
ENDBRANCH  15  18
BRANCH  17  20
ATOM     20  O   UNL     1      15.162  -8.605  22.276  1.00  0.00    -0.504 OA
ATOM     21  H   UNL     1      14.860  -8.048  21.486  1.00  0.00     0.293 HD
ENDBRANCH  17  20
ENDBRANCH   1  12
BRANCH   2  22
ATOM     22  O   UNL     1      11.909  -8.285  27.544  1.00  0.00    -0.502 OA
ATOM     23  H   UNL     1      11.804  -7.820  26.651  1.00  0.00     0.293 HD
ENDBRANCH   2  22
BRANCH   6  24
ATOM     24  O   UNL     1      11.700 -12.526  30.547  1.00  0.00    -0.507 OA
ATOM     25  H   UNL     1      10.942 -11.873  30.383  1.00  0.00     0.293 HD
ENDBRANCH   6  24
BRANCH   8  26
ATOM     26  O   UNL     1      15.446 -15.081  28.851  1.00  0.00    -0.508 OA
ATOM     27  H   UNL     1      15.044 -15.998  29.011  1.00  0.00     0.293 HD
ENDBRANCH   8  26
TORSDOF 6
ENDMDL
MODEL 2
REMARK VINA RESULT:     3.989     14.953     17.288
REMARK INTER + INTRA:           4.740
REMARK INTER:                   4.206
REMARK INTRA:                   0.533
REMARK UNBOUND:                -0.065
REMARK SMILES O=c1c(O)c(-c2ccc(O)c(O)c2)oc2cc(O)cc(O)c12
REMARK SMILES IDX 5 1 3 2 2 3 1 4 22 5 20 6 19 7 17 8 16 9 15 10 14 11 6 12
REMARK SMILES IDX 7 13 8 14 9 15 13 16 11 17 10 18 12 20 4 22 21 24 18 26
REMARK H PARENT 10 19 12 21 4 23 21 25 18 27
REMARK Flexibility Score: inf
ROOT
ATOM      1  C   UNL     1      24.814 -11.032  15.173  1.00  0.00     0.180 A 
ATOM      2  C   UNL     1      24.765 -10.726  16.547  1.00  0.00     0.208 A 
ATOM      3  C   UNL     1      24.699  -9.381  16.940  1.00  0.00     0.238 A 
ATOM      4  O   UNL     1      24.643  -9.095  18.167  1.00  0.00    -0.285 OA
ATOM      5  C   UNL     1      24.705  -8.367  15.960  1.00  0.00     0.111 A 
ATOM      6  C   UNL     1      24.645  -6.987  16.272  1.00  0.00     0.134 A 
ATOM      7  C   UNL     1      24.664  -6.038  15.239  1.00  0.00     0.093 A 
ATOM      8  C   UNL     1      24.742  -6.443  13.902  1.00  0.00     0.123 A 
ATOM      9  C   UNL     1      24.801  -7.802  13.590  1.00  0.00     0.094 A 
ATOM     10  C   UNL     1      24.781  -8.762  14.604  1.00  0.00     0.146 A 
ATOM     11  O   UNL     1      24.832 -10.049  14.277  1.00  0.00    -0.452 OA
ENDROOT
BRANCH   1  12
ATOM     12  C   UNL     1      24.865 -12.426  14.679  1.00  0.00     0.025 A 
ATOM     13  C   UNL     1      25.056 -12.714  13.315  1.00  0.00     0.016 A 
ATOM     14  C   UNL     1      25.125 -14.039  12.876  1.00  0.00     0.051 A 
ATOM     15  C   UNL     1      25.016 -15.094  13.792  1.00  0.00     0.157 A 
ATOM     16  C   UNL     1      24.778 -13.488  15.595  1.00  0.00     0.062 A 
ATOM     17  C   UNL     1      24.845 -14.818  15.155  1.00  0.00     0.158 A 
BRANCH  15  18
ATOM     18  O   UNL     1      25.082 -16.416  13.357  1.00  0.00    -0.504 OA
ATOM     19  H   UNL     1      24.542 -16.741  12.563  1.00  0.00     0.293 HD
ENDBRANCH  15  18
BRANCH  17  20
ATOM     20  O   UNL     1      24.745 -15.869  16.064  1.00  0.00    -0.504 OA
ATOM     21  H   UNL     1      25.476 -16.566  16.151  1.00  0.00     0.293 HD
ENDBRANCH  17  20
ENDBRANCH   1  12
BRANCH   2  22
ATOM     22  O   UNL     1      24.810 -11.747  17.499  1.00  0.00    -0.502 OA
ATOM     23  H   UNL     1      24.162 -11.794  18.275  1.00  0.00     0.293 HD
ENDBRANCH   2  22
BRANCH   6  24
ATOM     24  O   UNL     1      24.568  -6.554  17.597  1.00  0.00    -0.507 OA
ATOM     25  H   UNL     1      23.771  -6.030  17.941  1.00  0.00     0.293 HD
ENDBRANCH   6  24
BRANCH   8  26
ATOM     26  O   UNL     1      24.762  -5.501  12.876  1.00  0.00    -0.508 OA
ATOM     27  H   UNL     1      25.257  -4.621  12.973  1.00  0.00     0.293 HD
ENDBRANCH   8  26
TORSDOF 6
ENDMDL
MODEL 3
REMARK VINA RESULT:     4.025      4.235      5.713
REMARK INTER + INTRA:           4.784
REMARK INTER:                   5.108
REMARK INTRA:                  -0.324
REMARK UNBOUND:                -0.065
REMARK SMILES O=c1c(O)c(-c2ccc(O)c(O)c2)oc2cc(O)cc(O)c12
REMARK SMILES IDX 5 1 3 2 2 3 1 4 22 5 20 6 19 7 17 8 16 9 15 10 14 11 6 12
REMARK SMILES IDX 7 13 8 14 9 15 13 16 11 17 10 18 12 20 4 22 21 24 18 26
REMARK H PARENT 10 19 12 21 4 23 21 25 18 27
REMARK Flexibility Score: inf
ROOT
ATOM      1  C   UNL     1      13.182 -12.786  29.134  1.00  0.00     0.180 A 
ATOM      2  C   UNL     1      13.515 -13.710  30.143  1.00  0.00     0.208 A 
ATOM      3  C   UNL     1      14.276 -14.839  29.805  1.00  0.00     0.238 A 
ATOM      4  O   UNL     1      14.589 -15.667  30.702  1.00  0.00    -0.285 OA
ATOM      5  C   UNL     1      14.672 -15.037  28.466  1.00  0.00     0.111 A 
ATOM      6  C   UNL     1      15.437 -16.150  28.041  1.00  0.00     0.134 A 
ATOM      7  C   UNL     1      15.785 -16.279  26.688  1.00  0.00     0.093 A 
ATOM      8  C   UNL     1      15.382 -15.319  25.754  1.00  0.00     0.123 A 
ATOM      9  C   UNL     1      14.629 -14.219  26.168  1.00  0.00     0.094 A 
ATOM     10  C   UNL     1      14.274 -14.071  27.512  1.00  0.00     0.146 A 
ATOM     11  O   UNL     1      13.562 -13.012  27.879  1.00  0.00    -0.452 OA
ENDROOT
BRANCH   1  12
ATOM     12  C   UNL     1      12.399 -11.561  29.415  1.00  0.00     0.025 A 
ATOM     13  C   UNL     1      13.014 -10.394  29.903  1.00  0.00     0.016 A 
ATOM     14  C   UNL     1      12.258  -9.243  30.138  1.00  0.00     0.051 A 
ATOM     15  C   UNL     1      10.881  -9.236  29.877  1.00  0.00     0.157 A 
ATOM     16  C   UNL     1      11.023 -11.541  29.136  1.00  0.00     0.062 A 
ATOM     17  C   UNL     1      10.263 -10.387  29.372  1.00  0.00     0.158 A 
BRANCH  15  18
ATOM     18  O   UNL     1      10.124  -8.090  30.112  1.00  0.00    -0.504 OA
ATOM     19  H   UNL     1       9.827  -7.833  31.047  1.00  0.00     0.293 HD
ENDBRANCH  15  18
BRANCH  17  20
ATOM     20  O   UNL     1       8.894 -10.374  29.107  1.00  0.00    -0.504 OA
ATOM     21  H   UNL     1       8.388  -9.506  28.982  1.00  0.00     0.293 HD
ENDBRANCH  17  20
ENDBRANCH   1  12
BRANCH   2  22
ATOM     22  O   UNL     1      13.067 -13.516  31.453  1.00  0.00    -0.502 OA
ATOM     23  H   UNL     1      13.459 -12.807  32.060  1.00  0.00     0.293 HD
ENDBRANCH   2  22
BRANCH   6  24
ATOM     24  O   UNL     1      15.852 -17.125  28.950  1.00  0.00    -0.507 OA
ATOM     25  H   UNL     1      16.706 -17.024  29.486  1.00  0.00     0.293 HD
ENDBRANCH   6  24
BRANCH   8  26
ATOM     26  O   UNL     1      15.726 -15.448  24.410  1.00  0.00    -0.508 OA
ATOM     27  H   UNL     1      16.157 -14.687  23.897  1.00  0.00     0.293 HD
ENDBRANCH   8  26
TORSDOF 6
ENDMDL
MODEL 4
REMARK VINA RESULT:     4.393      4.520      6.463
REMARK INTER + INTRA:           5.227
REMARK INTER:                   5.287
REMARK INTRA:                  -0.060
REMARK UNBOUND:                -0.065
REMARK SMILES O=c1c(O)c(-c2ccc(O)c(O)c2)oc2cc(O)cc(O)c12
REMARK SMILES IDX 5 1 3 2 2 3 1 4 22 5 20 6 19 7 17 8 16 9 15 10 14 11 6 12
REMARK SMILES IDX 7 13 8 14 9 15 13 16 11 17 10 18 12 20 4 22 21 24 18 26
REMARK H PARENT 10 19 12 21 4 23 21 25 18 27
REMARK Flexibility Score: inf
ROOT
ATOM      1  C   UNL     1      13.568 -12.839  28.672  1.00  0.00     0.180 A 
ATOM      2  C   UNL     1      14.233 -12.090  29.663  1.00  0.00     0.208 A 
ATOM      3  C   UNL     1      13.538 -11.061  30.315  1.00  0.00     0.238 A 
ATOM      4  O   UNL     1      14.119 -10.391  31.212  1.00  0.00    -0.285 OA
ATOM      5  C   UNL     1      12.203 -10.783  29.955  1.00  0.00     0.111 A 
ATOM      6  C   UNL     1      11.434  -9.760  30.560  1.00  0.00     0.134 A 
ATOM      7  C   UNL     1      10.114  -9.540  30.140  1.00  0.00     0.093 A 
ATOM      8  C   UNL     1       9.550 -10.322  29.125  1.00  0.00     0.123 A 
ATOM      9  C   UNL     1      10.304 -11.332  28.526  1.00  0.00     0.094 A 
ATOM     10  C   UNL     1      11.620 -11.568  28.932  1.00  0.00     0.146 A 
ATOM     11  O   UNL     1      12.312 -12.539  28.348  1.00  0.00    -0.452 OA
ENDROOT
BRANCH   1  12
ATOM     12  C   UNL     1      14.226 -13.953  27.953  1.00  0.00     0.025 A 
ATOM     13  C   UNL     1      14.354 -13.948  26.552  1.00  0.00     0.016 A 
ATOM     14  C   UNL     1      15.000 -14.999  25.898  1.00  0.00     0.051 A 
ATOM     15  C   UNL     1      15.541 -16.063  26.633  1.00  0.00     0.157 A 
ATOM     16  C   UNL     1      14.788 -15.011  28.685  1.00  0.00     0.062 A 
ATOM     17  C   UNL     1      15.437 -16.068  28.030  1.00  0.00     0.158 A 
BRANCH  15  18
ATOM     18  O   UNL     1      16.185 -17.114  25.983  1.00  0.00    -0.504 OA
ATOM     19  H   UNL     1      16.235 -18.040  26.393  1.00  0.00     0.293 HD
ENDBRANCH  15  18
BRANCH  17  20
ATOM     20  O   UNL     1      15.982 -17.124  28.758  1.00  0.00    -0.504 OA
ATOM     21  H   UNL     1      16.153 -17.047  29.753  1.00  0.00     0.293 HD
ENDBRANCH  17  20
ENDBRANCH   1  12
BRANCH   2  22
ATOM     22  O   UNL     1      15.571 -12.353  29.966  1.00  0.00    -0.502 OA
ATOM     23  H   UNL     1      16.281 -11.632  29.954  1.00  0.00     0.293 HD
ENDBRANCH   2  22
BRANCH   6  24
ATOM     24  O   UNL     1      11.970  -8.963  31.574  1.00  0.00    -0.507 OA
ATOM     25  H   UNL     1      12.831  -8.443  31.444  1.00  0.00     0.293 HD
ENDBRANCH   6  24
BRANCH   8  26
ATOM     26  O   UNL     1       8.240 -10.103  28.706  1.00  0.00    -0.508 OA
ATOM     27  H   UNL     1       8.030  -9.521  27.903  1.00  0.00     0.293 HD
ENDBRANCH   8  26
TORSDOF 6
ENDMDL
MODEL 5
REMARK VINA RESULT:     4.929      4.377      6.223
REMARK INTER + INTRA:           5.873
REMARK INTER:                   5.899
REMARK INTRA:                  -0.026
REMARK UNBOUND:                -0.065
REMARK SMILES O=c1c(O)c(-c2ccc(O)c(O)c2)oc2cc(O)cc(O)c12
REMARK SMILES IDX 5 1 3 2 2 3 1 4 22 5 20 6 19 7 17 8 16 9 15 10 14 11 6 12
REMARK SMILES IDX 7 13 8 14 9 15 13 16 11 17 10 18 12 20 4 22 21 24 18 26
REMARK H PARENT 10 19 12 21 4 23 21 25 18 27
REMARK Flexibility Score: inf
ROOT
ATOM      1  C   UNL     1      13.248 -12.848  28.457  1.00  0.00     0.180 A 
ATOM      2  C   UNL     1      12.014 -12.390  27.956  1.00  0.00     0.208 A 
ATOM      3  C   UNL     1      11.379 -11.315  28.597  1.00  0.00     0.238 A 
ATOM      4  O   UNL     1      10.279 -10.889  28.151  1.00  0.00    -0.285 OA
ATOM      5  C   UNL     1      11.974 -10.731  29.734  1.00  0.00     0.111 A 
ATOM      6  C   UNL     1      11.398  -9.647  30.439  1.00  0.00     0.134 A 
ATOM      7  C   UNL     1      12.049  -9.127  31.568  1.00  0.00     0.093 A 
ATOM      8  C   UNL     1      13.263  -9.670  32.004  1.00  0.00     0.123 A 
ATOM      9  C   UNL     1      13.835 -10.737  31.311  1.00  0.00     0.094 A 
ATOM     10  C   UNL     1      13.203 -11.269  30.183  1.00  0.00     0.146 A 
ATOM     11  O   UNL     1      13.773 -12.281  29.540  1.00  0.00    -0.452 OA
ENDROOT
BRANCH   1  12
ATOM     12  C   UNL     1      13.989 -13.963  27.825  1.00  0.00     0.025 A 
ATOM     13  C   UNL     1      14.243 -13.983  26.442  1.00  0.00     0.016 A 
ATOM     14  C   UNL     1      14.965 -15.035  25.872  1.00  0.00     0.051 A 
ATOM     15  C   UNL     1      15.454 -16.074  26.675  1.00  0.00     0.157 A 
ATOM     16  C   UNL     1      14.500 -14.996  28.628  1.00  0.00     0.062 A 
ATOM     17  C   UNL     1      15.224 -16.052  28.057  1.00  0.00     0.158 A 
BRANCH  15  18
ATOM     18  O   UNL     1      16.173 -17.125  26.110  1.00  0.00    -0.504 OA
ATOM     19  H   UNL     1      16.274 -18.015  26.585  1.00  0.00     0.293 HD
ENDBRANCH  15  18
BRANCH  17  20
ATOM     20  O   UNL     1      15.718 -17.083  28.854  1.00  0.00    -0.504 OA
ATOM     21  H   UNL     1      15.835 -16.969  29.854  1.00  0.00     0.293 HD
ENDBRANCH  17  20
ENDBRANCH   1  12
BRANCH   2  22
ATOM     22  O   UNL     1      11.421 -13.018  26.858  1.00  0.00    -0.502 OA
ATOM     23  H   UNL     1      11.965 -13.447  26.120  1.00  0.00     0.293 HD
ENDBRANCH   2  22
BRANCH   6  24
ATOM     24  O   UNL     1      10.187  -9.086  30.030  1.00  0.00    -0.507 OA
ATOM     25  H   UNL     1       9.826  -8.236  30.447  1.00  0.00     0.293 HD
ENDBRANCH   6  24
BRANCH   8  26
ATOM     26  O   UNL     1      13.909  -9.154  33.125  1.00  0.00    -0.508 OA
ATOM     27  H   UNL     1      13.401  -8.654  33.846  1.00  0.00     0.293 HD
ENDBRANCH   8  26
TORSDOF 6
ENDMDL
MODEL 6
REMARK VINA RESULT:     4.956      8.011     11.269
REMARK INTER + INTRA:           5.906
REMARK INTER:                   5.581
REMARK INTRA:                   0.324
REMARK UNBOUND:                -0.065
REMARK SMILES O=c1c(O)c(-c2ccc(O)c(O)c2)oc2cc(O)cc(O)c12
REMARK SMILES IDX 5 1 3 2 2 3 1 4 22 5 20 6 19 7 17 8 16 9 15 10 14 11 6 12
REMARK SMILES IDX 7 13 8 14 9 15 13 16 11 17 10 18 12 20 4 22 21 24 18 26
REMARK H PARENT 10 19 12 21 4 23 21 25 18 27
REMARK Flexibility Score: inf
ROOT
ATOM      1  C   UNL     1      16.811  -2.353  28.141  1.00  0.00     0.180 A 
ATOM      2  C   UNL     1      18.044  -2.451  27.468  1.00  0.00     0.208 A 
ATOM      3  C   UNL     1      18.217  -1.749  26.265  1.00  0.00     0.238 A 
ATOM      4  O   UNL     1      19.320  -1.820  25.658  1.00  0.00    -0.285 OA
ATOM      5  C   UNL     1      17.154  -0.981  25.747  1.00  0.00     0.111 A 
ATOM      6  C   UNL     1      17.245  -0.248  24.539  1.00  0.00     0.134 A 
ATOM      7  C   UNL     1      16.139   0.486  24.085  1.00  0.00     0.093 A 
ATOM      8  C   UNL     1      14.945   0.499  24.815  1.00  0.00     0.123 A 
ATOM      9  C   UNL     1      14.851  -0.222  26.006  1.00  0.00     0.094 A 
ATOM     10  C   UNL     1      15.942  -0.958  26.476  1.00  0.00     0.146 A 
ATOM     11  O   UNL     1      15.826  -1.630  27.615  1.00  0.00    -0.452 OA
ENDROOT
BRANCH   1  12
ATOM     12  C   UNL     1      16.558  -3.047  29.424  1.00  0.00     0.025 A 
ATOM     13  C   UNL     1      17.269  -4.206  29.783  1.00  0.00     0.016 A 
ATOM     14  C   UNL     1      17.030  -4.830  31.010  1.00  0.00     0.051 A 
ATOM     15  C   UNL     1      16.088  -4.299  31.901  1.00  0.00     0.157 A 
ATOM     16  C   UNL     1      15.630  -2.508  30.331  1.00  0.00     0.062 A 
ATOM     17  C   UNL     1      15.389  -3.134  31.562  1.00  0.00     0.158 A 
BRANCH  15  18
ATOM     18  O   UNL     1      15.845  -4.920  33.125  1.00  0.00    -0.504 OA
ATOM     19  H   UNL     1      16.265  -4.582  33.984  1.00  0.00     0.293 HD
ENDBRANCH  15  18
BRANCH  17  20
ATOM     20  O   UNL     1      14.458  -2.604  32.454  1.00  0.00    -0.504 OA
ATOM     21  H   UNL     1      13.903  -1.790  32.218  1.00  0.00     0.293 HD
ENDBRANCH  17  20
ENDBRANCH   1  12
BRANCH   2  22
ATOM     22  O   UNL     1      19.064  -3.258  27.977  1.00  0.00    -0.502 OA
ATOM     23  H   UNL     1      19.399  -4.080  27.490  1.00  0.00     0.293 HD
ENDBRANCH   2  22
BRANCH   6  24
ATOM     24  O   UNL     1      18.423  -0.242  23.789  1.00  0.00    -0.507 OA
ATOM     25  H   UNL     1      19.242   0.275  24.088  1.00  0.00     0.293 HD
ENDBRANCH   6  24
BRANCH   8  26
ATOM     26  O   UNL     1      13.846   1.226  24.364  1.00  0.00    -0.508 OA
ATOM     27  H   UNL     1      13.087   1.481  24.986  1.00  0.00     0.293 HD
ENDBRANCH   8  26
TORSDOF 6
ENDMDL
MODEL 7
REMARK VINA RESULT:     5.099      1.323      3.052
REMARK INTER + INTRA:           6.077
REMARK INTER:                   6.289
REMARK INTRA:                  -0.212
REMARK UNBOUND:                -0.065
REMARK SMILES O=c1c(O)c(-c2ccc(O)c(O)c2)oc2cc(O)cc(O)c12
REMARK SMILES IDX 5 1 3 2 2 3 1 4 22 5 20 6 19 7 17 8 16 9 15 10 14 11 6 12
REMARK SMILES IDX 7 13 8 14 9 15 13 16 11 17 10 18 12 20 4 22 21 24 18 26
REMARK H PARENT 10 19 12 21 4 23 21 25 18 27
REMARK Flexibility Score: inf
ROOT
ATOM      1  C   UNL     1      13.719  -9.497  26.885  1.00  0.00     0.180 A 
ATOM      2  C   UNL     1      14.524 -10.535  27.391  1.00  0.00     0.208 A 
ATOM      3  C   UNL     1      13.984 -11.407  28.349  1.00  0.00     0.238 A 
ATOM      4  O   UNL     1      14.693 -12.347  28.802  1.00  0.00    -0.285 OA
ATOM      5  C   UNL     1      12.661 -11.216  28.798  1.00  0.00     0.111 A 
ATOM      6  C   UNL     1      12.043 -12.048  29.763  1.00  0.00     0.134 A 
ATOM      7  C   UNL     1      10.725 -11.787  30.164  1.00  0.00     0.093 A 
ATOM      8  C   UNL     1      10.014 -10.711  29.620  1.00  0.00     0.123 A 
ATOM      9  C   UNL     1      10.619  -9.890  28.668  1.00  0.00     0.094 A 
ATOM     10  C   UNL     1      11.931 -10.134  28.253  1.00  0.00     0.146 A 
ATOM     11  O   UNL     1      12.479  -9.339  27.342  1.00  0.00    -0.452 OA
ENDROOT
BRANCH   1  12
ATOM     12  C   UNL     1      14.209  -8.549  25.859  1.00  0.00     0.025 A 
ATOM     13  C   UNL     1      14.489  -7.207  26.175  1.00  0.00     0.016 A 
ATOM     14  C   UNL     1      14.975  -6.337  25.195  1.00  0.00     0.051 A 
ATOM     15  C   UNL     1      15.200  -6.797  23.891  1.00  0.00     0.157 A 
ATOM     16  C   UNL     1      14.457  -9.009  24.555  1.00  0.00     0.062 A 
ATOM     17  C   UNL     1      14.944  -8.136  23.571  1.00  0.00     0.158 A 
BRANCH  15  18
ATOM     18  O   UNL     1      15.682  -5.931  22.911  1.00  0.00    -0.504 OA
ATOM     19  H   UNL     1      15.116  -5.173  22.547  1.00  0.00     0.293 HD
ENDBRANCH  15  18
BRANCH  17  20
ATOM     20  O   UNL     1      15.176  -8.592  22.274  1.00  0.00    -0.504 OA
ATOM     21  H   UNL     1      14.971  -9.546  22.004  1.00  0.00     0.293 HD
ENDBRANCH  17  20
ENDBRANCH   1  12
BRANCH   2  22
ATOM     22  O   UNL     1      15.849 -10.672  26.967  1.00  0.00    -0.502 OA
ATOM     23  H   UNL     1      16.094 -10.821  25.996  1.00  0.00     0.293 HD
ENDBRANCH   2  22
BRANCH   6  24
ATOM     24  O   UNL     1      12.728 -13.127  30.324  1.00  0.00    -0.507 OA
ATOM     25  H   UNL     1      12.378 -13.611  31.144  1.00  0.00     0.293 HD
ENDBRANCH   6  24
BRANCH   8  26
ATOM     26  O   UNL     1       8.705 -10.451  30.019  1.00  0.00    -0.508 OA
ATOM     27  H   UNL     1       8.015 -11.191  30.088  1.00  0.00     0.293 HD
ENDBRANCH   8  26
TORSDOF 6
ENDMDL
MODEL 8
REMARK VINA RESULT:     5.728      8.235      9.730
REMARK INTER + INTRA:           6.835
REMARK INTER:                   6.751
REMARK INTRA:                   0.084
REMARK UNBOUND:                -0.065
REMARK SMILES O=c1c(O)c(-c2ccc(O)c(O)c2)oc2cc(O)cc(O)c12
REMARK SMILES IDX 5 1 3 2 2 3 1 4 22 5 20 6 19 7 17 8 16 9 15 10 14 11 6 12
REMARK SMILES IDX 7 13 8 14 9 15 13 16 11 17 10 18 12 20 4 22 21 24 18 26
REMARK H PARENT 10 19 12 21 4 23 21 25 18 27
REMARK Flexibility Score: inf
ROOT
ATOM      1  C   UNL     1      15.871  -1.230  27.237  1.00  0.00     0.180 A 
ATOM      2  C   UNL     1      17.024  -1.989  26.960  1.00  0.00     0.208 A 
ATOM      3  C   UNL     1      17.487  -2.897  27.925  1.00  0.00     0.238 A 
ATOM      4  O   UNL     1      18.512  -3.590  27.684  1.00  0.00    -0.285 OA
ATOM      5  C   UNL     1      16.804  -3.016  29.154  1.00  0.00     0.111 A 
ATOM      6  C   UNL     1      17.207  -3.904  30.180  1.00  0.00     0.134 A 
ATOM      7  C   UNL     1      16.479  -3.958  31.379  1.00  0.00     0.093 A 
ATOM      8  C   UNL     1      15.359  -3.141  31.570  1.00  0.00     0.123 A 
ATOM      9  C   UNL     1      14.959  -2.265  30.560  1.00  0.00     0.094 A 
ATOM     10  C   UNL     1      15.669  -2.198  29.358  1.00  0.00     0.146 A 
ATOM     11  O   UNL     1      15.261  -1.359  28.413  1.00  0.00    -0.452 OA
ENDROOT
BRANCH   1  12
ATOM     12  C   UNL     1      15.311  -0.266  26.263  1.00  0.00     0.025 A 
ATOM     13  C   UNL     1      15.230  -0.573  24.893  1.00  0.00     0.016 A 
ATOM     14  C   UNL     1      14.675   0.344  23.996  1.00  0.00     0.051 A 
ATOM     15  C   UNL     1      14.181   1.572  24.455  1.00  0.00     0.157 A 
ATOM     16  C   UNL     1      14.795   0.957  26.720  1.00  0.00     0.062 A 
ATOM     17  C   UNL     1      14.238   1.878  25.821  1.00  0.00     0.158 A 
BRANCH  15  18
ATOM     18  O   UNL     1      13.628   2.489  23.563  1.00  0.00    -0.504 OA
ATOM     19  H   UNL     1      13.423   3.442  23.841  1.00  0.00     0.293 HD
ENDBRANCH  15  18
BRANCH  17  20
ATOM     20  O   UNL     1      13.739   3.098  26.275  1.00  0.00    -0.504 OA
ATOM     21  H   UNL     1      13.762   3.346  27.257  1.00  0.00     0.293 HD
ENDBRANCH  17  20
ENDBRANCH   1  12
BRANCH   2  22
ATOM     22  O   UNL     1      17.711  -1.816  25.756  1.00  0.00    -0.502 OA
ATOM     23  H   UNL     1      18.545  -1.247  25.684  1.00  0.00     0.293 HD
ENDBRANCH   2  22
BRANCH   6  24
ATOM     24  O   UNL     1      18.321  -4.730  30.020  1.00  0.00    -0.507 OA
ATOM     25  H   UNL     1      18.608  -5.066  29.107  1.00  0.00     0.293 HD
ENDBRANCH   6  24
BRANCH   8  26
ATOM     26  O   UNL     1      14.638  -3.193  32.760  1.00  0.00    -0.508 OA
ATOM     27  H   UNL     1      14.133  -4.027  33.038  1.00  0.00     0.293 HD
ENDBRANCH   8  26
TORSDOF 6
ENDMDL
