MODEL 1
REMARK VINA RESULT:    10.692      0.000      0.000
REMARK INTER + INTRA:          30.339
REMARK INTER:                  26.944
REMARK INTRA:                   3.395
REMARK UNBOUND:                 3.395
REMARK SMILES CCCCCCCCCCCCCCCCCCCCCCCCCCCC(=O)[O-]
REMARK SMILES IDX 15 1 16 2 17 3 18 4 19 5 20 6 21 7 22 8 23 9 24 10 25 11
REMARK SMILES IDX 26 12 27 13 28 14 29 15 30 16 14 17 13 18 12 19 11 20 10 21
REMARK SMILES IDX 9 22 8 23 7 24 6 25 5 26 4 27 3 28 2 29 1 30
REMARK H PARENT
REMARK Flexibility Score: inf
ROOT
ATOM      1  C   UNL     1      -4.387  37.865  22.867  1.00  0.00     0.000 C 
ENDROOT
BRANCH   1   2
ATOM      2  C   UNL     1      -5.456  36.944  22.260  1.00  0.00     0.000 C 
BRANCH   2   3
ATOM      3  C   UNL     1      -4.892  35.570  21.856  1.00  0.00     0.000 C 
BRANCH   3   4
ATOM      4  C   UNL     1      -4.723  34.625  23.057  1.00  0.00     0.000 C 
BRANCH   4   5
ATOM      5  C   UNL     1      -6.043  34.391  23.812  1.00  0.00     0.000 C 
BRANCH   5   6
ATOM      6  C   UNL     1      -6.117  35.166  25.139  1.00  0.00     0.000 C 
BRANCH   6   7
ATOM      7  C   UNL     1      -4.945  36.136  25.400  1.00  0.00     0.000 C 
BRANCH   7   8
ATOM      8  C   UNL     1      -5.317  37.420  26.164  1.00  0.00     0.000 C 
BRANCH   8   9
ATOM      9  C   UNL     1      -4.093  38.269  26.536  1.00  0.00     0.000 C 
BRANCH   9  10
ATOM     10  C   UNL     1      -2.863  37.383  26.775  1.00  0.00     0.000 C 
BRANCH  10  11
ATOM     11  C   UNL     1      -3.209  36.049  27.462  1.00  0.00     0.000 C 
BRANCH  11  12
ATOM     12  C   UNL     1      -1.994  35.212  27.911  1.00  0.00     0.006 C 
BRANCH  12  13
ATOM     13  C   UNL     1      -2.333  34.059  28.870  1.00  0.00     0.053 C 
BRANCH  13  14
ATOM     14  C   UNL     1      -1.258  33.835  29.887  1.00  0.00     0.041 C 
ATOM     15  O   UNL     1      -1.560  33.563  31.080  1.00  0.00    -0.550 OA
ATOM     16  O   UNL     1       0.080  33.931  29.521  1.00  0.00    -0.550 OA
ENDBRANCH  13  14
ENDBRANCH  12  13
ENDBRANCH  11  12
ENDBRANCH  10  11
ENDBRANCH   9  10
ENDBRANCH   8   9
ENDBRANCH   7   8
ENDBRANCH   6   7
ENDBRANCH   5   6
ENDBRANCH   4   5
ENDBRANCH   3   4
ENDBRANCH   2   3
ENDBRANCH   1   2
BRANCH   1  17
ATOM     17  C   UNL     1      -4.988  39.112  23.536  1.00  0.00     0.000 C 
BRANCH  17  18
ATOM     18  C   UNL     1      -4.835  40.344  22.632  1.00  0.00     0.000 C 
BRANCH  18  19
ATOM     19  C   UNL     1      -5.932  40.444  21.555  1.00  0.00     0.000 C 
BRANCH  19  20
ATOM     20  C   UNL     1      -6.124  39.181  20.695  1.00  0.00     0.000 C 
BRANCH  20  21
ATOM     21  C   UNL     1      -5.129  39.032  19.529  1.00  0.00     0.000 C 
BRANCH  21  22
ATOM     22  C   UNL     1      -4.049  37.952  19.768  1.00  0.00    -0.000 C 
BRANCH  22  23
ATOM     23  C   UNL     1      -4.118  36.767  18.789  1.00  0.00    -0.000 C 
BRANCH  23  24
ATOM     24  C   UNL     1      -5.469  36.029  18.851  1.00  0.00    -0.000 C 
BRANCH  24  25
ATOM     25  C   UNL     1      -5.324  34.517  18.613  1.00  0.00    -0.000 C 
BRANCH  25  26
ATOM     26  C   UNL     1      -4.593  34.194  17.301  1.00  0.00    -0.000 C 
BRANCH  26  27
ATOM     27  C   UNL     1      -4.128  35.477  16.601  1.00  0.00    -0.000 C 
BRANCH  27  28
ATOM     28  C   UNL     1      -3.574  35.169  15.202  1.00  0.00    -0.000 C 
BRANCH  28  29
ATOM     29  C   UNL     1      -4.092  36.141  14.132  1.00  0.00    -0.003 C 
ATOM     30  C   UNL     1      -3.415  37.510  14.199  1.00  0.00     0.004 C 
ENDBRANCH  28  29
ENDBRANCH  27  28
ENDBRANCH  26  27
ENDBRANCH  25  26
ENDBRANCH  24  25
ENDBRANCH  23  24
ENDBRANCH  22  23
ENDBRANCH  21  22
ENDBRANCH  20  21
ENDBRANCH  19  20
ENDBRANCH  18  19
ENDBRANCH  17  18
ENDBRANCH   1  17
TORSDOF 26
ENDMDL
MODEL 2
REMARK VINA RESULT:    11.024      4.317     10.099
REMARK INTER + INTRA:          31.175
REMARK INTER:                  31.287
REMARK INTRA:                  -0.112
REMARK UNBOUND:                 3.395
REMARK SMILES CCCCCCCCCCCCCCCCCCCCCCCCCCCC(=O)[O-]
REMARK SMILES IDX 15 1 16 2 17 3 18 4 19 5 20 6 21 7 22 8 23 9 24 10 25 11
REMARK SMILES IDX 26 12 27 13 28 14 29 15 30 16 14 17 13 18 12 19 11 20 10 21
REMARK SMILES IDX 9 22 8 23 7 24 6 25 5 26 4 27 3 28 2 29 1 30
REMARK H PARENT
REMARK Flexibility Score: inf
ROOT
ATOM      1  C   UNL     1      -4.560  35.465  21.732  1.00  0.00     0.000 C 
ENDROOT
BRANCH   1   2
ATOM      2  C   UNL     1      -4.756  36.512  22.839  1.00  0.00     0.000 C 
BRANCH   2   3
ATOM      3  C   UNL     1      -3.915  37.781  22.607  1.00  0.00     0.000 C 
BRANCH   3   4
ATOM      4  C   UNL     1      -4.614  39.053  23.114  1.00  0.00     0.000 C 
BRANCH   4   5
ATOM      5  C   UNL     1      -5.562  39.661  22.066  1.00  0.00     0.000 C 
BRANCH   5   6
ATOM      6  C   UNL     1      -5.931  38.670  20.949  1.00  0.00     0.000 C 
BRANCH   6   7
ATOM      7  C   UNL     1      -5.050  38.746  19.684  1.00  0.00     0.000 C 
BRANCH   7   8
ATOM      8  C   UNL     1      -5.282  37.623  18.657  1.00  0.00     0.000 C 
BRANCH   8   9
ATOM      9  C   UNL     1      -4.585  36.309  19.041  1.00  0.00     0.000 C 
BRANCH   9  10
ATOM     10  C   UNL     1      -5.147  35.133  18.231  1.00  0.00     0.000 C 
BRANCH  10  11
ATOM     11  C   UNL     1      -4.089  34.460  17.338  1.00  0.00     0.000 C 
BRANCH  11  12
ATOM     12  C   UNL     1      -4.153  34.846  15.846  1.00  0.00     0.006 C 
BRANCH  12  13
ATOM     13  C   UNL     1      -4.505  36.318  15.582  1.00  0.00     0.053 C 
BRANCH  13  14
ATOM     14  C   UNL     1      -3.647  36.923  14.515  1.00  0.00     0.041 C 
ATOM     15  O   UNL     1      -4.046  37.936  13.880  1.00  0.00    -0.550 OA
ATOM     16  O   UNL     1      -2.409  36.367  14.217  1.00  0.00    -0.550 OA
ENDBRANCH  13  14
ENDBRANCH  12  13
ENDBRANCH  11  12
ENDBRANCH  10  11
ENDBRANCH   9  10
ENDBRANCH   8   9
ENDBRANCH   7   8
ENDBRANCH   6   7
ENDBRANCH   5   6
ENDBRANCH   4   5
ENDBRANCH   3   4
ENDBRANCH   2   3
ENDBRANCH   1   2
BRANCH   1  17
ATOM     17  C   UNL     1      -5.425  34.211  21.942  1.00  0.00     0.000 C 
BRANCH  17  18
ATOM     18  C   UNL     1      -4.993  33.455  23.206  1.00  0.00     0.000 C 
BRANCH  18  19
ATOM     19  C   UNL     1      -6.090  33.409  24.288  1.00  0.00     0.000 C 
BRANCH  19  20
ATOM     20  C   UNL     1      -5.851  34.323  25.505  1.00  0.00     0.000 C 
BRANCH  20  21
ATOM     21  C   UNL     1      -6.121  35.818  25.256  1.00  0.00     0.000 C 
BRANCH  21  22
ATOM     22  C   UNL     1      -5.685  36.731  26.425  1.00  0.00    -0.000 C 
BRANCH  22  23
ATOM     23  C   UNL     1      -4.588  37.745  26.055  1.00  0.00    -0.000 C 
BRANCH  23  24
ATOM     24  C   UNL     1      -3.243  37.066  25.729  1.00  0.00    -0.000 C 
BRANCH  24  25
ATOM     25  C   UNL     1      -2.286  37.052  26.931  1.00  0.00    -0.000 C 
BRANCH  25  26
ATOM     26  C   UNL     1      -2.716  36.053  28.016  1.00  0.00    -0.000 C 
BRANCH  26  27
ATOM     27  C   UNL     1      -1.639  34.983  28.236  1.00  0.00    -0.000 C 
BRANCH  27  28
ATOM     28  C   UNL     1      -2.117  33.923  29.239  1.00  0.00    -0.000 C 
BRANCH  28  29
ATOM     29  C   UNL     1      -0.964  33.311  30.049  1.00  0.00    -0.003 C 
ATOM     30  C   UNL     1       0.409  33.798  29.584  1.00  0.00     0.004 C 
ENDBRANCH  28  29
ENDBRANCH  27  28
ENDBRANCH  26  27
ENDBRANCH  25  26
ENDBRANCH  24  25
ENDBRANCH  23  24
ENDBRANCH  22  23
ENDBRANCH  21  22
ENDBRANCH  20  21
ENDBRANCH  19  20
ENDBRANCH  18  19
ENDBRANCH  17  18
ENDBRANCH   1  17
TORSDOF 26
ENDMDL
MODEL 3
REMARK VINA RESULT:    11.141      1.276      3.127
REMARK INTER + INTRA:          31.471
REMARK INTER:                  30.256
REMARK INTRA:                   1.215
REMARK UNBOUND:                 3.395
REMARK SMILES CCCCCCCCCCCCCCCCCCCCCCCCCCCC(=O)[O-]
REMARK SMILES IDX 15 1 16 2 17 3 18 4 19 5 20 6 21 7 22 8 23 9 24 10 25 11
REMARK SMILES IDX 26 12 27 13 28 14 29 15 30 16 14 17 13 18 12 19 11 20 10 21
REMARK SMILES IDX 9 22 8 23 7 24 6 25 5 26 4 27 3 28 2 29 1 30
REMARK H PARENT
REMARK Flexibility Score: inf
ROOT
ATOM      1  C   UNL     1      -5.431  39.057  20.979  1.00  0.00     0.000 C 
ENDROOT
BRANCH   1   2
ATOM      2  C   UNL     1      -4.607  38.897  22.266  1.00  0.00     0.000 C 
BRANCH   2   3
ATOM      3  C   UNL     1      -5.120  39.791  23.410  1.00  0.00     0.000 C 
BRANCH   3   4
ATOM      4  C   UNL     1      -5.430  38.995  24.687  1.00  0.00     0.000 C 
BRANCH   4   5
ATOM      5  C   UNL     1      -5.052  37.509  24.561  1.00  0.00     0.000 C 
BRANCH   5   6
ATOM      6  C   UNL     1      -4.603  36.893  25.898  1.00  0.00     0.000 C 
BRANCH   6   7
ATOM      7  C   UNL     1      -4.058  37.897  26.935  1.00  0.00     0.000 C 
BRANCH   7   8
ATOM      8  C   UNL     1      -2.524  38.022  26.981  1.00  0.00     0.000 C 
BRANCH   8   9
ATOM      9  C   UNL     1      -1.813  36.662  26.946  1.00  0.00     0.000 C 
BRANCH   9  10
ATOM     10  C   UNL     1      -2.486  35.667  27.901  1.00  0.00     0.000 C 
BRANCH  10  11
ATOM     11  C   UNL     1      -1.536  34.549  28.370  1.00  0.00     0.000 C 
BRANCH  11  12
ATOM     12  C   UNL     1      -1.693  34.137  29.848  1.00  0.00     0.006 C 
BRANCH  12  13
ATOM     13  C   UNL     1      -0.838  32.931  30.268  1.00  0.00     0.053 C 
BRANCH  13  14
ATOM     14  C   UNL     1       0.510  32.939  29.618  1.00  0.00     0.041 C 
ATOM     15  O   UNL     1       1.137  34.023  29.471  1.00  0.00    -0.550 OA
ATOM     16  O   UNL     1       1.075  31.751  29.168  1.00  0.00    -0.550 OA
ENDBRANCH  13  14
ENDBRANCH  12  13
ENDBRANCH  11  12
ENDBRANCH  10  11
ENDBRANCH   9  10
ENDBRANCH   8   9
ENDBRANCH   7   8
ENDBRANCH   6   7
ENDBRANCH   5   6
ENDBRANCH   4   5
ENDBRANCH   3   4
ENDBRANCH   2   3
ENDBRANCH   1   2
BRANCH   1  17
ATOM     17  C   UNL     1      -5.368  37.814  20.076  1.00  0.00     0.000 C 
BRANCH  17  18
ATOM     18  C   UNL     1      -6.043  36.613  20.753  1.00  0.00     0.000 C 
BRANCH  18  19
ATOM     19  C   UNL     1      -5.362  36.203  22.074  1.00  0.00     0.000 C 
BRANCH  19  20
ATOM     20  C   UNL     1      -4.630  34.848  22.042  1.00  0.00     0.000 C 
BRANCH  20  21
ATOM     21  C   UNL     1      -4.536  34.195  20.651  1.00  0.00     0.000 C 
BRANCH  21  22
ATOM     22  C   UNL     1      -5.892  34.102  19.915  1.00  0.00    -0.000 C 
BRANCH  22  23
ATOM     23  C   UNL     1      -5.798  34.316  18.394  1.00  0.00    -0.000 C 
BRANCH  23  24
ATOM     24  C   UNL     1      -4.605  35.208  17.998  1.00  0.00    -0.000 C 
BRANCH  24  25
ATOM     25  C   UNL     1      -4.641  35.611  16.514  1.00  0.00    -0.000 C 
BRANCH  25  26
ATOM     26  C   UNL     1      -3.286  35.413  15.817  1.00  0.00    -0.000 C 
BRANCH  26  27
ATOM     27  C   UNL     1      -3.400  35.677  14.310  1.00  0.00    -0.000 C 
BRANCH  27  28
ATOM     28  C   UNL     1      -3.214  37.170  13.999  1.00  0.00    -0.000 C 
BRANCH  28  29
ATOM     29  C   UNL     1      -4.549  37.921  13.883  1.00  0.00    -0.003 C 
ATOM     30  C   UNL     1      -4.483  39.336  14.459  1.00  0.00     0.004 C 
ENDBRANCH  28  29
ENDBRANCH  27  28
ENDBRANCH  26  27
ENDBRANCH  25  26
ENDBRANCH  24  25
ENDBRANCH  23  24
ENDBRANCH  22  23
ENDBRANCH  21  22
ENDBRANCH  20  21
ENDBRANCH  19  20
ENDBRANCH  18  19
ENDBRANCH  17  18
ENDBRANCH   1  17
TORSDOF 26
ENDMDL
MODEL 4
REMARK VINA RESULT:    11.878      4.407     10.748
REMARK INTER + INTRA:          33.328
REMARK INTER:                  33.632
REMARK INTRA:                  -0.303
REMARK UNBOUND:                 3.395
REMARK SMILES CCCCCCCCCCCCCCCCCCCCCCCCCCCC(=O)[O-]
REMARK SMILES IDX 15 1 16 2 17 3 18 4 19 5 20 6 21 7 22 8 23 9 24 10 25 11
REMARK SMILES IDX 26 12 27 13 28 14 29 15 30 16 14 17 13 18 12 19 11 20 10 21
REMARK SMILES IDX 9 22 8 23 7 24 6 25 5 26 4 27 3 28 2 29 1 30
REMARK H PARENT
REMARK Flexibility Score: inf
ROOT
ATOM      1  C   UNL     1      -5.381  36.228  23.657  1.00  0.00     0.000 C 
ENDROOT
BRANCH   1   2
ATOM      2  C   UNL     1      -6.086  37.565  23.377  1.00  0.00     0.000 C 
BRANCH   2   3
ATOM      3  C   UNL     1      -5.116  38.760  23.399  1.00  0.00     0.000 C 
BRANCH   3   4
ATOM      4  C   UNL     1      -4.950  39.411  22.017  1.00  0.00     0.000 C 
BRANCH   4   5
ATOM      5  C   UNL     1      -4.304  38.462  20.993  1.00  0.00     0.000 C 
BRANCH   5   6
ATOM      6  C   UNL     1      -5.301  37.955  19.937  1.00  0.00     0.000 C 
BRANCH   6   7
ATOM      7  C   UNL     1      -5.749  36.488  20.105  1.00  0.00     0.000 C 
BRANCH   7   8
ATOM      8  C   UNL     1      -4.697  35.434  19.714  1.00  0.00     0.000 C 
BRANCH   8   9
ATOM      9  C   UNL     1      -5.320  34.148  19.153  1.00  0.00     0.000 C 
BRANCH   9  10
ATOM     10  C   UNL     1      -4.969  33.970  17.669  1.00  0.00     0.000 C 
BRANCH  10  11
ATOM     11  C   UNL     1      -4.029  35.069  17.139  1.00  0.00     0.000 C 
BRANCH  11  12
ATOM     12  C   UNL     1      -4.654  36.012  16.090  1.00  0.00     0.006 C 
BRANCH  12  13
ATOM     13  C   UNL     1      -4.195  35.754  14.646  1.00  0.00     0.053 C 
BRANCH  13  14
ATOM     14  C   UNL     1      -3.084  36.670  14.233  1.00  0.00     0.041 C 
ATOM     15  O   UNL     1      -3.329  37.871  13.942  1.00  0.00    -0.550 OA
ATOM     16  O   UNL     1      -1.779  36.197  14.166  1.00  0.00    -0.550 OA
ENDBRANCH  13  14
ENDBRANCH  12  13
ENDBRANCH  11  12
ENDBRANCH  10  11
ENDBRANCH   9  10
ENDBRANCH   8   9
ENDBRANCH   7   8
ENDBRANCH   6   7
ENDBRANCH   5   6
ENDBRANCH   4   5
ENDBRANCH   3   4
ENDBRANCH   2   3
ENDBRANCH   1   2
BRANCH   1  17
ATOM     17  C   UNL     1      -5.883  35.550  24.942  1.00  0.00     0.000 C 
BRANCH  17  18
ATOM     18  C   UNL     1      -6.060  36.578  26.068  1.00  0.00     0.000 C 
BRANCH  18  19
ATOM     19  C   UNL     1      -4.906  37.598  26.143  1.00  0.00     0.000 C 
BRANCH  19  20
ATOM     20  C   UNL     1      -3.491  36.990  26.133  1.00  0.00     0.000 C 
BRANCH  20  21
ATOM     21  C   UNL     1      -2.510  37.613  27.142  1.00  0.00     0.000 C 
BRANCH  21  22
ATOM     22  C   UNL     1      -2.108  36.658  28.290  1.00  0.00    -0.000 C 
BRANCH  22  23
ATOM     23  C   UNL     1      -1.664  35.262  27.819  1.00  0.00    -0.000 C 
BRANCH  23  24
ATOM     24  C   UNL     1      -2.396  34.129  28.563  1.00  0.00    -0.000 C 
BRANCH  24  25
ATOM     25  C   UNL     1      -2.052  34.091  30.060  1.00  0.00    -0.000 C 
BRANCH  25  26
ATOM     26  C   UNL     1      -0.734  33.355  30.344  1.00  0.00    -0.000 C 
BRANCH  26  27
ATOM     27  C   UNL     1       0.393  33.880  29.446  1.00  0.00    -0.000 C 
BRANCH  27  28
ATOM     28  C   UNL     1       1.586  32.913  29.440  1.00  0.00    -0.000 C 
BRANCH  28  29
ATOM     29  C   UNL     1       1.155  31.440  29.508  1.00  0.00    -0.003 C 
ATOM     30  C   UNL     1       2.080  30.592  30.381  1.00  0.00     0.004 C 
ENDBRANCH  28  29
ENDBRANCH  27  28
ENDBRANCH  26  27
ENDBRANCH  25  26
ENDBRANCH  24  25
ENDBRANCH  23  24
ENDBRANCH  22  23
ENDBRANCH  21  22
ENDBRANCH  20  21
ENDBRANCH  19  20
ENDBRANCH  18  19
ENDBRANCH  17  18
ENDBRANCH   1  17
TORSDOF 26
ENDMDL
MODEL 5
REMARK VINA RESULT:    12.023      2.200      3.994
REMARK INTER + INTRA:          33.692
REMARK INTER:                  34.145
REMARK INTRA:                  -0.452
REMARK UNBOUND:                 3.395
REMARK SMILES CCCCCCCCCCCCCCCCCCCCCCCCCCCC(=O)[O-]
REMARK SMILES IDX 15 1 16 2 17 3 18 4 19 5 20 6 21 7 22 8 23 9 24 10 25 11
REMARK SMILES IDX 26 12 27 13 28 14 29 15 30 16 14 17 13 18 12 19 11 20 10 21
REMARK SMILES IDX 9 22 8 23 7 24 6 25 5 26 4 27 3 28 2 29 1 30
REMARK H PARENT
REMARK Flexibility Score: inf
ROOT
ATOM      1  C   UNL     1      -4.689  37.107  21.768  1.00  0.00     0.000 C 
ENDROOT
BRANCH   1   2
ATOM      2  C   UNL     1      -4.695  37.749  20.372  1.00  0.00     0.000 C 
BRANCH   2   3
ATOM      3  C   UNL     1      -5.981  38.548  20.095  1.00  0.00     0.000 C 
BRANCH   3   4
ATOM      4  C   UNL     1      -5.928  39.970  20.676  1.00  0.00     0.000 C 
BRANCH   4   5
ATOM      5  C   UNL     1      -5.750  39.976  22.204  1.00  0.00     0.000 C 
BRANCH   5   6
ATOM      6  C   UNL     1      -4.284  39.788  22.633  1.00  0.00     0.000 C 
BRANCH   6   7
ATOM      7  C   UNL     1      -4.082  39.195  24.044  1.00  0.00     0.000 C 
BRANCH   7   8
ATOM      8  C   UNL     1      -5.317  39.254  24.961  1.00  0.00     0.000 C 
BRANCH   8   9
ATOM      9  C   UNL     1      -5.200  38.329  26.181  1.00  0.00     0.000 C 
BRANCH   9  10
ATOM     10  C   UNL     1      -4.668  36.948  25.772  1.00  0.00     0.000 C 
BRANCH  10  11
ATOM     11  C   UNL     1      -3.517  36.459  26.669  1.00  0.00     0.000 C 
BRANCH  11  12
ATOM     12  C   UNL     1      -2.520  37.552  27.106  1.00  0.00     0.006 C 
BRANCH  12  13
ATOM     13  C   UNL     1      -1.174  37.521  26.365  1.00  0.00     0.053 C 
BRANCH  13  14
ATOM     14  C   UNL     1      -0.180  38.472  26.957  1.00  0.00     0.041 C 
ATOM     15  O   UNL     1       1.050  38.331  26.722  1.00  0.00    -0.550 OA
ATOM     16  O   UNL     1      -0.610  39.512  27.773  1.00  0.00    -0.550 OA
ENDBRANCH  13  14
ENDBRANCH  12  13
ENDBRANCH  11  12
ENDBRANCH  10  11
ENDBRANCH   9  10
ENDBRANCH   8   9
ENDBRANCH   7   8
ENDBRANCH   6   7
ENDBRANCH   5   6
ENDBRANCH   4   5
ENDBRANCH   3   4
ENDBRANCH   2   3
ENDBRANCH   1   2
BRANCH   1  17
ATOM     17  C   UNL     1      -6.090  36.669  22.226  1.00  0.00     0.000 C 
BRANCH  17  18
ATOM     18  C   UNL     1      -6.003  35.456  23.163  1.00  0.00     0.000 C 
BRANCH  18  19
ATOM     19  C   UNL     1      -5.286  34.249  22.527  1.00  0.00     0.000 C 
BRANCH  19  20
ATOM     20  C   UNL     1      -5.950  33.687  21.256  1.00  0.00     0.000 C 
BRANCH  20  21
ATOM     21  C   UNL     1      -5.242  34.051  19.938  1.00  0.00     0.000 C 
BRANCH  21  22
ATOM     22  C   UNL     1      -5.889  35.242  19.194  1.00  0.00    -0.000 C 
BRANCH  22  23
ATOM     23  C   UNL     1      -5.622  35.255  17.678  1.00  0.00    -0.000 C 
BRANCH  23  24
ATOM     24  C   UNL     1      -4.298  35.957  17.319  1.00  0.00    -0.000 C 
BRANCH  24  25
ATOM     25  C   UNL     1      -3.403  35.093  16.416  1.00  0.00    -0.000 C 
BRANCH  25  26
ATOM     26  C   UNL     1      -3.858  35.105  14.949  1.00  0.00    -0.000 C 
BRANCH  26  27
ATOM     27  C   UNL     1      -3.193  36.251  14.176  1.00  0.00    -0.000 C 
BRANCH  27  28
ATOM     28  C   UNL     1      -4.201  37.371  13.881  1.00  0.00    -0.000 C 
BRANCH  28  29
ATOM     29  C   UNL     1      -3.978  38.615  14.753  1.00  0.00    -0.003 C 
ATOM     30  C   UNL     1      -4.840  39.802  14.323  1.00  0.00     0.004 C 
ENDBRANCH  28  29
ENDBRANCH  27  28
ENDBRANCH  26  27
ENDBRANCH  25  26
ENDBRANCH  24  25
ENDBRANCH  23  24
ENDBRANCH  22  23
ENDBRANCH  21  22
ENDBRANCH  20  21
ENDBRANCH  19  20
ENDBRANCH  18  19
ENDBRANCH  17  18
ENDBRANCH   1  17
TORSDOF 26
ENDMDL
MODEL 6
REMARK VINA RESULT:    12.044      1.161      3.421
REMARK INTER + INTRA:          33.745
REMARK INTER:                  33.743
REMARK INTRA:                   0.002
REMARK UNBOUND:                 3.395
REMARK SMILES CCCCCCCCCCCCCCCCCCCCCCCCCCCC(=O)[O-]
REMARK SMILES IDX 15 1 16 2 17 3 18 4 19 5 20 6 21 7 22 8 23 9 24 10 25 11
REMARK SMILES IDX 26 12 27 13 28 14 29 15 30 16 14 17 13 18 12 19 11 20 10 21
REMARK SMILES IDX 9 22 8 23 7 24 6 25 5 26 4 27 3 28 2 29 1 30
REMARK H PARENT
REMARK Flexibility Score: inf
ROOT
ATOM      1  C   UNL     1      -4.473  36.985  21.833  1.00  0.00     0.000 C 
ENDROOT
BRANCH   1   2
ATOM      2  C   UNL     1      -4.293  37.424  20.371  1.00  0.00     0.000 C 
BRANCH   2   3
ATOM      3  C   UNL     1      -5.452  38.305  19.872  1.00  0.00     0.000 C 
BRANCH   3   4
ATOM      4  C   UNL     1      -5.465  39.692  20.534  1.00  0.00     0.000 C 
BRANCH   4   5
ATOM      5  C   UNL     1      -6.012  39.653  21.972  1.00  0.00     0.000 C 
BRANCH   5   6
ATOM      6  C   UNL     1      -5.126  40.423  22.967  1.00  0.00     0.000 C 
BRANCH   6   7
ATOM      7  C   UNL     1      -4.559  39.581  24.130  1.00  0.00     0.000 C 
BRANCH   7   8
ATOM      8  C   UNL     1      -5.579  38.668  24.835  1.00  0.00     0.000 C 
BRANCH   8   9
ATOM      9  C   UNL     1      -4.914  37.586  25.698  1.00  0.00     0.000 C 
BRANCH   9  10
ATOM     10  C   UNL     1      -3.413  37.860  25.863  1.00  0.00     0.000 C 
BRANCH  10  11
ATOM     11  C   UNL     1      -2.885  37.488  27.260  1.00  0.00     0.000 C 
BRANCH  11  12
ATOM     12  C   UNL     1      -2.085  36.170  27.325  1.00  0.00     0.006 C 
BRANCH  12  13
ATOM     13  C   UNL     1      -1.458  35.872  28.696  1.00  0.00     0.053 C 
BRANCH  13  14
ATOM     14  C   UNL     1      -1.515  34.416  29.040  1.00  0.00     0.041 C 
ATOM     15  O   UNL     1      -0.456  33.784  29.302  1.00  0.00    -0.550 OA
ATOM     16  O   UNL     1      -2.736  33.752  29.065  1.00  0.00    -0.550 OA
ENDBRANCH  13  14
ENDBRANCH  12  13
ENDBRANCH  11  12
ENDBRANCH  10  11
ENDBRANCH   9  10
ENDBRANCH   8   9
ENDBRANCH   7   8
ENDBRANCH   6   7
ENDBRANCH   5   6
ENDBRANCH   4   5
ENDBRANCH   3   4
ENDBRANCH   2   3
ENDBRANCH   1   2
BRANCH   1  17
ATOM     17  C   UNL     1      -5.908  36.525  22.141  1.00  0.00     0.000 C 
BRANCH  17  18
ATOM     18  C   UNL     1      -5.974  35.819  23.503  1.00  0.00     0.000 C 
BRANCH  18  19
ATOM     19  C   UNL     1      -5.514  34.349  23.445  1.00  0.00     0.000 C 
BRANCH  19  20
ATOM     20  C   UNL     1      -6.125  33.515  22.304  1.00  0.00     0.000 C 
BRANCH  20  21
ATOM     21  C   UNL     1      -5.186  33.266  21.109  1.00  0.00     0.000 C 
BRANCH  21  22
ATOM     22  C   UNL     1      -5.216  34.391  20.049  1.00  0.00    -0.000 C 
BRANCH  22  23
ATOM     23  C   UNL     1      -4.459  34.052  18.752  1.00  0.00    -0.000 C 
BRANCH  23  24
ATOM     24  C   UNL     1      -5.280  34.377  17.489  1.00  0.00    -0.000 C 
BRANCH  24  25
ATOM     25  C   UNL     1      -4.824  35.679  16.811  1.00  0.00    -0.000 C 
BRANCH  25  26
ATOM     26  C   UNL     1      -3.399  35.580  16.244  1.00  0.00    -0.000 C 
BRANCH  26  27
ATOM     27  C   UNL     1      -3.423  35.492  14.713  1.00  0.00    -0.000 C 
BRANCH  27  28
ATOM     28  C   UNL     1      -4.301  36.600  14.113  1.00  0.00    -0.000 C 
BRANCH  28  29
ATOM     29  C   UNL     1      -4.238  37.907  14.918  1.00  0.00    -0.003 C 
ATOM     30  C   UNL     1      -4.260  39.151  14.029  1.00  0.00     0.004 C 
ENDBRANCH  28  29
ENDBRANCH  27  28
ENDBRANCH  26  27
ENDBRANCH  25  26
ENDBRANCH  24  25
ENDBRANCH  23  24
ENDBRANCH  22  23
ENDBRANCH  21  22
ENDBRANCH  20  21
ENDBRANCH  19  20
ENDBRANCH  18  19
ENDBRANCH  17  18
ENDBRANCH   1  17
TORSDOF 26
ENDMDL
MODEL 7
REMARK VINA RESULT:    12.065      2.524      4.096
REMARK INTER + INTRA:          33.798
REMARK INTER:                  34.820
REMARK INTRA:                  -1.022
REMARK UNBOUND:                 3.395
REMARK SMILES CCCCCCCCCCCCCCCCCCCCCCCCCCCC(=O)[O-]
REMARK SMILES IDX 15 1 16 2 17 3 18 4 19 5 20 6 21 7 22 8 23 9 24 10 25 11
REMARK SMILES IDX 26 12 27 13 28 14 29 15 30 16 14 17 13 18 12 19 11 20 10 21
REMARK SMILES IDX 9 22 8 23 7 24 6 25 5 26 4 27 3 28 2 29 1 30
REMARK H PARENT
REMARK Flexibility Score: inf
ROOT
ATOM      1  C   UNL     1      -5.726  37.556  23.478  1.00  0.00     0.000 C 
ENDROOT
BRANCH   1   2
ATOM      2  C   UNL     1      -5.512  36.717  24.748  1.00  0.00     0.000 C 
BRANCH   2   3
ATOM      3  C   UNL     1      -5.469  37.576  26.024  1.00  0.00     0.000 C 
BRANCH   3   4
ATOM      4  C   UNL     1      -4.038  37.793  26.542  1.00  0.00     0.000 C 
BRANCH   4   5
ATOM      5  C   UNL     1      -3.235  36.483  26.618  1.00  0.00     0.000 C 
BRANCH   5   6
ATOM      6  C   UNL     1      -2.057  36.562  27.605  1.00  0.00     0.000 C 
BRANCH   6   7
ATOM      7  C   UNL     1      -1.480  35.203  28.052  1.00  0.00     0.000 C 
BRANCH   7   8
ATOM      8  C   UNL     1      -2.190  34.554  29.254  1.00  0.00     0.000 C 
BRANCH   8   9
ATOM      9  C   UNL     1      -1.253  33.679  30.100  1.00  0.00     0.000 C 
BRANCH   9  10
ATOM     10  C   UNL     1      -0.537  32.640  29.227  1.00  0.00     0.000 C 
BRANCH  10  11
ATOM     11  C   UNL     1       0.951  32.476  29.587  1.00  0.00     0.000 C 
BRANCH  11  12
ATOM     12  C   UNL     1       1.418  31.019  29.784  1.00  0.00     0.006 C 
BRANCH  12  13
ATOM     13  C   UNL     1       2.929  30.859  30.013  1.00  0.00     0.053 C 
BRANCH  13  14
ATOM     14  C   UNL     1       3.378  29.439  29.856  1.00  0.00     0.041 C 
ATOM     15  O   UNL     1       2.675  28.620  29.205  1.00  0.00    -0.550 OA
ATOM     16  O   UNL     1       4.571  29.017  30.431  1.00  0.00    -0.550 OA
ENDBRANCH  13  14
ENDBRANCH  12  13
ENDBRANCH  11  12
ENDBRANCH  10  11
ENDBRANCH   9  10
ENDBRANCH   8   9
ENDBRANCH   7   8
ENDBRANCH   6   7
ENDBRANCH   5   6
ENDBRANCH   4   5
ENDBRANCH   3   4
ENDBRANCH   2   3
ENDBRANCH   1   2
BRANCH   1  17
ATOM     17  C   UNL     1      -5.180  38.987  23.615  1.00  0.00     0.000 C 
BRANCH  17  18
ATOM     18  C   UNL     1      -4.811  39.564  22.240  1.00  0.00     0.000 C 
BRANCH  18  19
ATOM     19  C   UNL     1      -5.739  39.075  21.110  1.00  0.00     0.000 C 
BRANCH  19  20
ATOM     20  C   UNL     1      -5.078  38.146  20.075  1.00  0.00     0.000 C 
BRANCH  20  21
ATOM     21  C   UNL     1      -5.720  36.751  19.952  1.00  0.00     0.000 C 
BRANCH  21  22
ATOM     22  C   UNL     1      -4.915  35.632  20.650  1.00  0.00    -0.000 C 
BRANCH  22  23
ATOM     23  C   UNL     1      -5.137  34.231  20.053  1.00  0.00    -0.000 C 
BRANCH  23  24
ATOM     24  C   UNL     1      -5.427  34.275  18.540  1.00  0.00    -0.000 C 
BRANCH  24  25
ATOM     25  C   UNL     1      -4.311  34.976  17.749  1.00  0.00    -0.000 C 
BRANCH  25  26
ATOM     26  C   UNL     1      -4.501  34.855  16.229  1.00  0.00    -0.000 C 
BRANCH  26  27
ATOM     27  C   UNL     1      -3.422  35.643  15.476  1.00  0.00    -0.000 C 
BRANCH  27  28
ATOM     28  C   UNL     1      -4.003  36.306  14.218  1.00  0.00    -0.000 C 
BRANCH  28  29
ATOM     29  C   UNL     1      -3.497  37.742  14.017  1.00  0.00    -0.003 C 
ATOM     30  C   UNL     1      -4.624  38.775  14.036  1.00  0.00     0.004 C 
ENDBRANCH  28  29
ENDBRANCH  27  28
ENDBRANCH  26  27
ENDBRANCH  25  26
ENDBRANCH  24  25
ENDBRANCH  23  24
ENDBRANCH  22  23
ENDBRANCH  21  22
ENDBRANCH  20  21
ENDBRANCH  19  20
ENDBRANCH  18  19
ENDBRANCH  17  18
ENDBRANCH   1  17
TORSDOF 26
ENDMDL
MODEL 8
REMARK VINA RESULT:    12.567      2.134      3.724
REMARK INTER + INTRA:          35.064
REMARK INTER:                  36.033
REMARK INTRA:                  -0.970
REMARK UNBOUND:                 3.395
REMARK SMILES CCCCCCCCCCCCCCCCCCCCCCCCCCCC(=O)[O-]
REMARK SMILES IDX 15 1 16 2 17 3 18 4 19 5 20 6 21 7 22 8 23 9 24 10 25 11
REMARK SMILES IDX 26 12 27 13 28 14 29 15 30 16 14 17 13 18 12 19 11 20 10 21
REMARK SMILES IDX 9 22 8 23 7 24 6 25 5 26 4 27 3 28 2 29 1 30
REMARK H PARENT
REMARK Flexibility Score: inf
ROOT
ATOM      1  C   UNL     1      -5.670  37.636  23.353  1.00  0.00     0.000 C 
ENDROOT
BRANCH   1   2
ATOM      2  C   UNL     1      -5.012  36.598  24.276  1.00  0.00     0.000 C 
BRANCH   2   3
ATOM      3  C   UNL     1      -5.670  36.545  25.667  1.00  0.00     0.000 C 
BRANCH   3   4
ATOM      4  C   UNL     1      -4.710  36.970  26.790  1.00  0.00     0.000 C 
BRANCH   4   5
ATOM      5  C   UNL     1      -3.269  37.168  26.289  1.00  0.00     0.000 C 
BRANCH   5   6
ATOM      6  C   UNL     1      -2.224  37.035  27.411  1.00  0.00     0.000 C 
BRANCH   6   7
ATOM      7  C   UNL     1      -1.801  35.589  27.748  1.00  0.00     0.000 C 
BRANCH   7   8
ATOM      8  C   UNL     1      -2.447  34.998  29.014  1.00  0.00     0.000 C 
BRANCH   8   9
ATOM      9  C   UNL     1      -1.501  34.067  29.788  1.00  0.00     0.000 C 
BRANCH   9  10
ATOM     10  C   UNL     1      -0.267  33.715  28.945  1.00  0.00     0.000 C 
BRANCH  10  11
ATOM     11  C   UNL     1       0.801  32.941  29.738  1.00  0.00     0.000 C 
BRANCH  11  12
ATOM     12  C   UNL     1       2.238  33.070  29.194  1.00  0.00     0.006 C 
BRANCH  12  13
ATOM     13  C   UNL     1       2.874  34.455  29.394  1.00  0.00     0.053 C 
BRANCH  13  14
ATOM     14  C   UNL     1       4.087  34.649  28.538  1.00  0.00     0.041 C 
ATOM     15  O   UNL     1       3.976  35.143  27.383  1.00  0.00    -0.550 OA
ATOM     16  O   UNL     1       5.341  34.281  29.011  1.00  0.00    -0.550 OA
ENDBRANCH  13  14
ENDBRANCH  12  13
ENDBRANCH  11  12
ENDBRANCH  10  11
ENDBRANCH   9  10
ENDBRANCH   8   9
ENDBRANCH   7   8
ENDBRANCH   6   7
ENDBRANCH   5   6
ENDBRANCH   4   5
ENDBRANCH   3   4
ENDBRANCH   2   3
ENDBRANCH   1   2
BRANCH   1  17
ATOM     17  C   UNL     1      -5.102  39.051  23.552  1.00  0.00     0.000 C 
BRANCH  17  18
ATOM     18  C   UNL     1      -5.354  39.919  22.311  1.00  0.00     0.000 C 
BRANCH  18  19
ATOM     19  C   UNL     1      -5.733  39.097  21.064  1.00  0.00     0.000 C 
BRANCH  19  20
ATOM     20  C   UNL     1      -4.643  38.136  20.555  1.00  0.00     0.000 C 
BRANCH  20  21
ATOM     21  C   UNL     1      -5.168  36.877  19.840  1.00  0.00     0.000 C 
BRANCH  21  22
ATOM     22  C   UNL     1      -5.153  35.608  20.723  1.00  0.00    -0.000 C 
BRANCH  22  23
ATOM     23  C   UNL     1      -5.575  34.325  19.985  1.00  0.00    -0.000 C 
BRANCH  23  24
ATOM     24  C   UNL     1      -5.836  34.566  18.486  1.00  0.00    -0.000 C 
BRANCH  24  25
ATOM     25  C   UNL     1      -4.535  34.675  17.674  1.00  0.00    -0.000 C 
BRANCH  25  26
ATOM     26  C   UNL     1      -4.731  35.420  16.345  1.00  0.00    -0.000 C 
BRANCH  26  27
ATOM     27  C   UNL     1      -3.416  35.495  15.558  1.00  0.00    -0.000 C 
BRANCH  27  28
ATOM     28  C   UNL     1      -3.652  36.058  14.149  1.00  0.00    -0.000 C 
BRANCH  28  29
ATOM     29  C   UNL     1      -3.312  37.552  14.043  1.00  0.00    -0.003 C 
ATOM     30  C   UNL     1      -4.553  38.445  14.068  1.00  0.00     0.004 C 
ENDBRANCH  28  29
ENDBRANCH  27  28
ENDBRANCH  26  27
ENDBRANCH  25  26
ENDBRANCH  24  25
ENDBRANCH  23  24
ENDBRANCH  22  23
ENDBRANCH  21  22
ENDBRANCH  20  21
ENDBRANCH  19  20
ENDBRANCH  18  19
ENDBRANCH  17  18
ENDBRANCH   1  17
TORSDOF 26
ENDMDL
