MODEL 1
REMARK VINA RESULT:    -1.155      0.000      0.000
REMARK INTER + INTRA:          -2.884
REMARK INTER:                  -2.235
REMARK INTRA:                  -0.649
REMARK UNBOUND:                -0.649
REMARK SMILES CCCCCCCCCCCCCCCCCC(=O)[O-]
REMARK SMILES IDX 10 1 11 2 12 3 13 4 14 5 15 6 16 7 17 8 18 9 19 10 20 11
REMARK SMILES IDX 9 12 8 13 7 14 6 15 5 16 4 17 3 18 2 19 1 20
REMARK H PARENT
REMARK Flexibility Score: inf
ROOT
ATOM      1  C   UNL     1       2.876 -37.891  20.062  1.00  0.00     0.000 C 
ENDROOT
BRANCH   1   2
ATOM      2  C   UNL     1       4.294 -37.601  19.528  1.00  0.00     0.000 C 
BRANCH   2   3
ATOM      3  C   UNL     1       5.098 -36.560  20.330  1.00  0.00     0.000 C 
BRANCH   3   4
ATOM      4  C   UNL     1       4.525 -35.140  20.205  1.00  0.00     0.000 C 
BRANCH   4   5
ATOM      5  C   UNL     1       4.103 -34.547  21.562  1.00  0.00     0.000 C 
BRANCH   5   6
ATOM      6  C   UNL     1       5.030 -34.894  22.745  1.00  0.00     0.000 C 
BRANCH   6   7
ATOM      7  C   UNL     1       4.876 -36.324  23.303  1.00  0.00     0.006 C 
BRANCH   7   8
ATOM      8  C   UNL     1       5.125 -36.441  24.814  1.00  0.00     0.053 C 
BRANCH   8   9
ATOM      9  C   UNL     1       4.966 -37.850  25.299  1.00  0.00     0.041 C 
ATOM     10  O   UNL     1       5.122 -38.815  24.505  1.00  0.00    -0.550 OA
ATOM     11  O   UNL     1       4.676 -38.096  26.635  1.00  0.00    -0.550 OA
ENDBRANCH   8   9
ENDBRANCH   7   8
ENDBRANCH   6   7
ENDBRANCH   5   6
ENDBRANCH   4   5
ENDBRANCH   3   4
ENDBRANCH   2   3
ENDBRANCH   1   2
BRANCH   1  12
ATOM     12  C   UNL     1       1.839 -38.263  18.984  1.00  0.00     0.000 C 
BRANCH  12  13
ATOM     13  C   UNL     1       1.056 -37.069  18.403  1.00  0.00    -0.000 C 
BRANCH  13  14
ATOM     14  C   UNL     1       1.135 -36.923  16.870  1.00  0.00    -0.000 C 
BRANCH  14  15
ATOM     15  C   UNL     1       2.527 -36.563  16.323  1.00  0.00    -0.000 C 
BRANCH  15  16
ATOM     16  C   UNL     1       2.559 -36.451  14.793  1.00  0.00    -0.000 C 
BRANCH  16  17
ATOM     17  C   UNL     1       3.989 -36.195  14.293  1.00  0.00    -0.000 C 
BRANCH  17  18
ATOM     18  C   UNL     1       4.891 -37.434  14.414  1.00  0.00    -0.000 C 
BRANCH  18  19
ATOM     19  C   UNL     1       4.132 -38.746  14.162  1.00  0.00    -0.003 C 
ATOM     20  C   UNL     1       5.101 -39.907  13.950  1.00  0.00     0.004 C 
ENDBRANCH  18  19
ENDBRANCH  17  18
ENDBRANCH  16  17
ENDBRANCH  15  16
ENDBRANCH  14  15
ENDBRANCH  13  14
ENDBRANCH  12  13
ENDBRANCH   1  12
TORSDOF 16
ENDMDL
MODEL 2
REMARK VINA RESULT:     0.149      3.138      4.834
REMARK INTER + INTRA:          -0.360
REMARK INTER:                   0.291
REMARK INTRA:                  -0.651
REMARK UNBOUND:                -0.649
REMARK SMILES CCCCCCCCCCCCCCCCCC(=O)[O-]
REMARK SMILES IDX 10 1 11 2 12 3 13 4 14 5 15 6 16 7 17 8 18 9 19 10 20 11
REMARK SMILES IDX 9 12 8 13 7 14 6 15 5 16 4 17 3 18 2 19 1 20
REMARK H PARENT
REMARK Flexibility Score: inf
ROOT
ATOM      1  C   UNL     1       4.394 -38.934  22.294  1.00  0.00     0.000 C 
ENDROOT
BRANCH   1   2
ATOM      2  C   UNL     1       5.094 -38.910  23.668  1.00  0.00     0.000 C 
BRANCH   2   3
ATOM      3  C   UNL     1       5.079 -37.549  24.390  1.00  0.00     0.000 C 
BRANCH   3   4
ATOM      4  C   UNL     1       4.878 -37.682  25.908  1.00  0.00     0.000 C 
BRANCH   4   5
ATOM      5  C   UNL     1       3.796 -36.730  26.451  1.00  0.00     0.000 C 
BRANCH   5   6
ATOM      6  C   UNL     1       2.636 -37.417  27.200  1.00  0.00     0.000 C 
BRANCH   6   7
ATOM      7  C   UNL     1       1.572 -36.462  27.779  1.00  0.00     0.006 C 
BRANCH   7   8
ATOM      8  C   UNL     1       2.115 -35.078  28.169  1.00  0.00     0.053 C 
BRANCH   8   9
ATOM      9  C   UNL     1       1.339 -34.472  29.299  1.00  0.00     0.041 C 
ATOM     10  O   UNL     1       1.892 -34.273  30.413  1.00  0.00    -0.550 OA
ATOM     11  O   UNL     1       0.014 -34.099  29.110  1.00  0.00    -0.550 OA
ENDBRANCH   8   9
ENDBRANCH   7   8
ENDBRANCH   6   7
ENDBRANCH   5   6
ENDBRANCH   4   5
ENDBRANCH   3   4
ENDBRANCH   2   3
ENDBRANCH   1   2
BRANCH   1  12
ATOM     12  C   UNL     1       5.081 -38.090  21.201  1.00  0.00     0.000 C 
BRANCH  12  13
ATOM     13  C   UNL     1       4.722 -36.591  21.223  1.00  0.00    -0.000 C 
BRANCH  13  14
ATOM     14  C   UNL     1       4.419 -35.975  19.843  1.00  0.00    -0.000 C 
BRANCH  14  15
ATOM     15  C   UNL     1       4.125 -36.994  18.728  1.00  0.00    -0.000 C 
BRANCH  15  16
ATOM     16  C   UNL     1       2.634 -37.336  18.607  1.00  0.00    -0.000 C 
BRANCH  16  17
ATOM     17  C   UNL     1       2.099 -36.962  17.216  1.00  0.00    -0.000 C 
BRANCH  17  18
ATOM     18  C   UNL     1       3.097 -36.125  16.400  1.00  0.00    -0.000 C 
BRANCH  18  19
ATOM     19  C   UNL     1       2.961 -36.351  14.886  1.00  0.00    -0.003 C 
ATOM     20  C   UNL     1       4.032 -37.314  14.379  1.00  0.00     0.004 C 
ENDBRANCH  18  19
ENDBRANCH  17  18
ENDBRANCH  16  17
ENDBRANCH  15  16
ENDBRANCH  14  15
ENDBRANCH  13  14
ENDBRANCH  12  13
ENDBRANCH   1  12
TORSDOF 16
ENDMDL
MODEL 3
REMARK VINA RESULT:     0.225      1.815      2.379
REMARK INTER + INTRA:          -0.214
REMARK INTER:                  -0.029
REMARK INTRA:                  -0.185
REMARK UNBOUND:                -0.649
REMARK SMILES CCCCCCCCCCCCCCCCCC(=O)[O-]
REMARK SMILES IDX 10 1 11 2 12 3 13 4 14 5 15 6 16 7 17 8 18 9 19 10 20 11
REMARK SMILES IDX 9 12 8 13 7 14 6 15 5 16 4 17 3 18 2 19 1 20
REMARK H PARENT
REMARK Flexibility Score: inf
ROOT
ATOM      1  C   UNL     1       3.847 -37.219  19.266  1.00  0.00     0.000 C 
ENDROOT
BRANCH   1   2
ATOM      2  C   UNL     1       5.065 -37.796  20.017  1.00  0.00     0.000 C 
BRANCH   2   3
ATOM      3  C   UNL     1       5.086 -37.535  21.535  1.00  0.00     0.000 C 
BRANCH   3   4
ATOM      4  C   UNL     1       4.218 -38.529  22.322  1.00  0.00     0.000 C 
BRANCH   4   5
ATOM      5  C   UNL     1       4.546 -38.544  23.826  1.00  0.00     0.000 C 
BRANCH   5   6
ATOM      6  C   UNL     1       5.122 -37.226  24.384  1.00  0.00     0.000 C 
BRANCH   6   7
ATOM      7  C   UNL     1       4.311 -36.589  25.531  1.00  0.00     0.006 C 
BRANCH   7   8
ATOM      8  C   UNL     1       3.793 -37.595  26.570  1.00  0.00     0.053 C 
BRANCH   8   9
ATOM      9  C   UNL     1       2.455 -37.197  27.114  1.00  0.00     0.041 C 
ATOM     10  O   UNL     1       1.502 -38.021  27.119  1.00  0.00    -0.550 OA
ATOM     11  O   UNL     1       2.270 -35.926  27.645  1.00  0.00    -0.550 OA
ENDBRANCH   8   9
ENDBRANCH   7   8
ENDBRANCH   6   7
ENDBRANCH   5   6
ENDBRANCH   4   5
ENDBRANCH   3   4
ENDBRANCH   2   3
ENDBRANCH   1   2
BRANCH   1  12
ATOM     12  C   UNL     1       2.476 -37.630  19.841  1.00  0.00     0.000 C 
BRANCH  12  13
ATOM     13  C   UNL     1       1.393 -37.916  18.782  1.00  0.00    -0.000 C 
BRANCH  13  14
ATOM     14  C   UNL     1       1.140 -36.768  17.784  1.00  0.00    -0.000 C 
BRANCH  14  15
ATOM     15  C   UNL     1       1.720 -36.993  16.377  1.00  0.00    -0.000 C 
BRANCH  15  16
ATOM     16  C   UNL     1       3.167 -36.498  16.240  1.00  0.00    -0.000 C 
BRANCH  16  17
ATOM     17  C   UNL     1       3.427 -35.958  14.826  1.00  0.00    -0.000 C 
BRANCH  17  18
ATOM     18  C   UNL     1       4.263 -36.920  13.967  1.00  0.00    -0.000 C 
BRANCH  18  19
ATOM     19  C   UNL     1       3.944 -38.396  14.251  1.00  0.00    -0.003 C 
ATOM     20  C   UNL     1       5.122 -39.293  13.875  1.00  0.00     0.004 C 
ENDBRANCH  18  19
ENDBRANCH  17  18
ENDBRANCH  16  17
ENDBRANCH  15  16
ENDBRANCH  14  15
ENDBRANCH  13  14
ENDBRANCH  12  13
ENDBRANCH   1  12
TORSDOF 16
ENDMDL
MODEL 4
REMARK VINA RESULT:     0.673      2.935      7.924
REMARK INTER + INTRA:           0.652
REMARK INTER:                  -0.029
REMARK INTRA:                   0.681
REMARK UNBOUND:                -0.649
REMARK SMILES CCCCCCCCCCCCCCCCCC(=O)[O-]
REMARK SMILES IDX 10 1 11 2 12 3 13 4 14 5 15 6 16 7 17 8 18 9 19 10 20 11
REMARK SMILES IDX 9 12 8 13 7 14 6 15 5 16 4 17 3 18 2 19 1 20
REMARK H PARENT
REMARK Flexibility Score: inf
ROOT
ATOM      1  C   UNL     1       4.474 -35.866  21.083  1.00  0.00     0.000 C 
ENDROOT
BRANCH   1   2
ATOM      2  C   UNL     1       4.732 -34.703  20.104  1.00  0.00     0.000 C 
BRANCH   2   3
ATOM      3  C   UNL     1       5.096 -35.121  18.666  1.00  0.00     0.000 C 
BRANCH   3   4
ATOM      4  C   UNL     1       4.005 -34.760  17.646  1.00  0.00     0.000 C 
BRANCH   4   5
ATOM      5  C   UNL     1       4.012 -35.684  16.415  1.00  0.00     0.000 C 
BRANCH   5   6
ATOM      6  C   UNL     1       2.680 -35.754  15.641  1.00  0.00     0.000 C 
BRANCH   6   7
ATOM      7  C   UNL     1       1.411 -35.755  16.518  1.00  0.00     0.006 C 
BRANCH   7   8
ATOM      8  C   UNL     1       1.055 -37.129  17.107  1.00  0.00     0.053 C 
BRANCH   8   9
ATOM      9  C   UNL     1       2.013 -37.540  18.184  1.00  0.00     0.041 C 
ATOM     10  O   UNL     1       3.225 -37.745  17.910  1.00  0.00    -0.550 OA
ATOM     11  O   UNL     1       1.571 -37.666  19.495  1.00  0.00    -0.550 OA
ENDBRANCH   8   9
ENDBRANCH   7   8
ENDBRANCH   6   7
ENDBRANCH   5   6
ENDBRANCH   4   5
ENDBRANCH   3   4
ENDBRANCH   2   3
ENDBRANCH   1   2
BRANCH   1  12
ATOM     12  C   UNL     1       5.124 -37.206  20.685  1.00  0.00     0.000 C 
BRANCH  12  13
ATOM     13  C   UNL     1       4.422 -38.457  21.251  1.00  0.00    -0.000 C 
BRANCH  13  14
ATOM     14  C   UNL     1       5.110 -39.090  22.477  1.00  0.00    -0.000 C 
BRANCH  14  15
ATOM     15  C   UNL     1       5.125 -38.209  23.739  1.00  0.00    -0.000 C 
BRANCH  15  16
ATOM     16  C   UNL     1       4.823 -38.996  25.021  1.00  0.00    -0.000 C 
BRANCH  16  17
ATOM     17  C   UNL     1       5.039 -38.119  26.264  1.00  0.00    -0.000 C 
BRANCH  17  18
ATOM     18  C   UNL     1       4.236 -36.809  26.214  1.00  0.00    -0.000 C 
BRANCH  18  19
ATOM     19  C   UNL     1       5.120 -35.584  25.935  1.00  0.00    -0.003 C 
ATOM     20  C   UNL     1       5.044 -35.178  24.464  1.00  0.00     0.004 C 
ENDBRANCH  18  19
ENDBRANCH  17  18
ENDBRANCH  16  17
ENDBRANCH  15  16
ENDBRANCH  14  15
ENDBRANCH  13  14
ENDBRANCH  12  13
ENDBRANCH   1  12
TORSDOF 16
ENDMDL
MODEL 5
REMARK VINA RESULT:     0.809      3.878      8.745
REMARK INTER + INTRA:           0.917
REMARK INTER:                   0.040
REMARK INTRA:                   0.877
REMARK UNBOUND:                -0.649
REMARK SMILES CCCCCCCCCCCCCCCCCC(=O)[O-]
REMARK SMILES IDX 10 1 11 2 12 3 13 4 14 5 15 6 16 7 17 8 18 9 19 10 20 11
REMARK SMILES IDX 9 12 8 13 7 14 6 15 5 16 4 17 3 18 2 19 1 20
REMARK H PARENT
REMARK Flexibility Score: inf
ROOT
ATOM      1  C   UNL     1       5.066 -36.702  22.651  1.00  0.00     0.000 C 
ENDROOT
BRANCH   1   2
ATOM      2  C   UNL     1       5.099 -37.745  21.515  1.00  0.00     0.000 C 
BRANCH   2   3
ATOM      3  C   UNL     1       3.823 -37.822  20.656  1.00  0.00     0.000 C 
BRANCH   3   4
ATOM      4  C   UNL     1       4.021 -37.253  19.243  1.00  0.00     0.000 C 
BRANCH   4   5
ATOM      5  C   UNL     1       2.744 -37.332  18.385  1.00  0.00     0.000 C 
BRANCH   5   6
ATOM      6  C   UNL     1       2.969 -37.214  16.863  1.00  0.00     0.000 C 
BRANCH   6   7
ATOM      7  C   UNL     1       1.746 -36.732  16.055  1.00  0.00     0.006 C 
BRANCH   7   8
ATOM      8  C   UNL     1       2.021 -36.534  14.557  1.00  0.00     0.053 C 
BRANCH   8   9
ATOM      9  C   UNL     1       3.449 -36.825  14.207  1.00  0.00     0.041 C 
ATOM     10  O   UNL     1       4.234 -35.885  13.914  1.00  0.00    -0.550 OA
ATOM     11  O   UNL     1       3.918 -38.133  14.236  1.00  0.00    -0.550 OA
ENDBRANCH   8   9
ENDBRANCH   7   8
ENDBRANCH   6   7
ENDBRANCH   5   6
ENDBRANCH   4   5
ENDBRANCH   3   4
ENDBRANCH   2   3
ENDBRANCH   1   2
BRANCH   1  12
ATOM     12  C   UNL     1       5.026 -35.233  22.183  1.00  0.00     0.000 C 
BRANCH  12  13
ATOM     13  C   UNL     1       4.623 -34.220  23.272  1.00  0.00    -0.000 C 
BRANCH  13  14
ATOM     14  C   UNL     1       5.124 -34.555  24.691  1.00  0.00    -0.000 C 
BRANCH  14  15
ATOM     15  C   UNL     1       5.063 -36.047  25.064  1.00  0.00    -0.000 C 
BRANCH  15  16
ATOM     16  C   UNL     1       4.103 -36.334  26.226  1.00  0.00    -0.000 C 
BRANCH  16  17
ATOM     17  C   UNL     1       4.131 -37.823  26.604  1.00  0.00    -0.000 C 
BRANCH  17  18
ATOM     18  C   UNL     1       5.022 -38.656  25.667  1.00  0.00    -0.000 C 
BRANCH  18  19
ATOM     19  C   UNL     1       4.208 -39.511  24.683  1.00  0.00    -0.003 C 
ATOM     20  C   UNL     1       5.105 -40.090  23.591  1.00  0.00     0.004 C 
ENDBRANCH  18  19
ENDBRANCH  17  18
ENDBRANCH  16  17
ENDBRANCH  15  16
ENDBRANCH  14  15
ENDBRANCH  13  14
ENDBRANCH  12  13
ENDBRANCH   1  12
TORSDOF 16
ENDMDL
MODEL 6
REMARK VINA RESULT:     1.073      2.160      2.967
REMARK INTER + INTRA:           1.428
REMARK INTER:                   1.365
REMARK INTRA:                   0.062
REMARK UNBOUND:                -0.649
REMARK SMILES CCCCCCCCCCCCCCCCCC(=O)[O-]
REMARK SMILES IDX 10 1 11 2 12 3 13 4 14 5 15 6 16 7 17 8 18 9 19 10 20 11
REMARK SMILES IDX 9 12 8 13 7 14 6 15 5 16 4 17 3 18 2 19 1 20
REMARK H PARENT
REMARK Flexibility Score: inf
ROOT
ATOM      1  C   UNL     1       3.689 -37.418  18.586  1.00  0.00     0.000 C 
ENDROOT
BRANCH   1   2
ATOM      2  C   UNL     1       4.974 -38.005  19.205  1.00  0.00     0.000 C 
BRANCH   2   3
ATOM      3  C   UNL     1       5.092 -37.864  20.734  1.00  0.00     0.000 C 
BRANCH   3   4
ATOM      4  C   UNL     1       4.520 -39.073  21.490  1.00  0.00     0.000 C 
BRANCH   4   5
ATOM      5  C   UNL     1       5.094 -39.211  22.912  1.00  0.00     0.000 C 
BRANCH   5   6
ATOM      6  C   UNL     1       5.000 -37.941  23.783  1.00  0.00     0.000 C 
BRANCH   6   7
ATOM      7  C   UNL     1       4.461 -36.689  23.061  1.00  0.00     0.006 C 
BRANCH   7   8
ATOM      8  C   UNL     1       5.125 -35.375  23.500  1.00  0.00     0.053 C 
BRANCH   8   9
ATOM      9  C   UNL     1       4.420 -34.178  22.937  1.00  0.00     0.041 C 
ATOM     10  O   UNL     1       4.755 -33.019  23.297  1.00  0.00    -0.550 OA
ATOM     11  O   UNL     1       3.415 -34.345  21.993  1.00  0.00    -0.550 OA
ENDBRANCH   8   9
ENDBRANCH   7   8
ENDBRANCH   6   7
ENDBRANCH   5   6
ENDBRANCH   4   5
ENDBRANCH   3   4
ENDBRANCH   2   3
ENDBRANCH   1   2
BRANCH   1  12
ATOM     12  C   UNL     1       2.448 -37.468  19.499  1.00  0.00     0.000 C 
BRANCH  12  13
ATOM     13  C   UNL     1       1.233 -38.201  18.896  1.00  0.00    -0.000 C 
BRANCH  13  14
ATOM     14  C   UNL     1       0.302 -37.321  18.038  1.00  0.00    -0.000 C 
BRANCH  14  15
ATOM     15  C   UNL     1       0.794 -37.063  16.604  1.00  0.00    -0.000 C 
BRANCH  15  16
ATOM     16  C   UNL     1       1.669 -35.807  16.488  1.00  0.00    -0.000 C 
BRANCH  16  17
ATOM     17  C   UNL     1       2.422 -35.786  15.149  1.00  0.00    -0.000 C 
BRANCH  17  18
ATOM     18  C   UNL     1       3.826 -36.403  15.248  1.00  0.00    -0.000 C 
BRANCH  18  19
ATOM     19  C   UNL     1       4.192 -37.243  14.014  1.00  0.00    -0.003 C 
ATOM     20  C   UNL     1       4.156 -38.735  14.338  1.00  0.00     0.004 C 
ENDBRANCH  18  19
ENDBRANCH  17  18
ENDBRANCH  16  17
ENDBRANCH  15  16
ENDBRANCH  14  15
ENDBRANCH  13  14
ENDBRANCH  12  13
ENDBRANCH   1  12
TORSDOF 16
ENDMDL
MODEL 7
REMARK VINA RESULT:     1.251      3.815      8.255
REMARK INTER + INTRA:           1.773
REMARK INTER:                  -1.142
REMARK INTRA:                   2.914
REMARK UNBOUND:                -0.649
REMARK SMILES CCCCCCCCCCCCCCCCCC(=O)[O-]
REMARK SMILES IDX 10 1 11 2 12 3 13 4 14 5 15 6 16 7 17 8 18 9 19 10 20 11
REMARK SMILES IDX 9 12 8 13 7 14 6 15 5 16 4 17 3 18 2 19 1 20
REMARK H PARENT
REMARK Flexibility Score: inf
ROOT
ATOM      1  C   UNL     1       2.639 -36.752  20.591  1.00  0.00     0.000 C 
ENDROOT
BRANCH   1   2
ATOM      2  C   UNL     1       2.429 -37.559  19.293  1.00  0.00     0.000 C 
BRANCH   2   3
ATOM      3  C   UNL     1       3.460 -37.292  18.180  1.00  0.00     0.000 C 
BRANCH   3   4
ATOM      4  C   UNL     1       4.175 -35.942  18.340  1.00  0.00     0.000 C 
BRANCH   4   5
ATOM      5  C   UNL     1       4.006 -35.030  17.111  1.00  0.00     0.000 C 
BRANCH   5   6
ATOM      6  C   UNL     1       2.704 -35.242  16.311  1.00  0.00     0.000 C 
BRANCH   6   7
ATOM      7  C   UNL     1       2.886 -35.888  14.922  1.00  0.00     0.006 C 
BRANCH   7   8
ATOM      8  C   UNL     1       2.938 -37.423  14.944  1.00  0.00     0.053 C 
BRANCH   8   9
ATOM      9  C   UNL     1       4.200 -37.948  14.329  1.00  0.00     0.041 C 
ATOM     10  O   UNL     1       5.067 -37.151  13.883  1.00  0.00    -0.550 OA
ATOM     11  O   UNL     1       4.431 -39.317  14.278  1.00  0.00    -0.550 OA
ENDBRANCH   8   9
ENDBRANCH   7   8
ENDBRANCH   6   7
ENDBRANCH   5   6
ENDBRANCH   4   5
ENDBRANCH   3   4
ENDBRANCH   2   3
ENDBRANCH   1   2
BRANCH   1  12
ATOM     12  C   UNL     1       3.544 -35.512  20.446  1.00  0.00     0.000 C 
BRANCH  12  13
ATOM     13  C   UNL     1       4.254 -35.077  21.743  1.00  0.00    -0.000 C 
BRANCH  13  14
ATOM     14  C   UNL     1       5.075 -36.183  22.438  1.00  0.00    -0.000 C 
BRANCH  14  15
ATOM     15  C   UNL     1       5.125 -37.523  21.684  1.00  0.00    -0.000 C 
BRANCH  15  16
ATOM     16  C   UNL     1       4.476 -38.674  22.466  1.00  0.00    -0.000 C 
BRANCH  16  17
ATOM     17  C   UNL     1       5.077 -38.784  23.876  1.00  0.00    -0.000 C 
BRANCH  17  18
ATOM     18  C   UNL     1       5.076 -37.444  24.628  1.00  0.00    -0.000 C 
BRANCH  18  19
ATOM     19  C   UNL     1       5.072 -37.622  26.154  1.00  0.00    -0.003 C 
ATOM     20  C   UNL     1       3.665 -37.448  26.722  1.00  0.00     0.004 C 
ENDBRANCH  18  19
ENDBRANCH  17  18
ENDBRANCH  16  17
ENDBRANCH  15  16
ENDBRANCH  14  15
ENDBRANCH  13  14
ENDBRANCH  12  13
ENDBRANCH   1  12
TORSDOF 16
ENDMDL
