MODEL 1
REMARK VINA RESULT:    -9.190      0.000      0.000
REMARK INTER + INTRA:          -9.553
REMARK INTER:                  -9.995
REMARK INTRA:                   0.443
REMARK UNBOUND:                 0.443
REMARK SMILES C[C@H]1[C@@H](C)CC[C@]2(C(=O)[O-])CC[C@]3(C)C(=CC[C@@H]4[C@@]5(C)CC[C@H](O)C(C)(C)[C@H]5CC[C@@]43C)[C@@H]12
REMARK SMILES IDX 7 1 6 2 11 3 33 4 5 5 12 6 15 7 2 8 3 9 13 10 16 11 1 12
REMARK SMILES IDX 4 13 14 14 31 15 17 16 18 17 30 18 32 19 19 20 29 21 28 22
REMARK SMILES IDX 21 23 20 24 25 25 22 26 23 27 26 28 27 29 8 30 9 31 10 32
REMARK SMILES IDX 24 33
REMARK H PARENT 24 34
REMARK Flexibility Score: inf
ROOT
ATOM      1  C   UNL     1     265.509 -27.170  54.371  1.00  0.00     0.017 C 
ATOM      2  C   UNL     1     266.772 -26.908  53.491  1.00  0.00     0.014 C 
ATOM      3  C   UNL     1     264.978 -25.798  54.900  1.00  0.00     0.014 C 
ATOM      4  C   UNL     1     265.967 -28.100  55.552  1.00  0.00     0.030 C 
ATOM      5  C   UNL     1     267.479 -28.197  53.018  1.00  0.00     0.004 C 
ATOM      6  C   UNL     1     264.043 -25.887  56.140  1.00  0.00     0.013 C 
ATOM      7  C   UNL     1     264.977 -28.081  56.725  1.00  0.00    -0.063 C 
ATOM      8  C   UNL     1     266.554 -29.468  55.056  1.00  0.00    -0.003 C 
ATOM      9  C   UNL     1     267.811 -29.156  54.186  1.00  0.00    -0.011 C 
ATOM     10  C   UNL     1     264.627 -26.710  57.330  1.00  0.00    -0.006 C 
ATOM     11  C   UNL     1     264.203 -29.141  56.990  1.00  0.00    -0.027 C 
ATOM     12  C   UNL     1     265.572 -30.416  54.311  1.00  0.00     0.008 C 
ATOM     13  C   UNL     1     268.510 -30.424  53.675  1.00  0.00     0.008 C 
ATOM     14  C   UNL     1     265.947 -26.001  57.800  1.00  0.00     0.017 C 
ATOM     15  C   UNL     1     263.632 -26.871  58.614  1.00  0.00    -0.020 C 
ATOM     16  C   UNL     1     262.746 -28.947  57.260  1.00  0.00     0.032 C 
ATOM     17  C   UNL     1     262.454 -27.931  58.387  1.00  0.00     0.006 C 
ATOM     18  C   UNL     1     263.074 -25.481  59.081  1.00  0.00     0.008 C 
ATOM     19  C   UNL     1     264.469 -27.415  59.829  1.00  0.00     0.012 C 
ATOM     20  C   UNL     1     260.973 -27.362  58.396  1.00  0.00    -0.025 C 
ATOM     21  C   UNL     1     261.914 -25.553  60.082  1.00  0.00     0.005 C 
ATOM     22  C   UNL     1     260.733 -26.513  59.722  1.00  0.00     0.003 C 
ATOM     23  C   UNL     1     259.903 -28.507  58.261  1.00  0.00     0.010 C 
ATOM     24  C   UNL     1     260.695 -26.470  57.141  1.00  0.00     0.012 C 
ATOM     25  C   UNL     1     260.171 -27.276  61.013  1.00  0.00    -0.006 C 
ATOM     26  C   UNL     1     259.590 -29.265  59.542  1.00  0.00     0.033 C 
ATOM     27  C   UNL     1     259.071 -28.299  60.612  1.00  0.00     0.120 C 
ATOM     28  C   UNL     1     261.244 -28.033  61.860  1.00  0.00     0.014 C 
ATOM     29  C   UNL     1     259.530 -26.236  61.975  1.00  0.00     0.014 C 
ENDROOT
BRANCH   1  30
ATOM     30  C   UNL     1     264.390 -27.770  53.526  1.00  0.00     0.048 C 
ATOM     31  O   UNL     1     263.214 -27.831  53.970  1.00  0.00    -0.550 OA
ATOM     32  O   UNL     1     264.621 -28.164  52.212  1.00  0.00    -0.550 OA
ENDBRANCH   1  30
BRANCH  27  33
ATOM     33  O   UNL     1     257.923 -27.630  60.143  1.00  0.00    -0.393 OA
ATOM     34  H   UNL     1     257.163 -27.925  60.711  1.00  0.00     0.210 HD
ENDBRANCH  27  33
TORSDOF 2
ENDMDL
MODEL 2
REMARK VINA RESULT:    -8.762     12.922     15.127
REMARK INTER + INTRA:          -9.088
REMARK INTER:                  -9.562
REMARK INTRA:                   0.474
REMARK UNBOUND:                 0.443
REMARK SMILES C[C@H]1[C@@H](C)CC[C@]2(C(=O)[O-])CC[C@]3(C)C(=CC[C@@H]4[C@@]5(C)CC[C@H](O)C(C)(C)[C@H]5CC[C@@]43C)[C@@H]12
REMARK SMILES IDX 7 1 6 2 11 3 33 4 5 5 12 6 15 7 2 8 3 9 13 10 16 11 1 12
REMARK SMILES IDX 4 13 14 14 31 15 17 16 18 17 30 18 32 19 19 20 29 21 28 22
REMARK SMILES IDX 21 23 20 24 25 25 22 26 23 27 26 28 27 29 8 30 9 31 10 32
REMARK SMILES IDX 24 33
REMARK H PARENT 24 34
REMARK Flexibility Score: inf
ROOT
ATOM      1  C   UNL     1     250.849 -22.880  45.472  1.00  0.00     0.017 C 
ATOM      2  C   UNL     1     250.338 -21.979  44.304  1.00  0.00     0.014 C 
ATOM      3  C   UNL     1     249.881 -22.714  46.689  1.00  0.00     0.014 C 
ATOM      4  C   UNL     1     252.299 -22.384  45.823  1.00  0.00     0.030 C 
ATOM      5  C   UNL     1     251.286 -21.944  43.085  1.00  0.00     0.004 C 
ATOM      6  C   UNL     1     250.469 -23.147  48.063  1.00  0.00     0.013 C 
ATOM      7  C   UNL     1     252.753 -22.853  47.212  1.00  0.00    -0.063 C 
ATOM      8  C   UNL     1     253.287 -22.489  44.609  1.00  0.00    -0.003 C 
ATOM      9  C   UNL     1     252.738 -21.573  43.471  1.00  0.00    -0.011 C 
ATOM     10  C   UNL     1     251.848 -22.502  48.405  1.00  0.00    -0.006 C 
ATOM     11  C   UNL     1     253.695 -23.795  47.347  1.00  0.00    -0.027 C 
ATOM     12  C   UNL     1     253.594 -23.920  44.084  1.00  0.00     0.008 C 
ATOM     13  C   UNL     1     253.647 -21.551  42.234  1.00  0.00     0.008 C 
ATOM     14  C   UNL     1     251.647 -20.945  48.462  1.00  0.00     0.017 C 
ATOM     15  C   UNL     1     252.512 -22.996  49.813  1.00  0.00    -0.020 C 
ATOM     16  C   UNL     1     253.483 -24.923  48.306  1.00  0.00     0.032 C 
ATOM     17  C   UNL     1     253.153 -24.462  49.743  1.00  0.00     0.006 C 
ATOM     18  C   UNL     1     251.494 -22.869  51.000  1.00  0.00     0.008 C 
ATOM     19  C   UNL     1     253.696 -22.028  50.173  1.00  0.00     0.012 C 
ATOM     20  C   UNL     1     252.486 -25.575  50.657  1.00  0.00    -0.025 C 
ATOM     21  C   UNL     1     251.916 -23.575  52.293  1.00  0.00     0.005 C 
ATOM     22  C   UNL     1     252.405 -25.055  52.160  1.00  0.00     0.003 C 
ATOM     23  C   UNL     1     253.259 -26.942  50.576  1.00  0.00     0.010 C 
ATOM     24  C   UNL     1     251.054 -25.949  50.150  1.00  0.00     0.012 C 
ATOM     25  C   UNL     1     253.640 -25.365  53.131  1.00  0.00    -0.006 C 
ATOM     26  C   UNL     1     254.516 -27.034  51.428  1.00  0.00     0.033 C 
ATOM     27  C   UNL     1     254.170 -26.809  52.903  1.00  0.00     0.120 C 
ATOM     28  C   UNL     1     254.849 -24.384  53.007  1.00  0.00     0.014 C 
ATOM     29  C   UNL     1     253.160 -25.259  54.607  1.00  0.00     0.014 C 
ENDROOT
BRANCH   1  30
ATOM     30  C   UNL     1     250.792 -24.351  45.071  1.00  0.00     0.048 C 
ATOM     31  O   UNL     1     250.875 -25.255  45.941  1.00  0.00    -0.550 OA
ATOM     32  O   UNL     1     250.541 -24.722  43.754  1.00  0.00    -0.550 OA
ENDBRANCH   1  30
BRANCH  27  33
ATOM     33  O   UNL     1     253.218 -27.758  53.326  1.00  0.00    -0.393 OA
ATOM     34  H   UNL     1     253.269 -28.521  52.693  1.00  0.00     0.210 HD
ENDBRANCH  27  33
TORSDOF 2
ENDMDL
MODEL 3
REMARK VINA RESULT:    -8.268      6.022     12.010
REMARK INTER + INTRA:          -8.550
REMARK INTER:                  -8.954
REMARK INTRA:                   0.404
REMARK UNBOUND:                 0.443
REMARK SMILES C[C@H]1[C@@H](C)CC[C@]2(C(=O)[O-])CC[C@]3(C)C(=CC[C@@H]4[C@@]5(C)CC[C@H](O)C(C)(C)[C@H]5CC[C@@]43C)[C@@H]12
REMARK SMILES IDX 7 1 6 2 11 3 33 4 5 5 12 6 15 7 2 8 3 9 13 10 16 11 1 12
REMARK SMILES IDX 4 13 14 14 31 15 17 16 18 17 30 18 32 19 19 20 29 21 28 22
REMARK SMILES IDX 21 23 20 24 25 25 22 26 23 27 26 28 27 29 8 30 9 31 10 32
REMARK SMILES IDX 24 33
REMARK H PARENT 24 34
REMARK Flexibility Score: inf
ROOT
ATOM      1  C   UNL     1     268.896 -31.102  52.797  1.00  0.00     0.017 C 
ATOM      2  C   UNL     1     269.187 -30.483  54.201  1.00  0.00     0.014 C 
ATOM      3  C   UNL     1     270.049 -30.694  51.824  1.00  0.00     0.014 C 
ATOM      4  C   UNL     1     267.515 -30.518  52.324  1.00  0.00     0.030 C 
ATOM      5  C   UNL     1     268.049 -30.696  55.223  1.00  0.00     0.004 C 
ATOM      6  C   UNL     1     269.707 -30.810  50.310  1.00  0.00     0.013 C 
ATOM      7  C   UNL     1     267.308 -30.667  50.811  1.00  0.00    -0.063 C 
ATOM      8  C   UNL     1     266.341 -30.865  53.305  1.00  0.00    -0.003 C 
ATOM      9  C   UNL     1     266.674 -30.226  54.689  1.00  0.00    -0.011 C 
ATOM     10  C   UNL     1     268.392 -30.082  49.890  1.00  0.00    -0.006 C 
ATOM     11  C   UNL     1     266.421 -31.542  50.321  1.00  0.00    -0.027 C 
ATOM     12  C   UNL     1     265.978 -32.370  53.451  1.00  0.00     0.008 C 
ATOM     13  C   UNL     1     265.571 -30.455  55.732  1.00  0.00     0.008 C 
ATOM     14  C   UNL     1     268.569 -28.554  50.205  1.00  0.00     0.017 C 
ATOM     15  C   UNL     1     267.982 -30.250  48.318  1.00  0.00    -0.020 C 
ATOM     16  C   UNL     1     266.811 -32.439  49.190  1.00  0.00     0.032 C 
ATOM     17  C   UNL     1     267.367 -31.685  47.963  1.00  0.00     0.006 C 
ATOM     18  C   UNL     1     269.181 -29.887  47.374  1.00  0.00     0.008 C 
ATOM     19  C   UNL     1     266.855 -29.207  47.983  1.00  0.00     0.012 C 
ATOM     20  C   UNL     1     268.199 -32.586  46.955  1.00  0.00    -0.025 C 
ATOM     21  C   UNL     1     268.994 -30.290  45.906  1.00  0.00     0.005 C 
ATOM     22  C   UNL     1     268.519 -31.756  45.634  1.00  0.00     0.003 C 
ATOM     23  C   UNL     1     267.449 -33.925  46.609  1.00  0.00     0.010 C 
ATOM     24  C   UNL     1     269.533 -33.086  47.601  1.00  0.00     0.012 C 
ATOM     25  C   UNL     1     267.469 -31.827  44.426  1.00  0.00    -0.006 C 
ATOM     26  C   UNL     1     266.354 -33.809  45.560  1.00  0.00     0.033 C 
ATOM     27  C   UNL     1     266.936 -33.277  44.246  1.00  0.00     0.120 C 
ATOM     28  C   UNL     1     266.237 -30.876  44.556  1.00  0.00     0.014 C 
ATOM     29  C   UNL     1     268.186 -31.413  43.110  1.00  0.00     0.014 C 
ENDROOT
BRANCH   1  30
ATOM     30  C   UNL     1     268.914 -32.626  52.875  1.00  0.00     0.048 C 
ATOM     31  O   UNL     1     268.732 -33.322  51.843  1.00  0.00    -0.550 OA
ATOM     32  O   UNL     1     269.236 -33.275  54.062  1.00  0.00    -0.550 OA
ENDBRANCH   1  30
BRANCH  27  33
ATOM     33  O   UNL     1     267.964 -34.128  43.794  1.00  0.00    -0.393 OA
ATOM     34  H   UNL     1     268.724 -34.026  44.425  1.00  0.00     0.210 HD
ENDBRANCH  27  33
TORSDOF 2
ENDMDL
MODEL 4
REMARK VINA RESULT:    -7.865      3.437      6.187
REMARK INTER + INTRA:          -8.113
REMARK INTER:                  -8.513
REMARK INTRA:                   0.401
REMARK UNBOUND:                 0.443
REMARK SMILES C[C@H]1[C@@H](C)CC[C@]2(C(=O)[O-])CC[C@]3(C)C(=CC[C@@H]4[C@@]5(C)CC[C@H](O)C(C)(C)[C@H]5CC[C@@]43C)[C@@H]12
REMARK SMILES IDX 7 1 6 2 11 3 33 4 5 5 12 6 15 7 2 8 3 9 13 10 16 11 1 12
REMARK SMILES IDX 4 13 14 14 31 15 17 16 18 17 30 18 32 19 19 20 29 21 28 22
REMARK SMILES IDX 21 23 20 24 25 25 22 26 23 27 26 28 27 29 8 30 9 31 10 32
REMARK SMILES IDX 24 33
REMARK H PARENT 24 34
REMARK Flexibility Score: inf
ROOT
ATOM      1  C   UNL     1     268.790 -30.732  50.761  1.00  0.00     0.017 C 
ATOM      2  C   UNL     1     270.014 -31.625  50.383  1.00  0.00     0.014 C 
ATOM      3  C   UNL     1     269.299 -29.523  51.611  1.00  0.00     0.014 C 
ATOM      4  C   UNL     1     267.808 -31.639  51.587  1.00  0.00     0.030 C 
ATOM      5  C   UNL     1     269.630 -32.933  49.657  1.00  0.00     0.004 C 
ATOM      6  C   UNL     1     268.207 -28.805  52.456  1.00  0.00     0.013 C 
ATOM      7  C   UNL     1     266.799 -30.815  52.399  1.00  0.00    -0.063 C 
ATOM      8  C   UNL     1     267.315 -32.893  50.782  1.00  0.00    -0.003 C 
ATOM      9  C   UNL     1     268.568 -33.752  50.430  1.00  0.00    -0.011 C 
ATOM     10  C   UNL     1     267.365 -29.757  53.361  1.00  0.00    -0.006 C 
ATOM     11  C   UNL     1     265.506 -30.775  52.052  1.00  0.00    -0.027 C 
ATOM     12  C   UNL     1     266.450 -32.613  49.521  1.00  0.00     0.008 C 
ATOM     13  C   UNL     1     268.213 -35.042  49.677  1.00  0.00     0.008 C 
ATOM     14  C   UNL     1     268.347 -30.450  54.372  1.00  0.00     0.017 C 
ATOM     15  C   UNL     1     266.170 -29.031  54.205  1.00  0.00    -0.020 C 
ATOM     16  C   UNL     1     264.792 -29.462  52.005  1.00  0.00     0.032 C 
ATOM     17  C   UNL     1     264.893 -28.654  53.317  1.00  0.00     0.006 C 
ATOM     18  C   UNL     1     266.707 -27.789  54.999  1.00  0.00     0.008 C 
ATOM     19  C   UNL     1     265.651 -30.034  55.298  1.00  0.00     0.012 C 
ATOM     20  C   UNL     1     264.560 -27.109  53.169  1.00  0.00    -0.025 C 
ATOM     21  C   UNL     1     265.622 -26.875  55.581  1.00  0.00     0.005 C 
ATOM     22  C   UNL     1     264.475 -26.438  54.611  1.00  0.00     0.003 C 
ATOM     23  C   UNL     1     263.233 -26.869  52.359  1.00  0.00     0.010 C 
ATOM     24  C   UNL     1     265.637 -26.372  52.307  1.00  0.00     0.012 C 
ATOM     25  C   UNL     1     263.052 -26.409  55.346  1.00  0.00    -0.006 C 
ATOM     26  C   UNL     1     261.945 -27.043  53.149  1.00  0.00     0.033 C 
ATOM     27  C   UNL     1     261.918 -26.075  54.335  1.00  0.00     0.120 C 
ATOM     28  C   UNL     1     262.658 -27.725  56.089  1.00  0.00     0.014 C 
ATOM     29  C   UNL     1     263.068 -25.298  56.433  1.00  0.00     0.014 C 
ENDROOT
BRANCH   1  30
ATOM     30  C   UNL     1     268.156 -30.142  49.504  1.00  0.00     0.048 C 
ATOM     31  O   UNL     1     267.192 -29.339  49.590  1.00  0.00    -0.550 OA
ATOM     32  O   UNL     1     268.697 -30.394  48.248  1.00  0.00    -0.550 OA
ENDBRANCH   1  30
BRANCH  27  33
ATOM     33  O   UNL     1     262.041 -24.747  53.878  1.00  0.00    -0.393 OA
ATOM     34  H   UNL     1     261.710 -24.732  52.942  1.00  0.00     0.210 HD
ENDBRANCH  27  33
TORSDOF 2
ENDMDL
MODEL 5
REMARK VINA RESULT:    -7.812     13.912     15.986
REMARK INTER + INTRA:          -8.054
REMARK INTER:                  -8.681
REMARK INTRA:                   0.627
REMARK UNBOUND:                 0.443
REMARK SMILES C[C@H]1[C@@H](C)CC[C@]2(C(=O)[O-])CC[C@]3(C)C(=CC[C@@H]4[C@@]5(C)CC[C@H](O)C(C)(C)[C@H]5CC[C@@]43C)[C@@H]12
REMARK SMILES IDX 7 1 6 2 11 3 33 4 5 5 12 6 15 7 2 8 3 9 13 10 16 11 1 12
REMARK SMILES IDX 4 13 14 14 31 15 17 16 18 17 30 18 32 19 19 20 29 21 28 22
REMARK SMILES IDX 21 23 20 24 25 25 22 26 23 27 26 28 27 29 8 30 9 31 10 32
REMARK SMILES IDX 24 33
REMARK H PARENT 24 34
REMARK Flexibility Score: inf
ROOT
ATOM      1  C   UNL     1     251.637 -24.340  44.127  1.00  0.00     0.017 C 
ATOM      2  C   UNL     1     251.647 -24.337  42.565  1.00  0.00     0.014 C 
ATOM      3  C   UNL     1     250.265 -23.772  44.616  1.00  0.00     0.014 C 
ATOM      4  C   UNL     1     252.831 -23.427  44.587  1.00  0.00     0.030 C 
ATOM      5  C   UNL     1     253.004 -24.746  41.951  1.00  0.00     0.004 C 
ATOM      6  C   UNL     1     250.248 -23.266  46.088  1.00  0.00     0.013 C 
ATOM      7  C   UNL     1     252.685 -22.971  46.046  1.00  0.00    -0.063 C 
ATOM      8  C   UNL     1     254.221 -23.939  44.071  1.00  0.00    -0.003 C 
ATOM      9  C   UNL     1     254.185 -23.916  42.512  1.00  0.00    -0.011 C 
ATOM     10  C   UNL     1     251.382 -22.251  46.432  1.00  0.00    -0.006 C 
ATOM     11  C   UNL     1     253.482 -23.462  47.003  1.00  0.00    -0.027 C 
ATOM     12  C   UNL     1     254.696 -25.320  44.605  1.00  0.00     0.008 C 
ATOM     13  C   UNL     1     255.514 -24.354  41.878  1.00  0.00     0.008 C 
ATOM     14  C   UNL     1     251.195 -20.993  45.511  1.00  0.00     0.017 C 
ATOM     15  C   UNL     1     251.421 -21.760  47.989  1.00  0.00    -0.020 C 
ATOM     16  C   UNL     1     252.891 -23.921  48.298  1.00  0.00     0.032 C 
ATOM     17  C   UNL     1     252.019 -22.854  48.994  1.00  0.00     0.006 C 
ATOM     18  C   UNL     1     250.014 -21.251  48.462  1.00  0.00     0.008 C 
ATOM     19  C   UNL     1     252.374 -20.515  48.096  1.00  0.00     0.012 C 
ATOM     20  C   UNL     1     251.028 -23.426  50.094  1.00  0.00    -0.025 C 
ATOM     21  C   UNL     1     249.875 -21.047  49.975  1.00  0.00     0.005 C 
ATOM     22  C   UNL     1     250.358 -22.220  50.891  1.00  0.00     0.003 C 
ATOM     23  C   UNL     1     251.753 -24.415  51.079  1.00  0.00     0.010 C 
ATOM     24  C   UNL     1     249.915 -24.319  49.454  1.00  0.00     0.012 C 
ATOM     25  C   UNL     1     251.097 -21.684  52.206  1.00  0.00    -0.006 C 
ATOM     26  C   UNL     1     252.562 -23.759  52.187  1.00  0.00     0.033 C 
ATOM     27  C   UNL     1     251.658 -22.868  53.044  1.00  0.00     0.120 C 
ATOM     28  C   UNL     1     252.267 -20.680  51.952  1.00  0.00     0.014 C 
ATOM     29  C   UNL     1     250.068 -20.920  53.087  1.00  0.00     0.014 C 
ENDROOT
BRANCH   1  30
ATOM     30  C   UNL     1     251.728 -25.768  44.655  1.00  0.00     0.048 C 
ATOM     31  O   UNL     1     251.747 -26.745  43.863  1.00  0.00    -0.550 OA
ATOM     32  O   UNL     1     251.898 -26.016  46.014  1.00  0.00    -0.550 OA
ENDBRANCH   1  30
BRANCH  27  33
ATOM     33  O   UNL     1     250.604 -23.630  53.588  1.00  0.00    -0.393 OA
ATOM     34  H   UNL     1     249.789 -23.065  53.551  1.00  0.00     0.210 HD
ENDBRANCH  27  33
TORSDOF 2
ENDMDL
MODEL 6
REMARK VINA RESULT:    -7.777      7.262     11.675
REMARK INTER + INTRA:          -8.017
REMARK INTER:                  -8.625
REMARK INTRA:                   0.608
REMARK UNBOUND:                 0.443
REMARK SMILES C[C@H]1[C@@H](C)CC[C@]2(C(=O)[O-])CC[C@]3(C)C(=CC[C@@H]4[C@@]5(C)CC[C@H](O)C(C)(C)[C@H]5CC[C@@]43C)[C@@H]12
REMARK SMILES IDX 7 1 6 2 11 3 33 4 5 5 12 6 15 7 2 8 3 9 13 10 16 11 1 12
REMARK SMILES IDX 4 13 14 14 31 15 17 16 18 17 30 18 32 19 19 20 29 21 28 22
REMARK SMILES IDX 21 23 20 24 25 25 22 26 23 27 26 28 27 29 8 30 9 31 10 32
REMARK SMILES IDX 24 33
REMARK H PARENT 24 34
REMARK Flexibility Score: inf
ROOT
ATOM      1  C   UNL     1     268.794 -32.673  44.898  1.00  0.00     0.017 C 
ATOM      2  C   UNL     1     268.816 -33.385  43.508  1.00  0.00     0.014 C 
ATOM      3  C   UNL     1     269.631 -33.525  45.906  1.00  0.00     0.014 C 
ATOM      4  C   UNL     1     267.287 -32.585  45.336  1.00  0.00     0.030 C 
ATOM      5  C   UNL     1     267.908 -32.717  42.452  1.00  0.00     0.004 C 
ATOM      6  C   UNL     1     269.341 -33.240  47.409  1.00  0.00     0.013 C 
ATOM      7  C   UNL     1     267.133 -32.330  46.841  1.00  0.00    -0.063 C 
ATOM      8  C   UNL     1     266.404 -31.780  44.319  1.00  0.00    -0.003 C 
ATOM      9  C   UNL     1     266.455 -32.527  42.951  1.00  0.00    -0.011 C 
ATOM     10  C   UNL     1     267.832 -33.311  47.798  1.00  0.00    -0.006 C 
ATOM     11  C   UNL     1     266.707 -31.146  47.299  1.00  0.00    -0.027 C 
ATOM     12  C   UNL     1     266.740 -30.271  44.151  1.00  0.00     0.008 C 
ATOM     13  C   UNL     1     265.586 -31.860  41.875  1.00  0.00     0.008 C 
ATOM     14  C   UNL     1     267.329 -34.769  47.501  1.00  0.00     0.017 C 
ATOM     15  C   UNL     1     267.502 -32.950  49.355  1.00  0.00    -0.020 C 
ATOM     16  C   UNL     1     267.426 -30.487  48.432  1.00  0.00     0.032 C 
ATOM     17  C   UNL     1     267.569 -31.384  49.681  1.00  0.00     0.006 C 
ATOM     18  C   UNL     1     268.400 -33.781  50.337  1.00  0.00     0.008 C 
ATOM     19  C   UNL     1     266.025 -33.389  49.668  1.00  0.00     0.012 C 
ATOM     20  C   UNL     1     268.689 -30.917  50.705  1.00  0.00    -0.025 C 
ATOM     21  C   UNL     1     268.376 -33.308  51.795  1.00  0.00     0.005 C 
ATOM     22  C   UNL     1     268.585 -31.777  52.041  1.00  0.00     0.003 C 
ATOM     23  C   UNL     1     268.593 -29.379  51.018  1.00  0.00     0.010 C 
ATOM     24  C   UNL     1     270.121 -31.064  50.093  1.00  0.00     0.012 C 
ATOM     25  C   UNL     1     267.646 -31.230  53.218  1.00  0.00    -0.006 C 
ATOM     26  C   UNL     1     267.535 -28.983  52.037  1.00  0.00     0.033 C 
ATOM     27  C   UNL     1     267.797 -29.690  53.371  1.00  0.00     0.120 C 
ATOM     28  C   UNL     1     266.125 -31.549  53.061  1.00  0.00     0.014 C 
ATOM     29  C   UNL     1     268.080 -31.889  54.557  1.00  0.00     0.014 C 
ENDROOT
BRANCH   1  30
ATOM     30  C   UNL     1     269.478 -31.312  44.807  1.00  0.00     0.048 C 
ATOM     31  O   UNL     1     269.854 -30.857  43.697  1.00  0.00    -0.550 OA
ATOM     32  O   UNL     1     269.604 -30.502  45.931  1.00  0.00    -0.550 OA
ENDBRANCH   1  30
BRANCH  27  33
ATOM     33  O   UNL     1     269.083 -29.365  53.845  1.00  0.00    -0.393 OA
ATOM     34  H   UNL     1     269.205 -29.845  54.705  1.00  0.00     0.210 HD
ENDBRANCH  27  33
TORSDOF 2
ENDMDL
MODEL 7
REMARK VINA RESULT:    -7.537      3.978      8.247
REMARK INTER + INTRA:          -7.755
REMARK INTER:                  -8.266
REMARK INTRA:                   0.511
REMARK UNBOUND:                 0.443
REMARK SMILES C[C@H]1[C@@H](C)CC[C@]2(C(=O)[O-])CC[C@]3(C)C(=CC[C@@H]4[C@@]5(C)CC[C@H](O)C(C)(C)[C@H]5CC[C@@]43C)[C@@H]12
REMARK SMILES IDX 7 1 6 2 11 3 33 4 5 5 12 6 15 7 2 8 3 9 13 10 16 11 1 12
REMARK SMILES IDX 4 13 14 14 31 15 17 16 18 17 30 18 32 19 19 20 29 21 28 22
REMARK SMILES IDX 21 23 20 24 25 25 22 26 23 27 26 28 27 29 8 30 9 31 10 32
REMARK SMILES IDX 24 33
REMARK H PARENT 24 34
REMARK Flexibility Score: inf
ROOT
ATOM      1  C   UNL     1     263.903 -26.850  56.769  1.00  0.00     0.017 C 
ATOM      2  C   UNL     1     263.312 -27.781  57.875  1.00  0.00     0.014 C 
ATOM      3  C   UNL     1     265.218 -26.203  57.315  1.00  0.00     0.014 C 
ATOM      4  C   UNL     1     262.813 -25.759  56.467  1.00  0.00     0.030 C 
ATOM      5  C   UNL     1     261.933 -28.376  57.514  1.00  0.00     0.004 C 
ATOM      6  C   UNL     1     265.682 -24.920  56.566  1.00  0.00     0.013 C 
ATOM      7  C   UNL     1     263.398 -24.534  55.752  1.00  0.00    -0.063 C 
ATOM      8  C   UNL     1     261.460 -26.376  55.964  1.00  0.00    -0.003 C 
ATOM      9  C   UNL     1     260.907 -27.293  57.099  1.00  0.00    -0.011 C 
ATOM     10  C   UNL     1     264.582 -23.822  56.429  1.00  0.00    -0.006 C 
ATOM     11  C   UNL     1     263.129 -24.295  54.462  1.00  0.00    -0.027 C 
ATOM     12  C   UNL     1     261.501 -27.125  54.602  1.00  0.00     0.008 C 
ATOM     13  C   UNL     1     259.553 -27.925  56.747  1.00  0.00     0.008 C 
ATOM     14  C   UNL     1     264.161 -23.382  57.876  1.00  0.00     0.017 C 
ATOM     15  C   UNL     1     265.030 -22.496  55.587  1.00  0.00    -0.020 C 
ATOM     16  C   UNL     1     264.237 -23.930  53.528  1.00  0.00     0.032 C 
ATOM     17  C   UNL     1     265.078 -22.725  54.003  1.00  0.00     0.006 C 
ATOM     18  C   UNL     1     266.382 -21.909  56.125  1.00  0.00     0.008 C 
ATOM     19  C   UNL     1     263.961 -21.369  55.824  1.00  0.00     0.012 C 
ATOM     20  C   UNL     1     266.499 -22.596  53.308  1.00  0.00    -0.025 C 
ATOM     21  C   UNL     1     267.032 -20.851  55.225  1.00  0.00     0.005 C 
ATOM     22  C   UNL     1     267.166 -21.205  53.707  1.00  0.00     0.003 C 
ATOM     23  C   UNL     1     266.403 -22.744  51.745  1.00  0.00     0.010 C 
ATOM     24  C   UNL     1     267.446 -23.772  53.716  1.00  0.00     0.012 C 
ATOM     25  C   UNL     1     266.880 -19.937  52.772  1.00  0.00    -0.006 C 
ATOM     26  C   UNL     1     265.953 -21.499  50.996  1.00  0.00     0.033 C 
ATOM     27  C   UNL     1     266.917 -20.341  51.271  1.00  0.00     0.120 C 
ATOM     28  C   UNL     1     265.527 -19.203  53.038  1.00  0.00     0.014 C 
ATOM     29  C   UNL     1     267.991 -18.875  53.010  1.00  0.00     0.014 C 
ENDROOT
BRANCH   1  30
ATOM     30  C   UNL     1     264.299 -27.667  55.544  1.00  0.00     0.048 C 
ATOM     31  O   UNL     1     264.618 -27.097  54.469  1.00  0.00    -0.550 OA
ATOM     32  O   UNL     1     264.420 -29.051  55.618  1.00  0.00    -0.550 OA
ENDBRANCH   1  30
BRANCH  27  33
ATOM     33  O   UNL     1     268.225 -20.700  50.888  1.00  0.00    -0.393 OA
ATOM     34  H   UNL     1     268.144 -21.275  50.083  1.00  0.00     0.210 HD
ENDBRANCH  27  33
TORSDOF 2
ENDMDL
MODEL 8
REMARK VINA RESULT:    -7.467      9.397     12.770
REMARK INTER + INTRA:          -7.680
REMARK INTER:                  -8.078
REMARK INTRA:                   0.398
REMARK UNBOUND:                 0.443
REMARK SMILES C[C@H]1[C@@H](C)CC[C@]2(C(=O)[O-])CC[C@]3(C)C(=CC[C@@H]4[C@@]5(C)CC[C@H](O)C(C)(C)[C@H]5CC[C@@]43C)[C@@H]12
REMARK SMILES IDX 7 1 6 2 11 3 33 4 5 5 12 6 15 7 2 8 3 9 13 10 16 11 1 12
REMARK SMILES IDX 4 13 14 14 31 15 17 16 18 17 30 18 32 19 19 20 29 21 28 22
REMARK SMILES IDX 21 23 20 24 25 25 22 26 23 27 26 28 27 29 8 30 9 31 10 32
REMARK SMILES IDX 24 33
REMARK H PARENT 24 34
REMARK Flexibility Score: inf
ROOT
ATOM      1  C   UNL     1     268.892 -32.978  44.867  1.00  0.00     0.017 C 
ATOM      2  C   UNL     1     269.052 -34.499  44.552  1.00  0.00     0.014 C 
ATOM      3  C   UNL     1     270.106 -32.521  45.740  1.00  0.00     0.014 C 
ATOM      4  C   UNL     1     267.536 -32.819  45.647  1.00  0.00     0.030 C 
ATOM      5  C   UNL     1     267.843 -35.111  43.810  1.00  0.00     0.004 C 
ATOM      6  C   UNL     1     269.890 -31.198  46.529  1.00  0.00     0.013 C 
ATOM      7  C   UNL     1     267.455 -31.488  46.406  1.00  0.00    -0.063 C 
ATOM      8  C   UNL     1     266.298 -33.316  44.820  1.00  0.00    -0.003 C 
ATOM      9  C   UNL     1     266.501 -34.836  44.532  1.00  0.00    -0.011 C 
ATOM     10  C   UNL     1     268.590 -31.169  47.393  1.00  0.00    -0.006 C 
ATOM     11  C   UNL     1     266.637 -30.510  45.996  1.00  0.00    -0.027 C 
ATOM     12  C   UNL     1     265.972 -32.533  43.517  1.00  0.00     0.008 C 
ATOM     13  C   UNL     1     265.326 -35.458  43.764  1.00  0.00     0.008 C 
ATOM     14  C   UNL     1     268.694 -32.324  48.452  1.00  0.00     0.017 C 
ATOM     15  C   UNL     1     268.312 -29.764  48.176  1.00  0.00    -0.020 C 
ATOM     16  C   UNL     1     267.143 -29.106  45.912  1.00  0.00     0.032 C 
ATOM     17  C   UNL     1     267.772 -28.594  47.226  1.00  0.00     0.006 C 
ATOM     18  C   UNL     1     269.571 -29.307  48.994  1.00  0.00     0.008 C 
ATOM     19  C   UNL     1     267.184 -30.002  49.244  1.00  0.00     0.012 C 
ATOM     20  C   UNL     1     268.709 -27.323  47.059  1.00  0.00    -0.025 C 
ATOM     21  C   UNL     1     269.513 -27.868  49.520  1.00  0.00     0.005 C 
ATOM     22  C   UNL     1     269.107 -26.759  48.494  1.00  0.00     0.003 C 
ATOM     23  C   UNL     1     268.030 -26.205  46.185  1.00  0.00     0.010 C 
ATOM     24  C   UNL     1     270.002 -27.668  46.249  1.00  0.00     0.012 C 
ATOM     25  C   UNL     1     268.160 -25.651  49.158  1.00  0.00    -0.006 C 
ATOM     26  C   UNL     1     267.019 -25.331  46.910  1.00  0.00     0.033 C 
ATOM     27  C   UNL     1     267.687 -24.622  48.092  1.00  0.00     0.120 C 
ATOM     28  C   UNL     1     266.892 -26.205  49.883  1.00  0.00     0.014 C 
ATOM     29  C   UNL     1     268.966 -24.882  50.242  1.00  0.00     0.014 C 
ENDROOT
BRANCH   1  30
ATOM     30  C   UNL     1     268.951 -32.161  43.581  1.00  0.00     0.048 C 
ATOM     31  O   UNL     1     268.942 -30.904  43.619  1.00  0.00    -0.550 OA
ATOM     32  O   UNL     1     269.123 -32.783  42.348  1.00  0.00    -0.550 OA
ENDBRANCH   1  30
BRANCH  27  33
ATOM     33  O   UNL     1     268.774 -23.847  47.639  1.00  0.00    -0.393 OA
ATOM     34  H   UNL     1     269.402 -23.754  48.403  1.00  0.00     0.210 HD
ENDBRANCH  27  33
TORSDOF 2
ENDMDL
MODEL 9
REMARK VINA RESULT:    -7.394      2.361      4.549
REMARK INTER + INTRA:          -7.600
REMARK INTER:                  -8.002
REMARK INTRA:                   0.402
REMARK UNBOUND:                 0.443
REMARK SMILES C[C@H]1[C@@H](C)CC[C@]2(C(=O)[O-])CC[C@]3(C)C(=CC[C@@H]4[C@@]5(C)CC[C@H](O)C(C)(C)[C@H]5CC[C@@]43C)[C@@H]12
REMARK SMILES IDX 7 1 6 2 11 3 33 4 5 5 12 6 15 7 2 8 3 9 13 10 16 11 1 12
REMARK SMILES IDX 4 13 14 14 31 15 17 16 18 17 30 18 32 19 19 20 29 21 28 22
REMARK SMILES IDX 21 23 20 24 25 25 22 26 23 27 26 28 27 29 8 30 9 31 10 32
REMARK SMILES IDX 24 33
REMARK H PARENT 24 34
REMARK Flexibility Score: inf
ROOT
ATOM      1  C   UNL     1     265.872 -28.065  51.530  1.00  0.00     0.017 C 
ATOM      2  C   UNL     1     265.999 -28.221  49.981  1.00  0.00     0.014 C 
ATOM      3  C   UNL     1     264.580 -28.809  52.000  1.00  0.00     0.014 C 
ATOM      4  C   UNL     1     265.782 -26.523  51.823  1.00  0.00     0.030 C 
ATOM      5  C   UNL     1     267.163 -27.412  49.368  1.00  0.00     0.004 C 
ATOM      6  C   UNL     1     264.042 -28.379  53.396  1.00  0.00     0.013 C 
ATOM      7  C   UNL     1     265.213 -26.228  53.217  1.00  0.00    -0.063 C 
ATOM      8  C   UNL     1     267.042 -25.735  51.318  1.00  0.00    -0.003 C 
ATOM      9  C   UNL     1     267.126 -25.917  49.771  1.00  0.00    -0.011 C 
ATOM     10  C   UNL     1     263.845 -26.840  53.563  1.00  0.00    -0.006 C 
ATOM     11  C   UNL     1     265.996 -25.755  54.195  1.00  0.00    -0.027 C 
ATOM     12  C   UNL     1     268.396 -26.077  52.001  1.00  0.00     0.008 C 
ATOM     13  C   UNL     1     268.298 -25.149  49.143  1.00  0.00     0.008 C 
ATOM     14  C   UNL     1     262.786 -26.375  52.500  1.00  0.00     0.017 C 
ATOM     15  C   UNL     1     263.345 -26.364  55.043  1.00  0.00    -0.020 C 
ATOM     16  C   UNL     1     265.925 -26.361  55.560  1.00  0.00     0.032 C 
ATOM     17  C   UNL     1     264.500 -26.392  56.152  1.00  0.00     0.006 C 
ATOM     18  C   UNL     1     262.082 -27.172  55.506  1.00  0.00     0.008 C 
ATOM     19  C   UNL     1     262.874 -24.867  54.953  1.00  0.00     0.012 C 
ATOM     20  C   UNL     1     264.306 -27.409  57.355  1.00  0.00    -0.025 C 
ATOM     21  C   UNL     1     261.717 -27.009  56.986  1.00  0.00     0.005 C 
ATOM     22  C   UNL     1     262.876 -27.185  58.021  1.00  0.00     0.003 C 
ATOM     23  C   UNL     1     265.451 -27.276  58.426  1.00  0.00     0.010 C 
ATOM     24  C   UNL     1     264.440 -28.893  56.878  1.00  0.00     0.012 C 
ATOM     25  C   UNL     1     262.763 -26.138  59.227  1.00  0.00    -0.006 C 
ATOM     26  C   UNL     1     265.297 -26.125  59.408  1.00  0.00     0.033 C 
ATOM     27  C   UNL     1     263.983 -26.265  60.183  1.00  0.00     0.120 C 
ATOM     28  C   UNL     1     262.642 -24.639  58.801  1.00  0.00     0.014 C 
ATOM     29  C   UNL     1     261.478 -26.449  60.046  1.00  0.00     0.014 C 
ENDROOT
BRANCH   1  30
ATOM     30  C   UNL     1     267.044 -28.747  52.230  1.00  0.00     0.048 C 
ATOM     31  O   UNL     1     267.103 -28.791  53.485  1.00  0.00    -0.550 OA
ATOM     32  O   UNL     1     268.013 -29.427  51.498  1.00  0.00    -0.550 OA
ENDBRANCH   1  30
BRANCH  27  33
ATOM     33  O   UNL     1     263.951 -27.500  60.861  1.00  0.00    -0.393 OA
ATOM     34  H   UNL     1     264.721 -27.506  61.488  1.00  0.00     0.210 HD
ENDBRANCH  27  33
TORSDOF 2
ENDMDL
