MODEL 1
REMARK VINA RESULT:    -5.468      0.000      0.000
REMARK INTER + INTRA:          -6.745
REMARK INTER:                  -6.427
REMARK INTRA:                  -0.318
REMARK UNBOUND:                -0.318
REMARK SMILES O=c1cc(-c2ccc(O)c(O)c2)oc2cc(O)cc(O)c12
REMARK SMILES IDX 4 1 3 2 2 3 1 4 21 5 19 6 18 7 16 8 15 9 14 10 13 11 5 12
REMARK SMILES IDX 6 13 7 14 8 15 12 16 10 17 9 18 11 20 20 22 17 24
REMARK H PARENT 9 19 11 21 20 23 17 25
REMARK Flexibility Score: inf
ROOT
ATOM      1  C   UNL     1     132.888 138.679 137.404  1.00  0.00     0.138 A 
ATOM      2  C   UNL     1     133.674 138.807 138.558  1.00  0.00     0.100 A 
ATOM      3  C   UNL     1     135.057 138.950 138.440  1.00  0.00     0.197 A 
ATOM      4  O   UNL     1     135.728 139.125 139.489  1.00  0.00    -0.289 OA
ATOM      5  C   UNL     1     135.659 138.931 137.159  1.00  0.00     0.107 A 
ATOM      6  C   UNL     1     137.062 139.028 136.919  1.00  0.00     0.134 A 
ATOM      7  C   UNL     1     137.533 139.116 135.604  1.00  0.00     0.093 A 
ATOM      8  C   UNL     1     136.655 139.051 134.518  1.00  0.00     0.123 A 
ATOM      9  C   UNL     1     135.289 138.903 134.741  1.00  0.00     0.094 A 
ATOM     10  C   UNL     1     134.784 138.847 136.043  1.00  0.00     0.146 A 
ATOM     11  O   UNL     1     133.473 138.720 136.211  1.00  0.00    -0.456 OA
ENDROOT
BRANCH   1  12
ATOM     12  C   UNL     1     131.413 138.523 137.473  1.00  0.00     0.021 A 
ATOM     13  C   UNL     1     130.764 138.630 138.712  1.00  0.00     0.016 A 
ATOM     14  C   UNL     1     129.378 138.493 138.802  1.00  0.00     0.051 A 
ATOM     15  C   UNL     1     128.608 138.257 137.659  1.00  0.00     0.157 A 
ATOM     16  C   UNL     1     130.639 138.301 136.319  1.00  0.00     0.062 A 
ATOM     17  C   UNL     1     129.246 138.165 136.400  1.00  0.00     0.158 A 
BRANCH  15  18
ATOM     18  O   UNL     1     127.227 138.125 137.817  1.00  0.00    -0.504 OA
ATOM     19  H   UNL     1     126.709 137.292 137.579  1.00  0.00     0.293 HD
ENDBRANCH  15  18
BRANCH  17  20
ATOM     20  O   UNL     1     128.543 137.948 135.213  1.00  0.00    -0.504 OA
ATOM     21  H   UNL     1     128.690 138.476 134.365  1.00  0.00     0.293 HD
ENDBRANCH  17  20
ENDBRANCH   1  12
BRANCH   6  22
ATOM     22  O   UNL     1     138.029 139.013 137.928  1.00  0.00    -0.507 OA
ATOM     23  H   UNL     1     138.389 138.182 138.371  1.00  0.00     0.293 HD
ENDBRANCH   6  22
BRANCH   8  24
ATOM     24  O   UNL     1     137.134 139.125 133.211  1.00  0.00    -0.508 OA
ATOM     25  H   UNL     1     137.660 138.364 132.796  1.00  0.00     0.293 HD
ENDBRANCH   8  24
TORSDOF 5
ENDMDL
MODEL 2
REMARK VINA RESULT:    -5.256      2.042      6.874
REMARK INTER + INTRA:          -6.495
REMARK INTER:                  -6.207
REMARK INTRA:                  -0.288
REMARK UNBOUND:                -0.318
REMARK SMILES O=c1cc(-c2ccc(O)c(O)c2)oc2cc(O)cc(O)c12
REMARK SMILES IDX 4 1 3 2 2 3 1 4 21 5 19 6 18 7 16 8 15 9 14 10 13 11 5 12
REMARK SMILES IDX 6 13 7 14 8 15 12 16 10 17 9 18 11 20 20 22 17 24
REMARK H PARENT 9 19 11 21 20 23 17 25
REMARK Flexibility Score: inf
ROOT
ATOM      1  C   UNL     1     132.756 137.791 136.950  1.00  0.00     0.138 A 
ATOM      2  C   UNL     1     131.706 138.601 137.405  1.00  0.00     0.100 A 
ATOM      3  C   UNL     1     130.423 138.426 136.884  1.00  0.00     0.197 A 
ATOM      4  O   UNL     1     129.490 139.125 137.358  1.00  0.00    -0.289 OA
ATOM      5  C   UNL     1     130.199 137.457 135.877  1.00  0.00     0.107 A 
ATOM      6  C   UNL     1     128.942 137.220 135.245  1.00  0.00     0.134 A 
ATOM      7  C   UNL     1     128.814 136.155 134.345  1.00  0.00     0.093 A 
ATOM      8  C   UNL     1     129.911 135.357 134.011  1.00  0.00     0.123 A 
ATOM      9  C   UNL     1     131.154 135.614 134.582  1.00  0.00     0.094 A 
ATOM     10  C   UNL     1     131.307 136.648 135.510  1.00  0.00     0.146 A 
ATOM     11  O   UNL     1     132.507 136.851 136.043  1.00  0.00    -0.456 OA
ENDROOT
BRANCH   1  12
ATOM     12  C   UNL     1     134.140 137.934 137.469  1.00  0.00     0.021 A 
ATOM     13  C   UNL     1     135.225 137.598 136.645  1.00  0.00     0.016 A 
ATOM     14  C   UNL     1     136.535 137.730 137.108  1.00  0.00     0.051 A 
ATOM     15  C   UNL     1     136.792 138.208 138.396  1.00  0.00     0.157 A 
ATOM     16  C   UNL     1     134.397 138.430 138.761  1.00  0.00     0.062 A 
ATOM     17  C   UNL     1     135.710 138.568 139.232  1.00  0.00     0.158 A 
BRANCH  15  18
ATOM     18  O   UNL     1     138.125 138.311 138.801  1.00  0.00    -0.504 OA
ATOM     19  H   UNL     1     138.754 137.526 138.879  1.00  0.00     0.293 HD
ENDBRANCH  15  18
BRANCH  17  20
ATOM     20  O   UNL     1     135.889 139.069 140.523  1.00  0.00    -0.504 OA
ATOM     21  H   UNL     1     135.401 139.873 140.890  1.00  0.00     0.293 HD
ENDBRANCH  17  20
ENDBRANCH   1  12
BRANCH   6  22
ATOM     22  O   UNL     1     127.806 138.010 135.442  1.00  0.00    -0.507 OA
ATOM     23  H   UNL     1     126.971 137.970 134.880  1.00  0.00     0.293 HD
ENDBRANCH   6  22
BRANCH   8  24
ATOM     24  O   UNL     1     129.777 134.308 133.102  1.00  0.00    -0.508 OA
ATOM     25  H   UNL     1     130.553 133.695 132.882  1.00  0.00     0.293 HD
ENDBRANCH   8  24
TORSDOF 5
ENDMDL
MODEL 3
REMARK VINA RESULT:    -5.133      1.257      1.965
REMARK INTER + INTRA:          -6.351
REMARK INTER:                  -6.069
REMARK INTRA:                  -0.281
REMARK UNBOUND:                -0.318
REMARK SMILES O=c1cc(-c2ccc(O)c(O)c2)oc2cc(O)cc(O)c12
REMARK SMILES IDX 4 1 3 2 2 3 1 4 21 5 19 6 18 7 16 8 15 9 14 10 13 11 5 12
REMARK SMILES IDX 6 13 7 14 8 15 12 16 10 17 9 18 11 20 20 22 17 24
REMARK H PARENT 9 19 11 21 20 23 17 25
REMARK Flexibility Score: inf
ROOT
ATOM      1  C   UNL     1     132.580 137.870 136.432  1.00  0.00     0.138 A 
ATOM      2  C   UNL     1     132.931 138.084 137.773  1.00  0.00     0.100 A 
ATOM      3  C   UNL     1     134.238 138.449 138.095  1.00  0.00     0.197 A 
ATOM      4  O   UNL     1     134.506 138.694 139.300  1.00  0.00    -0.289 OA
ATOM      5  C   UNL     1     135.208 138.569 137.071  1.00  0.00     0.107 A 
ATOM      6  C   UNL     1     136.580 138.895 137.286  1.00  0.00     0.134 A 
ATOM      7  C   UNL     1     137.420 139.101 136.185  1.00  0.00     0.093 A 
ATOM      8  C   UNL     1     136.953 138.933 134.879  1.00  0.00     0.123 A 
ATOM      9  C   UNL     1     135.629 138.562 134.661  1.00  0.00     0.094 A 
ATOM     10  C   UNL     1     134.755 138.383 135.738  1.00  0.00     0.146 A 
ATOM     11  O   UNL     1     133.496 138.043 135.485  1.00  0.00    -0.456 OA
ENDROOT
BRANCH   1  12
ATOM     12  C   UNL     1     131.204 137.479 136.034  1.00  0.00     0.021 A 
ATOM     13  C   UNL     1     131.023 136.532 135.014  1.00  0.00     0.016 A 
ATOM     14  C   UNL     1     129.740 136.143 134.626  1.00  0.00     0.051 A 
ATOM     15  C   UNL     1     128.611 136.682 135.250  1.00  0.00     0.157 A 
ATOM     16  C   UNL     1     130.070 138.012 136.673  1.00  0.00     0.062 A 
ATOM     17  C   UNL     1     128.778 137.625 136.291  1.00  0.00     0.158 A 
BRANCH  15  18
ATOM     18  O   UNL     1     127.356 136.256 134.811  1.00  0.00    -0.504 OA
ATOM     19  H   UNL     1     126.833 136.705 134.075  1.00  0.00     0.293 HD
ENDBRANCH  15  18
BRANCH  17  20
ATOM     20  O   UNL     1     127.699 138.193 136.972  1.00  0.00    -0.504 OA
ATOM     21  H   UNL     1     127.794 138.815 137.762  1.00  0.00     0.293 HD
ENDBRANCH  17  20
ENDBRANCH   1  12
BRANCH   6  22
ATOM     22  O   UNL     1     137.169 139.003 138.549  1.00  0.00    -0.507 OA
ATOM     23  H   UNL     1     138.123 139.281 138.719  1.00  0.00     0.293 HD
ENDBRANCH   6  22
BRANCH   8  24
ATOM     24  O   UNL     1     137.801 139.125 133.790  1.00  0.00    -0.508 OA
ATOM     25  H   UNL     1     137.980 140.049 133.414  1.00  0.00     0.293 HD
ENDBRANCH   8  24
TORSDOF 5
ENDMDL
MODEL 4
REMARK VINA RESULT:    -5.089     14.865     17.521
REMARK INTER + INTRA:          -6.299
REMARK INTER:                  -6.001
REMARK INTRA:                  -0.298
REMARK UNBOUND:                -0.318
REMARK SMILES O=c1cc(-c2ccc(O)c(O)c2)oc2cc(O)cc(O)c12
REMARK SMILES IDX 4 1 3 2 2 3 1 4 21 5 19 6 18 7 16 8 15 9 14 10 13 11 5 12
REMARK SMILES IDX 6 13 7 14 8 15 12 16 10 17 9 18 11 20 20 22 17 24
REMARK H PARENT 9 19 11 21 20 23 17 25
REMARK Flexibility Score: inf
ROOT
ATOM      1  C   UNL     1     122.716 127.222 128.747  1.00  0.00     0.138 A 
ATOM      2  C   UNL     1     122.445 128.517 129.212  1.00  0.00     0.100 A 
ATOM      3  C   UNL     1     123.472 129.460 129.264  1.00  0.00     0.197 A 
ATOM      4  O   UNL     1     123.185 130.631 129.626  1.00  0.00    -0.289 OA
ATOM      5  C   UNL     1     124.784 129.094 128.880  1.00  0.00     0.107 A 
ATOM      6  C   UNL     1     125.916 129.960 128.930  1.00  0.00     0.134 A 
ATOM      7  C   UNL     1     127.142 129.523 128.414  1.00  0.00     0.093 A 
ATOM      8  C   UNL     1     127.291 128.230 127.904  1.00  0.00     0.123 A 
ATOM      9  C   UNL     1     126.204 127.360 127.900  1.00  0.00     0.094 A 
ATOM     10  C   UNL     1     124.958 127.778 128.376  1.00  0.00     0.146 A 
ATOM     11  O   UNL     1     123.944 126.920 128.341  1.00  0.00    -0.456 OA
ENDROOT
BRANCH   1  12
ATOM     12  C   UNL     1     121.661 126.179 128.672  1.00  0.00     0.021 A 
ATOM     13  C   UNL     1     120.372 126.530 128.241  1.00  0.00     0.016 A 
ATOM     14  C   UNL     1     119.365 125.567 128.156  1.00  0.00     0.051 A 
ATOM     15  C   UNL     1     119.623 124.234 128.490  1.00  0.00     0.157 A 
ATOM     16  C   UNL     1     121.926 124.835 128.994  1.00  0.00     0.062 A 
ATOM     17  C   UNL     1     120.922 123.861 128.909  1.00  0.00     0.158 A 
BRANCH  15  18
ATOM     18  O   UNL     1     118.572 123.320 128.388  1.00  0.00    -0.504 OA
ATOM     19  H   UNL     1     118.314 122.673 129.118  1.00  0.00     0.293 HD
ENDBRANCH  15  18
BRANCH  17  20
ATOM     20  O   UNL     1     121.258 122.547 129.241  1.00  0.00    -0.504 OA
ATOM     21  H   UNL     1     120.900 122.060 130.050  1.00  0.00     0.293 HD
ENDBRANCH  17  20
ENDBRANCH   1  12
BRANCH   6  22
ATOM     22  O   UNL     1     125.898 131.238 129.496  1.00  0.00    -0.507 OA
ATOM     23  H   UNL     1     126.360 131.495 130.355  1.00  0.00     0.293 HD
ENDBRANCH   6  22
BRANCH   8  24
ATOM     24  O   UNL     1     128.519 127.799 127.406  1.00  0.00    -0.508 OA
ATOM     25  H   UNL     1     129.306 127.622 128.019  1.00  0.00     0.293 HD
ENDBRANCH   8  24
TORSDOF 5
ENDMDL
MODEL 5
REMARK VINA RESULT:    -4.997     14.796     18.678
REMARK INTER + INTRA:          -6.191
REMARK INTER:                  -5.926
REMARK INTRA:                  -0.265
REMARK UNBOUND:                -0.318
REMARK SMILES O=c1cc(-c2ccc(O)c(O)c2)oc2cc(O)cc(O)c12
REMARK SMILES IDX 4 1 3 2 2 3 1 4 21 5 19 6 18 7 16 8 15 9 14 10 13 11 5 12
REMARK SMILES IDX 6 13 7 14 8 15 12 16 10 17 9 18 11 20 20 22 17 24
REMARK H PARENT 9 19 11 21 20 23 17 25
REMARK Flexibility Score: inf
ROOT
ATOM      1  C   UNL     1     122.459 128.079 129.244  1.00  0.00     0.138 A 
ATOM      2  C   UNL     1     121.160 128.603 129.289  1.00  0.00     0.100 A 
ATOM      3  C   UNL     1     120.065 127.739 129.261  1.00  0.00     0.197 A 
ATOM      4  O   UNL     1     118.914 128.235 129.367  1.00  0.00    -0.289 OA
ATOM      5  C   UNL     1     120.274 126.343 129.154  1.00  0.00     0.107 A 
ATOM      6  C   UNL     1     119.233 125.370 129.076  1.00  0.00     0.134 A 
ATOM      7  C   UNL     1     119.560 124.008 129.090  1.00  0.00     0.093 A 
ATOM      8  C   UNL     1     120.891 123.586 129.119  1.00  0.00     0.123 A 
ATOM      9  C   UNL     1     121.915 124.529 129.141  1.00  0.00     0.094 A 
ATOM     10  C   UNL     1     121.621 125.896 129.163  1.00  0.00     0.146 A 
ATOM     11  O   UNL     1     122.629 126.762 129.198  1.00  0.00    -0.456 OA
ENDROOT
BRANCH   1  12
ATOM     12  C   UNL     1     123.659 128.954 129.269  1.00  0.00     0.021 A 
ATOM     13  C   UNL     1     124.173 129.386 130.501  1.00  0.00     0.016 A 
ATOM     14  C   UNL     1     125.303 130.203 130.552  1.00  0.00     0.051 A 
ATOM     15  C   UNL     1     125.951 130.599 129.378  1.00  0.00     0.157 A 
ATOM     16  C   UNL     1     124.319 129.339 128.087  1.00  0.00     0.062 A 
ATOM     17  C   UNL     1     125.456 130.157 128.129  1.00  0.00     0.158 A 
BRANCH  15  18
ATOM     18  O   UNL     1     127.073 131.421 129.497  1.00  0.00    -0.504 OA
ATOM     19  H   UNL     1     127.172 132.146 130.193  1.00  0.00     0.293 HD
ENDBRANCH  15  18
BRANCH  17  20
ATOM     20  O   UNL     1     126.059 130.496 126.916  1.00  0.00    -0.504 OA
ATOM     21  H   UNL     1     126.743 131.232 126.812  1.00  0.00     0.293 HD
ENDBRANCH  17  20
ENDBRANCH   1  12
BRANCH   6  22
ATOM     22  O   UNL     1     117.876 125.685 128.957  1.00  0.00    -0.507 OA
ATOM     23  H   UNL     1     117.128 125.010 128.928  1.00  0.00     0.293 HD
ENDBRANCH   6  22
BRANCH   8  24
ATOM     24  O   UNL     1     121.207 122.229 129.118  1.00  0.00    -0.508 OA
ATOM     25  H   UNL     1     122.131 121.899 129.373  1.00  0.00     0.293 HD
ENDBRANCH   8  24
TORSDOF 5
ENDMDL
MODEL 6
REMARK VINA RESULT:    -4.988     18.415     21.220
REMARK INTER + INTRA:          -6.181
REMARK INTER:                  -5.863
REMARK INTRA:                  -0.318
REMARK UNBOUND:                -0.318
REMARK SMILES O=c1cc(-c2ccc(O)c(O)c2)oc2cc(O)cc(O)c12
REMARK SMILES IDX 4 1 3 2 2 3 1 4 21 5 19 6 18 7 16 8 15 9 14 10 13 11 5 12
REMARK SMILES IDX 6 13 7 14 8 15 12 16 10 17 9 18 11 20 20 22 17 24
REMARK H PARENT 9 19 11 21 20 23 17 25
REMARK Flexibility Score: inf
ROOT
ATOM      1  C   UNL     1     124.550 121.619 141.804  1.00  0.00     0.138 A 
ATOM      2  C   UNL     1     123.517 122.540 142.026  1.00  0.00     0.100 A 
ATOM      3  C   UNL     1     122.851 122.549 143.253  1.00  0.00     0.197 A 
ATOM      4  O   UNL     1     121.972 123.428 143.444  1.00  0.00    -0.289 OA
ATOM      5  C   UNL     1     123.201 121.608 144.250  1.00  0.00     0.107 A 
ATOM      6  C   UNL     1     122.565 121.497 145.522  1.00  0.00     0.134 A 
ATOM      7  C   UNL     1     123.074 120.605 146.473  1.00  0.00     0.093 A 
ATOM      8  C   UNL     1     124.160 119.777 146.177  1.00  0.00     0.123 A 
ATOM      9  C   UNL     1     124.754 119.840 144.919  1.00  0.00     0.094 A 
ATOM     10  C   UNL     1     124.291 120.745 143.960  1.00  0.00     0.146 A 
ATOM     11  O   UNL     1     124.896 120.782 142.777  1.00  0.00    -0.456 OA
ENDROOT
BRANCH   1  12
ATOM     12  C   UNL     1     125.290 121.564 140.518  1.00  0.00     0.021 A 
ATOM     13  C   UNL     1     124.972 122.475 139.499  1.00  0.00     0.016 A 
ATOM     14  C   UNL     1     125.657 122.448 138.283  1.00  0.00     0.051 A 
ATOM     15  C   UNL     1     126.679 121.521 138.060  1.00  0.00     0.157 A 
ATOM     16  C   UNL     1     126.329 120.640 140.301  1.00  0.00     0.062 A 
ATOM     17  C   UNL     1     127.024 120.608 139.084  1.00  0.00     0.158 A 
BRANCH  15  18
ATOM     18  O   UNL     1     127.322 121.543 136.821  1.00  0.00    -0.504 OA
ATOM     19  H   UNL     1     128.077 120.924 136.565  1.00  0.00     0.293 HD
ENDBRANCH  15  18
BRANCH  17  20
ATOM     20  O   UNL     1     128.044 119.666 138.941  1.00  0.00    -0.504 OA
ATOM     21  H   UNL     1     128.929 119.714 139.424  1.00  0.00     0.293 HD
ENDBRANCH  17  20
ENDBRANCH   1  12
BRANCH   6  22
ATOM     22  O   UNL     1     121.422 122.215 145.888  1.00  0.00    -0.507 OA
ATOM     23  H   UNL     1     121.374 122.871 146.653  1.00  0.00     0.293 HD
ENDBRANCH   6  22
BRANCH   8  24
ATOM     24  O   UNL     1     124.651 118.881 147.125  1.00  0.00    -0.508 OA
ATOM     25  H   UNL     1     125.614 118.566 147.107  1.00  0.00     0.293 HD
ENDBRANCH   8  24
TORSDOF 5
ENDMDL
MODEL 7
REMARK VINA RESULT:    -4.976      2.341      7.136
REMARK INTER + INTRA:          -6.166
REMARK INTER:                  -5.851
REMARK INTRA:                  -0.316
REMARK UNBOUND:                -0.318
REMARK SMILES O=c1cc(-c2ccc(O)c(O)c2)oc2cc(O)cc(O)c12
REMARK SMILES IDX 4 1 3 2 2 3 1 4 21 5 19 6 18 7 16 8 15 9 14 10 13 11 5 12
REMARK SMILES IDX 6 13 7 14 8 15 12 16 10 17 9 18 11 20 20 22 17 24
REMARK H PARENT 9 19 11 21 20 23 17 25
REMARK Flexibility Score: inf
ROOT
ATOM      1  C   UNL     1     133.270 137.007 136.482  1.00  0.00     0.138 A 
ATOM      2  C   UNL     1     133.237 136.055 135.453  1.00  0.00     0.100 A 
ATOM      3  C   UNL     1     132.043 135.819 134.770  1.00  0.00     0.197 A 
ATOM      4  O   UNL     1     132.059 135.004 133.811  1.00  0.00    -0.289 OA
ATOM      5  C   UNL     1     130.869 136.517 135.141  1.00  0.00     0.107 A 
ATOM      6  C   UNL     1     129.588 136.328 134.543  1.00  0.00     0.134 A 
ATOM      7  C   UNL     1     128.525 137.160 134.914  1.00  0.00     0.093 A 
ATOM      8  C   UNL     1     128.682 138.133 135.904  1.00  0.00     0.123 A 
ATOM      9  C   UNL     1     129.914 138.289 136.532  1.00  0.00     0.094 A 
ATOM     10  C   UNL     1     131.005 137.498 136.160  1.00  0.00     0.146 A 
ATOM     11  O   UNL     1     132.167 137.689 136.774  1.00  0.00    -0.456 OA
ENDROOT
BRANCH   1  12
ATOM     12  C   UNL     1     134.513 137.297 137.242  1.00  0.00     0.021 A 
ATOM     13  C   UNL     1     135.742 136.813 136.768  1.00  0.00     0.016 A 
ATOM     14  C   UNL     1     136.924 137.077 137.461  1.00  0.00     0.051 A 
ATOM     15  C   UNL     1     136.909 137.836 138.635  1.00  0.00     0.157 A 
ATOM     16  C   UNL     1     134.497 138.073 138.415  1.00  0.00     0.062 A 
ATOM     17  C   UNL     1     135.680 138.346 139.117  1.00  0.00     0.158 A 
BRANCH  15  18
ATOM     18  O   UNL     1     138.124 138.060 139.284  1.00  0.00    -0.504 OA
ATOM     19  H   UNL     1     138.782 138.779 139.020  1.00  0.00     0.293 HD
ENDBRANCH  15  18
BRANCH  17  20
ATOM     20  O   UNL     1     135.588 139.125 140.271  1.00  0.00    -0.504 OA
ATOM     21  H   UNL     1     134.798 139.112 140.900  1.00  0.00     0.293 HD
ENDBRANCH  17  20
ENDBRANCH   1  12
BRANCH   6  22
ATOM     22  O   UNL     1     129.303 135.330 133.607  1.00  0.00    -0.507 OA
ATOM     23  H   UNL     1     128.965 134.407 133.833  1.00  0.00     0.293 HD
ENDBRANCH   6  22
BRANCH   8  24
ATOM     24  O   UNL     1     127.613 138.946 136.278  1.00  0.00    -0.508 OA
ATOM     25  H   UNL     1     127.754 139.791 136.820  1.00  0.00     0.293 HD
ENDBRANCH   8  24
TORSDOF 5
ENDMDL
MODEL 8
REMARK VINA RESULT:    -4.974      1.945      3.562
REMARK INTER + INTRA:          -6.164
REMARK INTER:                  -5.868
REMARK INTRA:                  -0.296
REMARK UNBOUND:                -0.318
REMARK SMILES O=c1cc(-c2ccc(O)c(O)c2)oc2cc(O)cc(O)c12
REMARK SMILES IDX 4 1 3 2 2 3 1 4 21 5 19 6 18 7 16 8 15 9 14 10 13 11 5 12
REMARK SMILES IDX 6 13 7 14 8 15 12 16 10 17 9 18 11 20 20 22 17 24
REMARK H PARENT 9 19 11 21 20 23 17 25
REMARK Flexibility Score: inf
ROOT
ATOM      1  C   UNL     1     132.697 137.106 135.838  1.00  0.00     0.138 A 
ATOM      2  C   UNL     1     133.718 136.781 134.934  1.00  0.00     0.100 A 
ATOM      3  C   UNL     1     135.049 137.016 135.283  1.00  0.00     0.197 A 
ATOM      4  O   UNL     1     135.946 136.656 134.477  1.00  0.00    -0.289 OA
ATOM      5  C   UNL     1     135.356 137.610 136.530  1.00  0.00     0.107 A 
ATOM      6  C   UNL     1     136.672 137.933 136.974  1.00  0.00     0.134 A 
ATOM      7  C   UNL     1     136.863 138.411 138.276  1.00  0.00     0.093 A 
ATOM      8  C   UNL     1     135.778 138.634 139.129  1.00  0.00     0.123 A 
ATOM      9  C   UNL     1     134.485 138.373 138.685  1.00  0.00     0.094 A 
ATOM     10  C   UNL     1     134.264 137.862 137.403  1.00  0.00     0.146 A 
ATOM     11  O   UNL     1     133.015 137.613 137.025  1.00  0.00    -0.456 OA
ENDROOT
BRANCH   1  12
ATOM     12  C   UNL     1     131.265 136.879 135.518  1.00  0.00     0.021 A 
ATOM     13  C   UNL     1     130.881 135.695 134.870  1.00  0.00     0.016 A 
ATOM     14  C   UNL     1     129.540 135.455 134.564  1.00  0.00     0.051 A 
ATOM     15  C   UNL     1     128.553 136.384 134.905  1.00  0.00     0.157 A 
ATOM     16  C   UNL     1     130.271 137.809 135.875  1.00  0.00     0.062 A 
ATOM     17  C   UNL     1     128.922 137.575 135.574  1.00  0.00     0.158 A 
BRANCH  15  18
ATOM     18  O   UNL     1     127.232 136.087 134.566  1.00  0.00    -0.504 OA
ATOM     19  H   UNL     1     126.430 136.578 134.934  1.00  0.00     0.293 HD
ENDBRANCH  15  18
BRANCH  17  20
ATOM     20  O   UNL     1     127.991 138.541 135.962  1.00  0.00    -0.504 OA
ATOM     21  H   UNL     1     127.316 138.410 136.701  1.00  0.00     0.293 HD
ENDBRANCH  17  20
ENDBRANCH   1  12
BRANCH   6  22
ATOM     22  O   UNL     1     137.814 137.829 136.174  1.00  0.00    -0.507 OA
ATOM     23  H   UNL     1     138.310 136.971 135.986  1.00  0.00     0.293 HD
ENDBRANCH   6  22
BRANCH   8  24
ATOM     24  O   UNL     1     135.977 139.125 140.418  1.00  0.00    -0.508 OA
ATOM     25  H   UNL     1     136.025 138.506 141.219  1.00  0.00     0.293 HD
ENDBRANCH   8  24
TORSDOF 5
ENDMDL
MODEL 9
REMARK VINA RESULT:    -4.931     14.654     17.605
REMARK INTER + INTRA:          -6.114
REMARK INTER:                  -5.825
REMARK INTRA:                  -0.288
REMARK UNBOUND:                -0.318
REMARK SMILES O=c1cc(-c2ccc(O)c(O)c2)oc2cc(O)cc(O)c12
REMARK SMILES IDX 4 1 3 2 2 3 1 4 21 5 19 6 18 7 16 8 15 9 14 10 13 11 5 12
REMARK SMILES IDX 6 13 7 14 8 15 12 16 10 17 9 18 11 20 20 22 17 24
REMARK H PARENT 9 19 11 21 20 23 17 25
REMARK Flexibility Score: inf
ROOT
ATOM      1  C   UNL     1     122.494 127.054 129.079  1.00  0.00     0.138 A 
ATOM      2  C   UNL     1     122.750 128.016 128.092  1.00  0.00     0.100 A 
ATOM      3  C   UNL     1     123.708 129.004 128.324  1.00  0.00     0.197 A 
ATOM      4  O   UNL     1     123.960 129.815 127.396  1.00  0.00    -0.289 OA
ATOM      5  C   UNL     1     124.390 129.047 129.564  1.00  0.00     0.107 A 
ATOM      6  C   UNL     1     125.356 130.032 129.926  1.00  0.00     0.134 A 
ATOM      7  C   UNL     1     126.050 129.905 131.135  1.00  0.00     0.093 A 
ATOM      8  C   UNL     1     125.770 128.862 132.022  1.00  0.00     0.123 A 
ATOM      9  C   UNL     1     124.790 127.926 131.701  1.00  0.00     0.094 A 
ATOM     10  C   UNL     1     124.104 128.005 130.486  1.00  0.00     0.146 A 
ATOM     11  O   UNL     1     123.187 127.083 130.213  1.00  0.00    -0.456 OA
ENDROOT
BRANCH   1  12
ATOM     12  C   UNL     1     121.485 125.982 128.886  1.00  0.00     0.021 A 
ATOM     13  C   UNL     1     120.199 126.317 128.435  1.00  0.00     0.016 A 
ATOM     14  C   UNL     1     119.234 125.327 128.240  1.00  0.00     0.051 A 
ATOM     15  C   UNL     1     119.533 123.982 128.481  1.00  0.00     0.157 A 
ATOM     16  C   UNL     1     121.792 124.628 129.114  1.00  0.00     0.062 A 
ATOM     17  C   UNL     1     120.830 123.626 128.918  1.00  0.00     0.158 A 
BRANCH  15  18
ATOM     18  O   UNL     1     118.523 123.041 128.272  1.00  0.00    -0.504 OA
ATOM     19  H   UNL     1     117.669 123.232 127.768  1.00  0.00     0.293 HD
ENDBRANCH  15  18
BRANCH  17  20
ATOM     20  O   UNL     1     121.207 122.304 129.162  1.00  0.00    -0.504 OA
ATOM     21  H   UNL     1     121.605 121.693 128.465  1.00  0.00     0.293 HD
ENDBRANCH  17  20
ENDBRANCH   1  12
BRANCH   6  22
ATOM     22  O   UNL     1     125.650 131.159 129.153  1.00  0.00    -0.507 OA
ATOM     23  H   UNL     1     125.623 131.190 128.145  1.00  0.00     0.293 HD
ENDBRANCH   6  22
BRANCH   8  24
ATOM     24  O   UNL     1     126.456 128.752 133.230  1.00  0.00    -0.508 OA
ATOM     25  H   UNL     1     127.413 128.422 133.268  1.00  0.00     0.293 HD
ENDBRANCH   8  24
TORSDOF 5
ENDMDL
