MODEL 1
REMARK VINA RESULT:    -1.748      0.000      0.000
REMARK INTER + INTRA:          -5.869
REMARK INTER:                  -4.405
REMARK INTRA:                  -1.464
REMARK UNBOUND:                -1.464
REMARK SMILES CCCCCCCCCCCCCCCCCCCCCCCCCCCC(=O)[O-]
REMARK SMILES IDX 15 1 16 2 17 3 18 4 19 5 20 6 21 7 22 8 23 9 24 10 25 11
REMARK SMILES IDX 26 12 27 13 28 14 29 15 30 16 14 17 13 18 12 19 11 20 10 21
REMARK SMILES IDX 9 22 8 23 7 24 6 25 5 26 4 27 3 28 2 29 1 30
REMARK H PARENT
REMARK Flexibility Score: inf
ROOT
ATOM      1  C   UNL     1     -22.105   4.443   8.784  1.00  0.00     0.000 C 
ENDROOT
BRANCH   1   2
ATOM      2  C   UNL     1     -21.091   3.301   8.998  1.00  0.00     0.000 C 
BRANCH   2   3
ATOM      3  C   UNL     1     -21.769   1.994   9.449  1.00  0.00     0.000 C 
BRANCH   3   4
ATOM      4  C   UNL     1     -22.244   2.054  10.911  1.00  0.00     0.000 C 
BRANCH   4   5
ATOM      5  C   UNL     1     -21.109   1.762  11.904  1.00  0.00     0.000 C 
BRANCH   5   6
ATOM      6  C   UNL     1     -21.626   0.966  13.114  1.00  0.00     0.000 C 
BRANCH   6   7
ATOM      7  C   UNL     1     -20.551   0.059  13.732  1.00  0.00     0.000 C 
BRANCH   7   8
ATOM      8  C   UNL     1     -21.083  -1.343  14.081  1.00  0.00     0.000 C 
BRANCH   8   9
ATOM      9  C   UNL     1     -21.047  -2.297  12.875  1.00  0.00     0.000 C 
BRANCH   9  10
ATOM     10  C   UNL     1     -20.087  -1.820  11.774  1.00  0.00     0.000 C 
BRANCH  10  11
ATOM     11  C   UNL     1     -20.269  -2.651  10.494  1.00  0.00     0.000 C 
BRANCH  11  12
ATOM     12  C   UNL     1     -19.630  -1.994   9.260  1.00  0.00     0.006 C 
BRANCH  12  13
ATOM     13  C   UNL     1     -20.358  -0.717   8.822  1.00  0.00     0.053 C 
BRANCH  13  14
ATOM     14  C   UNL     1     -20.283  -0.545   7.338  1.00  0.00     0.041 C 
ATOM     15  O   UNL     1     -20.752   0.491   6.793  1.00  0.00    -0.550 OA
ATOM     16  O   UNL     1     -19.703  -1.533   6.552  1.00  0.00    -0.550 OA
ENDBRANCH  13  14
ENDBRANCH  12  13
ENDBRANCH  11  12
ENDBRANCH  10  11
ENDBRANCH   9  10
ENDBRANCH   8   9
ENDBRANCH   7   8
ENDBRANCH   6   7
ENDBRANCH   5   6
ENDBRANCH   4   5
ENDBRANCH   3   4
ENDBRANCH   2   3
ENDBRANCH   1   2
BRANCH   1  17
ATOM     17  C   UNL     1     -21.577   5.830   9.189  1.00  0.00     0.000 C 
BRANCH  17  18
ATOM     18  C   UNL     1     -20.238   5.770   9.937  1.00  0.00     0.000 C 
BRANCH  18  19
ATOM     19  C   UNL     1     -19.350   6.971   9.578  1.00  0.00     0.000 C 
BRANCH  19  20
ATOM     20  C   UNL     1     -18.016   6.974  10.343  1.00  0.00     0.000 C 
BRANCH  20  21
ATOM     21  C   UNL     1     -16.944   7.845   9.663  1.00  0.00     0.000 C 
BRANCH  21  22
ATOM     22  C   UNL     1     -16.236   8.786  10.653  1.00  0.00    -0.000 C 
BRANCH  22  23
ATOM     23  C   UNL     1     -15.302   9.784   9.951  1.00  0.00    -0.000 C 
BRANCH  23  24
ATOM     24  C   UNL     1     -14.461  10.566  10.970  1.00  0.00    -0.000 C 
BRANCH  24  25
ATOM     25  C   UNL     1     -14.980  10.415  12.413  1.00  0.00    -0.000 C 
BRANCH  25  26
ATOM     26  C   UNL     1     -13.885  10.273  13.490  1.00  0.00    -0.000 C 
BRANCH  26  27
ATOM     27  C   UNL     1     -12.575  11.023  13.190  1.00  0.00    -0.000 C 
BRANCH  27  28
ATOM     28  C   UNL     1     -11.349  10.356  13.837  1.00  0.00    -0.000 C 
BRANCH  28  29
ATOM     29  C   UNL     1     -10.024  10.909  13.290  1.00  0.00    -0.003 C 
ATOM     30  C   UNL     1      -9.981  10.930  11.762  1.00  0.00     0.004 C 
ENDBRANCH  28  29
ENDBRANCH  27  28
ENDBRANCH  26  27
ENDBRANCH  25  26
ENDBRANCH  24  25
ENDBRANCH  23  24
ENDBRANCH  22  23
ENDBRANCH  21  22
ENDBRANCH  20  21
ENDBRANCH  19  20
ENDBRANCH  18  19
ENDBRANCH  17  18
ENDBRANCH   1  17
TORSDOF 26
ENDMDL
MODEL 2
REMARK VINA RESULT:    -1.235      4.135     11.655
REMARK INTER + INTRA:          -4.578
REMARK INTER:                  -2.200
REMARK INTRA:                  -2.378
REMARK UNBOUND:                -1.464
REMARK SMILES CCCCCCCCCCCCCCCCCCCCCCCCCCCC(=O)[O-]
REMARK SMILES IDX 15 1 16 2 17 3 18 4 19 5 20 6 21 7 22 8 23 9 24 10 25 11
REMARK SMILES IDX 26 12 27 13 28 14 29 15 30 16 14 17 13 18 12 19 11 20 10 21
REMARK SMILES IDX 9 22 8 23 7 24 6 25 5 26 4 27 3 28 2 29 1 30
REMARK H PARENT
REMARK Flexibility Score: inf
ROOT
ATOM      1  C   UNL     1     -21.588   3.277   8.604  1.00  0.00     0.000 C 
ENDROOT
BRANCH   1   2
ATOM      2  C   UNL     1     -22.009   4.493   9.455  1.00  0.00     0.000 C 
BRANCH   2   3
ATOM      3  C   UNL     1     -21.636   5.830   8.789  1.00  0.00     0.000 C 
BRANCH   3   4
ATOM      4  C   UNL     1     -20.162   6.207   9.015  1.00  0.00     0.000 C 
BRANCH   4   5
ATOM      5  C   UNL     1     -19.697   5.905  10.447  1.00  0.00     0.000 C 
BRANCH   5   6
ATOM      6  C   UNL     1     -18.429   6.699  10.795  1.00  0.00     0.000 C 
BRANCH   6   7
ATOM      7  C   UNL     1     -18.129   7.816   9.783  1.00  0.00     0.000 C 
BRANCH   7   8
ATOM      8  C   UNL     1     -16.622   8.081   9.615  1.00  0.00     0.000 C 
BRANCH   8   9
ATOM      9  C   UNL     1     -16.071   9.021  10.701  1.00  0.00     0.000 C 
BRANCH   9  10
ATOM     10  C   UNL     1     -15.129  10.092  10.131  1.00  0.00     0.000 C 
BRANCH  10  11
ATOM     11  C   UNL     1     -14.642  11.037  11.241  1.00  0.00     0.000 C 
BRANCH  11  12
ATOM     12  C   UNL     1     -14.513  10.339  12.605  1.00  0.00     0.006 C 
BRANCH  12  13
ATOM     13  C   UNL     1     -13.642  11.124  13.594  1.00  0.00     0.053 C 
BRANCH  13  14
ATOM     14  C   UNL     1     -12.247  10.583  13.617  1.00  0.00     0.041 C 
ATOM     15  O   UNL     1     -11.464  10.802  12.653  1.00  0.00    -0.550 OA
ATOM     16  O   UNL     1     -11.813   9.826  14.697  1.00  0.00    -0.550 OA
ENDBRANCH  13  14
ENDBRANCH  12  13
ENDBRANCH  11  12
ENDBRANCH  10  11
ENDBRANCH   9  10
ENDBRANCH   8   9
ENDBRANCH   7   8
ENDBRANCH   6   7
ENDBRANCH   5   6
ENDBRANCH   4   5
ENDBRANCH   3   4
ENDBRANCH   2   3
ENDBRANCH   1   2
BRANCH   1  17
ATOM     17  C   UNL     1     -21.604   1.944   9.371  1.00  0.00     0.000 C 
BRANCH  17  18
ATOM     18  C   UNL     1     -20.830   2.001  10.695  1.00  0.00     0.000 C 
BRANCH  18  19
ATOM     19  C   UNL     1     -21.763   1.757  11.892  1.00  0.00     0.000 C 
BRANCH  19  20
ATOM     20  C   UNL     1     -21.005   1.658  13.226  1.00  0.00     0.000 C 
BRANCH  20  21
ATOM     21  C   UNL     1     -21.406   0.419  14.046  1.00  0.00     0.000 C 
BRANCH  21  22
ATOM     22  C   UNL     1     -20.496  -0.791  13.768  1.00  0.00    -0.000 C 
BRANCH  22  23
ATOM     23  C   UNL     1     -21.261  -1.975  13.156  1.00  0.00    -0.000 C 
BRANCH  23  24
ATOM     24  C   UNL     1     -20.412  -2.697  12.100  1.00  0.00    -0.000 C 
BRANCH  24  25
ATOM     25  C   UNL     1     -19.912  -1.753  10.990  1.00  0.00    -0.000 C 
BRANCH  25  26
ATOM     26  C   UNL     1     -20.167  -2.244   9.550  1.00  0.00    -0.000 C 
BRANCH  26  27
ATOM     27  C   UNL     1     -19.693  -1.286   8.442  1.00  0.00    -0.000 C 
BRANCH  27  28
ATOM     28  C   UNL     1     -20.599  -1.323   7.199  1.00  0.00    -0.000 C 
BRANCH  28  29
ATOM     29  C   UNL     1     -20.711   0.048   6.514  1.00  0.00    -0.003 C 
ATOM     30  C   UNL     1     -19.517   0.955   6.813  1.00  0.00     0.004 C 
ENDBRANCH  28  29
ENDBRANCH  27  28
ENDBRANCH  26  27
ENDBRANCH  25  26
ENDBRANCH  24  25
ENDBRANCH  23  24
ENDBRANCH  22  23
ENDBRANCH  21  22
ENDBRANCH  20  21
ENDBRANCH  19  20
ENDBRANCH  18  19
ENDBRANCH  17  18
ENDBRANCH   1  17
TORSDOF 26
ENDMDL
MODEL 3
REMARK VINA RESULT:    -1.046      3.558      4.992
REMARK INTER + INTRA:          -4.101
REMARK INTER:                  -3.345
REMARK INTRA:                  -0.756
REMARK UNBOUND:                -1.464
REMARK SMILES CCCCCCCCCCCCCCCCCCCCCCCCCCCC(=O)[O-]
REMARK SMILES IDX 15 1 16 2 17 3 18 4 19 5 20 6 21 7 22 8 23 9 24 10 25 11
REMARK SMILES IDX 26 12 27 13 28 14 29 15 30 16 14 17 13 18 12 19 11 20 10 21
REMARK SMILES IDX 9 22 8 23 7 24 6 25 5 26 4 27 3 28 2 29 1 30
REMARK H PARENT
REMARK Flexibility Score: inf
ROOT
ATOM      1  C   UNL     1     -21.413   1.898   8.842  1.00  0.00     0.000 C 
ENDROOT
BRANCH   1   2
ATOM      2  C   UNL     1     -20.486   1.747   7.618  1.00  0.00     0.000 C 
BRANCH   2   3
ATOM      3  C   UNL     1     -20.755   0.447   6.838  1.00  0.00     0.000 C 
BRANCH   3   4
ATOM      4  C   UNL     1     -20.082  -0.775   7.486  1.00  0.00     0.000 C 
BRANCH   4   5
ATOM      5  C   UNL     1     -20.455  -0.927   8.968  1.00  0.00     0.000 C 
BRANCH   5   6
ATOM      6  C   UNL     1     -19.804  -2.181   9.574  1.00  0.00     0.000 C 
BRANCH   6   7
ATOM      7  C   UNL     1     -19.409  -3.219   8.513  1.00  0.00     0.000 C 
BRANCH   7   8
ATOM      8  C   UNL     1     -18.729  -4.461   9.118  1.00  0.00     0.000 C 
BRANCH   8   9
ATOM      9  C   UNL     1     -19.330  -5.772   8.582  1.00  0.00     0.000 C 
BRANCH   9  10
ATOM     10  C   UNL     1     -20.857  -5.704   8.434  1.00  0.00     0.000 C 
BRANCH  10  11
ATOM     11  C   UNL     1     -21.532  -6.858   9.194  1.00  0.00     0.000 C 
BRANCH  11  12
ATOM     12  C   UNL     1     -23.026  -6.999   8.861  1.00  0.00     0.006 C 
BRANCH  12  13
ATOM     13  C   UNL     1     -23.408  -8.421   8.435  1.00  0.00     0.053 C 
BRANCH  13  14
ATOM     14  C   UNL     1     -24.847  -8.485   8.028  1.00  0.00     0.041 C 
ATOM     15  O   UNL     1     -25.694  -9.048   8.773  1.00  0.00    -0.550 OA
ATOM     16  O   UNL     1     -25.253  -7.933   6.820  1.00  0.00    -0.550 OA
ENDBRANCH  13  14
ENDBRANCH  12  13
ENDBRANCH  11  12
ENDBRANCH  10  11
ENDBRANCH   9  10
ENDBRANCH   8   9
ENDBRANCH   7   8
ENDBRANCH   6   7
ENDBRANCH   5   6
ENDBRANCH   4   5
ENDBRANCH   3   4
ENDBRANCH   2   3
ENDBRANCH   1   2
BRANCH   1  17
ATOM     17  C   UNL     1     -21.357   3.288   9.499  1.00  0.00     0.000 C 
BRANCH  17  18
ATOM     18  C   UNL     1     -22.228   4.328   8.782  1.00  0.00     0.000 C 
BRANCH  18  19
ATOM     19  C   UNL     1     -21.738   5.755   9.072  1.00  0.00     0.000 C 
BRANCH  19  20
ATOM     20  C   UNL     1     -20.204   5.864   9.100  1.00  0.00     0.000 C 
BRANCH  20  21
ATOM     21  C   UNL     1     -19.666   6.323  10.467  1.00  0.00     0.000 C 
BRANCH  21  22
ATOM     22  C   UNL     1     -18.157   6.622  10.435  1.00  0.00    -0.000 C 
BRANCH  22  23
ATOM     23  C   UNL     1     -17.847   8.030   9.903  1.00  0.00    -0.000 C 
BRANCH  23  24
ATOM     24  C   UNL     1     -16.336   8.302   9.904  1.00  0.00    -0.000 C 
BRANCH  24  25
ATOM     25  C   UNL     1     -15.966   9.616  10.616  1.00  0.00    -0.000 C 
BRANCH  25  26
ATOM     26  C   UNL     1     -14.634  10.252  10.169  1.00  0.00    -0.000 C 
BRANCH  26  27
ATOM     27  C   UNL     1     -13.869  11.006  11.271  1.00  0.00    -0.000 C 
BRANCH  27  28
ATOM     28  C   UNL     1     -14.226  10.512  12.684  1.00  0.00    -0.000 C 
BRANCH  28  29
ATOM     29  C   UNL     1     -13.324  11.125  13.766  1.00  0.00    -0.003 C 
ATOM     30  C   UNL     1     -11.928  10.503  13.790  1.00  0.00     0.004 C 
ENDBRANCH  28  29
ENDBRANCH  27  28
ENDBRANCH  26  27
ENDBRANCH  25  26
ENDBRANCH  24  25
ENDBRANCH  23  24
ENDBRANCH  22  23
ENDBRANCH  21  22
ENDBRANCH  20  21
ENDBRANCH  19  20
ENDBRANCH  18  19
ENDBRANCH  17  18
ENDBRANCH   1  17
TORSDOF 26
ENDMDL
MODEL 4
REMARK VINA RESULT:    -0.954      4.125     11.288
REMARK INTER + INTRA:          -3.868
REMARK INTER:                  -1.889
REMARK INTRA:                  -1.979
REMARK UNBOUND:                -1.464
REMARK SMILES CCCCCCCCCCCCCCCCCCCCCCCCCCCC(=O)[O-]
REMARK SMILES IDX 15 1 16 2 17 3 18 4 19 5 20 6 21 7 22 8 23 9 24 10 25 11
REMARK SMILES IDX 26 12 27 13 28 14 29 15 30 16 14 17 13 18 12 19 11 20 10 21
REMARK SMILES IDX 9 22 8 23 7 24 6 25 5 26 4 27 3 28 2 29 1 30
REMARK H PARENT
REMARK Flexibility Score: inf
ROOT
ATOM      1  C   UNL     1     -20.962   1.162   8.981  1.00  0.00     0.000 C 
ENDROOT
BRANCH   1   2
ATOM      2  C   UNL     1     -21.704   2.431   9.448  1.00  0.00     0.000 C 
BRANCH   2   3
ATOM      3  C   UNL     1     -21.125   3.712   8.818  1.00  0.00     0.000 C 
BRANCH   3   4
ATOM      4  C   UNL     1     -22.008   4.944   9.079  1.00  0.00     0.000 C 
BRANCH   4   5
ATOM      5  C   UNL     1     -21.198   6.249   9.087  1.00  0.00     0.000 C 
BRANCH   5   6
ATOM      6  C   UNL     1     -19.927   6.104   9.940  1.00  0.00     0.000 C 
BRANCH   6   7
ATOM      7  C   UNL     1     -19.037   7.356   9.900  1.00  0.00     0.000 C 
BRANCH   7   8
ATOM      8  C   UNL     1     -17.598   7.081  10.373  1.00  0.00     0.000 C 
BRANCH   8   9
ATOM      9  C   UNL     1     -16.586   8.060   9.757  1.00  0.00     0.000 C 
BRANCH   9  10
ATOM     10  C   UNL     1     -15.976   9.011  10.798  1.00  0.00     0.000 C 
BRANCH  10  11
ATOM     11  C   UNL     1     -15.068  10.052  10.123  1.00  0.00     0.000 C 
BRANCH  11  12
ATOM     12  C   UNL     1     -14.548  11.117  11.103  1.00  0.00     0.006 C 
BRANCH  12  13
ATOM     13  C   UNL     1     -14.522  10.625  12.555  1.00  0.00     0.053 C 
BRANCH  13  14
ATOM     14  C   UNL     1     -13.175  10.846  13.166  1.00  0.00     0.041 C 
ATOM     15  O   UNL     1     -12.184  11.125  12.437  1.00  0.00    -0.550 OA
ATOM     16  O   UNL     1     -13.007  10.735  14.540  1.00  0.00    -0.550 OA
ENDBRANCH  13  14
ENDBRANCH  12  13
ENDBRANCH  11  12
ENDBRANCH  10  11
ENDBRANCH   9  10
ENDBRANCH   8   9
ENDBRANCH   7   8
ENDBRANCH   6   7
ENDBRANCH   5   6
ENDBRANCH   4   5
ENDBRANCH   3   4
ENDBRANCH   2   3
ENDBRANCH   1   2
BRANCH   1  17
ATOM     17  C   UNL     1     -20.370   1.272   7.565  1.00  0.00     0.000 C 
BRANCH  17  18
ATOM     18  C   UNL     1     -19.750  -0.042   7.068  1.00  0.00     0.000 C 
BRANCH  18  19
ATOM     19  C   UNL     1     -20.705  -1.224   7.294  1.00  0.00     0.000 C 
BRANCH  19  20
ATOM     20  C   UNL     1     -19.966  -2.558   7.484  1.00  0.00     0.000 C 
BRANCH  20  21
ATOM     21  C   UNL     1     -19.431  -2.742   8.915  1.00  0.00     0.000 C 
BRANCH  21  22
ATOM     22  C   UNL     1     -20.467  -2.355   9.985  1.00  0.00    -0.000 C 
BRANCH  22  23
ATOM     23  C   UNL     1     -19.917  -1.335  10.994  1.00  0.00    -0.000 C 
BRANCH  23  24
ATOM     24  C   UNL     1     -19.755  -1.966  12.385  1.00  0.00    -0.000 C 
BRANCH  24  25
ATOM     25  C   UNL     1     -21.101  -2.364  13.020  1.00  0.00    -0.000 C 
BRANCH  25  26
ATOM     26  C   UNL     1     -21.496  -1.560  14.275  1.00  0.00    -0.000 C 
BRANCH  26  27
ATOM     27  C   UNL     1     -20.432  -0.566  14.774  1.00  0.00    -0.000 C 
BRANCH  27  28
ATOM     28  C   UNL     1     -20.831   0.900  14.532  1.00  0.00    -0.000 C 
BRANCH  28  29
ATOM     29  C   UNL     1     -21.325   1.145  13.097  1.00  0.00    -0.003 C 
ATOM     30  C   UNL     1     -20.775   2.439  12.499  1.00  0.00     0.004 C 
ENDBRANCH  28  29
ENDBRANCH  27  28
ENDBRANCH  26  27
ENDBRANCH  25  26
ENDBRANCH  24  25
ENDBRANCH  23  24
ENDBRANCH  22  23
ENDBRANCH  21  22
ENDBRANCH  20  21
ENDBRANCH  19  20
ENDBRANCH  18  19
ENDBRANCH  17  18
ENDBRANCH   1  17
TORSDOF 26
ENDMDL
MODEL 5
REMARK VINA RESULT:    -0.613      1.866      3.526
REMARK INTER + INTRA:          -3.010
REMARK INTER:                  -1.989
REMARK INTRA:                  -1.021
REMARK UNBOUND:                -1.464
REMARK SMILES CCCCCCCCCCCCCCCCCCCCCCCCCCCC(=O)[O-]
REMARK SMILES IDX 15 1 16 2 17 3 18 4 19 5 20 6 21 7 22 8 23 9 24 10 25 11
REMARK SMILES IDX 26 12 27 13 28 14 29 15 30 16 14 17 13 18 12 19 11 20 10 21
REMARK SMILES IDX 9 22 8 23 7 24 6 25 5 26 4 27 3 28 2 29 1 30
REMARK H PARENT
REMARK Flexibility Score: inf
ROOT
ATOM      1  C   UNL     1     -22.247   3.700   9.270  1.00  0.00     0.000 C 
ENDROOT
BRANCH   1   2
ATOM      2  C   UNL     1     -21.150   2.642   9.032  1.00  0.00     0.000 C 
BRANCH   2   3
ATOM      3  C   UNL     1     -20.810   2.477   7.539  1.00  0.00     0.000 C 
BRANCH   3   4
ATOM      4  C   UNL     1     -20.286   1.070   7.209  1.00  0.00     0.000 C 
BRANCH   4   5
ATOM      5  C   UNL     1     -20.395   0.113   8.405  1.00  0.00     0.000 C 
BRANCH   5   6
ATOM      6  C   UNL     1     -20.808  -1.296   7.950  1.00  0.00     0.000 C 
BRANCH   6   7
ATOM      7  C   UNL     1     -19.679  -2.326   8.104  1.00  0.00     0.000 C 
BRANCH   7   8
ATOM      8  C   UNL     1     -19.246  -2.523   9.568  1.00  0.00     0.000 C 
BRANCH   8   9
ATOM      9  C   UNL     1     -20.431  -2.433  10.543  1.00  0.00     0.000 C 
BRANCH   9  10
ATOM     10  C   UNL     1     -20.074  -1.685  11.837  1.00  0.00     0.000 C 
BRANCH  10  11
ATOM     11  C   UNL     1     -20.908  -2.209  13.018  1.00  0.00     0.000 C 
BRANCH  11  12
ATOM     12  C   UNL     1     -21.454  -1.082  13.910  1.00  0.00     0.006 C 
BRANCH  12  13
ATOM     13  C   UNL     1     -20.487   0.102  14.030  1.00  0.00     0.053 C 
BRANCH  13  14
ATOM     14  C   UNL     1     -20.994   1.281  13.260  1.00  0.00     0.041 C 
ATOM     15  O   UNL     1     -21.568   1.115  12.150  1.00  0.00    -0.550 OA
ATOM     16  O   UNL     1     -20.822   2.564  13.762  1.00  0.00    -0.550 OA
ENDBRANCH  13  14
ENDBRANCH  12  13
ENDBRANCH  11  12
ENDBRANCH  10  11
ENDBRANCH   9  10
ENDBRANCH   8   9
ENDBRANCH   7   8
ENDBRANCH   6   7
ENDBRANCH   5   6
ENDBRANCH   4   5
ENDBRANCH   3   4
ENDBRANCH   2   3
ENDBRANCH   1   2
BRANCH   1  17
ATOM     17  C   UNL     1     -21.882   5.103   8.754  1.00  0.00     0.000 C 
BRANCH  17  18
ATOM     18  C   UNL     1     -20.406   5.461   8.975  1.00  0.00     0.000 C 
BRANCH  18  19
ATOM     19  C   UNL     1     -20.205   6.175  10.320  1.00  0.00     0.000 C 
BRANCH  19  20
ATOM     20  C   UNL     1     -18.743   6.582  10.565  1.00  0.00     0.000 C 
BRANCH  20  21
ATOM     21  C   UNL     1     -18.244   7.637   9.562  1.00  0.00     0.000 C 
BRANCH  21  22
ATOM     22  C   UNL     1     -17.436   8.757  10.240  1.00  0.00    -0.000 C 
BRANCH  22  23
ATOM     23  C   UNL     1     -15.924   8.478  10.236  1.00  0.00    -0.000 C 
BRANCH  23  24
ATOM     24  C   UNL     1     -15.136   9.710   9.769  1.00  0.00    -0.000 C 
BRANCH  24  25
ATOM     25  C   UNL     1     -15.123  10.842  10.815  1.00  0.00    -0.000 C 
BRANCH  25  26
ATOM     26  C   UNL     1     -13.824  10.958  11.638  1.00  0.00    -0.000 C 
BRANCH  26  27
ATOM     27  C   UNL     1     -14.028  11.122  13.155  1.00  0.00    -0.000 C 
BRANCH  27  28
ATOM     28  C   UNL     1     -13.163  10.151  13.977  1.00  0.00    -0.000 C 
BRANCH  28  29
ATOM     29  C   UNL     1     -11.789  10.744  14.330  1.00  0.00    -0.003 C 
ATOM     30  C   UNL     1     -10.732  10.454  13.265  1.00  0.00     0.004 C 
ENDBRANCH  28  29
ENDBRANCH  27  28
ENDBRANCH  26  27
ENDBRANCH  25  26
ENDBRANCH  24  25
ENDBRANCH  23  24
ENDBRANCH  22  23
ENDBRANCH  21  22
ENDBRANCH  20  21
ENDBRANCH  19  20
ENDBRANCH  18  19
ENDBRANCH  17  18
ENDBRANCH   1  17
TORSDOF 26
ENDMDL
MODEL 6
REMARK VINA RESULT:    -0.390      1.075      2.225
REMARK INTER + INTRA:          -2.448
REMARK INTER:                  -0.592
REMARK INTRA:                  -1.856
REMARK UNBOUND:                -1.464
REMARK SMILES CCCCCCCCCCCCCCCCCCCCCCCCCCCC(=O)[O-]
REMARK SMILES IDX 15 1 16 2 17 3 18 4 19 5 20 6 21 7 22 8 23 9 24 10 25 11
REMARK SMILES IDX 26 12 27 13 28 14 29 15 30 16 14 17 13 18 12 19 11 20 10 21
REMARK SMILES IDX 9 22 8 23 7 24 6 25 5 26 4 27 3 28 2 29 1 30
REMARK H PARENT
REMARK Flexibility Score: inf
ROOT
ATOM      1  C   UNL     1     -21.466   2.038   8.911  1.00  0.00     0.000 C 
ENDROOT
BRANCH   1   2
ATOM      2  C   UNL     1     -22.116   1.941  10.307  1.00  0.00     0.000 C 
BRANCH   2   3
ATOM      3  C   UNL     1     -21.070   1.821  11.431  1.00  0.00     0.000 C 
BRANCH   3   4
ATOM      4  C   UNL     1     -21.716   1.707  12.822  1.00  0.00     0.000 C 
BRANCH   4   5
ATOM      5  C   UNL     1     -20.786   1.033  13.842  1.00  0.00     0.000 C 
BRANCH   5   6
ATOM      6  C   UNL     1     -21.467  -0.182  14.491  1.00  0.00     0.000 C 
BRANCH   6   7
ATOM      7  C   UNL     1     -20.643  -1.471  14.353  1.00  0.00     0.000 C 
BRANCH   7   8
ATOM      8  C   UNL     1     -20.982  -2.262  13.076  1.00  0.00     0.000 C 
BRANCH   8   9
ATOM      9  C   UNL     1     -20.019  -1.944  11.920  1.00  0.00     0.000 C 
BRANCH   9  10
ATOM     10  C   UNL     1     -20.574  -2.374  10.554  1.00  0.00     0.000 C 
BRANCH  10  11
ATOM     11  C   UNL     1     -20.321  -1.289   9.495  1.00  0.00     0.000 C 
BRANCH  11  12
ATOM     12  C   UNL     1     -19.594  -1.827   8.251  1.00  0.00     0.006 C 
BRANCH  12  13
ATOM     13  C   UNL     1     -20.312  -1.469   6.944  1.00  0.00     0.053 C 
BRANCH  13  14
ATOM     14  C   UNL     1     -20.167  -0.010   6.641  1.00  0.00     0.041 C 
ATOM     15  O   UNL     1     -21.124   0.631   6.129  1.00  0.00    -0.550 OA
ATOM     16  O   UNL     1     -18.971   0.641   6.915  1.00  0.00    -0.550 OA
ENDBRANCH  13  14
ENDBRANCH  12  13
ENDBRANCH  11  12
ENDBRANCH  10  11
ENDBRANCH   9  10
ENDBRANCH   8   9
ENDBRANCH   7   8
ENDBRANCH   6   7
ENDBRANCH   5   6
ENDBRANCH   4   5
ENDBRANCH   3   4
ENDBRANCH   2   3
ENDBRANCH   1   2
BRANCH   1  17
ATOM     17  C   UNL     1     -21.278   3.481   8.410  1.00  0.00     0.000 C 
BRANCH  17  18
ATOM     18  C   UNL     1     -22.210   4.485   9.102  1.00  0.00     0.000 C 
BRANCH  18  19
ATOM     19  C   UNL     1     -21.600   5.895   9.105  1.00  0.00     0.000 C 
BRANCH  19  20
ATOM     20  C   UNL     1     -20.062   5.878   9.067  1.00  0.00     0.000 C 
BRANCH  20  21
ATOM     21  C   UNL     1     -19.431   6.387  10.375  1.00  0.00     0.000 C 
BRANCH  21  22
ATOM     22  C   UNL     1     -18.626   7.683  10.175  1.00  0.00    -0.000 C 
BRANCH  22  23
ATOM     23  C   UNL     1     -17.117   7.423  10.041  1.00  0.00    -0.000 C 
BRANCH  23  24
ATOM     24  C   UNL     1     -16.354   8.727   9.765  1.00  0.00    -0.000 C 
BRANCH  24  25
ATOM     25  C   UNL     1     -15.370   9.092  10.893  1.00  0.00    -0.000 C 
BRANCH  25  26
ATOM     26  C   UNL     1     -15.671  10.418  11.621  1.00  0.00    -0.000 C 
BRANCH  26  27
ATOM     27  C   UNL     1     -14.462  11.069  12.317  1.00  0.00    -0.000 C 
BRANCH  27  28
ATOM     28  C   UNL     1     -13.839  10.162  13.392  1.00  0.00    -0.000 C 
BRANCH  28  29
ATOM     29  C   UNL     1     -12.702  10.856  14.159  1.00  0.00    -0.003 C 
ATOM     30  C   UNL     1     -11.450   9.986  14.267  1.00  0.00     0.004 C 
ENDBRANCH  28  29
ENDBRANCH  27  28
ENDBRANCH  26  27
ENDBRANCH  25  26
ENDBRANCH  24  25
ENDBRANCH  23  24
ENDBRANCH  22  23
ENDBRANCH  21  22
ENDBRANCH  20  21
ENDBRANCH  19  20
ENDBRANCH  18  19
ENDBRANCH  17  18
ENDBRANCH   1  17
TORSDOF 26
ENDMDL
MODEL 7
REMARK VINA RESULT:    -0.301      7.347     10.258
REMARK INTER + INTRA:          -2.224
REMARK INTER:                   0.009
REMARK INTRA:                  -2.233
REMARK UNBOUND:                -1.464
REMARK SMILES CCCCCCCCCCCCCCCCCCCCCCCCCCCC(=O)[O-]
REMARK SMILES IDX 15 1 16 2 17 3 18 4 19 5 20 6 21 7 22 8 23 9 24 10 25 11
REMARK SMILES IDX 26 12 27 13 28 14 29 15 30 16 14 17 13 18 12 19 11 20 10 21
REMARK SMILES IDX 9 22 8 23 7 24 6 25 5 26 4 27 3 28 2 29 1 30
REMARK H PARENT
REMARK Flexibility Score: inf
ROOT
ATOM      1  C   UNL     1     -20.313  -1.660  10.693  1.00  0.00     0.000 C 
ENDROOT
BRANCH   1   2
ATOM      2  C   UNL     1     -19.162  -2.305   9.893  1.00  0.00     0.000 C 
BRANCH   2   3
ATOM      3  C   UNL     1     -19.670  -3.325   8.858  1.00  0.00     0.000 C 
BRANCH   3   4
ATOM      4  C   UNL     1     -18.650  -4.446   8.591  1.00  0.00     0.000 C 
BRANCH   4   5
ATOM      5  C   UNL     1     -19.276  -5.843   8.718  1.00  0.00     0.000 C 
BRANCH   5   6
ATOM      6  C   UNL     1     -20.759  -5.822   8.314  1.00  0.00     0.000 C 
BRANCH   6   7
ATOM      7  C   UNL     1     -21.662  -6.538   9.330  1.00  0.00     0.000 C 
BRANCH   7   8
ATOM      8  C   UNL     1     -23.052  -6.873   8.760  1.00  0.00     0.000 C 
BRANCH   8   9
ATOM      9  C   UNL     1     -23.249  -8.385   8.558  1.00  0.00     0.000 C 
BRANCH   9  10
ATOM     10  C   UNL     1     -24.578  -8.719   7.864  1.00  0.00     0.000 C 
BRANCH  10  11
ATOM     11  C   UNL     1     -25.655  -9.090   8.895  1.00  0.00     0.000 C 
BRANCH  11  12
ATOM     12  C   UNL     1     -26.122  -7.886   9.730  1.00  0.00     0.006 C 
BRANCH  12  13
ATOM     13  C   UNL     1     -26.972  -8.295  10.939  1.00  0.00     0.053 C 
BRANCH  13  14
ATOM     14  C   UNL     1     -27.072  -7.171  11.922  1.00  0.00     0.041 C 
ATOM     15  O   UNL     1     -26.847  -7.375  13.145  1.00  0.00    -0.550 OA
ATOM     16  O   UNL     1     -27.425  -5.899  11.490  1.00  0.00    -0.550 OA
ENDBRANCH  13  14
ENDBRANCH  12  13
ENDBRANCH  11  12
ENDBRANCH  10  11
ENDBRANCH   9  10
ENDBRANCH   8   9
ENDBRANCH   7   8
ENDBRANCH   6   7
ENDBRANCH   5   6
ENDBRANCH   4   5
ENDBRANCH   3   4
ENDBRANCH   2   3
ENDBRANCH   1   2
BRANCH   1  17
ATOM     17  C   UNL     1     -20.798  -2.508  11.882  1.00  0.00     0.000 C 
BRANCH  17  18
ATOM     18  C   UNL     1     -20.277  -2.002  13.234  1.00  0.00     0.000 C 
BRANCH  18  19
ATOM     19  C   UNL     1     -21.400  -1.971  14.282  1.00  0.00     0.000 C 
BRANCH  19  20
ATOM     20  C   UNL     1     -21.726  -0.547  14.764  1.00  0.00     0.000 C 
BRANCH  20  21
ATOM     21  C   UNL     1     -20.604   0.458  14.448  1.00  0.00     0.000 C 
BRANCH  21  22
ATOM     22  C   UNL     1     -21.070   1.586  13.511  1.00  0.00    -0.000 C 
BRANCH  22  23
ATOM     23  C   UNL     1     -21.527   1.061  12.141  1.00  0.00    -0.000 C 
BRANCH  23  24
ATOM     24  C   UNL     1     -21.387   2.143  11.060  1.00  0.00    -0.000 C 
BRANCH  24  25
ATOM     25  C   UNL     1     -21.456   1.570   9.631  1.00  0.00    -0.000 C 
BRANCH  25  26
ATOM     26  C   UNL     1     -21.310   2.610   8.501  1.00  0.00    -0.000 C 
BRANCH  26  27
ATOM     27  C   UNL     1     -20.575   2.109   7.245  1.00  0.00    -0.000 C 
BRANCH  27  28
ATOM     28  C   UNL     1     -19.669   0.900   7.533  1.00  0.00    -0.000 C 
BRANCH  28  29
ATOM     29  C   UNL     1     -19.908  -0.260   6.554  1.00  0.00    -0.003 C 
ATOM     30  C   UNL     1     -21.197  -1.026   6.853  1.00  0.00     0.004 C 
ENDBRANCH  28  29
ENDBRANCH  27  28
ENDBRANCH  26  27
ENDBRANCH  25  26
ENDBRANCH  24  25
ENDBRANCH  23  24
ENDBRANCH  22  23
ENDBRANCH  21  22
ENDBRANCH  20  21
ENDBRANCH  19  20
ENDBRANCH  18  19
ENDBRANCH  17  18
ENDBRANCH   1  17
TORSDOF 26
ENDMDL
MODEL 8
REMARK VINA RESULT:    -0.216      1.338      2.159
REMARK INTER + INTRA:          -2.009
REMARK INTER:                   0.008
REMARK INTRA:                  -2.016
REMARK UNBOUND:                -1.464
REMARK SMILES CCCCCCCCCCCCCCCCCCCCCCCCCCCC(=O)[O-]
REMARK SMILES IDX 15 1 16 2 17 3 18 4 19 5 20 6 21 7 22 8 23 9 24 10 25 11
REMARK SMILES IDX 26 12 27 13 28 14 29 15 30 16 14 17 13 18 12 19 11 20 10 21
REMARK SMILES IDX 9 22 8 23 7 24 6 25 5 26 4 27 3 28 2 29 1 30
REMARK H PARENT
REMARK Flexibility Score: inf
ROOT
ATOM      1  C   UNL     1     -21.906   4.200   9.048  1.00  0.00     0.000 C 
ENDROOT
BRANCH   1   2
ATOM      2  C   UNL     1     -21.134   3.243   9.978  1.00  0.00     0.000 C 
BRANCH   2   3
ATOM      3  C   UNL     1     -21.711   1.815   9.957  1.00  0.00     0.000 C 
BRANCH   3   4
ATOM      4  C   UNL     1     -22.245   1.377  11.331  1.00  0.00     0.000 C 
BRANCH   4   5
ATOM      5  C   UNL     1     -21.145   1.352  12.402  1.00  0.00     0.000 C 
BRANCH   5   6
ATOM      6  C   UNL     1     -21.478   0.343  13.512  1.00  0.00     0.000 C 
BRANCH   6   7
ATOM      7  C   UNL     1     -20.488  -0.831  13.566  1.00  0.00     0.000 C 
BRANCH   7   8
ATOM      8  C   UNL     1     -20.722  -1.861  12.446  1.00  0.00     0.000 C 
BRANCH   8   9
ATOM      9  C   UNL     1     -19.925  -1.530  11.173  1.00  0.00     0.000 C 
BRANCH   9  10
ATOM     10  C   UNL     1     -19.503  -2.787  10.397  1.00  0.00     0.000 C 
BRANCH  10  11
ATOM     11  C   UNL     1     -19.599  -2.550   8.882  1.00  0.00     0.000 C 
BRANCH  11  12
ATOM     12  C   UNL     1     -20.276  -1.216   8.527  1.00  0.00     0.006 C 
BRANCH  12  13
ATOM     13  C   UNL     1     -20.295  -0.942   7.018  1.00  0.00     0.053 C 
BRANCH  13  14
ATOM     14  C   UNL     1     -20.390   0.526   6.746  1.00  0.00     0.041 C 
ATOM     15  O   UNL     1     -21.323   0.981   6.031  1.00  0.00    -0.550 OA
ATOM     16  O   UNL     1     -19.441   1.393   7.273  1.00  0.00    -0.550 OA
ENDBRANCH  13  14
ENDBRANCH  12  13
ENDBRANCH  11  12
ENDBRANCH  10  11
ENDBRANCH   9  10
ENDBRANCH   8   9
ENDBRANCH   7   8
ENDBRANCH   6   7
ENDBRANCH   5   6
ENDBRANCH   4   5
ENDBRANCH   3   4
ENDBRANCH   2   3
ENDBRANCH   1   2
BRANCH   1  17
ATOM     17  C   UNL     1     -21.442   5.665   9.137  1.00  0.00     0.000 C 
BRANCH  17  18
ATOM     18  C   UNL     1     -20.212   5.853  10.036  1.00  0.00     0.000 C 
BRANCH  18  19
ATOM     19  C   UNL     1     -19.268   6.921   9.464  1.00  0.00     0.000 C 
BRANCH  19  20
ATOM     20  C   UNL     1     -17.975   7.073  10.283  1.00  0.00     0.000 C 
BRANCH  20  21
ATOM     21  C   UNL     1     -16.930   7.960   9.584  1.00  0.00     0.000 C 
BRANCH  21  22
ATOM     22  C   UNL     1     -15.889   8.528  10.565  1.00  0.00    -0.000 C 
BRANCH  22  23
ATOM     23  C   UNL     1     -15.509   9.982  10.242  1.00  0.00    -0.000 C 
BRANCH  23  24
ATOM     24  C   UNL     1     -14.272  10.420  11.039  1.00  0.00    -0.000 C 
BRANCH  24  25
ATOM     25  C   UNL     1     -14.630  11.069  12.389  1.00  0.00    -0.000 C 
BRANCH  25  26
ATOM     26  C   UNL     1     -13.561  10.920  13.491  1.00  0.00    -0.000 C 
BRANCH  26  27
ATOM     27  C   UNL     1     -13.393   9.495  14.047  1.00  0.00    -0.000 C 
BRANCH  27  28
ATOM     28  C   UNL     1     -14.714   8.705  14.063  1.00  0.00    -0.000 C 
BRANCH  28  29
ATOM     29  C   UNL     1     -14.524   7.253  14.528  1.00  0.00    -0.003 C 
ATOM     30  C   UNL     1     -15.043   6.237  13.511  1.00  0.00     0.004 C 
ENDBRANCH  28  29
ENDBRANCH  27  28
ENDBRANCH  26  27
ENDBRANCH  25  26
ENDBRANCH  24  25
ENDBRANCH  23  24
ENDBRANCH  22  23
ENDBRANCH  21  22
ENDBRANCH  20  21
ENDBRANCH  19  20
ENDBRANCH  18  19
ENDBRANCH  17  18
ENDBRANCH   1  17
TORSDOF 26
ENDMDL
MODEL 9
REMARK VINA RESULT:    -0.182      2.149      4.474
REMARK INTER + INTRA:          -1.922
REMARK INTER:                  -1.234
REMARK INTRA:                  -0.688
REMARK UNBOUND:                -1.464
REMARK SMILES CCCCCCCCCCCCCCCCCCCCCCCCCCCC(=O)[O-]
REMARK SMILES IDX 15 1 16 2 17 3 18 4 19 5 20 6 21 7 22 8 23 9 24 10 25 11
REMARK SMILES IDX 26 12 27 13 28 14 29 15 30 16 14 17 13 18 12 19 11 20 10 21
REMARK SMILES IDX 9 22 8 23 7 24 6 25 5 26 4 27 3 28 2 29 1 30
REMARK H PARENT
REMARK Flexibility Score: inf
ROOT
ATOM      1  C   UNL     1     -18.064   6.811  10.637  1.00  0.00     0.000 C 
ENDROOT
BRANCH   1   2
ATOM      2  C   UNL     1     -19.233   6.825   9.631  1.00  0.00     0.000 C 
BRANCH   2   3
ATOM      3  C   UNL     1     -20.400   5.924  10.078  1.00  0.00     0.000 C 
BRANCH   3   4
ATOM      4  C   UNL     1     -21.549   5.903   9.056  1.00  0.00     0.000 C 
BRANCH   4   5
ATOM      5  C   UNL     1     -21.974   4.474   8.687  1.00  0.00     0.000 C 
BRANCH   5   6
ATOM      6  C   UNL     1     -21.498   3.466   9.746  1.00  0.00     0.000 C 
BRANCH   6   7
ATOM      7  C   UNL     1     -21.697   2.006   9.310  1.00  0.00     0.000 C 
BRANCH   7   8
ATOM      8  C   UNL     1     -20.423   1.383   8.711  1.00  0.00     0.000 C 
BRANCH   8   9
ATOM      9  C   UNL     1     -20.283   1.674   7.208  1.00  0.00     0.000 C 
BRANCH   9  10
ATOM     10  C   UNL     1     -20.131   0.395   6.370  1.00  0.00     0.000 C 
BRANCH  10  11
ATOM     11  C   UNL     1     -21.007  -0.735   6.935  1.00  0.00     0.000 C 
BRANCH  11  12
ATOM     12  C   UNL     1     -20.197  -1.790   7.706  1.00  0.00     0.006 C 
BRANCH  12  13
ATOM     13  C   UNL     1     -20.386  -1.691   9.225  1.00  0.00     0.053 C 
BRANCH  13  14
ATOM     14  C   UNL     1     -20.059  -2.993   9.886  1.00  0.00     0.041 C 
ATOM     15  O   UNL     1     -20.516  -3.257  11.031  1.00  0.00    -0.550 OA
ATOM     16  O   UNL     1     -19.239  -3.912   9.244  1.00  0.00    -0.550 OA
ENDBRANCH  13  14
ENDBRANCH  12  13
ENDBRANCH  11  12
ENDBRANCH  10  11
ENDBRANCH   9  10
ENDBRANCH   8   9
ENDBRANCH   7   8
ENDBRANCH   6   7
ENDBRANCH   5   6
ENDBRANCH   4   5
ENDBRANCH   3   4
ENDBRANCH   2   3
ENDBRANCH   1   2
BRANCH   1  17
ATOM     17  C   UNL     1     -16.743   7.353  10.064  1.00  0.00     0.000 C 
BRANCH  17  18
ATOM     18  C   UNL     1     -16.699   8.886   9.999  1.00  0.00     0.000 C 
BRANCH  18  19
ATOM     19  C   UNL     1     -15.378   9.375   9.385  1.00  0.00     0.000 C 
BRANCH  19  20
ATOM     20  C   UNL     1     -14.822  10.625  10.088  1.00  0.00     0.000 C 
BRANCH  20  21
ATOM     21  C   UNL     1     -13.366  10.928   9.695  1.00  0.00     0.000 C 
BRANCH  21  22
ATOM     22  C   UNL     1     -12.453  11.117  10.919  1.00  0.00    -0.000 C 
BRANCH  22  23
ATOM     23  C   UNL     1     -11.008  10.667  10.651  1.00  0.00    -0.000 C 
BRANCH  23  24
ATOM     24  C   UNL     1     -10.254  10.416  11.965  1.00  0.00    -0.000 C 
BRANCH  24  25
ATOM     25  C   UNL     1     -10.907  11.117  13.171  1.00  0.00    -0.000 C 
BRANCH  25  26
ATOM     26  C   UNL     1     -11.902  10.252  13.972  1.00  0.00    -0.000 C 
BRANCH  26  27
ATOM     27  C   UNL     1     -13.109  11.013  14.548  1.00  0.00    -0.000 C 
BRANCH  27  28
ATOM     28  C   UNL     1     -14.355  10.914  13.651  1.00  0.00    -0.000 C 
BRANCH  28  29
ATOM     29  C   UNL     1     -14.613   9.480  13.162  1.00  0.00    -0.003 C 
ATOM     30  C   UNL     1     -14.497   8.446  14.283  1.00  0.00     0.004 C 
ENDBRANCH  28  29
ENDBRANCH  27  28
ENDBRANCH  26  27
ENDBRANCH  25  26
ENDBRANCH  24  25
ENDBRANCH  23  24
ENDBRANCH  22  23
ENDBRANCH  21  22
ENDBRANCH  20  21
ENDBRANCH  19  20
ENDBRANCH  18  19
ENDBRANCH  17  18
ENDBRANCH   1  17
TORSDOF 26
ENDMDL
