MODEL 1
REMARK VINA RESULT:    -4.135      0.000      0.000
REMARK INTER + INTRA:          -9.803
REMARK INTER:                  -7.761
REMARK INTRA:                  -2.043
REMARK UNBOUND:                -2.043
REMARK SMILES CCCCCCCCC=CCCCCCCCC(=O)[O-]
REMARK SMILES IDX 10 1 9 2 11 3 12 4 13 5 14 6 15 7 16 8 17 9 18 10 19 11
REMARK SMILES IDX 20 12 8 13 7 14 6 15 5 16 4 17 3 18 2 19 1 20
REMARK H PARENT
REMARK Flexibility Score: inf
ROOT
ATOM      1  C   UNL     1      -1.751  33.117  34.656  1.00  0.00    -0.031 C 
ATOM      2  C   UNL     1      -1.128  31.956  34.386  1.00  0.00    -0.031 C 
ENDROOT
BRANCH   1   3
ATOM      3  C   UNL     1      -2.666  33.344  35.833  1.00  0.00     0.027 C 
BRANCH   3   4
ATOM      4  C   UNL     1      -2.688  34.829  36.223  1.00  0.00     0.004 C 
BRANCH   4   5
ATOM      5  C   UNL     1      -1.329  35.520  36.014  1.00  0.00     0.000 C 
BRANCH   5   6
ATOM      6  C   UNL     1      -0.603  35.930  37.310  1.00  0.00     0.000 C 
BRANCH   6   7
ATOM      7  C   UNL     1      -1.081  35.204  38.585  1.00  0.00     0.000 C 
BRANCH   7   8
ATOM      8  C   UNL     1      -0.280  33.940  38.954  1.00  0.00     0.006 C 
BRANCH   8   9
ATOM      9  C   UNL     1      -1.119  32.653  39.016  1.00  0.00     0.053 C 
BRANCH   9  10
ATOM     10  C   UNL     1      -2.066  32.659  40.177  1.00  0.00     0.041 C 
ATOM     11  O   UNL     1      -1.661  32.347  41.327  1.00  0.00    -0.550 OA
ATOM     12  O   UNL     1      -3.389  33.043  39.993  1.00  0.00    -0.550 OA
ENDBRANCH   9  10
ENDBRANCH   8   9
ENDBRANCH   7   8
ENDBRANCH   6   7
ENDBRANCH   5   6
ENDBRANCH   4   5
ENDBRANCH   3   4
ENDBRANCH   1   3
BRANCH   2  13
ATOM     13  C   UNL     1      -1.170  30.732  35.268  1.00  0.00     0.027 C 
BRANCH  13  14
ATOM     14  C   UNL     1       0.087  29.861  35.115  1.00  0.00     0.004 C 
BRANCH  14  15
ATOM     15  C   UNL     1       0.796  29.993  33.751  1.00  0.00     0.000 C 
BRANCH  15  16
ATOM     16  C   UNL     1       0.465  28.887  32.733  1.00  0.00     0.000 C 
BRANCH  16  17
ATOM     17  C   UNL     1      -0.707  29.254  31.811  1.00  0.00    -0.000 C 
BRANCH  17  18
ATOM     18  C   UNL     1      -2.011  28.613  32.300  1.00  0.00    -0.000 C 
BRANCH  18  19
ATOM     19  C   UNL     1      -1.767  27.186  32.806  1.00  0.00    -0.003 C 
ATOM     20  C   UNL     1      -2.247  27.022  34.245  1.00  0.00     0.004 C 
ENDBRANCH  18  19
ENDBRANCH  17  18
ENDBRANCH  16  17
ENDBRANCH  15  16
ENDBRANCH  14  15
ENDBRANCH  13  14
ENDBRANCH   2  13
TORSDOF 15
ENDMDL
MODEL 2
REMARK VINA RESULT:    -4.123      3.526      7.215
REMARK INTER + INTRA:          -9.781
REMARK INTER:                  -7.450
REMARK INTRA:                  -2.331
REMARK UNBOUND:                -2.043
REMARK SMILES CCCCCCCCC=CCCCCCCCC(=O)[O-]
REMARK SMILES IDX 10 1 9 2 11 3 12 4 13 5 14 6 15 7 16 8 17 9 18 10 19 11
REMARK SMILES IDX 20 12 8 13 7 14 6 15 5 16 4 17 3 18 2 19 1 20
REMARK H PARENT
REMARK Flexibility Score: inf
ROOT
ATOM      1  C   UNL     1      -2.725  32.344  35.285  1.00  0.00    -0.031 C 
ATOM      2  C   UNL     1      -2.659  33.633  34.906  1.00  0.00    -0.031 C 
ENDROOT
BRANCH   1   3
ATOM      3  C   UNL     1      -1.593  31.581  35.927  1.00  0.00     0.027 C 
BRANCH   3   4
ATOM      4  C   UNL     1      -1.906  30.078  35.965  1.00  0.00     0.004 C 
BRANCH   4   5
ATOM      5  C   UNL     1      -0.735  29.213  35.467  1.00  0.00     0.000 C 
BRANCH   5   6
ATOM      6  C   UNL     1       0.472  30.005  34.925  1.00  0.00     0.000 C 
BRANCH   6   7
ATOM      7  C   UNL     1       0.784  29.781  33.431  1.00  0.00     0.000 C 
BRANCH   7   8
ATOM      8  C   UNL     1      -0.237  30.394  32.453  1.00  0.00     0.006 C 
BRANCH   8   9
ATOM      9  C   UNL     1      -0.221  31.930  32.398  1.00  0.00     0.053 C 
BRANCH   9  10
ATOM     10  C   UNL     1      -0.341  32.441  30.995  1.00  0.00     0.041 C 
ATOM     11  O   UNL     1      -0.488  33.673  30.779  1.00  0.00    -0.550 OA
ATOM     12  O   UNL     1      -0.256  31.559  29.925  1.00  0.00    -0.550 OA
ENDBRANCH   9  10
ENDBRANCH   8   9
ENDBRANCH   7   8
ENDBRANCH   6   7
ENDBRANCH   5   6
ENDBRANCH   4   5
ENDBRANCH   3   4
ENDBRANCH   1   3
BRANCH   2  13
ATOM     13  C   UNL     1      -1.478  34.542  35.150  1.00  0.00     0.027 C 
BRANCH  13  14
ATOM     14  C   UNL     1      -1.780  35.613  36.211  1.00  0.00     0.004 C 
BRANCH  14  15
ATOM     15  C   UNL     1      -0.666  35.808  37.260  1.00  0.00     0.000 C 
BRANCH  15  16
ATOM     16  C   UNL     1      -1.005  35.305  38.674  1.00  0.00     0.000 C 
BRANCH  16  17
ATOM     17  C   UNL     1      -0.346  33.958  39.004  1.00  0.00    -0.000 C 
BRANCH  17  18
ATOM     18  C   UNL     1      -1.287  33.074  39.831  1.00  0.00    -0.000 C 
BRANCH  18  19
ATOM     19  C   UNL     1      -2.628  32.880  39.116  1.00  0.00    -0.003 C 
ATOM     20  C   UNL     1      -3.142  31.452  39.284  1.00  0.00     0.004 C 
ENDBRANCH  18  19
ENDBRANCH  17  18
ENDBRANCH  16  17
ENDBRANCH  15  16
ENDBRANCH  14  15
ENDBRANCH  13  14
ENDBRANCH   2  13
TORSDOF 15
ENDMDL
MODEL 3
REMARK VINA RESULT:    -4.114      3.478      7.899
REMARK INTER + INTRA:          -9.764
REMARK INTER:                  -8.504
REMARK INTRA:                  -1.260
REMARK UNBOUND:                -2.043
REMARK SMILES CCCCCCCCC=CCCCCCCCC(=O)[O-]
REMARK SMILES IDX 10 1 9 2 11 3 12 4 13 5 14 6 15 7 16 8 17 9 18 10 19 11
REMARK SMILES IDX 20 12 8 13 7 14 6 15 5 16 4 17 3 18 2 19 1 20
REMARK H PARENT
REMARK Flexibility Score: inf
ROOT
ATOM      1  C   UNL     1      -2.303  31.551  38.444  1.00  0.00    -0.031 C 
ATOM      2  C   UNL     1      -1.953  32.259  39.533  1.00  0.00    -0.031 C 
ENDROOT
BRANCH   1   3
ATOM      3  C   UNL     1      -2.729  32.156  37.130  1.00  0.00     0.027 C 
BRANCH   3   4
ATOM      4  C   UNL     1      -2.069  31.420  35.955  1.00  0.00     0.004 C 
BRANCH   4   5
ATOM      5  C   UNL     1      -1.910  29.911  36.211  1.00  0.00     0.000 C 
BRANCH   5   6
ATOM      6  C   UNL     1      -0.838  29.216  35.348  1.00  0.00     0.000 C 
BRANCH   6   7
ATOM      7  C   UNL     1       0.363  30.103  34.958  1.00  0.00     0.000 C 
BRANCH   7   8
ATOM      8  C   UNL     1       1.046  29.726  33.629  1.00  0.00     0.006 C 
BRANCH   8   9
ATOM      9  C   UNL     1       0.171  28.893  32.679  1.00  0.00     0.053 C 
BRANCH   9  10
ATOM     10  C   UNL     1      -0.514  29.746  31.657  1.00  0.00     0.041 C 
ATOM     11  O   UNL     1      -0.573  30.994  31.809  1.00  0.00    -0.550 OA
ATOM     12  O   UNL     1      -1.058  29.165  30.518  1.00  0.00    -0.550 OA
ENDBRANCH   9  10
ENDBRANCH   8   9
ENDBRANCH   7   8
ENDBRANCH   6   7
ENDBRANCH   5   6
ENDBRANCH   4   5
ENDBRANCH   3   4
ENDBRANCH   1   3
BRANCH   2  13
ATOM     13  C   UNL     1      -1.841  33.764  39.580  1.00  0.00     0.027 C 
BRANCH  13  14
ATOM     14  C   UNL     1      -0.499  34.265  39.023  1.00  0.00     0.004 C 
BRANCH  14  15
ATOM     15  C   UNL     1      -0.578  35.607  38.269  1.00  0.00     0.000 C 
BRANCH  15  16
ATOM     16  C   UNL     1      -1.223  35.535  36.873  1.00  0.00     0.000 C 
BRANCH  16  17
ATOM     17  C   UNL     1      -0.695  36.612  35.914  1.00  0.00    -0.000 C 
BRANCH  17  18
ATOM     18  C   UNL     1       0.291  37.545  36.626  1.00  0.00    -0.000 C 
BRANCH  18  19
ATOM     19  C   UNL     1       1.025  38.440  35.621  1.00  0.00    -0.003 C 
ATOM     20  C   UNL     1       1.879  39.485  36.333  1.00  0.00     0.004 C 
ENDBRANCH  18  19
ENDBRANCH  17  18
ENDBRANCH  16  17
ENDBRANCH  15  16
ENDBRANCH  14  15
ENDBRANCH  13  14
ENDBRANCH   2  13
TORSDOF 15
ENDMDL
MODEL 4
REMARK VINA RESULT:    -4.073      3.594      7.570
REMARK INTER + INTRA:          -9.688
REMARK INTER:                  -7.594
REMARK INTRA:                  -2.094
REMARK UNBOUND:                -2.043
REMARK SMILES CCCCCCCCC=CCCCCCCCC(=O)[O-]
REMARK SMILES IDX 10 1 9 2 11 3 12 4 13 5 14 6 15 7 16 8 17 9 18 10 19 11
REMARK SMILES IDX 20 12 8 13 7 14 6 15 5 16 4 17 3 18 2 19 1 20
REMARK H PARENT
REMARK Flexibility Score: inf
ROOT
ATOM      1  C   UNL     1      -0.664  29.563  35.262  1.00  0.00    -0.031 C 
ATOM      2  C   UNL     1      -1.678  30.325  35.710  1.00  0.00    -0.031 C 
ENDROOT
BRANCH   1   3
ATOM      3  C   UNL     1       0.720  30.076  34.951  1.00  0.00     0.027 C 
BRANCH   3   4
ATOM      4  C   UNL     1       1.105  29.750  33.500  1.00  0.00     0.004 C 
BRANCH   4   5
ATOM      5  C   UNL     1       0.103  28.802  32.817  1.00  0.00     0.000 C 
BRANCH   5   6
ATOM      6  C   UNL     1      -0.572  29.374  31.554  1.00  0.00     0.000 C 
BRANCH   6   7
ATOM      7  C   UNL     1      -1.190  30.777  31.721  1.00  0.00     0.000 C 
BRANCH   7   8
ATOM      8  C   UNL     1      -0.497  31.895  30.918  1.00  0.00     0.006 C 
BRANCH   8   9
ATOM      9  C   UNL     1       0.183  32.969  31.781  1.00  0.00     0.053 C 
BRANCH   9  10
ATOM     10  C   UNL     1       0.396  34.243  31.023  1.00  0.00     0.041 C 
ATOM     11  O   UNL     1      -0.285  34.490  29.993  1.00  0.00    -0.550 OA
ATOM     12  O   UNL     1       1.322  35.174  31.476  1.00  0.00    -0.550 OA
ENDBRANCH   9  10
ENDBRANCH   8   9
ENDBRANCH   7   8
ENDBRANCH   6   7
ENDBRANCH   5   6
ENDBRANCH   4   5
ENDBRANCH   3   4
ENDBRANCH   1   3
BRANCH   2  13
ATOM     13  C   UNL     1      -1.563  31.789  36.061  1.00  0.00     0.027 C 
BRANCH  13  14
ATOM     14  C   UNL     1      -1.853  32.699  34.857  1.00  0.00     0.004 C 
BRANCH  14  15
ATOM     15  C   UNL     1      -2.385  34.099  35.224  1.00  0.00     0.000 C 
BRANCH  15  16
ATOM     16  C   UNL     1      -1.303  35.166  35.470  1.00  0.00     0.000 C 
BRANCH  16  17
ATOM     17  C   UNL     1      -1.491  35.914  36.798  1.00  0.00    -0.000 C 
BRANCH  17  18
ATOM     18  C   UNL     1      -0.596  35.320  37.893  1.00  0.00    -0.000 C 
BRANCH  18  19
ATOM     19  C   UNL     1      -1.435  34.794  39.063  1.00  0.00    -0.003 C 
ATOM     20  C   UNL     1      -1.029  33.370  39.435  1.00  0.00     0.004 C 
ENDBRANCH  18  19
ENDBRANCH  17  18
ENDBRANCH  16  17
ENDBRANCH  15  16
ENDBRANCH  14  15
ENDBRANCH  13  14
ENDBRANCH   2  13
TORSDOF 15
ENDMDL
MODEL 5
REMARK VINA RESULT:    -4.043      2.021      3.484
REMARK INTER + INTRA:          -9.632
REMARK INTER:                  -7.051
REMARK INTRA:                  -2.580
REMARK UNBOUND:                -2.043
REMARK SMILES CCCCCCCCC=CCCCCCCCC(=O)[O-]
REMARK SMILES IDX 10 1 9 2 11 3 12 4 13 5 14 6 15 7 16 8 17 9 18 10 19 11
REMARK SMILES IDX 20 12 8 13 7 14 6 15 5 16 4 17 3 18 2 19 1 20
REMARK H PARENT
REMARK Flexibility Score: inf
ROOT
ATOM      1  C   UNL     1      -1.882  29.974  35.957  1.00  0.00    -0.031 C 
ATOM      2  C   UNL     1      -0.890  29.398  35.255  1.00  0.00    -0.031 C 
ENDROOT
BRANCH   1   3
ATOM      3  C   UNL     1      -1.778  31.308  36.651  1.00  0.00     0.027 C 
BRANCH   3   4
ATOM      4  C   UNL     1      -2.672  31.340  37.900  1.00  0.00     0.004 C 
BRANCH   4   5
ATOM      5  C   UNL     1      -2.141  32.291  38.987  1.00  0.00     0.000 C 
BRANCH   5   6
ATOM      6  C   UNL     1      -0.841  33.035  38.620  1.00  0.00     0.000 C 
BRANCH   6   7
ATOM      7  C   UNL     1      -0.813  34.529  39.001  1.00  0.00     0.000 C 
BRANCH   7   8
ATOM      8  C   UNL     1      -0.728  35.504  37.810  1.00  0.00     0.006 C 
BRANCH   8   9
ATOM      9  C   UNL     1      -1.350  34.972  36.509  1.00  0.00     0.053 C 
BRANCH   9  10
ATOM     10  C   UNL     1      -2.842  35.100  36.509  1.00  0.00     0.041 C 
ATOM     11  O   UNL     1      -3.550  34.265  35.887  1.00  0.00    -0.550 OA
ATOM     12  O   UNL     1      -3.453  36.121  37.226  1.00  0.00    -0.550 OA
ENDBRANCH   9  10
ENDBRANCH   8   9
ENDBRANCH   7   8
ENDBRANCH   6   7
ENDBRANCH   5   6
ENDBRANCH   4   5
ENDBRANCH   3   4
ENDBRANCH   1   3
BRANCH   2  13
ATOM     13  C   UNL     1       0.448  30.039  34.973  1.00  0.00     0.027 C 
BRANCH  13  14
ATOM     14  C   UNL     1       0.910  29.807  33.526  1.00  0.00     0.004 C 
BRANCH  14  15
ATOM     15  C   UNL     1       0.158  28.683  32.785  1.00  0.00     0.000 C 
BRANCH  15  16
ATOM     16  C   UNL     1      -0.560  29.118  31.495  1.00  0.00     0.000 C 
BRANCH  16  17
ATOM     17  C   UNL     1      -1.919  29.781  31.761  1.00  0.00    -0.000 C 
BRANCH  17  18
ATOM     18  C   UNL     1      -1.826  31.304  31.608  1.00  0.00    -0.000 C 
BRANCH  18  19
ATOM     19  C   UNL     1      -2.294  32.014  32.883  1.00  0.00    -0.003 C 
ATOM     20  C   UNL     1      -1.251  33.014  33.372  1.00  0.00     0.004 C 
ENDBRANCH  18  19
ENDBRANCH  17  18
ENDBRANCH  16  17
ENDBRANCH  15  16
ENDBRANCH  14  15
ENDBRANCH  13  14
ENDBRANCH   2  13
TORSDOF 15
ENDMDL
MODEL 6
REMARK VINA RESULT:    -4.030      3.668      4.583
REMARK INTER + INTRA:          -9.607
REMARK INTER:                  -8.133
REMARK INTRA:                  -1.474
REMARK UNBOUND:                -2.043
REMARK SMILES CCCCCCCCC=CCCCCCCCC(=O)[O-]
REMARK SMILES IDX 10 1 9 2 11 3 12 4 13 5 14 6 15 7 16 8 17 9 18 10 19 11
REMARK SMILES IDX 20 12 8 13 7 14 6 15 5 16 4 17 3 18 2 19 1 20
REMARK H PARENT
REMARK Flexibility Score: inf
ROOT
ATOM      1  C   UNL     1      -1.526  33.097  33.843  1.00  0.00    -0.031 C 
ATOM      2  C   UNL     1      -1.101  31.823  33.903  1.00  0.00    -0.031 C 
ENDROOT
BRANCH   1   3
ATOM      3  C   UNL     1      -2.123  33.857  35.002  1.00  0.00     0.027 C 
BRANCH   3   4
ATOM      4  C   UNL     1      -1.345  35.156  35.256  1.00  0.00     0.004 C 
BRANCH   4   5
ATOM      5  C   UNL     1      -0.986  35.356  36.739  1.00  0.00     0.000 C 
BRANCH   5   6
ATOM      6  C   UNL     1      -0.339  36.715  37.072  1.00  0.00     0.000 C 
BRANCH   6   7
ATOM      7  C   UNL     1      -0.029  37.608  35.854  1.00  0.00     0.000 C 
BRANCH   7   8
ATOM      8  C   UNL     1       1.206  38.517  36.009  1.00  0.00     0.006 C 
BRANCH   8   9
ATOM      9  C   UNL     1       1.065  39.600  37.090  1.00  0.00     0.053 C 
BRANCH   9  10
ATOM     10  C   UNL     1       0.508  40.875  36.535  1.00  0.00     0.041 C 
ATOM     11  O   UNL     1       0.150  41.801  37.310  1.00  0.00    -0.550 OA
ATOM     12  O   UNL     1       0.416  41.053  35.160  1.00  0.00    -0.550 OA
ENDBRANCH   9  10
ENDBRANCH   8   9
ENDBRANCH   7   8
ENDBRANCH   6   7
ENDBRANCH   5   6
ENDBRANCH   4   5
ENDBRANCH   3   4
ENDBRANCH   1   3
BRANCH   2  13
ATOM     13  C   UNL     1      -1.066  30.986  35.160  1.00  0.00     0.027 C 
BRANCH  13  14
ATOM     14  C   UNL     1      -0.053  29.834  35.063  1.00  0.00     0.004 C 
BRANCH  14  15
ATOM     15  C   UNL     1       0.861  29.887  33.821  1.00  0.00     0.000 C 
BRANCH  15  16
ATOM     16  C   UNL     1       0.519  28.873  32.715  1.00  0.00     0.000 C 
BRANCH  16  17
ATOM     17  C   UNL     1      -0.666  27.967  33.079  1.00  0.00    -0.000 C 
BRANCH  17  18
ATOM     18  C   UNL     1      -1.690  27.917  31.939  1.00  0.00    -0.000 C 
BRANCH  18  19
ATOM     19  C   UNL     1      -2.897  28.811  32.245  1.00  0.00    -0.003 C 
ATOM     20  C   UNL     1      -3.392  28.600  33.673  1.00  0.00     0.004 C 
ENDBRANCH  18  19
ENDBRANCH  17  18
ENDBRANCH  16  17
ENDBRANCH  15  16
ENDBRANCH  14  15
ENDBRANCH  13  14
ENDBRANCH   2  13
TORSDOF 15
ENDMDL
MODEL 7
REMARK VINA RESULT:    -4.029      2.842      6.395
REMARK INTER + INTRA:          -9.604
REMARK INTER:                  -7.463
REMARK INTRA:                  -2.141
REMARK UNBOUND:                -2.043
REMARK SMILES CCCCCCCCC=CCCCCCCCC(=O)[O-]
REMARK SMILES IDX 10 1 9 2 11 3 12 4 13 5 14 6 15 7 16 8 17 9 18 10 19 11
REMARK SMILES IDX 20 12 8 13 7 14 6 15 5 16 4 17 3 18 2 19 1 20
REMARK H PARENT
REMARK Flexibility Score: inf
ROOT
ATOM      1  C   UNL     1      -1.796  33.772  34.632  1.00  0.00    -0.031 C 
ATOM      2  C   UNL     1      -1.945  34.455  35.781  1.00  0.00    -0.031 C 
ENDROOT
BRANCH   1   3
ATOM      3  C   UNL     1      -1.219  34.346  33.363  1.00  0.00     0.027 C 
BRANCH   3   4
ATOM      4  C   UNL     1      -0.650  33.230  32.474  1.00  0.00     0.004 C 
BRANCH   4   5
ATOM      5  C   UNL     1      -0.844  31.829  33.079  1.00  0.00     0.000 C 
BRANCH   5   6
ATOM      6  C   UNL     1       0.337  30.861  32.866  1.00  0.00     0.000 C 
BRANCH   6   7
ATOM      7  C   UNL     1       0.691  29.983  34.083  1.00  0.00     0.000 C 
BRANCH   7   8
ATOM      8  C   UNL     1      -0.264  30.118  35.285  1.00  0.00     0.006 C 
BRANCH   8   9
ATOM      9  C   UNL     1      -1.038  28.835  35.628  1.00  0.00     0.053 C 
BRANCH   9  10
ATOM     10  C   UNL     1      -1.805  28.312  34.453  1.00  0.00     0.041 C 
ATOM     11  O   UNL     1      -2.773  28.968  33.985  1.00  0.00    -0.550 OA
ATOM     12  O   UNL     1      -1.427  27.118  33.852  1.00  0.00    -0.550 OA
ENDBRANCH   9  10
ENDBRANCH   8   9
ENDBRANCH   7   8
ENDBRANCH   6   7
ENDBRANCH   5   6
ENDBRANCH   4   5
ENDBRANCH   3   4
ENDBRANCH   1   3
BRANCH   2  13
ATOM     13  C   UNL     1      -1.470  35.871  36.007  1.00  0.00     0.027 C 
BRANCH  13  14
ATOM     14  C   UNL     1      -0.470  35.970  37.170  1.00  0.00     0.004 C 
BRANCH  14  15
ATOM     15  C   UNL     1      -0.988  35.410  38.511  1.00  0.00     0.000 C 
BRANCH  15  16
ATOM     16  C   UNL     1      -0.296  34.122  38.992  1.00  0.00     0.000 C 
BRANCH  16  17
ATOM     17  C   UNL     1      -1.246  33.178  39.742  1.00  0.00    -0.000 C 
BRANCH  17  18
ATOM     18  C   UNL     1      -2.504  32.893  38.913  1.00  0.00    -0.000 C 
BRANCH  18  19
ATOM     19  C   UNL     1      -2.474  31.472  38.339  1.00  0.00    -0.003 C 
ATOM     20  C   UNL     1      -3.459  31.324  37.182  1.00  0.00     0.004 C 
ENDBRANCH  18  19
ENDBRANCH  17  18
ENDBRANCH  16  17
ENDBRANCH  15  16
ENDBRANCH  14  15
ENDBRANCH  13  14
ENDBRANCH   2  13
TORSDOF 15
ENDMDL
MODEL 8
REMARK VINA RESULT:    -3.989      3.635      7.753
REMARK INTER + INTRA:          -9.530
REMARK INTER:                  -7.242
REMARK INTRA:                  -2.288
REMARK UNBOUND:                -2.043
REMARK SMILES CCCCCCCCC=CCCCCCCCC(=O)[O-]
REMARK SMILES IDX 10 1 9 2 11 3 12 4 13 5 14 6 15 7 16 8 17 9 18 10 19 11
REMARK SMILES IDX 20 12 8 13 7 14 6 15 5 16 4 17 3 18 2 19 1 20
REMARK H PARENT
REMARK Flexibility Score: inf
ROOT
ATOM      1  C   UNL     1      -1.355  32.905  33.901  1.00  0.00    -0.031 C 
ATOM      2  C   UNL     1      -1.833  33.381  35.065  1.00  0.00    -0.031 C 
ENDROOT
BRANCH   1   3
ATOM      3  C   UNL     1      -1.383  31.454  33.492  1.00  0.00     0.027 C 
BRANCH   3   4
ATOM      4  C   UNL     1       0.037  30.869  33.473  1.00  0.00     0.004 C 
BRANCH   4   5
ATOM      5  C   UNL     1       0.303  29.913  34.649  1.00  0.00     0.000 C 
BRANCH   5   6
ATOM      6  C   UNL     1      -0.906  29.055  35.074  1.00  0.00     0.000 C 
BRANCH   6   7
ATOM      7  C   UNL     1      -1.135  27.784  34.230  1.00  0.00     0.000 C 
BRANCH   7   8
ATOM      8  C   UNL     1      -2.238  27.902  33.161  1.00  0.00     0.006 C 
BRANCH   8   9
ATOM      9  C   UNL     1      -1.839  27.369  31.775  1.00  0.00     0.053 C 
BRANCH   9  10
ATOM     10  C   UNL     1      -0.725  28.165  31.169  1.00  0.00     0.041 C 
ATOM     11  O   UNL     1       0.465  27.766  31.265  1.00  0.00    -0.550 OA
ATOM     12  O   UNL     1      -1.005  29.332  30.468  1.00  0.00    -0.550 OA
ENDBRANCH   9  10
ENDBRANCH   8   9
ENDBRANCH   7   8
ENDBRANCH   6   7
ENDBRANCH   5   6
ENDBRANCH   4   5
ENDBRANCH   3   4
ENDBRANCH   1   3
BRANCH   2  13
ATOM     13  C   UNL     1      -2.556  32.552  36.099  1.00  0.00     0.027 C 
BRANCH  13  14
ATOM     14  C   UNL     1      -1.603  32.001  37.172  1.00  0.00     0.004 C 
BRANCH  14  15
ATOM     15  C   UNL     1      -2.111  32.153  38.620  1.00  0.00     0.000 C 
BRANCH  15  16
ATOM     16  C   UNL     1      -1.514  33.337  39.401  1.00  0.00     0.000 C 
BRANCH  16  17
ATOM     17  C   UNL     1      -2.508  34.491  39.590  1.00  0.00    -0.000 C 
BRANCH  17  18
ATOM     18  C   UNL     1      -2.235  35.620  38.589  1.00  0.00    -0.000 C 
BRANCH  18  19
ATOM     19  C   UNL     1      -0.757  35.653  38.187  1.00  0.00    -0.003 C 
ATOM     20  C   UNL     1      -0.569  36.319  36.826  1.00  0.00     0.004 C 
ENDBRANCH  18  19
ENDBRANCH  17  18
ENDBRANCH  16  17
ENDBRANCH  15  16
ENDBRANCH  14  15
ENDBRANCH  13  14
ENDBRANCH   2  13
TORSDOF 15
ENDMDL
MODEL 9
REMARK VINA RESULT:    -3.977      3.526      7.544
REMARK INTER + INTRA:          -9.507
REMARK INTER:                  -7.510
REMARK INTRA:                  -1.997
REMARK UNBOUND:                -2.043
REMARK SMILES CCCCCCCCC=CCCCCCCCC(=O)[O-]
REMARK SMILES IDX 10 1 9 2 11 3 12 4 13 5 14 6 15 7 16 8 17 9 18 10 19 11
REMARK SMILES IDX 20 12 8 13 7 14 6 15 5 16 4 17 3 18 2 19 1 20
REMARK H PARENT
REMARK Flexibility Score: inf
ROOT
ATOM      1  C   UNL     1       0.771  29.410  33.036  1.00  0.00    -0.031 C 
ATOM      2  C   UNL     1       0.661  30.115  34.176  1.00  0.00    -0.031 C 
ENDROOT
BRANCH   1   3
ATOM      3  C   UNL     1      -0.089  28.225  32.675  1.00  0.00     0.027 C 
BRANCH   3   4
ATOM      4  C   UNL     1      -0.582  28.335  31.225  1.00  0.00     0.004 C 
BRANCH   4   5
ATOM      5  C   UNL     1      -1.619  29.455  31.032  1.00  0.00     0.000 C 
BRANCH   5   6
ATOM      6  C   UNL     1      -1.546  30.179  29.672  1.00  0.00     0.000 C 
BRANCH   6   7
ATOM      7  C   UNL     1      -0.681  31.455  29.656  1.00  0.00     0.000 C 
BRANCH   7   8
ATOM      8  C   UNL     1      -0.822  32.354  30.901  1.00  0.00     0.006 C 
BRANCH   8   9
ATOM      9  C   UNL     1       0.513  32.828  31.496  1.00  0.00     0.053 C 
BRANCH   9  10
ATOM     10  C   UNL     1       0.601  34.322  31.553  1.00  0.00     0.041 C 
ATOM     11  O   UNL     1      -0.199  34.977  32.273  1.00  0.00    -0.550 OA
ATOM     12  O   UNL     1       1.588  34.989  30.839  1.00  0.00    -0.550 OA
ENDBRANCH   9  10
ENDBRANCH   8   9
ENDBRANCH   7   8
ENDBRANCH   6   7
ENDBRANCH   5   6
ENDBRANCH   4   5
ENDBRANCH   3   4
ENDBRANCH   1   3
BRANCH   2  13
ATOM     13  C   UNL     1      -0.400  29.892  35.226  1.00  0.00     0.027 C 
BRANCH  13  14
ATOM     14  C   UNL     1      -1.704  30.641  34.904  1.00  0.00     0.004 C 
BRANCH  14  15
ATOM     15  C   UNL     1      -1.520  32.139  34.585  1.00  0.00     0.000 C 
BRANCH  15  16
ATOM     16  C   UNL     1      -2.078  33.106  35.645  1.00  0.00     0.000 C 
BRANCH  16  17
ATOM     17  C   UNL     1      -1.538  34.535  35.493  1.00  0.00    -0.000 C 
BRANCH  17  18
ATOM     18  C   UNL     1      -1.896  35.389  36.715  1.00  0.00    -0.000 C 
BRANCH  18  19
ATOM     19  C   UNL     1      -0.667  35.624  37.601  1.00  0.00    -0.003 C 
ATOM     20  C   UNL     1      -0.609  34.612  38.742  1.00  0.00     0.004 C 
ENDBRANCH  18  19
ENDBRANCH  17  18
ENDBRANCH  16  17
ENDBRANCH  15  16
ENDBRANCH  14  15
ENDBRANCH  13  14
ENDBRANCH   2  13
TORSDOF 15
ENDMDL
