MODEL 1
REMARK VINA RESULT:    -3.205      0.000      0.000
REMARK INTER + INTRA:          -6.948
REMARK INTER:                  -5.454
REMARK INTRA:                  -1.494
REMARK UNBOUND:                -1.494
REMARK SMILES CCCCCCCCCCCCCC(=O)[O-]
REMARK SMILES IDX 8 1 9 2 10 3 11 4 12 5 13 6 14 7 15 8 16 9 7 10 6 11 5 12
REMARK SMILES IDX 4 13 3 14 2 15 1 16
REMARK H PARENT
REMARK Flexibility Score: inf
ROOT
ATOM      1  C   UNL     1      -9.786  22.814   9.745  1.00  0.00     0.000 C 
ENDROOT
BRANCH   1   2
ATOM      2  C   UNL     1      -8.341  23.249   9.451  1.00  0.00     0.000 C 
BRANCH   2   3
ATOM      3  C   UNL     1      -7.595  22.247   8.551  1.00  0.00     0.000 C 
BRANCH   3   4
ATOM      4  C   UNL     1      -6.121  22.626   8.342  1.00  0.00     0.000 C 
BRANCH   4   5
ATOM      5  C   UNL     1      -5.554  23.468   9.499  1.00  0.00     0.006 C 
BRANCH   5   6
ATOM      6  C   UNL     1      -4.194  24.089   9.151  1.00  0.00     0.053 C 
BRANCH   6   7
ATOM      7  C   UNL     1      -3.240  24.019  10.305  1.00  0.00     0.041 C 
ATOM      8  O   UNL     1      -3.461  23.231  11.262  1.00  0.00    -0.550 OA
ATOM      9  O   UNL     1      -2.090  24.798  10.306  1.00  0.00    -0.550 OA
ENDBRANCH   6   7
ENDBRANCH   5   6
ENDBRANCH   4   5
ENDBRANCH   3   4
ENDBRANCH   2   3
ENDBRANCH   1   2
BRANCH   1  10
ATOM     10  C   UNL     1     -10.115  21.427   9.166  1.00  0.00     0.000 C 
BRANCH  10  11
ATOM     11  C   UNL     1     -10.541  20.422  10.247  1.00  0.00    -0.000 C 
BRANCH  11  12
ATOM     12  C   UNL     1     -10.384  20.978  11.671  1.00  0.00    -0.000 C 
BRANCH  12  13
ATOM     13  C   UNL     1      -9.952  19.876  12.647  1.00  0.00    -0.000 C 
BRANCH  13  14
ATOM     14  C   UNL     1      -8.708  20.300  13.441  1.00  0.00    -0.000 C 
BRANCH  14  15
ATOM     15  C   UNL     1      -8.105  21.620  12.934  1.00  0.00    -0.003 C 
ATOM     16  C   UNL     1      -6.703  21.445  12.351  1.00  0.00     0.004 C 
ENDBRANCH  14  15
ENDBRANCH  13  14
ENDBRANCH  12  13
ENDBRANCH  11  12
ENDBRANCH  10  11
ENDBRANCH   1  10
TORSDOF 12
ENDMDL
MODEL 2
REMARK VINA RESULT:    -3.114      1.924      2.901
REMARK INTER + INTRA:          -6.793
REMARK INTER:                  -5.422
REMARK INTRA:                  -1.371
REMARK UNBOUND:                -1.494
REMARK SMILES CCCCCCCCCCCCCC(=O)[O-]
REMARK SMILES IDX 8 1 9 2 10 3 11 4 12 5 13 6 14 7 15 8 16 9 7 10 6 11 5 12
REMARK SMILES IDX 4 13 3 14 2 15 1 16
REMARK H PARENT
REMARK Flexibility Score: inf
ROOT
ATOM      1  C   UNL     1      -8.900  21.584  11.851  1.00  0.00     0.000 C 
ENDROOT
BRANCH   1   2
ATOM      2  C   UNL     1      -7.585  21.580  12.646  1.00  0.00     0.000 C 
BRANCH   2   3
ATOM      3  C   UNL     1      -6.447  22.311  11.910  1.00  0.00     0.000 C 
BRANCH   3   4
ATOM      4  C   UNL     1      -6.480  22.074  10.392  1.00  0.00     0.000 C 
BRANCH   4   5
ATOM      5  C   UNL     1      -5.817  23.214   9.598  1.00  0.00     0.006 C 
BRANCH   5   6
ATOM      6  C   UNL     1      -5.013  24.158  10.503  1.00  0.00     0.053 C 
BRANCH   6   7
ATOM      7  C   UNL     1      -3.550  23.836  10.480  1.00  0.00     0.041 C 
ATOM      8  O   UNL     1      -2.841  24.178   9.497  1.00  0.00    -0.550 OA
ATOM      9  O   UNL     1      -2.963  23.190  11.561  1.00  0.00    -0.550 OA
ENDBRANCH   6   7
ENDBRANCH   5   6
ENDBRANCH   4   5
ENDBRANCH   3   4
ENDBRANCH   2   3
ENDBRANCH   1   2
BRANCH   1  10
ATOM     10  C   UNL     1      -9.820  20.409  12.225  1.00  0.00     0.000 C 
BRANCH  10  11
ATOM     11  C   UNL     1      -9.578  19.900  13.654  1.00  0.00    -0.000 C 
BRANCH  11  12
ATOM     12  C   UNL     1     -10.664  20.357  14.640  1.00  0.00    -0.000 C 
BRANCH  12  13
ATOM     13  C   UNL     1     -10.152  21.495  15.532  1.00  0.00    -0.000 C 
BRANCH  13  14
ATOM     14  C   UNL     1     -10.505  22.865  14.934  1.00  0.00    -0.000 C 
BRANCH  14  15
ATOM     15  C   UNL     1      -9.415  23.919  15.187  1.00  0.00    -0.003 C 
ATOM     16  C   UNL     1      -8.139  23.320  15.779  1.00  0.00     0.004 C 
ENDBRANCH  14  15
ENDBRANCH  13  14
ENDBRANCH  12  13
ENDBRANCH  11  12
ENDBRANCH  10  11
ENDBRANCH   1  10
TORSDOF 12
ENDMDL
MODEL 3
REMARK VINA RESULT:    -3.090      1.503      2.481
REMARK INTER + INTRA:          -6.752
REMARK INTER:                  -5.765
REMARK INTRA:                  -0.987
REMARK UNBOUND:                -1.494
REMARK SMILES CCCCCCCCCCCCCC(=O)[O-]
REMARK SMILES IDX 8 1 9 2 10 3 11 4 12 5 13 6 14 7 15 8 16 9 7 10 6 11 5 12
REMARK SMILES IDX 4 13 3 14 2 15 1 16
REMARK H PARENT
REMARK Flexibility Score: inf
ROOT
ATOM      1  C   UNL     1      -7.611  22.750   8.402  1.00  0.00     0.000 C 
ENDROOT
BRANCH   1   2
ATOM      2  C   UNL     1      -6.277  22.210   7.862  1.00  0.00     0.000 C 
BRANCH   2   3
ATOM      3  C   UNL     1      -5.457  23.288   7.130  1.00  0.00     0.000 C 
BRANCH   3   4
ATOM      4  C   UNL     1      -3.956  23.204   7.447  1.00  0.00     0.000 C 
BRANCH   4   5
ATOM      5  C   UNL     1      -3.414  24.487   8.102  1.00  0.00     0.006 C 
BRANCH   5   6
ATOM      6  C   UNL     1      -3.969  24.692   9.518  1.00  0.00     0.053 C 
BRANCH   6   7
ATOM      7  C   UNL     1      -3.013  24.207  10.565  1.00  0.00     0.041 C 
ATOM      8  O   UNL     1      -3.335  23.257  11.325  1.00  0.00    -0.550 OA
ATOM      9  O   UNL     1      -1.753  24.782  10.677  1.00  0.00    -0.550 OA
ENDBRANCH   6   7
ENDBRANCH   5   6
ENDBRANCH   4   5
ENDBRANCH   3   4
ENDBRANCH   2   3
ENDBRANCH   1   2
BRANCH   1  10
ATOM     10  C   UNL     1      -7.886  22.306   9.849  1.00  0.00     0.000 C 
BRANCH  10  11
ATOM     11  C   UNL     1      -6.607  22.231  10.697  1.00  0.00    -0.000 C 
BRANCH  11  12
ATOM     12  C   UNL     1      -6.827  21.524  12.043  1.00  0.00    -0.000 C 
BRANCH  12  13
ATOM     13  C   UNL     1      -8.323  21.414  12.367  1.00  0.00    -0.000 C 
BRANCH  13  14
ATOM     14  C   UNL     1      -8.558  20.489  13.571  1.00  0.00    -0.000 C 
BRANCH  14  15
ATOM     15  C   UNL     1      -9.424  21.145  14.659  1.00  0.00    -0.003 C 
ATOM     16  C   UNL     1      -8.759  22.368  15.288  1.00  0.00     0.004 C 
ENDBRANCH  14  15
ENDBRANCH  13  14
ENDBRANCH  12  13
ENDBRANCH  11  12
ENDBRANCH  10  11
ENDBRANCH   1  10
TORSDOF 12
ENDMDL
MODEL 4
REMARK VINA RESULT:    -3.088      1.049      2.787
REMARK INTER + INTRA:          -6.748
REMARK INTER:                  -5.125
REMARK INTRA:                  -1.624
REMARK UNBOUND:                -1.494
REMARK SMILES CCCCCCCCCCCCCC(=O)[O-]
REMARK SMILES IDX 8 1 9 2 10 3 11 4 12 5 13 6 14 7 15 8 16 9 7 10 6 11 5 12
REMARK SMILES IDX 4 13 3 14 2 15 1 16
REMARK H PARENT
REMARK Flexibility Score: inf
ROOT
ATOM      1  C   UNL     1      -7.234  23.165  10.735  1.00  0.00     0.000 C 
ENDROOT
BRANCH   1   2
ATOM      2  C   UNL     1      -6.761  22.125   9.707  1.00  0.00     0.000 C 
BRANCH   2   3
ATOM      3  C   UNL     1      -6.028  22.766   8.514  1.00  0.00     0.000 C 
BRANCH   3   4
ATOM      4  C   UNL     1      -5.350  24.094   8.883  1.00  0.00     0.000 C 
BRANCH   4   5
ATOM      5  C   UNL     1      -3.827  24.066   8.663  1.00  0.00     0.006 C 
BRANCH   5   6
ATOM      6  C   UNL     1      -3.068  24.803   9.775  1.00  0.00     0.053 C 
BRANCH   6   7
ATOM      7  C   UNL     1      -3.517  24.367  11.137  1.00  0.00     0.041 C 
ATOM      8  O   UNL     1      -4.082  25.185  11.909  1.00  0.00    -0.550 OA
ATOM      9  O   UNL     1      -3.344  23.048  11.538  1.00  0.00    -0.550 OA
ENDBRANCH   6   7
ENDBRANCH   5   6
ENDBRANCH   4   5
ENDBRANCH   3   4
ENDBRANCH   2   3
ENDBRANCH   1   2
BRANCH   1  10
ATOM     10  C   UNL     1      -6.806  22.813  12.171  1.00  0.00     0.000 C 
BRANCH  10  11
ATOM     11  C   UNL     1      -7.026  21.330  12.506  1.00  0.00    -0.000 C 
BRANCH  11  12
ATOM     12  C   UNL     1      -8.237  21.101  13.423  1.00  0.00    -0.000 C 
BRANCH  12  13
ATOM     13  C   UNL     1      -9.315  20.274  12.712  1.00  0.00    -0.000 C 
BRANCH  13  14
ATOM     14  C   UNL     1     -10.231  21.171  11.867  1.00  0.00    -0.000 C 
BRANCH  14  15
ATOM     15  C   UNL     1     -10.309  20.720  10.400  1.00  0.00    -0.003 C 
ATOM     16  C   UNL     1     -10.495  21.887   9.430  1.00  0.00     0.004 C 
ENDBRANCH  14  15
ENDBRANCH  13  14
ENDBRANCH  12  13
ENDBRANCH  11  12
ENDBRANCH  10  11
ENDBRANCH   1  10
TORSDOF 12
ENDMDL
MODEL 5
REMARK VINA RESULT:    -3.003      1.784      2.754
REMARK INTER + INTRA:          -6.604
REMARK INTER:                  -4.808
REMARK INTRA:                  -1.796
REMARK UNBOUND:                -1.494
REMARK SMILES CCCCCCCCCCCCCC(=O)[O-]
REMARK SMILES IDX 8 1 9 2 10 3 11 4 12 5 13 6 14 7 15 8 16 9 7 10 6 11 5 12
REMARK SMILES IDX 4 13 3 14 2 15 1 16
REMARK H PARENT
REMARK Flexibility Score: inf
ROOT
ATOM      1  C   UNL     1      -8.072  22.341  10.479  1.00  0.00     0.000 C 
ENDROOT
BRANCH   1   2
ATOM      2  C   UNL     1      -7.882  23.713   9.810  1.00  0.00     0.000 C 
BRANCH   2   3
ATOM      3  C   UNL     1      -6.398  24.072   9.611  1.00  0.00     0.000 C 
BRANCH   3   4
ATOM      4  C   UNL     1      -5.978  25.311  10.416  1.00  0.00     0.000 C 
BRANCH   4   5
ATOM      5  C   UNL     1      -4.861  25.011  11.431  1.00  0.00     0.006 C 
BRANCH   5   6
ATOM      6  C   UNL     1      -3.913  23.908  10.939  1.00  0.00     0.053 C 
BRANCH   6   7
ATOM      7  C   UNL     1      -2.726  24.475  10.222  1.00  0.00     0.041 C 
ATOM      8  O   UNL     1      -1.713  24.846  10.870  1.00  0.00    -0.550 OA
ATOM      9  O   UNL     1      -2.725  24.559   8.835  1.00  0.00    -0.550 OA
ENDBRANCH   6   7
ENDBRANCH   5   6
ENDBRANCH   4   5
ENDBRANCH   3   4
ENDBRANCH   2   3
ENDBRANCH   1   2
BRANCH   1  10
ATOM     10  C   UNL     1      -6.757  21.767  11.033  1.00  0.00     0.000 C 
BRANCH  10  11
ATOM     11  C   UNL     1      -6.863  21.369  12.514  1.00  0.00    -0.000 C 
BRANCH  11  12
ATOM     12  C   UNL     1      -8.276  20.910  12.905  1.00  0.00    -0.000 C 
BRANCH  12  13
ATOM     13  C   UNL     1      -8.698  21.515  14.250  1.00  0.00    -0.000 C 
BRANCH  13  14
ATOM     14  C   UNL     1      -8.101  22.918  14.433  1.00  0.00    -0.000 C 
BRANCH  14  15
ATOM     15  C   UNL     1      -9.090  24.034  14.060  1.00  0.00    -0.003 C 
ATOM     16  C   UNL     1      -8.454  25.125  13.199  1.00  0.00     0.004 C 
ENDBRANCH  14  15
ENDBRANCH  13  14
ENDBRANCH  12  13
ENDBRANCH  11  12
ENDBRANCH  10  11
ENDBRANCH   1  10
TORSDOF 12
ENDMDL
MODEL 6
REMARK VINA RESULT:    -2.965      0.920      2.840
REMARK INTER + INTRA:          -6.539
REMARK INTER:                  -5.404
REMARK INTRA:                  -1.135
REMARK UNBOUND:                -1.494
REMARK SMILES CCCCCCCCCCCCCC(=O)[O-]
REMARK SMILES IDX 8 1 9 2 10 3 11 4 12 5 13 6 14 7 15 8 16 9 7 10 6 11 5 12
REMARK SMILES IDX 4 13 3 14 2 15 1 16
REMARK H PARENT
REMARK Flexibility Score: inf
ROOT
ATOM      1  C   UNL     1      -6.925  21.358  12.144  1.00  0.00     0.000 C 
ENDROOT
BRANCH   1   2
ATOM      2  C   UNL     1      -6.354  22.622  11.480  1.00  0.00     0.000 C 
BRANCH   2   3
ATOM      3  C   UNL     1      -7.045  22.950  10.144  1.00  0.00     0.000 C 
BRANCH   3   4
ATOM      4  C   UNL     1      -6.056  23.015   8.969  1.00  0.00     0.000 C 
BRANCH   4   5
ATOM      5  C   UNL     1      -5.162  24.266   9.014  1.00  0.00     0.006 C 
BRANCH   5   6
ATOM      6  C   UNL     1      -3.670  23.914   8.930  1.00  0.00     0.053 C 
BRANCH   6   7
ATOM      7  C   UNL     1      -2.972  24.139  10.237  1.00  0.00     0.041 C 
ATOM      8  O   UNL     1      -3.221  23.398  11.224  1.00  0.00    -0.550 OA
ATOM      9  O   UNL     1      -2.021  25.146  10.355  1.00  0.00    -0.550 OA
ENDBRANCH   6   7
ENDBRANCH   5   6
ENDBRANCH   4   5
ENDBRANCH   3   4
ENDBRANCH   2   3
ENDBRANCH   1   2
BRANCH   1  10
ATOM     10  C   UNL     1      -7.888  21.681  13.299  1.00  0.00     0.000 C 
BRANCH  10  11
ATOM     11  C   UNL     1      -8.800  20.497  13.657  1.00  0.00    -0.000 C 
BRANCH  11  12
ATOM     12  C   UNL     1      -9.809  20.168  12.548  1.00  0.00    -0.000 C 
BRANCH  12  13
ATOM     13  C   UNL     1     -10.830  21.300  12.379  1.00  0.00    -0.000 C 
BRANCH  13  14
ATOM     14  C   UNL     1     -10.826  21.837  10.940  1.00  0.00    -0.000 C 
BRANCH  14  15
ATOM     15  C   UNL     1     -10.076  20.912   9.968  1.00  0.00    -0.003 C 
ATOM     16  C   UNL     1     -11.015  20.149   9.034  1.00  0.00     0.004 C 
ENDBRANCH  14  15
ENDBRANCH  13  14
ENDBRANCH  12  13
ENDBRANCH  11  12
ENDBRANCH  10  11
ENDBRANCH   1  10
TORSDOF 12
ENDMDL
MODEL 7
REMARK VINA RESULT:    -2.949      3.073      6.173
REMARK INTER + INTRA:          -6.512
REMARK INTER:                  -5.131
REMARK INTRA:                  -1.381
REMARK UNBOUND:                -1.494
REMARK SMILES CCCCCCCCCCCCCC(=O)[O-]
REMARK SMILES IDX 8 1 9 2 10 3 11 4 12 5 13 6 14 7 15 8 16 9 7 10 6 11 5 12
REMARK SMILES IDX 4 13 3 14 2 15 1 16
REMARK H PARENT
REMARK Flexibility Score: inf
ROOT
ATOM      1  C   UNL     1      -7.364  22.856   8.372  1.00  0.00     0.000 C 
ENDROOT
BRANCH   1   2
ATOM      2  C   UNL     1      -7.694  22.344   9.784  1.00  0.00     0.000 C 
BRANCH   2   3
ATOM      3  C   UNL     1      -6.433  22.012  10.601  1.00  0.00     0.000 C 
BRANCH   3   4
ATOM      4  C   UNL     1      -6.757  21.611  12.049  1.00  0.00     0.000 C 
BRANCH   4   5
ATOM      5  C   UNL     1      -8.270  21.541  12.322  1.00  0.00     0.006 C 
BRANCH   5   6
ATOM      6  C   UNL     1      -8.612  20.539  13.433  1.00  0.00     0.053 C 
BRANCH   6   7
ATOM      7  C   UNL     1      -9.128  21.226  14.661  1.00  0.00     0.041 C 
ATOM      8  O   UNL     1     -10.066  20.715  15.326  1.00  0.00    -0.550 OA
ATOM      9  O   UNL     1      -8.547  22.414  15.090  1.00  0.00    -0.550 OA
ENDBRANCH   6   7
ENDBRANCH   5   6
ENDBRANCH   4   5
ENDBRANCH   3   4
ENDBRANCH   2   3
ENDBRANCH   1   2
BRANCH   1  10
ATOM     10  C   UNL     1      -6.424  21.910   7.605  1.00  0.00     0.000 C 
BRANCH  10  11
ATOM     11  C   UNL     1      -5.471  22.660   6.662  1.00  0.00    -0.000 C 
BRANCH  11  12
ATOM     12  C   UNL     1      -4.914  23.950   7.283  1.00  0.00    -0.000 C 
BRANCH  12  13
ATOM     13  C   UNL     1      -3.507  23.723   7.852  1.00  0.00    -0.000 C 
BRANCH  13  14
ATOM     14  C   UNL     1      -3.479  23.972   9.367  1.00  0.00    -0.000 C 
BRANCH  14  15
ATOM     15  C   UNL     1      -4.192  25.274   9.765  1.00  0.00    -0.003 C 
ATOM     16  C   UNL     1      -4.887  25.178  11.123  1.00  0.00     0.004 C 
ENDBRANCH  14  15
ENDBRANCH  13  14
ENDBRANCH  12  13
ENDBRANCH  11  12
ENDBRANCH  10  11
ENDBRANCH   1  10
TORSDOF 12
ENDMDL
MODEL 8
REMARK VINA RESULT:    -2.941      2.822      3.955
REMARK INTER + INTRA:          -6.499
REMARK INTER:                  -5.348
REMARK INTRA:                  -1.151
REMARK UNBOUND:                -1.494
REMARK SMILES CCCCCCCCCCCCCC(=O)[O-]
REMARK SMILES IDX 8 1 9 2 10 3 11 4 12 5 13 6 14 7 15 8 16 9 7 10 6 11 5 12
REMARK SMILES IDX 4 13 3 14 2 15 1 16
REMARK H PARENT
REMARK Flexibility Score: inf
ROOT
ATOM      1  C   UNL     1      -8.348  20.868  12.723  1.00  0.00     0.000 C 
ENDROOT
BRANCH   1   2
ATOM      2  C   UNL     1      -6.917  21.407  12.567  1.00  0.00     0.000 C 
BRANCH   2   3
ATOM      3  C   UNL     1      -6.877  22.935  12.386  1.00  0.00     0.000 C 
BRANCH   3   4
ATOM      4  C   UNL     1      -7.033  23.359  10.918  1.00  0.00     0.000 C 
BRANCH   4   5
ATOM      5  C   UNL     1      -5.876  22.866  10.030  1.00  0.00     0.006 C 
BRANCH   5   6
ATOM      6  C   UNL     1      -4.937  24.007   9.615  1.00  0.00     0.053 C 
BRANCH   6   7
ATOM      7  C   UNL     1      -3.607  23.907  10.297  1.00  0.00     0.041 C 
ATOM      8  O   UNL     1      -3.489  23.245  11.362  1.00  0.00    -0.550 OA
ATOM      9  O   UNL     1      -2.490  24.514   9.737  1.00  0.00    -0.550 OA
ENDBRANCH   6   7
ENDBRANCH   5   6
ENDBRANCH   4   5
ENDBRANCH   3   4
ENDBRANCH   2   3
ENDBRANCH   1   2
BRANCH   1  10
ATOM     10  C   UNL     1      -8.898  21.055  14.148  1.00  0.00     0.000 C 
BRANCH  10  11
ATOM     11  C   UNL     1     -10.011  22.112  14.219  1.00  0.00    -0.000 C 
BRANCH  11  12
ATOM     12  C   UNL     1      -9.695  23.242  15.211  1.00  0.00    -0.000 C 
BRANCH  12  13
ATOM     13  C   UNL     1      -8.350  23.000  15.909  1.00  0.00    -0.000 C 
BRANCH  13  14
ATOM     14  C   UNL     1      -7.561  24.310  16.053  1.00  0.00    -0.000 C 
BRANCH  14  15
ATOM     15  C   UNL     1      -7.680  24.919  17.459  1.00  0.00    -0.003 C 
ATOM     16  C   UNL     1      -8.515  26.198  17.482  1.00  0.00     0.004 C 
ENDBRANCH  14  15
ENDBRANCH  13  14
ENDBRANCH  12  13
ENDBRANCH  11  12
ENDBRANCH  10  11
ENDBRANCH   1  10
TORSDOF 12
ENDMDL
MODEL 9
REMARK VINA RESULT:    -2.921      2.151      3.475
REMARK INTER + INTRA:          -6.465
REMARK INTER:                  -5.168
REMARK INTRA:                  -1.297
REMARK UNBOUND:                -1.494
REMARK SMILES CCCCCCCCCCCCCC(=O)[O-]
REMARK SMILES IDX 8 1 9 2 10 3 11 4 12 5 13 6 14 7 15 8 16 9 7 10 6 11 5 12
REMARK SMILES IDX 4 13 3 14 2 15 1 16
REMARK H PARENT
REMARK Flexibility Score: inf
ROOT
ATOM      1  C   UNL     1      -5.824  23.754   7.896  1.00  0.00     0.000 C 
ENDROOT
BRANCH   1   2
ATOM      2  C   UNL     1      -4.443  23.508   7.266  1.00  0.00     0.000 C 
BRANCH   2   3
ATOM      3  C   UNL     1      -3.290  23.988   8.166  1.00  0.00     0.000 C 
BRANCH   3   4
ATOM      4  C   UNL     1      -3.783  24.546   9.510  1.00  0.00     0.000 C 
BRANCH   4   5
ATOM      5  C   UNL     1      -3.344  23.687  10.708  1.00  0.00     0.006 C 
BRANCH   5   6
ATOM      6  C   UNL     1      -2.312  24.405  11.589  1.00  0.00     0.053 C 
BRANCH   6   7
ATOM      7  C   UNL     1      -2.588  25.875  11.681  1.00  0.00     0.041 C 
ATOM      8  O   UNL     1      -3.417  26.312  12.522  1.00  0.00    -0.550 OA
ATOM      9  O   UNL     1      -1.904  26.765  10.862  1.00  0.00    -0.550 OA
ENDBRANCH   6   7
ENDBRANCH   5   6
ENDBRANCH   4   5
ENDBRANCH   3   4
ENDBRANCH   2   3
ENDBRANCH   1   2
BRANCH   1  10
ATOM     10  C   UNL     1      -6.596  22.449   8.154  1.00  0.00     0.000 C 
BRANCH  10  11
ATOM     11  C   UNL     1      -6.669  22.091   9.647  1.00  0.00    -0.000 C 
BRANCH  11  12
ATOM     12  C   UNL     1      -7.100  23.277  10.522  1.00  0.00    -0.000 C 
BRANCH  12  13
ATOM     13  C   UNL     1      -6.798  23.008  12.001  1.00  0.00    -0.000 C 
BRANCH  13  14
ATOM     14  C   UNL     1      -6.654  21.502  12.268  1.00  0.00    -0.000 C 
BRANCH  14  15
ATOM     15  C   UNL     1      -7.868  20.914  13.005  1.00  0.00    -0.003 C 
ATOM     16  C   UNL     1      -8.698  21.978  13.722  1.00  0.00     0.004 C 
ENDBRANCH  14  15
ENDBRANCH  13  14
ENDBRANCH  12  13
ENDBRANCH  11  12
ENDBRANCH  10  11
ENDBRANCH   1  10
TORSDOF 12
ENDMDL
