MODEL 1
REMARK VINA RESULT:    -4.257      0.000      0.000
REMARK INTER + INTRA:         -10.183
REMARK INTER:                  -7.740
REMARK INTRA:                  -2.442
REMARK UNBOUND:                -2.442
REMARK SMILES CCCCCCCCCCCCCCCC(=O)[O-]
REMARK SMILES IDX 9 1 10 2 11 3 12 4 13 5 14 6 15 7 16 8 17 9 18 10 8 11 7 12
REMARK SMILES IDX 6 13 5 14 4 15 3 16 2 17 1 18
REMARK H PARENT
REMARK Flexibility Score: inf
ROOT
ATOM      1  C   UNL     1       6.875  34.023  70.708  1.00  0.00     0.000 C 
ENDROOT
BRANCH   1   2
ATOM      2  C   UNL     1       5.903  35.192  70.469  1.00  0.00     0.000 C 
BRANCH   2   3
ATOM      3  C   UNL     1       4.556  34.994  71.183  1.00  0.00     0.000 C 
BRANCH   3   4
ATOM      4  C   UNL     1       3.452  35.907  70.623  1.00  0.00     0.000 C 
BRANCH   4   5
ATOM      5  C   UNL     1       2.076  35.219  70.590  1.00  0.00     0.000 C 
BRANCH   5   6
ATOM      6  C   UNL     1       1.041  36.000  69.766  1.00  0.00     0.006 C 
BRANCH   6   7
ATOM      7  C   UNL     1       1.581  36.316  68.368  1.00  0.00     0.053 C 
BRANCH   7   8
ATOM      8  C   UNL     1       0.826  35.549  67.328  1.00  0.00     0.041 C 
ATOM      9  O   UNL     1       0.731  35.997  66.155  1.00  0.00    -0.550 OA
ATOM     10  O   UNL     1       0.189  34.363  67.666  1.00  0.00    -0.550 OA
ENDBRANCH   7   8
ENDBRANCH   6   7
ENDBRANCH   5   6
ENDBRANCH   4   5
ENDBRANCH   3   4
ENDBRANCH   2   3
ENDBRANCH   1   2
BRANCH   1  11
ATOM     11  C   UNL     1       7.511  33.510  69.407  1.00  0.00     0.000 C 
BRANCH  11  12
ATOM     12  C   UNL     1       7.803  34.640  68.403  1.00  0.00    -0.000 C 
BRANCH  12  13
ATOM     13  C   UNL     1       7.160  34.391  67.030  1.00  0.00    -0.000 C 
BRANCH  13  14
ATOM     14  C   UNL     1       6.483  33.015  66.935  1.00  0.00    -0.000 C 
BRANCH  14  15
ATOM     15  C   UNL     1       5.010  33.157  66.521  1.00  0.00    -0.000 C 
BRANCH  15  16
ATOM     16  C   UNL     1       4.131  33.726  67.646  1.00  0.00    -0.000 C 
BRANCH  16  17
ATOM     17  C   UNL     1       3.257  32.654  68.314  1.00  0.00    -0.003 C 
ATOM     18  C   UNL     1       4.058  31.845  69.330  1.00  0.00     0.004 C 
ENDBRANCH  16  17
ENDBRANCH  15  16
ENDBRANCH  14  15
ENDBRANCH  13  14
ENDBRANCH  12  13
ENDBRANCH  11  12
ENDBRANCH   1  11
TORSDOF 14
ENDMDL
MODEL 2
REMARK VINA RESULT:    -4.230     10.803     12.499
REMARK INTER + INTRA:         -10.135
REMARK INTER:                  -8.725
REMARK INTRA:                  -1.410
REMARK UNBOUND:                -2.442
REMARK SMILES CCCCCCCCCCCCCCCC(=O)[O-]
REMARK SMILES IDX 9 1 10 2 11 3 12 4 13 5 14 6 15 7 16 8 17 9 18 10 8 11 7 12
REMARK SMILES IDX 6 13 5 14 4 15 3 16 2 17 1 18
REMARK H PARENT
REMARK Flexibility Score: inf
ROOT
ATOM      1  C   UNL     1       4.390  46.757  66.287  1.00  0.00     0.000 C 
ENDROOT
BRANCH   1   2
ATOM      2  C   UNL     1       3.564  45.866  65.343  1.00  0.00     0.000 C 
BRANCH   2   3
ATOM      3  C   UNL     1       3.359  44.448  65.902  1.00  0.00     0.000 C 
BRANCH   3   4
ATOM      4  C   UNL     1       1.938  44.230  66.447  1.00  0.00     0.000 C 
BRANCH   4   5
ATOM      5  C   UNL     1       1.877  44.299  67.983  1.00  0.00     0.000 C 
BRANCH   5   6
ATOM      6  C   UNL     1       3.170  43.810  68.652  1.00  0.00     0.006 C 
BRANCH   6   7
ATOM      7  C   UNL     1       2.864  43.052  69.946  1.00  0.00     0.053 C 
BRANCH   7   8
ATOM      8  C   UNL     1       3.808  43.463  71.032  1.00  0.00     0.041 C 
ATOM      9  O   UNL     1       4.991  43.034  71.040  1.00  0.00    -0.550 OA
ATOM     10  O   UNL     1       3.366  44.283  72.062  1.00  0.00    -0.550 OA
ENDBRANCH   7   8
ENDBRANCH   6   7
ENDBRANCH   5   6
ENDBRANCH   4   5
ENDBRANCH   3   4
ENDBRANCH   2   3
ENDBRANCH   1   2
BRANCH   1  11
ATOM     11  C   UNL     1       5.513  47.510  65.555  1.00  0.00     0.000 C 
BRANCH  11  12
ATOM     12  C   UNL     1       5.875  48.843  66.234  1.00  0.00    -0.000 C 
BRANCH  12  13
ATOM     13  C   UNL     1       7.358  48.920  66.631  1.00  0.00    -0.000 C 
BRANCH  13  14
ATOM     14  C   UNL     1       7.993  47.532  66.812  1.00  0.00    -0.000 C 
BRANCH  14  15
ATOM     15  C   UNL     1       8.589  47.383  68.221  1.00  0.00    -0.000 C 
BRANCH  15  16
ATOM     16  C   UNL     1       7.935  48.327  69.243  1.00  0.00    -0.000 C 
BRANCH  16  17
ATOM     17  C   UNL     1       7.084  47.577  70.279  1.00  0.00    -0.003 C 
ATOM     18  C   UNL     1       6.132  46.596  69.603  1.00  0.00     0.004 C 
ENDBRANCH  16  17
ENDBRANCH  15  16
ENDBRANCH  14  15
ENDBRANCH  13  14
ENDBRANCH  12  13
ENDBRANCH  11  12
ENDBRANCH   1  11
TORSDOF 14
ENDMDL
MODEL 3
REMARK VINA RESULT:    -4.137     11.091     12.895
REMARK INTER + INTRA:          -9.965
REMARK INTER:                  -8.902
REMARK INTRA:                  -1.063
REMARK UNBOUND:                -2.442
REMARK SMILES CCCCCCCCCCCCCCCC(=O)[O-]
REMARK SMILES IDX 9 1 10 2 11 3 12 4 13 5 14 6 15 7 16 8 17 9 18 10 8 11 7 12
REMARK SMILES IDX 6 13 5 14 4 15 3 16 2 17 1 18
REMARK H PARENT
REMARK Flexibility Score: inf
ROOT
ATOM      1  C   UNL     1       4.259  46.439  66.173  1.00  0.00     0.000 C 
ENDROOT
BRANCH   1   2
ATOM      2  C   UNL     1       3.027  45.600  65.792  1.00  0.00     0.000 C 
BRANCH   2   3
ATOM      3  C   UNL     1       3.405  44.207  65.262  1.00  0.00     0.000 C 
BRANCH   3   4
ATOM      4  C   UNL     1       3.194  43.101  66.310  1.00  0.00     0.000 C 
BRANCH   4   5
ATOM      5  C   UNL     1       2.740  43.656  67.671  1.00  0.00     0.000 C 
BRANCH   5   6
ATOM      6  C   UNL     1       3.308  42.860  68.856  1.00  0.00     0.006 C 
BRANCH   6   7
ATOM      7  C   UNL     1       2.659  43.301  70.172  1.00  0.00     0.053 C 
BRANCH   7   8
ATOM      8  C   UNL     1       3.703  43.550  71.215  1.00  0.00     0.041 C 
ATOM      9  O   UNL     1       3.462  44.318  72.182  1.00  0.00    -0.550 OA
ATOM     10  O   UNL     1       4.959  42.970  71.092  1.00  0.00    -0.550 OA
ENDBRANCH   7   8
ENDBRANCH   6   7
ENDBRANCH   5   6
ENDBRANCH   4   5
ENDBRANCH   3   4
ENDBRANCH   2   3
ENDBRANCH   1   2
BRANCH   1  11
ATOM     11  C   UNL     1       4.900  47.130  64.958  1.00  0.00     0.000 C 
BRANCH  11  12
ATOM     12  C   UNL     1       4.470  48.601  64.817  1.00  0.00    -0.000 C 
BRANCH  12  13
ATOM     13  C   UNL     1       5.646  49.578  64.978  1.00  0.00    -0.000 C 
BRANCH  13  14
ATOM     14  C   UNL     1       5.847  50.024  66.435  1.00  0.00    -0.000 C 
BRANCH  14  15
ATOM     15  C   UNL     1       7.334  49.979  66.821  1.00  0.00    -0.000 C 
BRANCH  15  16
ATOM     16  C   UNL     1       7.662  48.821  67.777  1.00  0.00    -0.000 C 
BRANCH  16  17
ATOM     17  C   UNL     1       7.983  47.515  67.036  1.00  0.00    -0.003 C 
ATOM     18  C   UNL     1       9.213  46.833  67.629  1.00  0.00     0.004 C 
ENDBRANCH  16  17
ENDBRANCH  15  16
ENDBRANCH  14  15
ENDBRANCH  13  14
ENDBRANCH  12  13
ENDBRANCH  11  12
ENDBRANCH   1  11
TORSDOF 14
ENDMDL
MODEL 4
REMARK VINA RESULT:    -4.119      1.384      2.549
REMARK INTER + INTRA:          -9.932
REMARK INTER:                  -7.842
REMARK INTRA:                  -2.090
REMARK UNBOUND:                -2.442
REMARK SMILES CCCCCCCCCCCCCCCC(=O)[O-]
REMARK SMILES IDX 9 1 10 2 11 3 12 4 13 5 14 6 15 7 16 8 17 9 18 10 8 11 7 12
REMARK SMILES IDX 6 13 5 14 4 15 3 16 2 17 1 18
REMARK H PARENT
REMARK Flexibility Score: inf
ROOT
ATOM      1  C   UNL     1       7.075  33.726  70.949  1.00  0.00     0.000 C 
ENDROOT
BRANCH   1   2
ATOM      2  C   UNL     1       5.570  34.045  70.891  1.00  0.00     0.000 C 
BRANCH   2   3
ATOM      3  C   UNL     1       5.294  35.510  70.513  1.00  0.00     0.000 C 
BRANCH   3   4
ATOM      4  C   UNL     1       3.797  35.860  70.567  1.00  0.00     0.000 C 
BRANCH   4   5
ATOM      5  C   UNL     1       2.899  34.680  70.161  1.00  0.00     0.000 C 
BRANCH   5   6
ATOM      6  C   UNL     1       1.489  35.122  69.742  1.00  0.00     0.006 C 
BRANCH   6   7
ATOM      7  C   UNL     1       1.553  36.300  68.765  1.00  0.00     0.053 C 
BRANCH   7   8
ATOM      8  C   UNL     1       1.302  35.835  67.365  1.00  0.00     0.041 C 
ATOM      9  O   UNL     1       0.688  34.757  67.155  1.00  0.00    -0.550 OA
ATOM     10  O   UNL     1       1.788  36.571  66.292  1.00  0.00    -0.550 OA
ENDBRANCH   7   8
ENDBRANCH   6   7
ENDBRANCH   5   6
ENDBRANCH   4   5
ENDBRANCH   3   4
ENDBRANCH   2   3
ENDBRANCH   1   2
BRANCH   1  11
ATOM     11  C   UNL     1       7.358  32.216  70.905  1.00  0.00     0.000 C 
BRANCH  11  12
ATOM     12  C   UNL     1       6.111  31.387  70.549  1.00  0.00    -0.000 C 
BRANCH  12  13
ATOM     13  C   UNL     1       6.185  30.786  69.136  1.00  0.00    -0.000 C 
BRANCH  13  14
ATOM     14  C   UNL     1       7.543  31.032  68.460  1.00  0.00    -0.000 C 
BRANCH  14  15
ATOM     15  C   UNL     1       7.377  31.891  67.197  1.00  0.00    -0.000 C 
BRANCH  15  16
ATOM     16  C   UNL     1       7.975  33.298  67.356  1.00  0.00    -0.000 C 
BRANCH  16  17
ATOM     17  C   UNL     1       6.925  34.408  67.193  1.00  0.00    -0.003 C 
ATOM     18  C   UNL     1       5.519  33.825  67.088  1.00  0.00     0.004 C 
ENDBRANCH  16  17
ENDBRANCH  15  16
ENDBRANCH  14  15
ENDBRANCH  13  14
ENDBRANCH  12  13
ENDBRANCH  11  12
ENDBRANCH   1  11
TORSDOF 14
ENDMDL
MODEL 5
REMARK VINA RESULT:    -4.112      2.143      3.865
REMARK INTER + INTRA:          -9.920
REMARK INTER:                  -7.830
REMARK INTRA:                  -2.091
REMARK UNBOUND:                -2.442
REMARK SMILES CCCCCCCCCCCCCCCC(=O)[O-]
REMARK SMILES IDX 9 1 10 2 11 3 12 4 13 5 14 6 15 7 16 8 17 9 18 10 8 11 7 12
REMARK SMILES IDX 6 13 5 14 4 15 3 16 2 17 1 18
REMARK H PARENT
REMARK Flexibility Score: inf
ROOT
ATOM      1  C   UNL     1       7.669  33.921  67.593  1.00  0.00     0.000 C 
ENDROOT
BRANCH   1   2
ATOM      2  C   UNL     1       6.173  33.585  67.461  1.00  0.00     0.000 C 
BRANCH   2   3
ATOM      3  C   UNL     1       5.373  33.953  68.723  1.00  0.00     0.000 C 
BRANCH   3   4
ATOM      4  C   UNL     1       6.150  34.897  69.657  1.00  0.00     0.000 C 
BRANCH   4   5
ATOM      5  C   UNL     1       5.233  35.632  70.649  1.00  0.00     0.000 C 
BRANCH   5   6
ATOM      6  C   UNL     1       4.017  34.793  71.068  1.00  0.00     0.006 C 
BRANCH   6   7
ATOM      7  C   UNL     1       2.796  35.685  71.312  1.00  0.00     0.053 C 
BRANCH   7   8
ATOM      8  C   UNL     1       1.930  35.734  70.093  1.00  0.00     0.041 C 
ATOM      9  O   UNL     1       2.035  36.688  69.278  1.00  0.00    -0.550 OA
ATOM     10  O   UNL     1       0.972  34.750  69.881  1.00  0.00    -0.550 OA
ENDBRANCH   7   8
ENDBRANCH   6   7
ENDBRANCH   5   6
ENDBRANCH   4   5
ENDBRANCH   3   4
ENDBRANCH   2   3
ENDBRANCH   1   2
BRANCH   1  11
ATOM     11  C   UNL     1       8.570  32.698  67.359  1.00  0.00     0.000 C 
BRANCH  11  12
ATOM     12  C   UNL     1       7.802  31.367  67.454  1.00  0.00    -0.000 C 
BRANCH  12  13
ATOM     13  C   UNL     1       8.096  30.606  68.756  1.00  0.00    -0.000 C 
BRANCH  13  14
ATOM     14  C   UNL     1       6.953  30.718  69.777  1.00  0.00    -0.000 C 
BRANCH  14  15
ATOM     15  C   UNL     1       7.346  31.640  70.941  1.00  0.00    -0.000 C 
BRANCH  15  16
ATOM     16  C   UNL     1       6.188  31.883  71.921  1.00  0.00    -0.000 C 
BRANCH  16  17
ATOM     17  C   UNL     1       6.605  32.731  73.132  1.00  0.00    -0.003 C 
ATOM     18  C   UNL     1       8.083  32.539  73.455  1.00  0.00     0.004 C 
ENDBRANCH  16  17
ENDBRANCH  15  16
ENDBRANCH  14  15
ENDBRANCH  13  14
ENDBRANCH  12  13
ENDBRANCH  11  12
ENDBRANCH   1  11
TORSDOF 14
ENDMDL
MODEL 6
REMARK VINA RESULT:    -4.109      1.445      2.206
REMARK INTER + INTRA:          -9.913
REMARK INTER:                  -7.751
REMARK INTRA:                  -2.163
REMARK UNBOUND:                -2.442
REMARK SMILES CCCCCCCCCCCCCCCC(=O)[O-]
REMARK SMILES IDX 9 1 10 2 11 3 12 4 13 5 14 6 15 7 16 8 17 9 18 10 8 11 7 12
REMARK SMILES IDX 6 13 5 14 4 15 3 16 2 17 1 18
REMARK H PARENT
REMARK Flexibility Score: inf
ROOT
ATOM      1  C   UNL     1       7.231  34.865  69.125  1.00  0.00     0.000 C 
ENDROOT
BRANCH   1   2
ATOM      2  C   UNL     1       7.128  33.922  70.337  1.00  0.00     0.000 C 
BRANCH   2   3
ATOM      3  C   UNL     1       5.730  33.941  70.980  1.00  0.00     0.000 C 
BRANCH   3   4
ATOM      4  C   UNL     1       4.938  35.211  70.629  1.00  0.00     0.000 C 
BRANCH   4   5
ATOM      5  C   UNL     1       3.797  35.490  71.622  1.00  0.00     0.000 C 
BRANCH   5   6
ATOM      6  C   UNL     1       2.490  35.898  70.927  1.00  0.00     0.006 C 
BRANCH   6   7
ATOM      7  C   UNL     1       2.474  35.424  69.471  1.00  0.00     0.053 C 
BRANCH   7   8
ATOM      8  C   UNL     1       1.327  36.038  68.731  1.00  0.00     0.041 C 
ATOM      9  O   UNL     1       0.209  36.171  69.293  1.00  0.00    -0.550 OA
ATOM     10  O   UNL     1       1.481  36.419  67.404  1.00  0.00    -0.550 OA
ENDBRANCH   7   8
ENDBRANCH   6   7
ENDBRANCH   5   6
ENDBRANCH   4   5
ENDBRANCH   3   4
ENDBRANCH   2   3
ENDBRANCH   1   2
BRANCH   1  11
ATOM     11  C   UNL     1       7.733  34.148  67.862  1.00  0.00     0.000 C 
BRANCH  11  12
ATOM     12  C   UNL     1       8.205  32.710  68.143  1.00  0.00    -0.000 C 
BRANCH  12  13
ATOM     13  C   UNL     1       7.929  31.758  66.969  1.00  0.00    -0.000 C 
BRANCH  13  14
ATOM     14  C   UNL     1       7.003  30.594  67.357  1.00  0.00    -0.000 C 
BRANCH  14  15
ATOM     15  C   UNL     1       6.170  30.948  68.598  1.00  0.00    -0.000 C 
BRANCH  15  16
ATOM     16  C   UNL     1       4.664  30.734  68.381  1.00  0.00    -0.000 C 
BRANCH  16  17
ATOM     17  C   UNL     1       3.863  32.042  68.463  1.00  0.00    -0.003 C 
ATOM     18  C   UNL     1       4.311  33.030  67.390  1.00  0.00     0.004 C 
ENDBRANCH  16  17
ENDBRANCH  15  16
ENDBRANCH  14  15
ENDBRANCH  13  14
ENDBRANCH  12  13
ENDBRANCH  11  12
ENDBRANCH   1  11
TORSDOF 14
ENDMDL
MODEL 7
REMARK VINA RESULT:    -4.101      1.344      2.988
REMARK INTER + INTRA:          -9.900
REMARK INTER:                  -7.522
REMARK INTRA:                  -2.378
REMARK UNBOUND:                -2.442
REMARK SMILES CCCCCCCCCCCCCCCC(=O)[O-]
REMARK SMILES IDX 9 1 10 2 11 3 12 4 13 5 14 6 15 7 16 8 17 9 18 10 8 11 7 12
REMARK SMILES IDX 6 13 5 14 4 15 3 16 2 17 1 18
REMARK H PARENT
REMARK Flexibility Score: inf
ROOT
ATOM      1  C   UNL     1       4.431  33.923  67.572  1.00  0.00     0.000 C 
ENDROOT
BRANCH   1   2
ATOM      2  C   UNL     1       4.114  32.827  68.605  1.00  0.00     0.000 C 
BRANCH   2   3
ATOM      3  C   UNL     1       4.041  33.376  70.041  1.00  0.00     0.000 C 
BRANCH   3   4
ATOM      4  C   UNL     1       4.775  34.719  70.195  1.00  0.00     0.000 C 
BRANCH   4   5
ATOM      5  C   UNL     1       3.921  35.781  70.909  1.00  0.00     0.000 C 
BRANCH   5   6
ATOM      6  C   UNL     1       2.413  35.558  70.718  1.00  0.00     0.006 C 
BRANCH   6   7
ATOM      7  C   UNL     1       1.849  36.513  69.662  1.00  0.00     0.053 C 
BRANCH   7   8
ATOM      8  C   UNL     1       1.407  35.754  68.450  1.00  0.00     0.041 C 
ATOM      9  O   UNL     1       0.970  34.579  68.562  1.00  0.00    -0.550 OA
ATOM     10  O   UNL     1       1.523  36.329  67.191  1.00  0.00    -0.550 OA
ENDBRANCH   7   8
ENDBRANCH   6   7
ENDBRANCH   5   6
ENDBRANCH   4   5
ENDBRANCH   3   4
ENDBRANCH   2   3
ENDBRANCH   1   2
BRANCH   1  11
ATOM     11  C   UNL     1       5.657  33.583  66.710  1.00  0.00     0.000 C 
BRANCH  11  12
ATOM     12  C   UNL     1       6.903  34.399  67.102  1.00  0.00    -0.000 C 
BRANCH  12  13
ATOM     13  C   UNL     1       8.070  33.512  67.560  1.00  0.00    -0.000 C 
BRANCH  13  14
ATOM     14  C   UNL     1       7.735  32.014  67.497  1.00  0.00    -0.000 C 
BRANCH  14  15
ATOM     15  C   UNL     1       7.755  31.389  68.900  1.00  0.00    -0.000 C 
BRANCH  15  16
ATOM     16  C   UNL     1       7.582  32.433  70.015  1.00  0.00    -0.000 C 
BRANCH  16  17
ATOM     17  C   UNL     1       7.157  31.806  71.352  1.00  0.00    -0.003 C 
ATOM     18  C   UNL     1       7.441  32.748  72.517  1.00  0.00     0.004 C 
ENDBRANCH  16  17
ENDBRANCH  15  16
ENDBRANCH  14  15
ENDBRANCH  13  14
ENDBRANCH  12  13
ENDBRANCH  11  12
ENDBRANCH   1  11
TORSDOF 14
ENDMDL
MODEL 8
REMARK VINA RESULT:    -4.083      3.908      6.216
REMARK INTER + INTRA:          -9.866
REMARK INTER:                  -7.412
REMARK INTRA:                  -2.454
REMARK UNBOUND:                -2.442
REMARK SMILES CCCCCCCCCCCCCCCC(=O)[O-]
REMARK SMILES IDX 9 1 10 2 11 3 12 4 13 5 14 6 15 7 16 8 17 9 18 10 8 11 7 12
REMARK SMILES IDX 6 13 5 14 4 15 3 16 2 17 1 18
REMARK H PARENT
REMARK Flexibility Score: inf
ROOT
ATOM      1  C   UNL     1       6.892  34.366  67.259  1.00  0.00     0.000 C 
ENDROOT
BRANCH   1   2
ATOM      2  C   UNL     1       7.990  33.791  68.171  1.00  0.00     0.000 C 
BRANCH   2   3
ATOM      3  C   UNL     1       8.104  32.261  68.063  1.00  0.00     0.000 C 
BRANCH   3   4
ATOM      4  C   UNL     1       7.595  31.542  69.324  1.00  0.00     0.000 C 
BRANCH   4   5
ATOM      5  C   UNL     1       7.345  32.508  70.495  1.00  0.00     0.000 C 
BRANCH   5   6
ATOM      6  C   UNL     1       6.430  31.911  71.574  1.00  0.00     0.006 C 
BRANCH   6   7
ATOM      7  C   UNL     1       6.592  32.655  72.902  1.00  0.00     0.053 C 
BRANCH   7   8
ATOM      8  C   UNL     1       7.875  32.270  73.568  1.00  0.00     0.041 C 
ATOM      9  O   UNL     1       8.649  33.156  74.016  1.00  0.00    -0.550 OA
ATOM     10  O   UNL     1       8.239  30.932  73.652  1.00  0.00    -0.550 OA
ENDBRANCH   7   8
ENDBRANCH   6   7
ENDBRANCH   5   6
ENDBRANCH   4   5
ENDBRANCH   3   4
ENDBRANCH   2   3
ENDBRANCH   1   2
BRANCH   1  11
ATOM     11  C   UNL     1       5.858  33.307  66.844  1.00  0.00     0.000 C 
BRANCH  11  12
ATOM     12  C   UNL     1       4.460  33.582  67.429  1.00  0.00    -0.000 C 
BRANCH  12  13
ATOM     13  C   UNL     1       4.016  32.502  68.428  1.00  0.00    -0.000 C 
BRANCH  13  14
ATOM     14  C   UNL     1       3.282  33.089  69.645  1.00  0.00    -0.000 C 
BRANCH  14  15
ATOM     15  C   UNL     1       2.731  34.488  69.330  1.00  0.00    -0.000 C 
BRANCH  15  16
ATOM     16  C   UNL     1       3.134  35.533  70.382  1.00  0.00    -0.000 C 
BRANCH  16  17
ATOM     17  C   UNL     1       4.429  35.161  71.119  1.00  0.00    -0.003 C 
ATOM     18  C   UNL     1       5.651  35.745  70.416  1.00  0.00     0.004 C 
ENDBRANCH  16  17
ENDBRANCH  15  16
ENDBRANCH  14  15
ENDBRANCH  13  14
ENDBRANCH  12  13
ENDBRANCH  11  12
ENDBRANCH   1  11
TORSDOF 14
ENDMDL
MODEL 9
REMARK VINA RESULT:    -4.057      2.812      5.329
REMARK INTER + INTRA:          -9.819
REMARK INTER:                  -7.672
REMARK INTRA:                  -2.147
REMARK UNBOUND:                -2.442
REMARK SMILES CCCCCCCCCCCCCCCC(=O)[O-]
REMARK SMILES IDX 9 1 10 2 11 3 12 4 13 5 14 6 15 7 16 8 17 9 18 10 8 11 7 12
REMARK SMILES IDX 6 13 5 14 4 15 3 16 2 17 1 18
REMARK H PARENT
REMARK Flexibility Score: inf
ROOT
ATOM      1  C   UNL     1       2.338  36.245  69.844  1.00  0.00     0.000 C 
ENDROOT
BRANCH   1   2
ATOM      2  C   UNL     1       1.364  35.649  68.813  1.00  0.00     0.000 C 
BRANCH   2   3
ATOM      3  C   UNL     1       2.089  34.898  67.684  1.00  0.00     0.000 C 
BRANCH   3   4
ATOM      4  C   UNL     1       2.055  33.372  67.875  1.00  0.00     0.000 C 
BRANCH   4   5
ATOM      5  C   UNL     1       3.427  32.795  68.262  1.00  0.00     0.000 C 
BRANCH   5   6
ATOM      6  C   UNL     1       4.585  33.445  67.490  1.00  0.00     0.006 C 
BRANCH   6   7
ATOM      7  C   UNL     1       5.852  32.590  67.581  1.00  0.00     0.053 C 
BRANCH   7   8
ATOM      8  C   UNL     1       7.053  33.385  67.176  1.00  0.00     0.041 C 
ATOM      9  O   UNL     1       8.190  32.845  67.145  1.00  0.00    -0.550 OA
ATOM     10  O   UNL     1       6.923  34.735  66.877  1.00  0.00    -0.550 OA
ENDBRANCH   7   8
ENDBRANCH   6   7
ENDBRANCH   5   6
ENDBRANCH   4   5
ENDBRANCH   3   4
ENDBRANCH   2   3
ENDBRANCH   1   2
BRANCH   1  11
ATOM     11  C   UNL     1       2.532  35.334  71.067  1.00  0.00     0.000 C 
BRANCH  11  12
ATOM     12  C   UNL     1       3.990  35.308  71.563  1.00  0.00    -0.000 C 
BRANCH  12  13
ATOM     13  C   UNL     1       5.002  35.560  70.435  1.00  0.00    -0.000 C 
BRANCH  13  14
ATOM     14  C   UNL     1       6.284  34.728  70.594  1.00  0.00    -0.000 C 
BRANCH  14  15
ATOM     15  C   UNL     1       5.983  33.382  71.269  1.00  0.00    -0.000 C 
BRANCH  15  16
ATOM     16  C   UNL     1       7.168  32.407  71.200  1.00  0.00    -0.000 C 
BRANCH  16  17
ATOM     17  C   UNL     1       7.529  31.816  72.572  1.00  0.00    -0.003 C 
ATOM     18  C   UNL     1       6.765  32.517  73.691  1.00  0.00     0.004 C 
ENDBRANCH  16  17
ENDBRANCH  15  16
ENDBRANCH  14  15
ENDBRANCH  13  14
ENDBRANCH  12  13
ENDBRANCH  11  12
ENDBRANCH   1  11
TORSDOF 14
ENDMDL
