MODEL 1
REMARK VINA RESULT:    -3.942      0.000      0.000
REMARK INTER + INTRA:          -9.573
REMARK INTER:                  -7.399
REMARK INTRA:                  -2.174
REMARK UNBOUND:                -2.174
REMARK SMILES CCCCCCCCC=CCCCCCCCC(=O)[O-]
REMARK SMILES IDX 10 1 9 2 11 3 12 4 13 5 14 6 15 7 16 8 17 9 18 10 19 11
REMARK SMILES IDX 20 12 8 13 7 14 6 15 5 16 4 17 3 18 2 19 1 20
REMARK H PARENT
REMARK Flexibility Score: inf
ROOT
ATOM      1  C   UNL     1      18.730   7.104  44.320  1.00  0.00    -0.031 C 
ATOM      2  C   UNL     1      19.085   5.915  44.845  1.00  0.00    -0.031 C 
ENDROOT
BRANCH   1   3
ATOM      3  C   UNL     1      17.306   7.569  44.129  1.00  0.00     0.027 C 
BRANCH   3   4
ATOM      4  C   UNL     1      17.105   9.020  44.600  1.00  0.00     0.004 C 
BRANCH   4   5
ATOM      5  C   UNL     1      16.272   9.158  45.889  1.00  0.00     0.000 C 
BRANCH   5   6
ATOM      6  C   UNL     1      14.811   9.599  45.677  1.00  0.00     0.000 C 
BRANCH   6   7
ATOM      7  C   UNL     1      13.950   9.534  46.957  1.00  0.00     0.000 C 
BRANCH   7   8
ATOM      8  C   UNL     1      13.146   8.230  47.057  1.00  0.00     0.006 C 
BRANCH   8   9
ATOM      9  C   UNL     1      13.139   7.696  48.492  1.00  0.00     0.053 C 
BRANCH   9  10
ATOM     10  C   UNL     1      11.771   7.223  48.869  1.00  0.00     0.041 C 
ATOM     11  O   UNL     1      11.620   6.423  49.830  1.00  0.00    -0.550 OA
ATOM     12  O   UNL     1      10.667   7.624  48.127  1.00  0.00    -0.550 OA
ENDBRANCH   9  10
ENDBRANCH   8   9
ENDBRANCH   7   8
ENDBRANCH   6   7
ENDBRANCH   5   6
ENDBRANCH   4   5
ENDBRANCH   3   4
ENDBRANCH   1   3
BRANCH   2  13
ATOM     13  C   UNL     1      18.116   4.828  45.233  1.00  0.00     0.027 C 
BRANCH  13  14
ATOM     14  C   UNL     1      18.166   4.572  46.744  1.00  0.00     0.004 C 
BRANCH  14  15
ATOM     15  C   UNL     1      17.360   5.633  47.507  1.00  0.00     0.000 C 
BRANCH  15  16
ATOM     16  C   UNL     1      15.893   5.702  47.052  1.00  0.00     0.000 C 
BRANCH  16  17
ATOM     17  C   UNL     1      15.098   4.440  47.426  1.00  0.00    -0.000 C 
BRANCH  17  18
ATOM     18  C   UNL     1      15.302   4.026  48.892  1.00  0.00    -0.000 C 
BRANCH  18  19
ATOM     19  C   UNL     1      15.548   2.518  49.050  1.00  0.00    -0.003 C 
ATOM     20  C   UNL     1      15.481   1.806  47.701  1.00  0.00     0.004 C 
ENDBRANCH  18  19
ENDBRANCH  17  18
ENDBRANCH  16  17
ENDBRANCH  15  16
ENDBRANCH  14  15
ENDBRANCH  13  14
ENDBRANCH   2  13
TORSDOF 15
ENDMDL
MODEL 2
REMARK VINA RESULT:    -3.795      9.714     11.885
REMARK INTER + INTRA:          -9.296
REMARK INTER:                  -6.669
REMARK INTRA:                  -2.627
REMARK UNBOUND:                -2.174
REMARK SMILES CCCCCCCCC=CCCCCCCCC(=O)[O-]
REMARK SMILES IDX 10 1 9 2 11 3 12 4 13 5 14 6 15 7 16 8 17 9 18 10 19 11
REMARK SMILES IDX 20 12 8 13 7 14 6 15 5 16 4 17 3 18 2 19 1 20
REMARK H PARENT
REMARK Flexibility Score: inf
ROOT
ATOM      1  C   UNL     1      19.896  15.785  44.505  1.00  0.00    -0.031 C 
ATOM      2  C   UNL     1      20.395  15.354  43.332  1.00  0.00    -0.031 C 
ENDROOT
BRANCH   1   3
ATOM      3  C   UNL     1      18.440  16.100  44.757  1.00  0.00     0.027 C 
BRANCH   3   4
ATOM      4  C   UNL     1      18.099  17.562  44.420  1.00  0.00     0.004 C 
BRANCH   4   5
ATOM      5  C   UNL     1      16.898  17.729  43.468  1.00  0.00     0.000 C 
BRANCH   5   6
ATOM      6  C   UNL     1      16.018  16.475  43.302  1.00  0.00     0.000 C 
BRANCH   6   7
ATOM      7  C   UNL     1      14.530  16.711  43.638  1.00  0.00     0.000 C 
BRANCH   7   8
ATOM      8  C   UNL     1      13.715  15.410  43.634  1.00  0.00     0.006 C 
BRANCH   8   9
ATOM      9  C   UNL     1      13.133  15.130  42.246  1.00  0.00     0.053 C 
BRANCH   9  10
ATOM     10  C   UNL     1      13.525  13.764  41.779  1.00  0.00     0.041 C 
ATOM     11  O   UNL     1      12.839  12.760  42.108  1.00  0.00    -0.550 OA
ATOM     12  O   UNL     1      14.677  13.592  41.021  1.00  0.00    -0.550 OA
ENDBRANCH   9  10
ENDBRANCH   8   9
ENDBRANCH   7   8
ENDBRANCH   6   7
ENDBRANCH   5   6
ENDBRANCH   4   5
ENDBRANCH   3   4
ENDBRANCH   1   3
BRANCH   2  13
ATOM     13  C   UNL     1      19.596  15.211  42.062  1.00  0.00     0.027 C 
BRANCH  13  14
ATOM     14  C   UNL     1      19.746  16.459  41.183  1.00  0.00     0.004 C 
BRANCH  14  15
ATOM     15  C   UNL     1      18.499  16.671  40.314  1.00  0.00     0.000 C 
BRANCH  15  16
ATOM     16  C   UNL     1      18.221  18.157  40.032  1.00  0.00     0.000 C 
BRANCH  16  17
ATOM     17  C   UNL     1      16.960  18.370  39.177  1.00  0.00    -0.000 C 
BRANCH  17  18
ATOM     18  C   UNL     1      15.775  18.904  39.997  1.00  0.00    -0.000 C 
BRANCH  18  19
ATOM     19  C   UNL     1      14.657  17.864  40.163  1.00  0.00    -0.003 C 
ATOM     20  C   UNL     1      14.909  16.642  39.284  1.00  0.00     0.004 C 
ENDBRANCH  18  19
ENDBRANCH  17  18
ENDBRANCH  16  17
ENDBRANCH  15  16
ENDBRANCH  14  15
ENDBRANCH  13  14
ENDBRANCH   2  13
TORSDOF 15
ENDMDL
MODEL 3
REMARK VINA RESULT:    -3.766      2.699      4.687
REMARK INTER + INTRA:          -9.243
REMARK INTER:                  -7.646
REMARK INTRA:                  -1.597
REMARK UNBOUND:                -2.174
REMARK SMILES CCCCCCCCC=CCCCCCCCC(=O)[O-]
REMARK SMILES IDX 10 1 9 2 11 3 12 4 13 5 14 6 15 7 16 8 17 9 18 10 19 11
REMARK SMILES IDX 20 12 8 13 7 14 6 15 5 16 4 17 3 18 2 19 1 20
REMARK H PARENT
REMARK Flexibility Score: inf
ROOT
ATOM      1  C   UNL     1      14.383   7.442  49.092  1.00  0.00    -0.031 C 
ATOM      2  C   UNL     1      15.174   7.838  48.077  1.00  0.00    -0.031 C 
ENDROOT
BRANCH   1   3
ATOM      3  C   UNL     1      13.633   6.133  49.138  1.00  0.00     0.027 C 
BRANCH   3   4
ATOM      4  C   UNL     1      12.112   6.342  49.241  1.00  0.00     0.004 C 
BRANCH   4   5
ATOM      5  C   UNL     1      11.658   7.066  50.523  1.00  0.00     0.000 C 
BRANCH   5   6
ATOM      6  C   UNL     1      10.939   8.410  50.294  1.00  0.00     0.000 C 
BRANCH   6   7
ATOM      7  C   UNL     1      10.311   8.548  48.890  1.00  0.00     0.000 C 
BRANCH   7   8
ATOM      8  C   UNL     1       8.901   9.152  48.936  1.00  0.00     0.006 C 
BRANCH   8   9
ATOM      9  C   UNL     1       8.307   9.059  50.345  1.00  0.00     0.053 C 
BRANCH   9  10
ATOM     10  C   UNL     1       6.850   8.732  50.279  1.00  0.00     0.041 C 
ATOM     11  O   UNL     1       6.329   7.981  51.146  1.00  0.00    -0.550 OA
ATOM     12  O   UNL     1       6.075   9.215  49.232  1.00  0.00    -0.550 OA
ENDBRANCH   9  10
ENDBRANCH   8   9
ENDBRANCH   7   8
ENDBRANCH   6   7
ENDBRANCH   5   6
ENDBRANCH   4   5
ENDBRANCH   3   4
ENDBRANCH   1   3
BRANCH   2  13
ATOM     13  C   UNL     1      15.358   7.079  46.789  1.00  0.00     0.027 C 
BRANCH  13  14
ATOM     14  C   UNL     1      16.786   7.247  46.258  1.00  0.00     0.004 C 
BRANCH  14  15
ATOM     15  C   UNL     1      17.575   5.936  46.379  1.00  0.00     0.000 C 
BRANCH  15  16
ATOM     16  C   UNL     1      16.662   4.704  46.494  1.00  0.00     0.000 C 
BRANCH  16  17
ATOM     17  C   UNL     1      17.193   3.666  47.497  1.00  0.00    -0.000 C 
BRANCH  17  18
ATOM     18  C   UNL     1      16.481   3.741  48.857  1.00  0.00    -0.000 C 
BRANCH  18  19
ATOM     19  C   UNL     1      15.252   2.822  48.930  1.00  0.00    -0.003 C 
ATOM     20  C   UNL     1      15.396   1.635  47.981  1.00  0.00     0.004 C 
ENDBRANCH  18  19
ENDBRANCH  17  18
ENDBRANCH  16  17
ENDBRANCH  15  16
ENDBRANCH  14  15
ENDBRANCH  13  14
ENDBRANCH   2  13
TORSDOF 15
ENDMDL
MODEL 4
REMARK VINA RESULT:    -3.733      4.394      5.867
REMARK INTER + INTRA:          -9.181
REMARK INTER:                  -7.658
REMARK INTRA:                  -1.523
REMARK UNBOUND:                -2.174
REMARK SMILES CCCCCCCCC=CCCCCCCCC(=O)[O-]
REMARK SMILES IDX 10 1 9 2 11 3 12 4 13 5 14 6 15 7 16 8 17 9 18 10 19 11
REMARK SMILES IDX 20 12 8 13 7 14 6 15 5 16 4 17 3 18 2 19 1 20
REMARK H PARENT
REMARK Flexibility Score: inf
ROOT
ATOM      1  C   UNL     1      20.089   5.025  44.232  1.00  0.00    -0.031 C 
ATOM      2  C   UNL     1      19.807   5.121  45.545  1.00  0.00    -0.031 C 
ENDROOT
BRANCH   1   3
ATOM      3  C   UNL     1      19.169   4.420  43.198  1.00  0.00     0.027 C 
BRANCH   3   4
ATOM      4  C   UNL     1      18.554   5.488  42.277  1.00  0.00     0.004 C 
BRANCH   4   5
ATOM      5  C   UNL     1      17.311   6.187  42.861  1.00  0.00     0.000 C 
BRANCH   5   6
ATOM      6  C   UNL     1      17.232   7.704  42.600  1.00  0.00     0.000 C 
BRANCH   6   7
ATOM      7  C   UNL     1      16.018   8.126  41.746  1.00  0.00     0.000 C 
BRANCH   7   8
ATOM      8  C   UNL     1      15.707   7.117  40.631  1.00  0.00     0.006 C 
BRANCH   8   9
ATOM      9  C   UNL     1      15.336   7.832  39.329  1.00  0.00     0.053 C 
BRANCH   9  10
ATOM     10  C   UNL     1      15.348   6.872  38.182  1.00  0.00     0.041 C 
ATOM     11  O   UNL     1      14.404   6.051  38.033  1.00  0.00    -0.550 OA
ATOM     12  O   UNL     1      16.424   6.849  37.305  1.00  0.00    -0.550 OA
ENDBRANCH   9  10
ENDBRANCH   8   9
ENDBRANCH   7   8
ENDBRANCH   6   7
ENDBRANCH   5   6
ENDBRANCH   4   5
ENDBRANCH   3   4
ENDBRANCH   1   3
BRANCH   2  13
ATOM     13  C   UNL     1      18.575   4.553  46.201  1.00  0.00     0.027 C 
BRANCH  13  14
ATOM     14  C   UNL     1      17.688   5.675  46.752  1.00  0.00     0.004 C 
BRANCH  14  15
ATOM     15  C   UNL     1      16.209   5.262  46.741  1.00  0.00     0.000 C 
BRANCH  15  16
ATOM     16  C   UNL     1      15.547   5.398  48.122  1.00  0.00     0.000 C 
BRANCH  16  17
ATOM     17  C   UNL     1      15.252   4.036  48.773  1.00  0.00    -0.000 C 
BRANCH  17  18
ATOM     18  C   UNL     1      16.530   3.246  49.095  1.00  0.00    -0.000 C 
BRANCH  18  19
ATOM     19  C   UNL     1      16.535   1.847  48.461  1.00  0.00    -0.003 C 
ATOM     20  C   UNL     1      15.219   1.567  47.739  1.00  0.00     0.004 C 
ENDBRANCH  18  19
ENDBRANCH  17  18
ENDBRANCH  16  17
ENDBRANCH  15  16
ENDBRANCH  14  15
ENDBRANCH  13  14
ENDBRANCH   2  13
TORSDOF 15
ENDMDL
MODEL 5
REMARK VINA RESULT:    -3.685      3.989      6.557
REMARK INTER + INTRA:          -9.091
REMARK INTER:                  -7.826
REMARK INTRA:                  -1.264
REMARK UNBOUND:                -2.174
REMARK SMILES CCCCCCCCC=CCCCCCCCC(=O)[O-]
REMARK SMILES IDX 10 1 9 2 11 3 12 4 13 5 14 6 15 7 16 8 17 9 18 10 19 11
REMARK SMILES IDX 20 12 8 13 7 14 6 15 5 16 4 17 3 18 2 19 1 20
REMARK H PARENT
REMARK Flexibility Score: inf
ROOT
ATOM      1  C   UNL     1      11.890   7.550  51.062  1.00  0.00    -0.031 C 
ATOM      2  C   UNL     1      12.839   6.735  50.563  1.00  0.00    -0.031 C 
ENDROOT
BRANCH   1   3
ATOM      3  C   UNL     1      10.692   8.047  50.289  1.00  0.00     0.027 C 
BRANCH   3   4
ATOM      4  C   UNL     1      10.616   9.584  50.267  1.00  0.00     0.004 C 
BRANCH   4   5
ATOM      5  C   UNL     1       9.415  10.147  49.483  1.00  0.00     0.000 C 
BRANCH   5   6
ATOM      6  C   UNL     1       8.717   9.142  48.546  1.00  0.00     0.000 C 
BRANCH   6   7
ATOM      7  C   UNL     1       7.248   8.855  48.925  1.00  0.00     0.000 C 
BRANCH   7   8
ATOM      8  C   UNL     1       6.982   9.049  50.425  1.00  0.00     0.006 C 
BRANCH   8   9
ATOM      9  C   UNL     1       5.495   9.302  50.691  1.00  0.00     0.053 C 
BRANCH   9  10
ATOM     10  C   UNL     1       5.087  10.639  50.160  1.00  0.00     0.041 C 
ATOM     11  O   UNL     1       5.713  11.676  50.506  1.00  0.00    -0.550 OA
ATOM     12  O   UNL     1       3.984  10.749  49.323  1.00  0.00    -0.550 OA
ENDBRANCH   9  10
ENDBRANCH   8   9
ENDBRANCH   7   8
ENDBRANCH   6   7
ENDBRANCH   5   6
ENDBRANCH   4   5
ENDBRANCH   3   4
ENDBRANCH   1   3
BRANCH   2  13
ATOM     13  C   UNL     1      12.904   6.272  49.131  1.00  0.00     0.027 C 
BRANCH  13  14
ATOM     14  C   UNL     1      13.800   7.198  48.301  1.00  0.00     0.004 C 
BRANCH  14  15
ATOM     15  C   UNL     1      14.755   6.388  47.413  1.00  0.00     0.000 C 
BRANCH  15  16
ATOM     16  C   UNL     1      16.097   6.094  48.102  1.00  0.00     0.000 C 
BRANCH  16  17
ATOM     17  C   UNL     1      16.294   4.597  48.399  1.00  0.00    -0.000 C 
BRANCH  17  18
ATOM     18  C   UNL     1      15.373   3.703  47.555  1.00  0.00    -0.000 C 
BRANCH  18  19
ATOM     19  C   UNL     1      15.688   2.208  47.722  1.00  0.00    -0.003 C 
ATOM     20  C   UNL     1      16.248   1.917  49.112  1.00  0.00     0.004 C 
ENDBRANCH  18  19
ENDBRANCH  17  18
ENDBRANCH  16  17
ENDBRANCH  15  16
ENDBRANCH  14  15
ENDBRANCH  13  14
ENDBRANCH   2  13
TORSDOF 15
ENDMDL
MODEL 6
REMARK VINA RESULT:    -3.681      8.992     11.270
REMARK INTER + INTRA:          -9.084
REMARK INTER:                  -6.261
REMARK INTRA:                  -2.823
REMARK UNBOUND:                -2.174
REMARK SMILES CCCCCCCCC=CCCCCCCCC(=O)[O-]
REMARK SMILES IDX 10 1 9 2 11 3 12 4 13 5 14 6 15 7 16 8 17 9 18 10 19 11
REMARK SMILES IDX 20 12 8 13 7 14 6 15 5 16 4 17 3 18 2 19 1 20
REMARK H PARENT
REMARK Flexibility Score: inf
ROOT
ATOM      1  C   UNL     1      15.585  17.138  43.349  1.00  0.00    -0.031 C 
ATOM      2  C   UNL     1      15.716  16.913  44.670  1.00  0.00    -0.031 C 
ENDROOT
BRANCH   1   3
ATOM      3  C   UNL     1      16.115  18.353  42.627  1.00  0.00     0.027 C 
BRANCH   3   4
ATOM      4  C   UNL     1      16.552  18.025  41.188  1.00  0.00     0.004 C 
BRANCH   4   5
ATOM      5  C   UNL     1      15.462  18.261  40.125  1.00  0.00     0.000 C 
BRANCH   5   6
ATOM      6  C   UNL     1      14.767  16.986  39.609  1.00  0.00     0.000 C 
BRANCH   6   7
ATOM      7  C   UNL     1      15.564  15.692  39.876  1.00  0.00     0.000 C 
BRANCH   7   8
ATOM      8  C   UNL     1      14.795  14.703  40.765  1.00  0.00     0.006 C 
BRANCH   8   9
ATOM      9  C   UNL     1      13.520  15.341  41.322  1.00  0.00     0.053 C 
BRANCH   9  10
ATOM     10  C   UNL     1      12.976  14.525  42.451  1.00  0.00     0.041 C 
ATOM     11  O   UNL     1      12.563  15.089  43.499  1.00  0.00    -0.550 OA
ATOM     12  O   UNL     1      12.970  13.138  42.368  1.00  0.00    -0.550 OA
ENDBRANCH   9  10
ENDBRANCH   8   9
ENDBRANCH   7   8
ENDBRANCH   6   7
ENDBRANCH   5   6
ENDBRANCH   4   5
ENDBRANCH   3   4
ENDBRANCH   1   3
BRANCH   2  13
ATOM     13  C   UNL     1      16.325  17.885  45.647  1.00  0.00     0.027 C 
BRANCH  13  14
ATOM     14  C   UNL     1      17.622  17.320  46.237  1.00  0.00     0.004 C 
BRANCH  14  15
ATOM     15  C   UNL     1      18.735  17.284  45.180  1.00  0.00     0.000 C 
BRANCH  15  16
ATOM     16  C   UNL     1      19.524  15.964  45.198  1.00  0.00     0.000 C 
BRANCH  16  17
ATOM     17  C   UNL     1      20.012  15.549  43.799  1.00  0.00    -0.000 C 
BRANCH  17  18
ATOM     18  C   UNL     1      18.917  15.681  42.729  1.00  0.00    -0.000 C 
BRANCH  18  19
ATOM     19  C   UNL     1      18.333  14.323  42.312  1.00  0.00    -0.003 C 
ATOM     20  C   UNL     1      17.296  13.837  43.321  1.00  0.00     0.004 C 
ENDBRANCH  18  19
ENDBRANCH  17  18
ENDBRANCH  16  17
ENDBRANCH  15  16
ENDBRANCH  14  15
ENDBRANCH  13  14
ENDBRANCH   2  13
TORSDOF 15
ENDMDL
MODEL 7
REMARK VINA RESULT:    -3.654      9.768     11.793
REMARK INTER + INTRA:          -9.032
REMARK INTER:                  -6.155
REMARK INTRA:                  -2.877
REMARK UNBOUND:                -2.174
REMARK SMILES CCCCCCCCC=CCCCCCCCC(=O)[O-]
REMARK SMILES IDX 10 1 9 2 11 3 12 4 13 5 14 6 15 7 16 8 17 9 18 10 19 11
REMARK SMILES IDX 20 12 8 13 7 14 6 15 5 16 4 17 3 18 2 19 1 20
REMARK H PARENT
REMARK Flexibility Score: inf
ROOT
ATOM      1  C   UNL     1      14.133  14.361  41.734  1.00  0.00    -0.031 C 
ATOM      2  C   UNL     1      14.661  14.895  40.616  1.00  0.00    -0.031 C 
ENDROOT
BRANCH   1   3
ATOM      3  C   UNL     1      12.970  14.944  42.500  1.00  0.00     0.027 C 
BRANCH   3   4
ATOM      4  C   UNL     1      13.408  15.546  43.846  1.00  0.00     0.004 C 
BRANCH   4   5
ATOM      5  C   UNL     1      14.230  16.844  43.722  1.00  0.00     0.000 C 
BRANCH   5   6
ATOM      6  C   UNL     1      14.920  17.305  45.020  1.00  0.00     0.000 C 
BRANCH   6   7
ATOM      7  C   UNL     1      15.825  16.231  45.660  1.00  0.00     0.000 C 
BRANCH   7   8
ATOM      8  C   UNL     1      16.882  16.835  46.594  1.00  0.00     0.006 C 
BRANCH   8   9
ATOM      9  C   UNL     1      17.785  15.747  47.181  1.00  0.00     0.053 C 
BRANCH   9  10
ATOM     10  C   UNL     1      18.645  15.148  46.115  1.00  0.00     0.041 C 
ATOM     11  O   UNL     1      18.503  13.939  45.790  1.00  0.00    -0.550 OA
ATOM     12  O   UNL     1      19.639  15.909  45.513  1.00  0.00    -0.550 OA
ENDBRANCH   9  10
ENDBRANCH   8   9
ENDBRANCH   7   8
ENDBRANCH   6   7
ENDBRANCH   5   6
ENDBRANCH   4   5
ENDBRANCH   3   4
ENDBRANCH   1   3
BRANCH   2  13
ATOM     13  C   UNL     1      14.235  16.208  40.011  1.00  0.00     0.027 C 
BRANCH  13  14
ATOM     14  C   UNL     1      15.441  16.956  39.432  1.00  0.00     0.004 C 
BRANCH  14  15
ATOM     15  C   UNL     1      15.475  18.409  39.925  1.00  0.00     0.000 C 
BRANCH  15  16
ATOM     16  C   UNL     1      16.147  18.551  41.300  1.00  0.00     0.000 C 
BRANCH  16  17
ATOM     17  C   UNL     1      17.558  17.939  41.335  1.00  0.00    -0.000 C 
BRANCH  17  18
ATOM     18  C   UNL     1      17.849  17.199  42.650  1.00  0.00    -0.000 C 
BRANCH  18  19
ATOM     19  C   UNL     1      17.698  15.677  42.516  1.00  0.00    -0.003 C 
ATOM     20  C   UNL     1      18.305  15.179  41.206  1.00  0.00     0.004 C 
ENDBRANCH  18  19
ENDBRANCH  17  18
ENDBRANCH  16  17
ENDBRANCH  15  16
ENDBRANCH  14  15
ENDBRANCH  13  14
ENDBRANCH   2  13
TORSDOF 15
ENDMDL
MODEL 8
REMARK VINA RESULT:    -3.637      8.907     11.283
REMARK INTER + INTRA:          -9.000
REMARK INTER:                  -5.952
REMARK INTRA:                  -3.047
REMARK UNBOUND:                -2.174
REMARK SMILES CCCCCCCCC=CCCCCCCCC(=O)[O-]
REMARK SMILES IDX 10 1 9 2 11 3 12 4 13 5 14 6 15 7 16 8 17 9 18 10 19 11
REMARK SMILES IDX 20 12 8 13 7 14 6 15 5 16 4 17 3 18 2 19 1 20
REMARK H PARENT
REMARK Flexibility Score: inf
ROOT
ATOM      1  C   UNL     1      18.738  15.470  45.940  1.00  0.00    -0.031 C 
ATOM      2  C   UNL     1      17.706  16.114  46.518  1.00  0.00    -0.031 C 
ENDROOT
BRANCH   1   3
ATOM      3  C   UNL     1      19.710  16.100  44.971  1.00  0.00     0.027 C 
BRANCH   3   4
ATOM      4  C   UNL     1      19.808  15.308  43.655  1.00  0.00     0.004 C 
BRANCH   4   5
ATOM      5  C   UNL     1      18.973  15.893  42.500  1.00  0.00     0.000 C 
BRANCH   5   6
ATOM      6  C   UNL     1      17.965  14.917  41.863  1.00  0.00     0.000 C 
BRANCH   6   7
ATOM      7  C   UNL     1      17.094  14.165  42.891  1.00  0.00     0.000 C 
BRANCH   7   8
ATOM      8  C   UNL     1      15.778  13.658  42.284  1.00  0.00     0.006 C 
BRANCH   8   9
ATOM      9  C   UNL     1      14.637  13.733  43.302  1.00  0.00     0.053 C 
BRANCH   9  10
ATOM     10  C   UNL     1      13.324  13.911  42.607  1.00  0.00     0.041 C 
ATOM     11  O   UNL     1      12.910  13.034  41.803  1.00  0.00    -0.550 OA
ATOM     12  O   UNL     1      12.582  15.067  42.808  1.00  0.00    -0.550 OA
ENDBRANCH   9  10
ENDBRANCH   8   9
ENDBRANCH   7   8
ENDBRANCH   6   7
ENDBRANCH   5   6
ENDBRANCH   4   5
ENDBRANCH   3   4
ENDBRANCH   1   3
BRANCH   2  13
ATOM     13  C   UNL     1      17.304  17.534  46.213  1.00  0.00     0.027 C 
BRANCH  13  14
ATOM     14  C   UNL     1      15.795  17.627  45.956  1.00  0.00     0.004 C 
BRANCH  14  15
ATOM     15  C   UNL     1      15.427  16.988  44.609  1.00  0.00     0.000 C 
BRANCH  15  16
ATOM     16  C   UNL     1      15.990  17.769  43.410  1.00  0.00     0.000 C 
BRANCH  16  17
ATOM     17  C   UNL     1      15.202  17.511  42.114  1.00  0.00    -0.000 C 
BRANCH  17  18
ATOM     18  C   UNL     1      15.983  17.922  40.857  1.00  0.00    -0.000 C 
BRANCH  18  19
ATOM     19  C   UNL     1      15.685  17.014  39.654  1.00  0.00    -0.003 C 
ATOM     20  C   UNL     1      14.412  16.202  39.882  1.00  0.00     0.004 C 
ENDBRANCH  18  19
ENDBRANCH  17  18
ENDBRANCH  16  17
ENDBRANCH  15  16
ENDBRANCH  14  15
ENDBRANCH  13  14
ENDBRANCH   2  13
TORSDOF 15
ENDMDL
MODEL 9
REMARK VINA RESULT:    -3.573      9.475     11.666
REMARK INTER + INTRA:          -8.880
REMARK INTER:                  -5.854
REMARK INTRA:                  -3.026
REMARK UNBOUND:                -2.174
REMARK SMILES CCCCCCCCC=CCCCCCCCC(=O)[O-]
REMARK SMILES IDX 10 1 9 2 11 3 12 4 13 5 14 6 15 7 16 8 17 9 18 10 19 11
REMARK SMILES IDX 20 12 8 13 7 14 6 15 5 16 4 17 3 18 2 19 1 20
REMARK H PARENT
REMARK Flexibility Score: inf
ROOT
ATOM      1  C   UNL     1      17.731  17.263  45.896  1.00  0.00    -0.031 C 
ATOM      2  C   UNL     1      18.456  16.135  45.769  1.00  0.00    -0.031 C 
ENDROOT
BRANCH   1   3
ATOM      3  C   UNL     1      17.884  18.486  45.024  1.00  0.00     0.027 C 
BRANCH   3   4
ATOM      4  C   UNL     1      17.009  18.408  43.761  1.00  0.00     0.004 C 
BRANCH   4   5
ATOM      5  C   UNL     1      15.540  18.026  44.030  1.00  0.00     0.000 C 
BRANCH   5   6
ATOM      6  C   UNL     1      14.976  16.920  43.117  1.00  0.00     0.000 C 
BRANCH   6   7
ATOM      7  C   UNL     1      15.352  15.492  43.565  1.00  0.00     0.000 C 
BRANCH   7   8
ATOM      8  C   UNL     1      15.690  14.577  42.380  1.00  0.00     0.006 C 
BRANCH   8   9
ATOM      9  C   UNL     1      14.540  14.538  41.369  1.00  0.00     0.053 C 
BRANCH   9  10
ATOM     10  C   UNL     1      13.785  13.252  41.483  1.00  0.00     0.041 C 
ATOM     11  O   UNL     1      12.747  13.187  42.195  1.00  0.00    -0.550 OA
ATOM     12  O   UNL     1      14.253  12.111  40.844  1.00  0.00    -0.550 OA
ENDBRANCH   9  10
ENDBRANCH   8   9
ENDBRANCH   7   8
ENDBRANCH   6   7
ENDBRANCH   5   6
ENDBRANCH   4   5
ENDBRANCH   3   4
ENDBRANCH   1   3
BRANCH   2  13
ATOM     13  C   UNL     1      19.597  15.956  44.801  1.00  0.00     0.027 C 
BRANCH  13  14
ATOM     14  C   UNL     1      19.167  15.095  43.608  1.00  0.00     0.004 C 
BRANCH  14  15
ATOM     15  C   UNL     1      20.094  15.319  42.405  1.00  0.00     0.000 C 
BRANCH  15  16
ATOM     16  C   UNL     1      19.688  16.541  41.566  1.00  0.00     0.000 C 
BRANCH  16  17
ATOM     17  C   UNL     1      18.345  16.341  40.842  1.00  0.00    -0.000 C 
BRANCH  17  18
ATOM     18  C   UNL     1      17.747  17.662  40.333  1.00  0.00    -0.000 C 
BRANCH  18  19
ATOM     19  C   UNL     1      16.356  17.477  39.707  1.00  0.00    -0.003 C 
ATOM     20  C   UNL     1      15.467  18.688  39.975  1.00  0.00     0.004 C 
ENDBRANCH  18  19
ENDBRANCH  17  18
ENDBRANCH  16  17
ENDBRANCH  15  16
ENDBRANCH  14  15
ENDBRANCH  13  14
ENDBRANCH   2  13
TORSDOF 15
ENDMDL
