MODEL 1
REMARK VINA RESULT:    -4.075      0.000      0.000
REMARK INTER + INTRA:          -9.696
REMARK INTER:                  -7.411
REMARK INTRA:                  -2.285
REMARK UNBOUND:                -2.285
REMARK SMILES CCCCCCCCCCCCCCCC(=O)[O-]
REMARK SMILES IDX 9 1 10 2 11 3 12 4 13 5 14 6 15 7 16 8 17 9 18 10 8 11 7 12
REMARK SMILES IDX 6 13 5 14 4 15 3 16 2 17 1 18
REMARK H PARENT
REMARK Flexibility Score: inf
ROOT
ATOM      1  C   UNL     1     -37.270  20.736 -27.782  1.00  0.00     0.000 C 
ENDROOT
BRANCH   1   2
ATOM      2  C   UNL     1     -36.553  20.506 -29.121  1.00  0.00     0.000 C 
BRANCH   2   3
ATOM      3  C   UNL     1     -37.360  19.560 -30.017  1.00  0.00     0.000 C 
BRANCH   3   4
ATOM      4  C   UNL     1     -38.570  18.985 -29.266  1.00  0.00     0.000 C 
BRANCH   4   5
ATOM      5  C   UNL     1     -39.846  18.942 -30.124  1.00  0.00     0.000 C 
BRANCH   5   6
ATOM      6  C   UNL     1     -40.726  20.202 -29.992  1.00  0.00     0.006 C 
BRANCH   6   7
ATOM      7  C   UNL     1     -40.777  20.725 -28.550  1.00  0.00     0.053 C 
BRANCH   7   8
ATOM      8  C   UNL     1     -41.992  21.570 -28.339  1.00  0.00     0.041 C 
ATOM      9  O   UNL     1     -42.982  21.109 -27.713  1.00  0.00    -0.550 OA
ATOM     10  O   UNL     1     -42.040  22.859 -28.851  1.00  0.00    -0.550 OA
ENDBRANCH   7   8
ENDBRANCH   6   7
ENDBRANCH   5   6
ENDBRANCH   4   5
ENDBRANCH   3   4
ENDBRANCH   2   3
ENDBRANCH   1   2
BRANCH   1  11
ATOM     11  C   UNL     1     -36.619  21.850 -26.947  1.00  0.00     0.000 C 
BRANCH  11  12
ATOM     12  C   UNL     1     -36.363  23.128 -27.765  1.00  0.00    -0.000 C 
BRANCH  12  13
ATOM     13  C   UNL     1     -37.230  24.312 -27.301  1.00  0.00    -0.000 C 
BRANCH  13  14
ATOM     14  C   UNL     1     -38.480  24.578 -28.164  1.00  0.00    -0.000 C 
BRANCH  14  15
ATOM     15  C   UNL     1     -38.246  24.507 -29.687  1.00  0.00    -0.000 C 
BRANCH  15  16
ATOM     16  C   UNL     1     -38.939  23.327 -30.397  1.00  0.00    -0.000 C 
BRANCH  16  17
ATOM     17  C   UNL     1     -38.355  22.971 -31.775  1.00  0.00    -0.003 C 
ATOM     18  C   UNL     1     -36.837  23.135 -31.838  1.00  0.00     0.004 C 
ENDBRANCH  16  17
ENDBRANCH  15  16
ENDBRANCH  14  15
ENDBRANCH  13  14
ENDBRANCH  12  13
ENDBRANCH  11  12
ENDBRANCH   1  11
TORSDOF 14
ENDMDL
MODEL 2
REMARK VINA RESULT:    -4.049     15.242     17.223
REMARK INTER + INTRA:          -9.647
REMARK INTER:                  -7.204
REMARK INTRA:                  -2.443
REMARK UNBOUND:                -2.285
REMARK SMILES CCCCCCCCCCCCCCCC(=O)[O-]
REMARK SMILES IDX 9 1 10 2 11 3 12 4 13 5 14 6 15 7 16 8 17 9 18 10 8 11 7 12
REMARK SMILES IDX 6 13 5 14 4 15 3 16 2 17 1 18
REMARK H PARENT
REMARK Flexibility Score: inf
ROOT
ATOM      1  C   UNL     1     -55.640  13.203 -29.193  1.00  0.00     0.000 C 
ENDROOT
BRANCH   1   2
ATOM      2  C   UNL     1     -54.632  12.049 -29.282  1.00  0.00     0.000 C 
BRANCH   2   3
ATOM      3  C   UNL     1     -54.694  11.373 -30.656  1.00  0.00     0.000 C 
BRANCH   3   4
ATOM      4  C   UNL     1     -53.414  10.573 -30.938  1.00  0.00     0.000 C 
BRANCH   4   5
ATOM      5  C   UNL     1     -52.723  10.986 -32.248  1.00  0.00     0.000 C 
BRANCH   5   6
ATOM      6  C   UNL     1     -51.190  10.805 -32.226  1.00  0.00     0.006 C 
BRANCH   6   7
ATOM      7  C   UNL     1     -50.652  10.590 -30.805  1.00  0.00     0.053 C 
BRANCH   7   8
ATOM      8  C   UNL     1     -49.244  10.089 -30.846  1.00  0.00     0.041 C 
ATOM      9  O   UNL     1     -48.894   9.254 -31.720  1.00  0.00    -0.550 OA
ATOM     10  O   UNL     1     -48.322  10.531 -29.907  1.00  0.00    -0.550 OA
ENDBRANCH   7   8
ENDBRANCH   6   7
ENDBRANCH   5   6
ENDBRANCH   4   5
ENDBRANCH   3   4
ENDBRANCH   2   3
ENDBRANCH   1   2
BRANCH   1  11
ATOM     11  C   UNL     1     -55.274  14.225 -28.105  1.00  0.00     0.000 C 
BRANCH  11  12
ATOM     12  C   UNL     1     -55.168  15.659 -28.652  1.00  0.00    -0.000 C 
BRANCH  12  13
ATOM     13  C   UNL     1     -55.064  15.702 -30.187  1.00  0.00    -0.000 C 
BRANCH  13  14
ATOM     14  C   UNL     1     -53.640  15.923 -30.734  1.00  0.00    -0.000 C 
BRANCH  14  15
ATOM     15  C   UNL     1     -52.984  14.678 -31.366  1.00  0.00    -0.000 C 
BRANCH  15  16
ATOM     16  C   UNL     1     -51.699  14.194 -30.665  1.00  0.00    -0.000 C 
BRANCH  16  17
ATOM     17  C   UNL     1     -51.748  14.235 -29.128  1.00  0.00    -0.003 C 
ATOM     18  C   UNL     1     -50.950  13.106 -28.477  1.00  0.00     0.004 C 
ENDBRANCH  16  17
ENDBRANCH  15  16
ENDBRANCH  14  15
ENDBRANCH  13  14
ENDBRANCH  12  13
ENDBRANCH  11  12
ENDBRANCH   1  11
TORSDOF 14
ENDMDL
MODEL 3
REMARK VINA RESULT:    -4.005      1.122      3.851
REMARK INTER + INTRA:          -9.568
REMARK INTER:                  -7.327
REMARK INTRA:                  -2.241
REMARK UNBOUND:                -2.285
REMARK SMILES CCCCCCCCCCCCCCCC(=O)[O-]
REMARK SMILES IDX 9 1 10 2 11 3 12 4 13 5 14 6 15 7 16 8 17 9 18 10 8 11 7 12
REMARK SMILES IDX 6 13 5 14 4 15 3 16 2 17 1 18
REMARK H PARENT
REMARK Flexibility Score: inf
ROOT
ATOM      1  C   UNL     1     -36.732  24.639 -29.447  1.00  0.00     0.000 C 
ENDROOT
BRANCH   1   2
ATOM      2  C   UNL     1     -37.245  24.863 -30.877  1.00  0.00     0.000 C 
BRANCH   2   3
ATOM      3  C   UNL     1     -37.162  23.569 -31.696  1.00  0.00     0.000 C 
BRANCH   3   4
ATOM      4  C   UNL     1     -38.526  23.212 -32.304  1.00  0.00     0.000 C 
BRANCH   4   5
ATOM      5  C   UNL     1     -39.344  22.250 -31.424  1.00  0.00     0.000 C 
BRANCH   5   6
ATOM      6  C   UNL     1     -40.245  22.964 -30.395  1.00  0.00     0.006 C 
BRANCH   6   7
ATOM      7  C   UNL     1     -40.540  22.084 -29.173  1.00  0.00     0.053 C 
BRANCH   7   8
ATOM      8  C   UNL     1     -41.958  22.256 -28.730  1.00  0.00     0.041 C 
ATOM      9  O   UNL     1     -42.634  23.235 -29.140  1.00  0.00    -0.550 OA
ATOM     10  O   UNL     1     -42.527  21.346 -27.850  1.00  0.00    -0.550 OA
ENDBRANCH   7   8
ENDBRANCH   6   7
ENDBRANCH   5   6
ENDBRANCH   4   5
ENDBRANCH   3   4
ENDBRANCH   2   3
ENDBRANCH   1   2
BRANCH   1  11
ATOM     11  C   UNL     1     -36.422  23.163 -29.155  1.00  0.00     0.000 C 
BRANCH  11  12
ATOM     12  C   UNL     1     -37.187  22.630 -27.931  1.00  0.00    -0.000 C 
BRANCH  12  13
ATOM     13  C   UNL     1     -37.128  21.096 -27.816  1.00  0.00    -0.000 C 
BRANCH  13  14
ATOM     14  C   UNL     1     -36.390  20.388 -28.970  1.00  0.00    -0.000 C 
BRANCH  14  15
ATOM     15  C   UNL     1     -37.275  19.480 -29.849  1.00  0.00    -0.000 C 
BRANCH  15  16
ATOM     16  C   UNL     1     -38.718  19.290 -29.340  1.00  0.00    -0.000 C 
BRANCH  16  17
ATOM     17  C   UNL     1     -39.538  18.238 -30.107  1.00  0.00    -0.003 C 
ATOM     18  C   UNL     1     -40.760  18.830 -30.807  1.00  0.00     0.004 C 
ENDBRANCH  16  17
ENDBRANCH  15  16
ENDBRANCH  14  15
ENDBRANCH  13  14
ENDBRANCH  12  13
ENDBRANCH  11  12
ENDBRANCH   1  11
TORSDOF 14
ENDMDL
MODEL 4
REMARK VINA RESULT:    -3.964      2.518      4.682
REMARK INTER + INTRA:          -9.493
REMARK INTER:                  -7.425
REMARK INTRA:                  -2.068
REMARK UNBOUND:                -2.285
REMARK SMILES CCCCCCCCCCCCCCCC(=O)[O-]
REMARK SMILES IDX 9 1 10 2 11 3 12 4 13 5 14 6 15 7 16 8 17 9 18 10 8 11 7 12
REMARK SMILES IDX 6 13 5 14 4 15 3 16 2 17 1 18
REMARK H PARENT
REMARK Flexibility Score: inf
ROOT
ATOM      1  C   UNL     1     -36.967  23.456 -28.490  1.00  0.00     0.000 C 
ENDROOT
BRANCH   1   2
ATOM      2  C   UNL     1     -37.981  24.341 -27.752  1.00  0.00     0.000 C 
BRANCH   2   3
ATOM      3  C   UNL     1     -39.321  24.375 -28.497  1.00  0.00     0.000 C 
BRANCH   3   4
ATOM      4  C   UNL     1     -39.705  22.978 -29.006  1.00  0.00     0.000 C 
BRANCH   4   5
ATOM      5  C   UNL     1     -40.729  23.017 -30.153  1.00  0.00     0.000 C 
BRANCH   5   6
ATOM      6  C   UNL     1     -40.184  22.474 -31.491  1.00  0.00     0.006 C 
BRANCH   6   7
ATOM      7  C   UNL     1     -38.650  22.435 -31.519  1.00  0.00     0.053 C 
BRANCH   7   8
ATOM      8  C   UNL     1     -38.109  23.588 -32.303  1.00  0.00     0.041 C 
ATOM      9  O   UNL     1     -38.266  23.634 -33.551  1.00  0.00    -0.550 OA
ATOM     10  O   UNL     1     -37.415  24.602 -31.659  1.00  0.00    -0.550 OA
ENDBRANCH   7   8
ENDBRANCH   6   7
ENDBRANCH   5   6
ENDBRANCH   4   5
ENDBRANCH   3   4
ENDBRANCH   2   3
ENDBRANCH   1   2
BRANCH   1  11
ATOM     11  C   UNL     1     -36.107  22.617 -27.531  1.00  0.00     0.000 C 
BRANCH  11  12
ATOM     12  C   UNL     1     -36.941  21.620 -26.709  1.00  0.00    -0.000 C 
BRANCH  12  13
ATOM     13  C   UNL     1     -37.614  20.546 -27.583  1.00  0.00    -0.000 C 
BRANCH  13  14
ATOM     14  C   UNL     1     -36.704  19.925 -28.661  1.00  0.00    -0.000 C 
BRANCH  14  15
ATOM     15  C   UNL     1     -37.434  19.446 -29.932  1.00  0.00    -0.000 C 
BRANCH  15  16
ATOM     16  C   UNL     1     -38.684  18.580 -29.676  1.00  0.00    -0.000 C 
BRANCH  16  17
ATOM     17  C   UNL     1     -40.025  19.306 -29.878  1.00  0.00    -0.003 C 
ATOM     18  C   UNL     1     -40.860  18.709 -31.010  1.00  0.00     0.004 C 
ENDBRANCH  16  17
ENDBRANCH  15  16
ENDBRANCH  14  15
ENDBRANCH  13  14
ENDBRANCH  12  13
ENDBRANCH  11  12
ENDBRANCH   1  11
TORSDOF 14
ENDMDL
MODEL 5
REMARK VINA RESULT:    -3.963     15.127     17.171
REMARK INTER + INTRA:          -9.491
REMARK INTER:                  -7.381
REMARK INTRA:                  -2.110
REMARK UNBOUND:                -2.285
REMARK SMILES CCCCCCCCCCCCCCCC(=O)[O-]
REMARK SMILES IDX 9 1 10 2 11 3 12 4 13 5 14 6 15 7 16 8 17 9 18 10 8 11 7 12
REMARK SMILES IDX 6 13 5 14 4 15 3 16 2 17 1 18
REMARK H PARENT
REMARK Flexibility Score: inf
ROOT
ATOM      1  C   UNL     1     -49.390   8.609 -31.708  1.00  0.00     0.000 C 
ENDROOT
BRANCH   1   2
ATOM      2  C   UNL     1     -50.445   8.823 -32.803  1.00  0.00     0.000 C 
BRANCH   2   3
ATOM      3  C   UNL     1     -50.725  10.317 -33.007  1.00  0.00     0.000 C 
BRANCH   3   4
ATOM      4  C   UNL     1     -52.150  10.678 -32.564  1.00  0.00     0.000 C 
BRANCH   4   5
ATOM      5  C   UNL     1     -53.023   9.443 -32.280  1.00  0.00     0.000 C 
BRANCH   5   6
ATOM      6  C   UNL     1     -54.352   9.772 -31.567  1.00  0.00     0.006 C 
BRANCH   6   7
ATOM      7  C   UNL     1     -54.378  11.207 -31.023  1.00  0.00     0.053 C 
BRANCH   7   8
ATOM      8  C   UNL     1     -54.826  11.219 -29.596  1.00  0.00     0.041 C 
ATOM      9  O   UNL     1     -55.000  10.137 -28.978  1.00  0.00    -0.550 OA
ATOM     10  O   UNL     1     -55.069  12.426 -28.955  1.00  0.00    -0.550 OA
ENDBRANCH   7   8
ENDBRANCH   6   7
ENDBRANCH   5   6
ENDBRANCH   4   5
ENDBRANCH   3   4
ENDBRANCH   2   3
ENDBRANCH   1   2
BRANCH   1  11
ATOM     11  C   UNL     1     -48.770   9.927 -31.220  1.00  0.00     0.000 C 
BRANCH  11  12
ATOM     12  C   UNL     1     -48.920  10.124 -29.701  1.00  0.00    -0.000 C 
BRANCH  12  13
ATOM     13  C   UNL     1     -50.379   9.999 -29.228  1.00  0.00    -0.000 C 
BRANCH  13  14
ATOM     14  C   UNL     1     -51.173  11.321 -29.218  1.00  0.00    -0.000 C 
BRANCH  14  15
ATOM     15  C   UNL     1     -50.458  12.504 -28.534  1.00  0.00    -0.000 C 
BRANCH  15  16
ATOM     16  C   UNL     1     -50.838  13.895 -29.078  1.00  0.00    -0.000 C 
BRANCH  16  17
ATOM     17  C   UNL     1     -52.038  13.905 -30.041  1.00  0.00    -0.003 C 
ATOM     18  C   UNL     1     -51.864  14.886 -31.199  1.00  0.00     0.004 C 
ENDBRANCH  16  17
ENDBRANCH  15  16
ENDBRANCH  14  15
ENDBRANCH  13  14
ENDBRANCH  12  13
ENDBRANCH  11  12
ENDBRANCH   1  11
TORSDOF 14
ENDMDL
MODEL 6
REMARK VINA RESULT:    -3.959      2.992      5.601
REMARK INTER + INTRA:          -9.483
REMARK INTER:                  -6.969
REMARK INTRA:                  -2.514
REMARK UNBOUND:                -2.285
REMARK SMILES CCCCCCCCCCCCCCCC(=O)[O-]
REMARK SMILES IDX 9 1 10 2 11 3 12 4 13 5 14 6 15 7 16 8 17 9 18 10 8 11 7 12
REMARK SMILES IDX 6 13 5 14 4 15 3 16 2 17 1 18
REMARK H PARENT
REMARK Flexibility Score: inf
ROOT
ATOM      1  C   UNL     1     -39.257  24.392 -29.116  1.00  0.00     0.000 C 
ENDROOT
BRANCH   1   2
ATOM      2  C   UNL     1     -37.838  24.118 -28.595  1.00  0.00     0.000 C 
BRANCH   2   3
ATOM      3  C   UNL     1     -37.600  22.612 -28.428  1.00  0.00     0.000 C 
BRANCH   3   4
ATOM      4  C   UNL     1     -36.500  22.119 -29.380  1.00  0.00     0.000 C 
BRANCH   4   5
ATOM      5  C   UNL     1     -36.035  23.198 -30.373  1.00  0.00     0.000 C 
BRANCH   5   6
ATOM      6  C   UNL     1     -36.465  22.928 -31.830  1.00  0.00     0.006 C 
BRANCH   6   7
ATOM      7  C   UNL     1     -37.437  23.993 -32.355  1.00  0.00     0.053 C 
BRANCH   7   8
ATOM      8  C   UNL     1     -37.281  24.165 -33.832  1.00  0.00     0.041 C 
ATOM      9  O   UNL     1     -38.258  23.963 -34.599  1.00  0.00    -0.550 OA
ATOM     10  O   UNL     1     -36.052  24.530 -34.363  1.00  0.00    -0.550 OA
ENDBRANCH   7   8
ENDBRANCH   6   7
ENDBRANCH   5   6
ENDBRANCH   4   5
ENDBRANCH   3   4
ENDBRANCH   2   3
ENDBRANCH   1   2
BRANCH   1  11
ATOM     11  C   UNL     1     -40.299  23.430 -28.524  1.00  0.00     0.000 C 
BRANCH  11  12
ATOM     12  C   UNL     1     -41.222  22.826 -29.597  1.00  0.00    -0.000 C 
BRANCH  12  13
ATOM     13  C   UNL     1     -40.505  22.608 -30.942  1.00  0.00    -0.000 C 
BRANCH  13  14
ATOM     14  C   UNL     1     -39.782  21.252 -31.078  1.00  0.00    -0.000 C 
BRANCH  14  15
ATOM     15  C   UNL     1     -40.343  20.124 -30.188  1.00  0.00    -0.000 C 
BRANCH  15  16
ATOM     16  C   UNL     1     -39.343  18.997 -29.861  1.00  0.00    -0.000 C 
BRANCH  16  17
ATOM     17  C   UNL     1     -38.777  19.031 -28.431  1.00  0.00    -0.003 C 
ATOM     18  C   UNL     1     -39.600  19.907 -27.487  1.00  0.00     0.004 C 
ENDBRANCH  16  17
ENDBRANCH  15  16
ENDBRANCH  14  15
ENDBRANCH  13  14
ENDBRANCH  12  13
ENDBRANCH  11  12
ENDBRANCH   1  11
TORSDOF 14
ENDMDL
MODEL 7
REMARK VINA RESULT:    -3.928     15.027     16.898
REMARK INTER + INTRA:          -9.427
REMARK INTER:                  -7.319
REMARK INTRA:                  -2.109
REMARK UNBOUND:                -2.285
REMARK SMILES CCCCCCCCCCCCCCCC(=O)[O-]
REMARK SMILES IDX 9 1 10 2 11 3 12 4 13 5 14 6 15 7 16 8 17 9 18 10 8 11 7 12
REMARK SMILES IDX 6 13 5 14 4 15 3 16 2 17 1 18
REMARK H PARENT
REMARK Flexibility Score: inf
ROOT
ATOM      1  C   UNL     1     -49.169  10.710 -29.570  1.00  0.00     0.000 C 
ENDROOT
BRANCH   1   2
ATOM      2  C   UNL     1     -50.494  11.209 -28.974  1.00  0.00     0.000 C 
BRANCH   2   3
ATOM      3  C   UNL     1     -50.385  12.680 -28.558  1.00  0.00     0.000 C 
BRANCH   3   4
ATOM      4  C   UNL     1     -51.558  13.500 -29.117  1.00  0.00     0.000 C 
BRANCH   4   5
ATOM      5  C   UNL     1     -51.782  13.279 -30.622  1.00  0.00     0.000 C 
BRANCH   5   6
ATOM      6  C   UNL     1     -53.072  13.935 -31.161  1.00  0.00     0.006 C 
BRANCH   6   7
ATOM      7  C   UNL     1     -53.559  15.080 -30.263  1.00  0.00     0.053 C 
BRANCH   7   8
ATOM      8  C   UNL     1     -53.310  16.402 -30.915  1.00  0.00     0.041 C 
ATOM      9  O   UNL     1     -53.890  17.436 -30.492  1.00  0.00    -0.550 OA
ATOM     10  O   UNL     1     -52.453  16.490 -32.003  1.00  0.00    -0.550 OA
ENDBRANCH   7   8
ENDBRANCH   6   7
ENDBRANCH   5   6
ENDBRANCH   4   5
ENDBRANCH   3   4
ENDBRANCH   2   3
ENDBRANCH   1   2
BRANCH   1  11
ATOM     11  C   UNL     1     -49.093   9.177 -29.640  1.00  0.00     0.000 C 
BRANCH  11  12
ATOM     12  C   UNL     1     -49.612   8.620 -30.978  1.00  0.00    -0.000 C 
BRANCH  12  13
ATOM     13  C   UNL     1     -49.407   9.600 -32.148  1.00  0.00    -0.000 C 
BRANCH  13  14
ATOM     14  C   UNL     1     -50.698  10.004 -32.888  1.00  0.00    -0.000 C 
BRANCH  14  15
ATOM     15  C   UNL     1     -51.974   9.278 -32.415  1.00  0.00    -0.000 C 
BRANCH  15  16
ATOM     16  C   UNL     1     -53.024  10.182 -31.739  1.00  0.00    -0.000 C 
BRANCH  16  17
ATOM     17  C   UNL     1     -53.462   9.725 -30.337  1.00  0.00    -0.003 C 
ATOM     18  C   UNL     1     -54.468  10.675 -29.689  1.00  0.00     0.004 C 
ENDBRANCH  16  17
ENDBRANCH  15  16
ENDBRANCH  14  15
ENDBRANCH  13  14
ENDBRANCH  12  13
ENDBRANCH  11  12
ENDBRANCH   1  11
TORSDOF 14
ENDMDL
MODEL 8
REMARK VINA RESULT:    -3.902     15.572     17.241
REMARK INTER + INTRA:          -9.380
REMARK INTER:                  -6.746
REMARK INTRA:                  -2.634
REMARK UNBOUND:                -2.285
REMARK SMILES CCCCCCCCCCCCCCCC(=O)[O-]
REMARK SMILES IDX 9 1 10 2 11 3 12 4 13 5 14 6 15 7 16 8 17 9 18 10 8 11 7 12
REMARK SMILES IDX 6 13 5 14 4 15 3 16 2 17 1 18
REMARK H PARENT
REMARK Flexibility Score: inf
ROOT
ATOM      1  C   UNL     1     -52.177  13.875 -30.736  1.00  0.00     0.000 C 
ENDROOT
BRANCH   1   2
ATOM      2  C   UNL     1     -53.451  13.762 -31.587  1.00  0.00     0.000 C 
BRANCH   2   3
ATOM      3  C   UNL     1     -53.591  12.354 -32.176  1.00  0.00     0.000 C 
BRANCH   3   4
ATOM      4  C   UNL     1     -54.549  11.496 -31.336  1.00  0.00     0.000 C 
BRANCH   4   5
ATOM      5  C   UNL     1     -53.891  10.217 -30.791  1.00  0.00     0.000 C 
BRANCH   5   6
ATOM      6  C   UNL     1     -52.367  10.154 -31.026  1.00  0.00     0.006 C 
BRANCH   6   7
ATOM      7  C   UNL     1     -51.582  10.042 -29.712  1.00  0.00     0.053 C 
BRANCH   7   8
ATOM      8  C   UNL     1     -50.247  10.705 -29.839  1.00  0.00     0.041 C 
ATOM      9  O   UNL     1     -49.425  10.312 -30.707  1.00  0.00    -0.550 OA
ATOM     10  O   UNL     1     -49.903  11.745 -28.987  1.00  0.00    -0.550 OA
ENDBRANCH   7   8
ENDBRANCH   6   7
ENDBRANCH   5   6
ENDBRANCH   4   5
ENDBRANCH   3   4
ENDBRANCH   2   3
ENDBRANCH   1   2
BRANCH   1  11
ATOM     11  C   UNL     1     -52.474  14.260 -29.278  1.00  0.00     0.000 C 
BRANCH  11  12
ATOM     12  C   UNL     1     -53.188  13.138 -28.504  1.00  0.00    -0.000 C 
BRANCH  12  13
ATOM     13  C   UNL     1     -54.642  13.495 -28.149  1.00  0.00    -0.000 C 
BRANCH  13  14
ATOM     14  C   UNL     1     -54.971  15.001 -28.202  1.00  0.00    -0.000 C 
BRANCH  14  15
ATOM     15  C   UNL     1     -56.076  15.391 -29.204  1.00  0.00    -0.000 C 
BRANCH  15  16
ATOM     16  C   UNL     1     -55.631  16.359 -30.319  1.00  0.00    -0.000 C 
BRANCH  16  17
ATOM     17  C   UNL     1     -54.465  17.287 -29.938  1.00  0.00    -0.003 C 
ATOM     18  C   UNL     1     -53.468  17.489 -31.079  1.00  0.00     0.004 C 
ENDBRANCH  16  17
ENDBRANCH  15  16
ENDBRANCH  14  15
ENDBRANCH  13  14
ENDBRANCH  12  13
ENDBRANCH  11  12
ENDBRANCH   1  11
TORSDOF 14
ENDMDL
MODEL 9
REMARK VINA RESULT:    -3.892      1.803      3.343
REMARK INTER + INTRA:          -9.363
REMARK INTER:                  -7.217
REMARK INTRA:                  -2.145
REMARK UNBOUND:                -2.285
REMARK SMILES CCCCCCCCCCCCCCCC(=O)[O-]
REMARK SMILES IDX 9 1 10 2 11 3 12 4 13 5 14 6 15 7 16 8 17 9 18 10 8 11 7 12
REMARK SMILES IDX 6 13 5 14 4 15 3 16 2 17 1 18
REMARK H PARENT
REMARK Flexibility Score: inf
ROOT
ATOM      1  C   UNL     1     -35.949  23.487 -26.321  1.00  0.00     0.000 C 
ENDROOT
BRANCH   1   2
ATOM      2  C   UNL     1     -36.104  21.986 -26.609  1.00  0.00     0.000 C 
BRANCH   2   3
ATOM      3  C   UNL     1     -37.561  21.642 -26.940  1.00  0.00     0.000 C 
BRANCH   3   4
ATOM      4  C   UNL     1     -37.661  20.281 -27.645  1.00  0.00     0.000 C 
BRANCH   4   5
ATOM      5  C   UNL     1     -37.288  20.346 -29.136  1.00  0.00     0.000 C 
BRANCH   5   6
ATOM      6  C   UNL     1     -38.035  19.316 -30.009  1.00  0.00     0.006 C 
BRANCH   6   7
ATOM      7  C   UNL     1     -39.494  19.133 -29.569  1.00  0.00     0.053 C 
BRANCH   7   8
ATOM      8  C   UNL     1     -40.420  19.318 -30.728  1.00  0.00     0.041 C 
ATOM      9  O   UNL     1     -41.174  18.378 -31.092  1.00  0.00    -0.550 OA
ATOM     10  O   UNL     1     -40.436  20.521 -31.420  1.00  0.00    -0.550 OA
ENDBRANCH   7   8
ENDBRANCH   6   7
ENDBRANCH   5   6
ENDBRANCH   4   5
ENDBRANCH   3   4
ENDBRANCH   2   3
ENDBRANCH   1   2
BRANCH   1  11
ATOM     11  C   UNL     1     -36.966  24.344 -27.091  1.00  0.00     0.000 C 
BRANCH  11  12
ATOM     12  C   UNL     1     -36.419  24.839 -28.442  1.00  0.00    -0.000 C 
BRANCH  12  13
ATOM     13  C   UNL     1     -36.978  24.043 -29.635  1.00  0.00    -0.000 C 
BRANCH  13  14
ATOM     14  C   UNL     1     -38.408  24.431 -30.060  1.00  0.00    -0.000 C 
BRANCH  14  15
ATOM     15  C   UNL     1     -39.428  23.275 -30.045  1.00  0.00    -0.000 C 
BRANCH  15  16
ATOM     16  C   UNL     1     -40.232  23.134 -28.737  1.00  0.00    -0.000 C 
BRANCH  16  17
ATOM     17  C   UNL     1     -41.688  22.674 -28.922  1.00  0.00    -0.003 C 
ATOM     18  C   UNL     1     -42.013  21.401 -28.141  1.00  0.00     0.004 C 
ENDBRANCH  16  17
ENDBRANCH  15  16
ENDBRANCH  14  15
ENDBRANCH  13  14
ENDBRANCH  12  13
ENDBRANCH  11  12
ENDBRANCH   1  11
TORSDOF 14
ENDMDL
