MODEL 1
REMARK VINA RESULT:    30.824      0.000      0.000
REMARK INTER + INTRA:          37.675
REMARK INTER:                  38.032
REMARK INTRA:                  -0.356
REMARK UNBOUND:                -0.356
REMARK SMILES Oc1cc(O)c2cc(O)c(-c3cc(O)c(O)c(O)c3)[o+]c2c1
REMARK SMILES IDX 10 1 20 2 21 3 22 4 2 5 3 6 4 7 6 8 7 9 8 10 11 11 12 12
REMARK SMILES IDX 13 13 19 14 15 15 17 16 14 17 16 19 18 21 9 23 1 25 5 27
REMARK H PARENT 14 18 16 20 18 22 9 24 1 26 5 28
REMARK Flexibility Score: inf
ROOT
ATOM      1  C   UNL     1      12.254   5.188  17.826  1.00  0.00     0.402 A 
ATOM      2  O   UNL     1      12.982   6.202  18.290  1.00  0.00    -0.202 OA
ATOM      3  C   UNL     1      12.770   7.469  17.947  1.00  0.00     0.368 A 
ATOM      4  C   UNL     1      13.590   8.464  18.485  1.00  0.00     0.162 A 
ATOM      5  C   UNL     1      13.393   9.801  18.142  1.00  0.00     0.128 A 
ATOM      6  C   UNL     1      12.371  10.149  17.252  1.00  0.00     0.093 A 
ATOM      7  C   UNL     1      11.536   9.170  16.699  1.00  0.00     0.136 A 
ATOM      8  C   UNL     1      11.731   7.809  17.048  1.00  0.00     0.125 A 
ATOM      9  C   UNL     1      10.935   6.763  16.553  1.00  0.00     0.078 A 
ATOM     10  C   UNL     1      11.185   5.445  16.948  1.00  0.00     0.223 A 
ENDROOT
BRANCH   1  11
ATOM     11  C   UNL     1      12.594   3.820  18.275  1.00  0.00     0.091 A 
ATOM     12  C   UNL     1      12.146   3.322  19.510  1.00  0.00     0.068 A 
ATOM     13  C   UNL     1      12.459   2.014  19.908  1.00  0.00     0.162 A 
ATOM     14  C   UNL     1      13.331   2.978  17.428  1.00  0.00     0.068 A 
ATOM     15  C   UNL     1      13.217   1.187  19.063  1.00  0.00     0.200 A 
ATOM     16  C   UNL     1      13.649   1.674  17.817  1.00  0.00     0.162 A 
BRANCH  13  17
ATOM     17  O   UNL     1      12.014   1.534  21.139  1.00  0.00    -0.504 OA
ATOM     18  H   UNL     1      12.514   0.809  21.639  1.00  0.00     0.293 HD
ENDBRANCH  13  17
BRANCH  15  19
ATOM     19  O   UNL     1      13.543  -0.115  19.445  1.00  0.00    -0.502 OA
ATOM     20  H   UNL     1      13.895  -0.334  20.369  1.00  0.00     0.293 HD
ENDBRANCH  15  19
BRANCH  16  21
ATOM     21  O   UNL     1      14.397   0.874  16.952  1.00  0.00    -0.504 OA
ATOM     22  H   UNL     1      14.887   0.047  17.270  1.00  0.00     0.293 HD
ENDBRANCH  16  21
ENDBRANCH   1  11
BRANCH  10  23
ATOM     23  O   UNL     1      10.364   4.412  16.496  1.00  0.00    -0.500 OA
ATOM     24  H   UNL     1      10.518   3.961  15.602  1.00  0.00     0.294 HD
ENDBRANCH  10  23
BRANCH   5  25
ATOM     25  O   UNL     1      14.220  10.779  18.689  1.00  0.00    -0.507 OA
ATOM     26  H   UNL     1      13.998  11.765  18.614  1.00  0.00     0.293 HD
ENDBRANCH   5  25
BRANCH   7  27
ATOM     27  O   UNL     1      10.540   9.598  15.816  1.00  0.00    -0.507 OA
ATOM     28  H   UNL     1       9.620   9.188  15.753  1.00  0.00     0.293 HD
ENDBRANCH   7  27
TORSDOF 7
ENDMDL
MODEL 2
REMARK VINA RESULT:    31.049      1.039      2.544
REMARK INTER + INTRA:          37.953
REMARK INTER:                  38.327
REMARK INTRA:                  -0.373
REMARK UNBOUND:                -0.356
REMARK SMILES Oc1cc(O)c2cc(O)c(-c3cc(O)c(O)c(O)c3)[o+]c2c1
REMARK SMILES IDX 10 1 20 2 21 3 22 4 2 5 3 6 4 7 6 8 7 9 8 10 11 11 12 12
REMARK SMILES IDX 13 13 19 14 15 15 17 16 14 17 16 19 18 21 9 23 1 25 5 27
REMARK H PARENT 14 18 16 20 18 22 9 24 1 26 5 28
REMARK Flexibility Score: inf
ROOT
ATOM      1  C   UNL     1      12.895   5.084  18.393  1.00  0.00     0.402 A 
ATOM      2  O   UNL     1      12.046   5.568  17.490  1.00  0.00    -0.202 OA
ATOM      3  C   UNL     1      11.939   6.863  17.208  1.00  0.00     0.368 A 
ATOM      4  C   UNL     1      11.016   7.275  16.245  1.00  0.00     0.162 A 
ATOM      5  C   UNL     1      10.880   8.627  15.930  1.00  0.00     0.128 A 
ATOM      6  C   UNL     1      11.672   9.577  16.584  1.00  0.00     0.093 A 
ATOM      7  C   UNL     1      12.606   9.190  17.554  1.00  0.00     0.136 A 
ATOM      8  C   UNL     1      12.748   7.816  17.874  1.00  0.00     0.125 A 
ATOM      9  C   UNL     1      13.666   7.335  18.822  1.00  0.00     0.078 A 
ATOM     10  C   UNL     1      13.753   5.963  19.081  1.00  0.00     0.223 A 
ENDROOT
BRANCH   1  11
ATOM     11  C   UNL     1      12.914   3.623  18.625  1.00  0.00     0.091 A 
ATOM     12  C   UNL     1      12.237   3.046  19.713  1.00  0.00     0.068 A 
ATOM     13  C   UNL     1      12.247   1.656  19.903  1.00  0.00     0.162 A 
ATOM     14  C   UNL     1      13.571   2.787  17.710  1.00  0.00     0.068 A 
ATOM     15  C   UNL     1      12.928   0.829  18.993  1.00  0.00     0.200 A 
ATOM     16  C   UNL     1      13.588   1.401  17.892  1.00  0.00     0.162 A 
BRANCH  13  17
ATOM     17  O   UNL     1      11.578   1.096  20.990  1.00  0.00    -0.504 OA
ATOM     18  H   UNL     1      12.041   0.462  21.630  1.00  0.00     0.293 HD
ENDBRANCH  13  17
BRANCH  15  19
ATOM     19  O   UNL     1      12.953  -0.555  19.170  1.00  0.00    -0.502 OA
ATOM     20  H   UNL     1      12.433  -1.184  18.571  1.00  0.00     0.293 HD
ENDBRANCH  15  19
BRANCH  16  21
ATOM     21  O   UNL     1      14.266   0.606  16.967  1.00  0.00    -0.504 OA
ATOM     22  H   UNL     1      15.277   0.590  16.909  1.00  0.00     0.293 HD
ENDBRANCH  16  21
ENDBRANCH   1  11
BRANCH  10  23
ATOM     23  O   UNL     1      14.699   5.480  19.986  1.00  0.00    -0.500 OA
ATOM     24  H   UNL     1      14.460   5.277  20.949  1.00  0.00     0.294 HD
ENDBRANCH  10  23
BRANCH   5  25
ATOM     25  O   UNL     1       9.953   9.018  14.966  1.00  0.00    -0.507 OA
ATOM     26  H   UNL     1       9.898   8.557  14.066  1.00  0.00     0.293 HD
ENDBRANCH   5  25
BRANCH   7  27
ATOM     27  O   UNL     1      13.357  10.199  18.163  1.00  0.00    -0.507 OA
ATOM     28  H   UNL     1      13.663  10.180  19.125  1.00  0.00     0.293 HD
ENDBRANCH   7  27
TORSDOF 7
ENDMDL
MODEL 3
REMARK VINA RESULT:    31.286      4.879      8.165
REMARK INTER + INTRA:          38.246
REMARK INTER:                  38.600
REMARK INTRA:                  -0.354
REMARK UNBOUND:                -0.356
REMARK SMILES Oc1cc(O)c2cc(O)c(-c3cc(O)c(O)c(O)c3)[o+]c2c1
REMARK SMILES IDX 10 1 20 2 21 3 22 4 2 5 3 6 4 7 6 8 7 9 8 10 11 11 12 12
REMARK SMILES IDX 13 13 19 14 15 15 17 16 14 17 16 19 18 21 9 23 1 25 5 27
REMARK H PARENT 14 18 16 20 18 22 9 24 1 26 5 28
REMARK Flexibility Score: inf
ROOT
ATOM      1  C   UNL     1      10.050   9.996  19.727  1.00  0.00     0.402 A 
ATOM      2  O   UNL     1       9.797   9.485  18.525  1.00  0.00    -0.202 OA
ATOM      3  C   UNL     1      10.745   9.039  17.707  1.00  0.00     0.368 A 
ATOM      4  C   UNL     1      10.380   8.521  16.462  1.00  0.00     0.162 A 
ATOM      5  C   UNL     1      11.354   8.048  15.582  1.00  0.00     0.128 A 
ATOM      6  C   UNL     1      12.704   8.093  15.947  1.00  0.00     0.093 A 
ATOM      7  C   UNL     1      13.095   8.607  17.190  1.00  0.00     0.136 A 
ATOM      8  C   UNL     1      12.108   9.086  18.088  1.00  0.00     0.125 A 
ATOM      9  C   UNL     1      12.407   9.606  19.359  1.00  0.00     0.078 A 
ATOM     10  C   UNL     1      11.377  10.056  20.192  1.00  0.00     0.223 A 
ENDROOT
BRANCH   1  11
ATOM     11  C   UNL     1       8.908  10.469  20.541  1.00  0.00     0.091 A 
ATOM     12  C   UNL     1       8.126   9.577  21.293  1.00  0.00     0.068 A 
ATOM     13  C   UNL     1       7.062  10.047  22.076  1.00  0.00     0.162 A 
ATOM     14  C   UNL     1       8.634  11.843  20.612  1.00  0.00     0.068 A 
ATOM     15  C   UNL     1       6.780  11.423  22.122  1.00  0.00     0.200 A 
ATOM     16  C   UNL     1       7.574  12.321  21.389  1.00  0.00     0.162 A 
BRANCH  13  17
ATOM     17  O   UNL     1       6.288   9.151  22.813  1.00  0.00    -0.504 OA
ATOM     18  H   UNL     1       6.602   8.206  22.999  1.00  0.00     0.293 HD
ENDBRANCH  13  17
BRANCH  15  19
ATOM     19  O   UNL     1       5.722  11.907  22.893  1.00  0.00    -0.502 OA
ATOM     20  H   UNL     1       4.810  12.100  22.497  1.00  0.00     0.293 HD
ENDBRANCH  15  19
BRANCH  16  21
ATOM     21  O   UNL     1       7.325  13.693  21.421  1.00  0.00    -0.504 OA
ATOM     22  H   UNL     1       8.019  14.360  21.735  1.00  0.00     0.293 HD
ENDBRANCH  16  21
ENDBRANCH   1  11
BRANCH  10  23
ATOM     23  O   UNL     1      11.669  10.525  21.473  1.00  0.00    -0.500 OA
ATOM     24  H   UNL     1      12.170  11.393  21.620  1.00  0.00     0.294 HD
ENDBRANCH  10  23
BRANCH   5  25
ATOM     25  O   UNL     1      10.970   7.536  14.345  1.00  0.00    -0.507 OA
ATOM     26  H   UNL     1      11.620   7.025  13.758  1.00  0.00     0.293 HD
ENDBRANCH   5  25
BRANCH   7  27
ATOM     27  O   UNL     1      14.463   8.619  17.479  1.00  0.00    -0.507 OA
ATOM     28  H   UNL     1      15.009   9.457  17.617  1.00  0.00     0.293 HD
ENDBRANCH   7  27
TORSDOF 7
ENDMDL
MODEL 4
REMARK VINA RESULT:    31.855      5.072      7.928
REMARK INTER + INTRA:          38.947
REMARK INTER:                  39.308
REMARK INTRA:                  -0.360
REMARK UNBOUND:                -0.356
REMARK SMILES Oc1cc(O)c2cc(O)c(-c3cc(O)c(O)c(O)c3)[o+]c2c1
REMARK SMILES IDX 10 1 20 2 21 3 22 4 2 5 3 6 4 7 6 8 7 9 8 10 11 11 12 12
REMARK SMILES IDX 13 13 19 14 15 15 17 16 14 17 16 19 18 21 9 23 1 25 5 27
REMARK H PARENT 14 18 16 20 18 22 9 24 1 26 5 28
REMARK Flexibility Score: inf
ROOT
ATOM      1  C   UNL     1       9.252   9.942  19.466  1.00  0.00     0.402 A 
ATOM      2  O   UNL     1      10.574   9.974  19.617  1.00  0.00    -0.202 OA
ATOM      3  C   UNL     1      11.425   9.539  18.694  1.00  0.00     0.368 A 
ATOM      4  C   UNL     1      12.797   9.612  18.946  1.00  0.00     0.162 A 
ATOM      5  C   UNL     1      13.714   9.160  17.997  1.00  0.00     0.128 A 
ATOM      6  C   UNL     1      13.257   8.628  16.785  1.00  0.00     0.093 A 
ATOM      7  C   UNL     1      11.886   8.544  16.508  1.00  0.00     0.136 A 
ATOM      8  C   UNL     1      10.952   9.005  17.470  1.00  0.00     0.125 A 
ATOM      9  C   UNL     1       9.561   8.972  17.274  1.00  0.00     0.078 A 
ATOM     10  C   UNL     1       8.701   9.450  18.268  1.00  0.00     0.223 A 
ENDROOT
BRANCH   1  11
ATOM     11  C   UNL     1       8.408  10.448  20.572  1.00  0.00     0.091 A 
ATOM     12  C   UNL     1       8.144  11.820  20.722  1.00  0.00     0.068 A 
ATOM     13  C   UNL     1       7.323  12.278  21.762  1.00  0.00     0.162 A 
ATOM     14  C   UNL     1       7.812   9.538  21.457  1.00  0.00     0.068 A 
ATOM     15  C   UNL     1       6.749  11.360  22.658  1.00  0.00     0.200 A 
ATOM     16  C   UNL     1       6.994   9.986  22.499  1.00  0.00     0.162 A 
BRANCH  13  17
ATOM     17  O   UNL     1       7.072  13.642  21.905  1.00  0.00    -0.504 OA
ATOM     18  H   UNL     1       6.425  13.994  22.600  1.00  0.00     0.293 HD
ENDBRANCH  13  17
BRANCH  15  19
ATOM     19  O   UNL     1       5.934  11.799  23.703  1.00  0.00    -0.502 OA
ATOM     20  H   UNL     1       6.314  12.129  24.582  1.00  0.00     0.293 HD
ENDBRANCH  15  19
BRANCH  16  21
ATOM     21  O   UNL     1       6.432   9.049  23.367  1.00  0.00    -0.504 OA
ATOM     22  H   UNL     1       6.380   8.064  23.136  1.00  0.00     0.293 HD
ENDBRANCH  16  21
ENDBRANCH   1  11
BRANCH  10  23
ATOM     23  O   UNL     1       7.323   9.464  18.053  1.00  0.00    -0.500 OA
ATOM     24  H   UNL     1       6.683   9.865  18.728  1.00  0.00     0.294 HD
ENDBRANCH  10  23
BRANCH   5  25
ATOM     25  O   UNL     1      15.078   9.241  18.266  1.00  0.00    -0.507 OA
ATOM     26  H   UNL     1      15.447   9.067  19.194  1.00  0.00     0.293 HD
ENDBRANCH   5  25
BRANCH   7  27
ATOM     27  O   UNL     1      11.511   7.998  15.278  1.00  0.00    -0.507 OA
ATOM     28  H   UNL     1      11.953   8.219  14.397  1.00  0.00     0.293 HD
ENDBRANCH   7  27
TORSDOF 7
ENDMDL
