MODEL 1
REMARK VINA RESULT:    61.312      0.000      0.000
REMARK INTER + INTRA:          94.491
REMARK INTER:                  89.987
REMARK INTRA:                   4.504
REMARK UNBOUND:                 4.504
REMARK SMILES O=c1c(O[C@@H]2O[C@@H](CO)[C@H](O)[C@@H](O)[C@H]2O)c(-c2ccc(O)c(O)c2)oc2cc(O)cc(O)c12
REMARK SMILES IDX 4 1 3 2 16 3 25 4 2 5 26 6 1 7 33 8 27 9 31 10 28 11 30 12
REMARK SMILES IDX 17 13 18 14 19 15 20 16 24 17 22 18 21 19 23 21 32 23 29 25
REMARK SMILES IDX 5 27 14 28 6 29 12 30 7 31 10 32 15 33 13 35 8 37 9 38 11 40
REMARK H PARENT 21 20 23 22 32 24 29 26 15 34 13 36 9 39 11 41
REMARK Flexibility Score: inf
ROOT
ATOM      1  O   UNL     1      -4.501  -1.563   3.078  1.00  0.00    -0.454 OA
ENDROOT
BRANCH   1   2
ATOM      2  C   UNL     1      -4.902  -0.219   3.121  1.00  0.00     0.214 A 
ATOM      3  C   UNL     1      -3.941   0.807   3.118  1.00  0.00     0.180 A 
ATOM      4  O   UNL     1      -4.321   2.076   3.220  1.00  0.00    -0.452 OA
ATOM      5  C   UNL     1      -6.262   0.132   3.160  1.00  0.00     0.239 A 
ATOM      6  C   UNL     1      -5.593   2.451   3.293  1.00  0.00     0.146 A 
ATOM      7  O   UNL     1      -7.138  -0.771   3.082  1.00  0.00    -0.285 OA
ATOM      8  C   UNL     1      -6.630   1.490   3.261  1.00  0.00     0.111 A 
ATOM      9  C   UNL     1      -5.897   3.814   3.390  1.00  0.00     0.094 A 
ATOM     10  C   UNL     1      -7.976   1.923   3.329  1.00  0.00     0.134 A 
ATOM     11  C   UNL     1      -7.229   4.237   3.457  1.00  0.00     0.123 A 
ATOM     12  C   UNL     1      -8.262   3.295   3.425  1.00  0.00     0.093 A 
BRANCH   3  13
ATOM     13  C   UNL     1      -2.496   0.515   3.023  1.00  0.00     0.025 A 
ATOM     14  C   UNL     1      -1.821  -0.008   4.136  1.00  0.00     0.016 A 
ATOM     15  C   UNL     1      -0.453  -0.283   4.066  1.00  0.00     0.051 A 
ATOM     16  C   UNL     1       0.259  -0.031   2.889  1.00  0.00     0.157 A 
ATOM     17  C   UNL     1      -1.776   0.800   1.852  1.00  0.00     0.062 A 
ATOM     18  C   UNL     1      -0.403   0.518   1.775  1.00  0.00     0.158 A 
BRANCH  16  19
ATOM     19  O   UNL     1       1.623  -0.317   2.848  1.00  0.00    -0.504 OA
ATOM     20  H   UNL     1       2.234  -0.163   3.644  1.00  0.00     0.293 HD
ENDBRANCH  16  19
BRANCH  18  21
ATOM     21  O   UNL     1       0.304   0.782   0.604  1.00  0.00    -0.504 OA
ATOM     22  H   UNL     1       1.162   1.324   0.610  1.00  0.00     0.293 HD
ENDBRANCH  18  21
ENDBRANCH   3  13
BRANCH  10  23
ATOM     23  O   UNL     1      -9.029   1.007   3.310  1.00  0.00    -0.507 OA
ATOM     24  H   UNL     1      -8.878   0.016   3.450  1.00  0.00     0.293 HD
ENDBRANCH  10  23
BRANCH  11  25
ATOM     25  O   UNL     1      -7.540   5.592   3.555  1.00  0.00    -0.508 OA
ATOM     26  H   UNL     1      -8.214   5.931   4.232  1.00  0.00     0.293 HD
ENDBRANCH  11  25
ENDBRANCH   1   2
BRANCH   1  27
ATOM     27  C   UNL     1      -5.010  -2.504   2.126  1.00  0.00     0.339 C 
ATOM     28  C   UNL     1      -6.407  -2.064   1.624  1.00  0.00     0.214 C 
ATOM     29  O   UNL     1      -4.097  -2.681   1.051  1.00  0.00    -0.332 OA
ATOM     30  C   UNL     1      -6.301  -0.830   0.706  1.00  0.00     0.180 C 
ATOM     31  C   UNL     1      -3.901  -1.478   0.320  1.00  0.00     0.179 C 
ATOM     32  C   UNL     1      -5.215  -1.031  -0.364  1.00  0.00     0.177 C 
BRANCH  28  33
ATOM     33  O   UNL     1      -7.074  -3.122   0.977  1.00  0.00    -0.384 OA
ATOM     34  H   UNL     1      -6.549  -3.370   0.172  1.00  0.00     0.211 HD
ENDBRANCH  28  33
BRANCH  30  35
ATOM     35  O   UNL     1      -7.536  -0.572   0.087  1.00  0.00    -0.387 OA
ATOM     36  H   UNL     1      -7.626  -1.232  -0.650  1.00  0.00     0.211 HD
ENDBRANCH  30  35
BRANCH  31  37
ATOM     37  C   UNL     1      -2.794  -1.713  -0.719  1.00  0.00     0.191 C 
BRANCH  37  38
ATOM     38  O   UNL     1      -2.184  -0.492  -1.046  1.00  0.00    -0.394 OA
ATOM     39  H   UNL     1      -2.512  -0.247  -1.950  1.00  0.00     0.210 HD
ENDBRANCH  37  38
ENDBRANCH  31  37
BRANCH  32  40
ATOM     40  O   UNL     1      -5.006   0.185  -1.042  1.00  0.00    -0.387 OA
ATOM     41  H   UNL     1      -4.021   0.313  -1.108  1.00  0.00     0.211 HD
ENDBRANCH  32  40
ENDBRANCH   1  27
TORSDOF 12
ENDMDL
MODEL 2
REMARK VINA RESULT:    61.717      1.692      5.503
REMARK INTER + INTRA:          95.085
REMARK INTER:                  92.385
REMARK INTRA:                   2.700
REMARK UNBOUND:                 4.504
REMARK SMILES O=c1c(O[C@@H]2O[C@@H](CO)[C@H](O)[C@@H](O)[C@H]2O)c(-c2ccc(O)c(O)c2)oc2cc(O)cc(O)c12
REMARK SMILES IDX 4 1 3 2 16 3 25 4 2 5 26 6 1 7 33 8 27 9 31 10 28 11 30 12
REMARK SMILES IDX 17 13 18 14 19 15 20 16 24 17 22 18 21 19 23 21 32 23 29 25
REMARK SMILES IDX 5 27 14 28 6 29 12 30 7 31 10 32 15 33 13 35 8 37 9 38 11 40
REMARK H PARENT 21 20 23 22 32 24 29 26 15 34 13 36 9 39 11 41
REMARK Flexibility Score: inf
ROOT
ATOM      1  O   UNL     1      -5.771  -0.260   3.298  1.00  0.00    -0.454 OA
ENDROOT
BRANCH   1   2
ATOM      2  C   UNL     1      -4.386  -0.039   3.257  1.00  0.00     0.214 A 
ATOM      3  C   UNL     1      -3.872   1.112   2.637  1.00  0.00     0.180 A 
ATOM      4  O   UNL     1      -2.557   1.289   2.545  1.00  0.00    -0.452 OA
ATOM      5  C   UNL     1      -3.488  -0.951   3.836  1.00  0.00     0.239 A 
ATOM      6  C   UNL     1      -1.672   0.437   3.048  1.00  0.00     0.146 A 
ATOM      7  O   UNL     1      -3.935  -1.947   4.466  1.00  0.00    -0.285 OA
ATOM      8  C   UNL     1      -2.099  -0.729   3.726  1.00  0.00     0.111 A 
ATOM      9  C   UNL     1      -0.307   0.712   2.909  1.00  0.00     0.094 A 
ATOM     10  C   UNL     1      -1.130  -1.612   4.260  1.00  0.00     0.134 A 
ATOM     11  C   UNL     1       0.647  -0.163   3.440  1.00  0.00     0.123 A 
ATOM     12  C   UNL     1       0.235  -1.318   4.113  1.00  0.00     0.093 A 
BRANCH   3  13
ATOM     13  C   UNL     1      -4.758   2.141   2.056  1.00  0.00     0.025 A 
ATOM     14  C   UNL     1      -4.624   2.485   0.702  1.00  0.00     0.016 A 
ATOM     15  C   UNL     1      -5.449   3.463   0.138  1.00  0.00     0.051 A 
ATOM     16  C   UNL     1      -6.409   4.113   0.919  1.00  0.00     0.157 A 
ATOM     17  C   UNL     1      -5.698   2.818   2.850  1.00  0.00     0.062 A 
ATOM     18  C   UNL     1      -6.534   3.794   2.285  1.00  0.00     0.158 A 
BRANCH  16  19
ATOM     19  O   UNL     1      -7.220   5.082   0.328  1.00  0.00    -0.504 OA
ATOM     20  H   UNL     1      -8.127   5.336   0.707  1.00  0.00     0.293 HD
ENDBRANCH  16  19
BRANCH  18  21
ATOM     21  O   UNL     1      -7.480   4.448   3.070  1.00  0.00    -0.504 OA
ATOM     22  H   UNL     1      -8.081   5.171   2.689  1.00  0.00     0.293 HD
ENDBRANCH  18  21
ENDBRANCH   3  13
BRANCH  10  23
ATOM     23  O   UNL     1      -1.508  -2.777   4.929  1.00  0.00    -0.507 OA
ATOM     24  H   UNL     1      -1.847  -3.592   4.431  1.00  0.00     0.293 HD
ENDBRANCH  10  23
BRANCH  11  25
ATOM     25  O   UNL     1       2.009   0.103   3.305  1.00  0.00    -0.508 OA
ATOM     26  H   UNL     1       2.687  -0.274   3.957  1.00  0.00     0.293 HD
ENDBRANCH  11  25
ENDBRANCH   1   2
BRANCH   1  27
ATOM     27  C   UNL     1      -6.421  -1.308   2.569  1.00  0.00     0.339 C 
ATOM     28  C   UNL     1      -7.107  -0.741   1.302  1.00  0.00     0.214 C 
ATOM     29  O   UNL     1      -5.505  -2.347   2.250  1.00  0.00    -0.332 OA
ATOM     30  C   UNL     1      -6.063  -0.328   0.246  1.00  0.00     0.180 C 
ATOM     31  C   UNL     1      -4.462  -1.890   1.400  1.00  0.00     0.179 C 
ATOM     32  C   UNL     1      -5.027  -1.445   0.030  1.00  0.00     0.177 C 
BRANCH  28  33
ATOM     33  O   UNL     1      -8.033  -1.657   0.769  1.00  0.00    -0.384 OA
ATOM     34  H   UNL     1      -7.760  -2.569   1.049  1.00  0.00     0.211 HD
ENDBRANCH  28  33
BRANCH  30  35
ATOM     35  O   UNL     1      -6.692  -0.021  -0.972  1.00  0.00    -0.387 OA
ATOM     36  H   UNL     1      -7.309  -0.773  -1.169  1.00  0.00     0.211 HD
ENDBRANCH  30  35
BRANCH  31  37
ATOM     37  C   UNL     1      -3.440  -3.024   1.229  1.00  0.00     0.191 C 
BRANCH  37  38
ATOM     38  O   UNL     1      -3.063  -3.123  -0.120  1.00  0.00    -0.394 OA
ATOM     39  H   UNL     1      -2.103  -3.373  -0.125  1.00  0.00     0.210 HD
ENDBRANCH  37  38
ENDBRANCH  31  37
BRANCH  32  40
ATOM     40  O   UNL     1      -3.983  -0.955  -0.776  1.00  0.00    -0.387 OA
ATOM     41  H   UNL     1      -3.264  -1.643  -0.769  1.00  0.00     0.211 HD
ENDBRANCH  32  40
ENDBRANCH   1  27
TORSDOF 12
ENDMDL
