MODEL 1
REMARK VINA RESULT:    -2.630      0.000      0.000
REMARK INTER + INTRA:          -7.007
REMARK INTER:                  -6.012
REMARK INTRA:                  -0.995
REMARK UNBOUND:                -0.995
REMARK SMILES CCCCCCCCCCCCCCCCCCCCCCCC(=O)[O-]
REMARK SMILES IDX 13 1 14 2 15 3 16 4 17 5 18 6 19 7 20 8 21 9 22 10 23 11
REMARK SMILES IDX 24 12 25 13 26 14 12 15 11 16 10 17 9 18 8 19 7 20 6 21 5 22
REMARK SMILES IDX 4 23 3 24 2 25 1 26
REMARK H PARENT
REMARK Flexibility Score: inf
ROOT
ATOM      1  C   UNL     1      -0.838 -22.101  15.987  1.00  0.00     0.000 C 
ENDROOT
BRANCH   1   2
ATOM      2  C   UNL     1       0.404 -22.793  15.394  1.00  0.00     0.000 C 
BRANCH   2   3
ATOM      3  C   UNL     1       1.720 -22.018  15.623  1.00  0.00     0.000 C 
BRANCH   3   4
ATOM      4  C   UNL     1       2.960 -22.924  15.531  1.00  0.00     0.000 C 
BRANCH   4   5
ATOM      5  C   UNL     1       4.274 -22.127  15.546  1.00  0.00     0.000 C 
BRANCH   5   6
ATOM      6  C   UNL     1       4.828 -21.927  16.968  1.00  0.00     0.000 C 
BRANCH   6   7
ATOM      7  C   UNL     1       6.162 -21.161  16.987  1.00  0.00     0.000 C 
BRANCH   7   8
ATOM      8  C   UNL     1       7.420 -22.052  17.035  1.00  0.00     0.000 C 
BRANCH   8   9
ATOM      9  C   UNL     1       8.415 -21.842  15.876  1.00  0.00     0.000 C 
BRANCH   9  10
ATOM     10  C   UNL     1       7.940 -20.868  14.778  1.00  0.00     0.006 C 
BRANCH  10  11
ATOM     11  C   UNL     1       7.498 -21.549  13.473  1.00  0.00     0.053 C 
BRANCH  11  12
ATOM     12  C   UNL     1       7.947 -20.786  12.264  1.00  0.00     0.041 C 
ATOM     13  O   UNL     1       8.449 -19.639  12.389  1.00  0.00    -0.550 OA
ATOM     14  O   UNL     1       7.779 -21.331  10.996  1.00  0.00    -0.550 OA
ENDBRANCH  11  12
ENDBRANCH  10  11
ENDBRANCH   9  10
ENDBRANCH   8   9
ENDBRANCH   7   8
ENDBRANCH   6   7
ENDBRANCH   5   6
ENDBRANCH   4   5
ENDBRANCH   3   4
ENDBRANCH   2   3
ENDBRANCH   1   2
BRANCH   1  15
ATOM     15  C   UNL     1      -2.119 -22.958  16.005  1.00  0.00     0.000 C 
BRANCH  15  16
ATOM     16  C   UNL     1      -3.441 -22.167  15.974  1.00  0.00     0.000 C 
BRANCH  16  17
ATOM     17  C   UNL     1      -4.598 -22.900  16.672  1.00  0.00     0.000 C 
BRANCH  17  18
ATOM     18  C   UNL     1      -5.948 -22.182  16.497  1.00  0.00    -0.000 C 
BRANCH  18  19
ATOM     19  C   UNL     1      -7.157 -22.885  17.149  1.00  0.00    -0.000 C 
BRANCH  19  20
ATOM     20  C   UNL     1      -8.055 -21.979  18.011  1.00  0.00    -0.000 C 
BRANCH  20  21
ATOM     21  C   UNL     1      -9.471 -21.817  17.429  1.00  0.00    -0.000 C 
BRANCH  21  22
ATOM     22  C   UNL     1     -10.454 -21.193  18.434  1.00  0.00    -0.000 C 
BRANCH  22  23
ATOM     23  C   UNL     1     -10.823 -19.744  18.071  1.00  0.00    -0.000 C 
BRANCH  23  24
ATOM     24  C   UNL     1     -11.125 -18.884  19.307  1.00  0.00    -0.000 C 
BRANCH  24  25
ATOM     25  C   UNL     1     -10.100 -19.083  20.434  1.00  0.00    -0.003 C 
ATOM     26  C   UNL     1      -9.711 -17.749  21.066  1.00  0.00     0.004 C 
ENDBRANCH  24  25
ENDBRANCH  23  24
ENDBRANCH  22  23
ENDBRANCH  21  22
ENDBRANCH  20  21
ENDBRANCH  19  20
ENDBRANCH  18  19
ENDBRANCH  17  18
ENDBRANCH  16  17
ENDBRANCH  15  16
ENDBRANCH   1  15
TORSDOF 22
ENDMDL
MODEL 2
REMARK VINA RESULT:    -2.463      1.726      2.494
REMARK INTER + INTRA:          -6.626
REMARK INTER:                  -5.263
REMARK INTRA:                  -1.363
REMARK UNBOUND:                -0.995
REMARK SMILES CCCCCCCCCCCCCCCCCCCCCCCC(=O)[O-]
REMARK SMILES IDX 13 1 14 2 15 3 16 4 17 5 18 6 19 7 20 8 21 9 22 10 23 11
REMARK SMILES IDX 24 12 25 13 26 14 12 15 11 16 10 17 9 18 8 19 7 20 6 21 5 22
REMARK SMILES IDX 4 23 3 24 2 25 1 26
REMARK H PARENT
REMARK Flexibility Score: inf
ROOT
ATOM      1  C   UNL     1      -0.925 -21.794  16.154  1.00  0.00     0.000 C 
ENDROOT
BRANCH   1   2
ATOM      2  C   UNL     1       0.607 -21.873  16.021  1.00  0.00     0.000 C 
BRANCH   2   3
ATOM      3  C   UNL     1       1.098 -23.023  15.114  1.00  0.00     0.000 C 
BRANCH   3   4
ATOM      4  C   UNL     1       2.633 -23.109  15.051  1.00  0.00     0.000 C 
BRANCH   4   5
ATOM      5  C   UNL     1       3.173 -22.950  13.621  1.00  0.00     0.000 C 
BRANCH   5   6
ATOM      6  C   UNL     1       4.707 -23.062  13.553  1.00  0.00     0.000 C 
BRANCH   6   7
ATOM      7  C   UNL     1       5.407 -22.393  14.750  1.00  0.00     0.000 C 
BRANCH   7   8
ATOM      8  C   UNL     1       6.896 -22.758  14.917  1.00  0.00     0.000 C 
BRANCH   8   9
ATOM      9  C   UNL     1       7.816 -21.588  15.317  1.00  0.00     0.000 C 
BRANCH   9  10
ATOM     10  C   UNL     1       7.903 -20.445  14.285  1.00  0.00     0.006 C 
BRANCH  10  11
ATOM     11  C   UNL     1       8.795 -20.752  13.071  1.00  0.00     0.053 C 
BRANCH  11  12
ATOM     12  C   UNL     1       8.012 -20.775  11.794  1.00  0.00     0.041 C 
ATOM     13  O   UNL     1       7.257 -21.748  11.531  1.00  0.00    -0.550 OA
ATOM     14  O   UNL     1       8.142 -19.737  10.880  1.00  0.00    -0.550 OA
ENDBRANCH  11  12
ENDBRANCH  10  11
ENDBRANCH   9  10
ENDBRANCH   8   9
ENDBRANCH   7   8
ENDBRANCH   6   7
ENDBRANCH   5   6
ENDBRANCH   4   5
ENDBRANCH   3   4
ENDBRANCH   2   3
ENDBRANCH   1   2
BRANCH   1  15
ATOM     15  C   UNL     1      -1.677 -23.108  15.865  1.00  0.00     0.000 C 
BRANCH  15  16
ATOM     16  C   UNL     1      -3.197 -23.064  16.110  1.00  0.00     0.000 C 
BRANCH  16  17
ATOM     17  C   UNL     1      -3.855 -21.777  15.587  1.00  0.00     0.000 C 
BRANCH  17  18
ATOM     18  C   UNL     1      -5.304 -21.608  16.078  1.00  0.00    -0.000 C 
BRANCH  18  19
ATOM     19  C   UNL     1      -5.957 -22.882  16.653  1.00  0.00    -0.000 C 
BRANCH  19  20
ATOM     20  C   UNL     1      -6.431 -22.774  18.113  1.00  0.00    -0.000 C 
BRANCH  20  21
ATOM     21  C   UNL     1      -7.962 -22.868  18.251  1.00  0.00    -0.000 C 
BRANCH  21  22
ATOM     22  C   UNL     1      -8.608 -21.516  18.595  1.00  0.00    -0.000 C 
BRANCH  22  23
ATOM     23  C   UNL     1     -10.005 -21.358  17.969  1.00  0.00    -0.000 C 
BRANCH  23  24
ATOM     24  C   UNL     1      -9.991 -21.529  16.442  1.00  0.00    -0.000 C 
BRANCH  24  25
ATOM     25  C   UNL     1     -10.083 -20.190  15.694  1.00  0.00    -0.003 C 
ATOM     26  C   UNL     1     -10.769 -20.362  14.342  1.00  0.00     0.004 C 
ENDBRANCH  24  25
ENDBRANCH  23  24
ENDBRANCH  22  23
ENDBRANCH  21  22
ENDBRANCH  20  21
ENDBRANCH  19  20
ENDBRANCH  18  19
ENDBRANCH  17  18
ENDBRANCH  16  17
ENDBRANCH  15  16
ENDBRANCH   1  15
TORSDOF 22
ENDMDL
MODEL 3
REMARK VINA RESULT:    -2.416      2.065      3.081
REMARK INTER + INTRA:          -6.519
REMARK INTER:                  -5.319
REMARK INTRA:                  -1.200
REMARK UNBOUND:                -0.995
REMARK SMILES CCCCCCCCCCCCCCCCCCCCCCCC(=O)[O-]
REMARK SMILES IDX 13 1 14 2 15 3 16 4 17 5 18 6 19 7 20 8 21 9 22 10 23 11
REMARK SMILES IDX 24 12 25 13 26 14 12 15 11 16 10 17 9 18 8 19 7 20 6 21 5 22
REMARK SMILES IDX 4 23 3 24 2 25 1 26
REMARK H PARENT
REMARK Flexibility Score: inf
ROOT
ATOM      1  C   UNL     1      -1.240 -21.941  15.947  1.00  0.00     0.000 C 
ENDROOT
BRANCH   1   2
ATOM      2  C   UNL     1       0.122 -22.658  15.875  1.00  0.00     0.000 C 
BRANCH   2   3
ATOM      3  C   UNL     1       1.107 -22.030  14.865  1.00  0.00     0.000 C 
BRANCH   3   4
ATOM      4  C   UNL     1       2.564 -22.453  15.123  1.00  0.00     0.000 C 
BRANCH   4   5
ATOM      5  C   UNL     1       3.207 -23.125  13.899  1.00  0.00     0.000 C 
BRANCH   5   6
ATOM      6  C   UNL     1       4.739 -22.977  13.882  1.00  0.00     0.000 C 
BRANCH   6   7
ATOM      7  C   UNL     1       5.296 -22.702  12.474  1.00  0.00     0.000 C 
BRANCH   7   8
ATOM      8  C   UNL     1       6.668 -21.999  12.446  1.00  0.00     0.000 C 
BRANCH   8   9
ATOM      9  C   UNL     1       7.865 -22.884  12.849  1.00  0.00     0.000 C 
BRANCH   9  10
ATOM     10  C   UNL     1       8.911 -22.193  13.749  1.00  0.00     0.006 C 
BRANCH  10  11
ATOM     11  C   UNL     1       8.337 -21.100  14.664  1.00  0.00     0.053 C 
BRANCH  11  12
ATOM     12  C   UNL     1       7.830 -21.661  15.957  1.00  0.00     0.041 C 
ATOM     13  O   UNL     1       8.628 -22.192  16.774  1.00  0.00    -0.550 OA
ATOM     14  O   UNL     1       6.471 -21.628  16.245  1.00  0.00    -0.550 OA
ENDBRANCH  11  12
ENDBRANCH  10  11
ENDBRANCH   9  10
ENDBRANCH   8   9
ENDBRANCH   7   8
ENDBRANCH   6   7
ENDBRANCH   5   6
ENDBRANCH   4   5
ENDBRANCH   3   4
ENDBRANCH   2   3
ENDBRANCH   1   2
BRANCH   1  15
ATOM     15  C   UNL     1      -2.469 -22.870  15.969  1.00  0.00     0.000 C 
BRANCH  15  16
ATOM     16  C   UNL     1      -3.825 -22.163  16.156  1.00  0.00     0.000 C 
BRANCH  16  17
ATOM     17  C   UNL     1      -4.950 -23.121  16.580  1.00  0.00     0.000 C 
BRANCH  17  18
ATOM     18  C   UNL     1      -6.352 -22.536  16.336  1.00  0.00    -0.000 C 
BRANCH  18  19
ATOM     19  C   UNL     1      -7.063 -21.984  17.589  1.00  0.00    -0.000 C 
BRANCH  19  20
ATOM     20  C   UNL     1      -8.365 -22.709  17.977  1.00  0.00    -0.000 C 
BRANCH  20  21
ATOM     21  C   UNL     1      -9.018 -22.124  19.243  1.00  0.00    -0.000 C 
BRANCH  21  22
ATOM     22  C   UNL     1      -9.917 -20.914  18.938  1.00  0.00    -0.000 C 
BRANCH  22  23
ATOM     23  C   UNL     1     -10.856 -21.167  17.745  1.00  0.00    -0.000 C 
BRANCH  23  24
ATOM     24  C   UNL     1     -10.636 -20.170  16.598  1.00  0.00    -0.000 C 
BRANCH  24  25
ATOM     25  C   UNL     1     -10.337 -20.861  15.259  1.00  0.00    -0.003 C 
ATOM     26  C   UNL     1      -9.497 -19.965  14.354  1.00  0.00     0.004 C 
ENDBRANCH  24  25
ENDBRANCH  23  24
ENDBRANCH  22  23
ENDBRANCH  21  22
ENDBRANCH  20  21
ENDBRANCH  19  20
ENDBRANCH  18  19
ENDBRANCH  17  18
ENDBRANCH  16  17
ENDBRANCH  15  16
ENDBRANCH   1  15
TORSDOF 22
ENDMDL
MODEL 4
REMARK VINA RESULT:    -2.382      5.877     15.420
REMARK INTER + INTRA:          -6.441
REMARK INTER:                  -5.637
REMARK INTRA:                  -0.804
REMARK UNBOUND:                -0.995
REMARK SMILES CCCCCCCCCCCCCCCCCCCCCCCC(=O)[O-]
REMARK SMILES IDX 13 1 14 2 15 3 16 4 17 5 18 6 19 7 20 8 21 9 22 10 23 11
REMARK SMILES IDX 24 12 25 13 26 14 12 15 11 16 10 17 9 18 8 19 7 20 6 21 5 22
REMARK SMILES IDX 4 23 3 24 2 25 1 26
REMARK H PARENT
REMARK Flexibility Score: inf
ROOT
ATOM      1  C   UNL     1      -0.714 -22.347  15.817  1.00  0.00     0.000 C 
ENDROOT
BRANCH   1   2
ATOM      2  C   UNL     1      -2.039 -23.120  15.959  1.00  0.00     0.000 C 
BRANCH   2   3
ATOM      3  C   UNL     1      -3.296 -22.225  15.899  1.00  0.00     0.000 C 
BRANCH   3   4
ATOM      4  C   UNL     1      -4.537 -22.913  16.493  1.00  0.00     0.000 C 
BRANCH   4   5
ATOM      5  C   UNL     1      -5.746 -21.968  16.585  1.00  0.00     0.000 C 
BRANCH   5   6
ATOM      6  C   UNL     1      -7.057 -22.714  16.890  1.00  0.00     0.000 C 
BRANCH   6   7
ATOM      7  C   UNL     1      -8.000 -21.915  17.807  1.00  0.00     0.000 C 
BRANCH   7   8
ATOM      8  C   UNL     1      -9.086 -22.754  18.510  1.00  0.00     0.000 C 
BRANCH   8   9
ATOM      9  C   UNL     1      -9.695 -22.112  19.773  1.00  0.00     0.000 C 
BRANCH   9  10
ATOM     10  C   UNL     1     -10.690 -20.964  19.504  1.00  0.00     0.006 C 
BRANCH  10  11
ATOM     11  C   UNL     1     -10.061 -19.562  19.519  1.00  0.00     0.053 C 
BRANCH  11  12
ATOM     12  C   UNL     1     -10.133 -18.931  20.876  1.00  0.00     0.041 C 
ATOM     13  O   UNL     1      -9.871 -17.708  21.021  1.00  0.00    -0.550 OA
ATOM     14  O   UNL     1     -10.460 -19.702  21.985  1.00  0.00    -0.550 OA
ENDBRANCH  11  12
ENDBRANCH  10  11
ENDBRANCH   9  10
ENDBRANCH   8   9
ENDBRANCH   7   8
ENDBRANCH   6   7
ENDBRANCH   5   6
ENDBRANCH   4   5
ENDBRANCH   3   4
ENDBRANCH   2   3
ENDBRANCH   1   2
BRANCH   1  15
ATOM     15  C   UNL     1       0.419 -23.114  15.109  1.00  0.00     0.000 C 
BRANCH  15  16
ATOM     16  C   UNL     1       1.651 -22.268  14.733  1.00  0.00     0.000 C 
BRANCH  16  17
ATOM     17  C   UNL     1       2.867 -23.120  14.333  1.00  0.00     0.000 C 
BRANCH  17  18
ATOM     18  C   UNL     1       4.184 -22.591  14.929  1.00  0.00    -0.000 C 
BRANCH  18  19
ATOM     19  C   UNL     1       5.438 -22.820  14.060  1.00  0.00    -0.000 C 
BRANCH  19  20
ATOM     20  C   UNL     1       6.758 -22.309  14.666  1.00  0.00    -0.000 C 
BRANCH  20  21
ATOM     21  C   UNL     1       7.994 -23.024  14.090  1.00  0.00    -0.000 C 
BRANCH  21  22
ATOM     22  C   UNL     1       8.910 -22.074  13.299  1.00  0.00    -0.000 C 
BRANCH  22  23
ATOM     23  C   UNL     1       8.441 -20.611  13.373  1.00  0.00    -0.000 C 
BRANCH  23  24
ATOM     24  C   UNL     1       7.931 -20.084  12.023  1.00  0.00    -0.000 C 
BRANCH  24  25
ATOM     25  C   UNL     1       8.128 -21.091  10.880  1.00  0.00    -0.003 C 
ATOM     26  C   UNL     1       8.745 -20.420   9.657  1.00  0.00     0.004 C 
ENDBRANCH  24  25
ENDBRANCH  23  24
ENDBRANCH  22  23
ENDBRANCH  21  22
ENDBRANCH  20  21
ENDBRANCH  19  20
ENDBRANCH  18  19
ENDBRANCH  17  18
ENDBRANCH  16  17
ENDBRANCH  15  16
ENDBRANCH   1  15
TORSDOF 22
ENDMDL
MODEL 5
REMARK VINA RESULT:    -2.359      1.760      2.542
REMARK INTER + INTRA:          -6.387
REMARK INTER:                  -5.200
REMARK INTRA:                  -1.187
REMARK UNBOUND:                -0.995
REMARK SMILES CCCCCCCCCCCCCCCCCCCCCCCC(=O)[O-]
REMARK SMILES IDX 13 1 14 2 15 3 16 4 17 5 18 6 19 7 20 8 21 9 22 10 23 11
REMARK SMILES IDX 24 12 25 13 26 14 12 15 11 16 10 17 9 18 8 19 7 20 6 21 5 22
REMARK SMILES IDX 4 23 3 24 2 25 1 26
REMARK H PARENT
REMARK Flexibility Score: inf
ROOT
ATOM      1  C   UNL     1      -2.114 -21.632  15.800  1.00  0.00     0.000 C 
ENDROOT
BRANCH   1   2
ATOM      2  C   UNL     1      -1.120 -22.794  15.987  1.00  0.00     0.000 C 
BRANCH   2   3
ATOM      3  C   UNL     1       0.361 -22.379  15.844  1.00  0.00     0.000 C 
BRANCH   3   4
ATOM      4  C   UNL     1       1.012 -22.947  14.571  1.00  0.00     0.000 C 
BRANCH   4   5
ATOM      5  C   UNL     1       2.536 -23.095  14.704  1.00  0.00     0.000 C 
BRANCH   5   6
ATOM      6  C   UNL     1       3.097 -22.349  15.928  1.00  0.00     0.000 C 
BRANCH   6   7
ATOM      7  C   UNL     1       4.622 -22.156  15.861  1.00  0.00     0.000 C 
BRANCH   7   8
ATOM      8  C   UNL     1       5.278 -21.715  17.185  1.00  0.00     0.000 C 
BRANCH   8   9
ATOM      9  C   UNL     1       6.784 -21.396  17.095  1.00  0.00     0.000 C 
BRANCH   9  10
ATOM     10  C   UNL     1       7.493 -21.949  15.842  1.00  0.00     0.006 C 
BRANCH  10  11
ATOM     11  C   UNL     1       8.098 -20.871  14.928  1.00  0.00     0.053 C 
BRANCH  11  12
ATOM     12  C   UNL     1       7.903 -21.195  13.478  1.00  0.00     0.041 C 
ATOM     13  O   UNL     1       8.048 -20.300  12.604  1.00  0.00    -0.550 OA
ATOM     14  O   UNL     1       7.529 -22.478  13.095  1.00  0.00    -0.550 OA
ENDBRANCH  11  12
ENDBRANCH  10  11
ENDBRANCH   9  10
ENDBRANCH   8   9
ENDBRANCH   7   8
ENDBRANCH   6   7
ENDBRANCH   5   6
ENDBRANCH   4   5
ENDBRANCH   3   4
ENDBRANCH   2   3
ENDBRANCH   1   2
BRANCH   1  15
ATOM     15  C   UNL     1      -3.584 -22.054  15.605  1.00  0.00     0.000 C 
BRANCH  15  16
ATOM     16  C   UNL     1      -4.098 -23.125  16.586  1.00  0.00     0.000 C 
BRANCH  16  17
ATOM     17  C   UNL     1      -5.592 -22.975  16.913  1.00  0.00     0.000 C 
BRANCH  17  18
ATOM     18  C   UNL     1      -5.855 -22.777  18.416  1.00  0.00    -0.000 C 
BRANCH  18  19
ATOM     19  C   UNL     1      -7.342 -22.749  18.827  1.00  0.00    -0.000 C 
BRANCH  19  20
ATOM     20  C   UNL     1      -8.334 -22.483  17.680  1.00  0.00    -0.000 C 
BRANCH  20  21
ATOM     21  C   UNL     1      -9.738 -23.048  17.965  1.00  0.00    -0.000 C 
BRANCH  21  22
ATOM     22  C   UNL     1     -10.835 -21.975  17.874  1.00  0.00    -0.000 C 
BRANCH  22  23
ATOM     23  C   UNL     1     -11.125 -21.554  16.422  1.00  0.00    -0.000 C 
BRANCH  23  24
ATOM     24  C   UNL     1     -10.639 -20.130  16.111  1.00  0.00    -0.000 C 
BRANCH  24  25
ATOM     25  C   UNL     1     -10.125 -19.979  14.672  1.00  0.00    -0.003 C 
ATOM     26  C   UNL     1      -8.761 -20.641  14.503  1.00  0.00     0.004 C 
ENDBRANCH  24  25
ENDBRANCH  23  24
ENDBRANCH  22  23
ENDBRANCH  21  22
ENDBRANCH  20  21
ENDBRANCH  19  20
ENDBRANCH  18  19
ENDBRANCH  17  18
ENDBRANCH  16  17
ENDBRANCH  15  16
ENDBRANCH   1  15
TORSDOF 22
ENDMDL
MODEL 6
REMARK VINA RESULT:    -2.294      1.105      1.657
REMARK INTER + INTRA:          -6.240
REMARK INTER:                  -5.394
REMARK INTRA:                  -0.846
REMARK UNBOUND:                -0.995
REMARK SMILES CCCCCCCCCCCCCCCCCCCCCCCC(=O)[O-]
REMARK SMILES IDX 13 1 14 2 15 3 16 4 17 5 18 6 19 7 20 8 21 9 22 10 23 11
REMARK SMILES IDX 24 12 25 13 26 14 12 15 11 16 10 17 9 18 8 19 7 20 6 21 5 22
REMARK SMILES IDX 4 23 3 24 2 25 1 26
REMARK H PARENT
REMARK Flexibility Score: inf
ROOT
ATOM      1  C   UNL     1      -2.004 -21.963  16.151  1.00  0.00     0.000 C 
ENDROOT
BRANCH   1   2
ATOM      2  C   UNL     1      -0.795 -22.765  15.633  1.00  0.00     0.000 C 
BRANCH   2   3
ATOM      3  C   UNL     1       0.567 -22.087  15.898  1.00  0.00     0.000 C 
BRANCH   3   4
ATOM      4  C   UNL     1       1.623 -22.453  14.841  1.00  0.00     0.000 C 
BRANCH   4   5
ATOM      5  C   UNL     1       2.893 -23.057  15.462  1.00  0.00     0.000 C 
BRANCH   5   6
ATOM      6  C   UNL     1       3.664 -22.046  16.330  1.00  0.00     0.000 C 
BRANCH   6   7
ATOM      7  C   UNL     1       5.184 -22.092  16.091  1.00  0.00     0.000 C 
BRANCH   7   8
ATOM      8  C   UNL     1       6.035 -21.462  17.211  1.00  0.00     0.000 C 
BRANCH   8   9
ATOM      9  C   UNL     1       7.554 -21.704  17.095  1.00  0.00     0.000 C 
BRANCH   9  10
ATOM     10  C   UNL     1       7.992 -22.504  15.851  1.00  0.00     0.006 C 
BRANCH  10  11
ATOM     11  C   UNL     1       9.027 -21.788  14.969  1.00  0.00     0.053 C 
BRANCH  11  12
ATOM     12  C   UNL     1       8.379 -20.864  13.984  1.00  0.00     0.041 C 
ATOM     13  O   UNL     1       8.767 -19.671  13.885  1.00  0.00    -0.550 OA
ATOM     14  O   UNL     1       7.323 -21.313  13.199  1.00  0.00    -0.550 OA
ENDBRANCH  11  12
ENDBRANCH  10  11
ENDBRANCH   9  10
ENDBRANCH   8   9
ENDBRANCH   7   8
ENDBRANCH   6   7
ENDBRANCH   5   6
ENDBRANCH   4   5
ENDBRANCH   3   4
ENDBRANCH   2   3
ENDBRANCH   1   2
BRANCH   1  15
ATOM     15  C   UNL     1      -3.377 -22.448  15.646  1.00  0.00     0.000 C 
BRANCH  15  16
ATOM     16  C   UNL     1      -4.432 -22.693  16.741  1.00  0.00     0.000 C 
BRANCH  16  17
ATOM     17  C   UNL     1      -5.761 -21.968  16.470  1.00  0.00     0.000 C 
BRANCH  17  18
ATOM     18  C   UNL     1      -6.826 -22.260  17.541  1.00  0.00    -0.000 C 
BRANCH  18  19
ATOM     19  C   UNL     1      -8.201 -22.703  16.999  1.00  0.00    -0.000 C 
BRANCH  19  20
ATOM     20  C   UNL     1      -9.417 -22.168  17.777  1.00  0.00    -0.000 C 
BRANCH  20  21
ATOM     21  C   UNL     1      -9.044 -21.636  19.173  1.00  0.00    -0.000 C 
BRANCH  21  22
ATOM     22  C   UNL     1     -10.277 -21.356  20.048  1.00  0.00    -0.000 C 
BRANCH  22  23
ATOM     23  C   UNL     1     -10.583 -19.853  20.167  1.00  0.00    -0.000 C 
BRANCH  23  24
ATOM     24  C   UNL     1     -10.230 -19.286  21.550  1.00  0.00    -0.000 C 
BRANCH  24  25
ATOM     25  C   UNL     1      -9.620 -17.878  21.477  1.00  0.00    -0.003 C 
ATOM     26  C   UNL     1      -8.902 -17.523  22.776  1.00  0.00     0.004 C 
ENDBRANCH  24  25
ENDBRANCH  23  24
ENDBRANCH  22  23
ENDBRANCH  21  22
ENDBRANCH  20  21
ENDBRANCH  19  20
ENDBRANCH  18  19
ENDBRANCH  17  18
ENDBRANCH  16  17
ENDBRANCH  15  16
ENDBRANCH   1  15
TORSDOF 22
ENDMDL
MODEL 7
REMARK VINA RESULT:    -2.215      2.024      3.408
REMARK INTER + INTRA:          -6.059
REMARK INTER:                  -5.353
REMARK INTRA:                  -0.706
REMARK UNBOUND:                -0.995
REMARK SMILES CCCCCCCCCCCCCCCCCCCCCCCC(=O)[O-]
REMARK SMILES IDX 13 1 14 2 15 3 16 4 17 5 18 6 19 7 20 8 21 9 22 10 23 11
REMARK SMILES IDX 24 12 25 13 26 14 12 15 11 16 10 17 9 18 8 19 7 20 6 21 5 22
REMARK SMILES IDX 4 23 3 24 2 25 1 26
REMARK H PARENT
REMARK Flexibility Score: inf
ROOT
ATOM      1  C   UNL     1      -4.329 -22.218  16.687  1.00  0.00     0.000 C 
ENDROOT
BRANCH   1   2
ATOM      2  C   UNL     1      -3.070 -22.960  16.204  1.00  0.00     0.000 C 
BRANCH   2   3
ATOM      3  C   UNL     1      -2.092 -22.076  15.399  1.00  0.00     0.000 C 
BRANCH   3   4
ATOM      4  C   UNL     1      -0.680 -22.053  16.010  1.00  0.00     0.000 C 
BRANCH   4   5
ATOM      5  C   UNL     1       0.246 -23.113  15.392  1.00  0.00     0.000 C 
BRANCH   5   6
ATOM      6  C   UNL     1       1.716 -22.658  15.346  1.00  0.00     0.000 C 
BRANCH   6   7
ATOM      7  C   UNL     1       2.409 -23.015  14.018  1.00  0.00     0.000 C 
BRANCH   7   8
ATOM      8  C   UNL     1       3.945 -23.125  14.099  1.00  0.00     0.000 C 
BRANCH   8   9
ATOM      9  C   UNL     1       4.697 -22.739  12.809  1.00  0.00     0.000 C 
BRANCH   9  10
ATOM     10  C   UNL     1       6.216 -23.009  12.836  1.00  0.00     0.006 C 
BRANCH  10  11
ATOM     11  C   UNL     1       6.940 -22.694  11.517  1.00  0.00     0.053 C 
BRANCH  11  12
ATOM     12  C   UNL     1       7.669 -21.387  11.578  1.00  0.00     0.041 C 
ATOM     13  O   UNL     1       7.636 -20.691  12.626  1.00  0.00    -0.550 OA
ATOM     14  O   UNL     1       8.357 -20.922  10.463  1.00  0.00    -0.550 OA
ENDBRANCH  11  12
ENDBRANCH  10  11
ENDBRANCH   9  10
ENDBRANCH   8   9
ENDBRANCH   7   8
ENDBRANCH   6   7
ENDBRANCH   5   6
ENDBRANCH   4   5
ENDBRANCH   3   4
ENDBRANCH   2   3
ENDBRANCH   1   2
BRANCH   1  15
ATOM     15  C   UNL     1      -5.610 -23.073  16.750  1.00  0.00     0.000 C 
BRANCH  15  16
ATOM     16  C   UNL     1      -6.932 -22.285  16.671  1.00  0.00     0.000 C 
BRANCH  16  17
ATOM     17  C   UNL     1      -7.671 -22.211  18.017  1.00  0.00     0.000 C 
BRANCH  17  18
ATOM     18  C   UNL     1      -8.957 -23.056  18.037  1.00  0.00    -0.000 C 
BRANCH  18  19
ATOM     19  C   UNL     1     -10.266 -22.268  17.825  1.00  0.00    -0.000 C 
BRANCH  19  20
ATOM     20  C   UNL     1     -11.090 -22.010  19.099  1.00  0.00    -0.000 C 
BRANCH  20  21
ATOM     21  C   UNL     1     -10.398 -21.036  20.070  1.00  0.00    -0.000 C 
BRANCH  21  22
ATOM     22  C   UNL     1      -9.698 -21.759  21.233  1.00  0.00    -0.000 C 
BRANCH  22  23
ATOM     23  C   UNL     1      -9.754 -20.954  22.543  1.00  0.00    -0.000 C 
BRANCH  23  24
ATOM     24  C   UNL     1     -10.626 -19.694  22.425  1.00  0.00    -0.000 C 
BRANCH  24  25
ATOM     25  C   UNL     1      -9.801 -18.399  22.421  1.00  0.00    -0.003 C 
ATOM     26  C   UNL     1      -9.625 -17.864  21.003  1.00  0.00     0.004 C 
ENDBRANCH  24  25
ENDBRANCH  23  24
ENDBRANCH  22  23
ENDBRANCH  21  22
ENDBRANCH  20  21
ENDBRANCH  19  20
ENDBRANCH  18  19
ENDBRANCH  17  18
ENDBRANCH  16  17
ENDBRANCH  15  16
ENDBRANCH   1  15
TORSDOF 22
ENDMDL
MODEL 8
REMARK VINA RESULT:    -2.117      1.027      2.400
REMARK INTER + INTRA:          -5.834
REMARK INTER:                  -4.475
REMARK INTRA:                  -1.358
REMARK UNBOUND:                -0.995
REMARK SMILES CCCCCCCCCCCCCCCCCCCCCCCC(=O)[O-]
REMARK SMILES IDX 13 1 14 2 15 3 16 4 17 5 18 6 19 7 20 8 21 9 22 10 23 11
REMARK SMILES IDX 24 12 25 13 26 14 12 15 11 16 10 17 9 18 8 19 7 20 6 21 5 22
REMARK SMILES IDX 4 23 3 24 2 25 1 26
REMARK H PARENT
REMARK Flexibility Score: inf
ROOT
ATOM      1  C   UNL     1       1.193 -22.545  14.725  1.00  0.00     0.000 C 
ENDROOT
BRANCH   1   2
ATOM      2  C   UNL     1       2.648 -22.495  15.228  1.00  0.00     0.000 C 
BRANCH   2   3
ATOM      3  C   UNL     1       3.697 -22.815  14.141  1.00  0.00     0.000 C 
BRANCH   3   4
ATOM      4  C   UNL     1       5.136 -22.791  14.687  1.00  0.00     0.000 C 
BRANCH   4   5
ATOM      5  C   UNL     1       5.247 -22.035  16.021  1.00  0.00     0.000 C 
BRANCH   5   6
ATOM      6  C   UNL     1       6.661 -21.480  16.269  1.00  0.00     0.000 C 
BRANCH   6   7
ATOM      7  C   UNL     1       7.762 -22.536  16.061  1.00  0.00     0.000 C 
BRANCH   7   8
ATOM      8  C   UNL     1       9.094 -21.984  15.515  1.00  0.00     0.000 C 
BRANCH   8   9
ATOM      9  C   UNL     1       8.988 -21.218  14.181  1.00  0.00     0.000 C 
BRANCH   9  10
ATOM     10  C   UNL     1       8.398 -22.030  13.010  1.00  0.00     0.006 C 
BRANCH  10  11
ATOM     11  C   UNL     1       7.400 -21.250  12.138  1.00  0.00     0.053 C 
BRANCH  11  12
ATOM     12  C   UNL     1       8.056 -20.108  11.424  1.00  0.00     0.041 C 
ATOM     13  O   UNL     1       8.933 -20.327  10.548  1.00  0.00    -0.550 OA
ATOM     14  O   UNL     1       7.721 -18.799  11.751  1.00  0.00    -0.550 OA
ENDBRANCH  11  12
ENDBRANCH  10  11
ENDBRANCH   9  10
ENDBRANCH   8   9
ENDBRANCH   7   8
ENDBRANCH   6   7
ENDBRANCH   5   6
ENDBRANCH   4   5
ENDBRANCH   3   4
ENDBRANCH   2   3
ENDBRANCH   1   2
BRANCH   1  15
ATOM     15  C   UNL     1       0.136 -22.851  15.805  1.00  0.00     0.000 C 
BRANCH  15  16
ATOM     16  C   UNL     1      -0.728 -21.651  16.239  1.00  0.00     0.000 C 
BRANCH  16  17
ATOM     17  C   UNL     1      -2.197 -21.779  15.808  1.00  0.00     0.000 C 
BRANCH  17  18
ATOM     18  C   UNL     1      -2.905 -22.981  16.459  1.00  0.00    -0.000 C 
BRANCH  18  19
ATOM     19  C   UNL     1      -4.403 -23.125  16.120  1.00  0.00    -0.000 C 
BRANCH  19  20
ATOM     20  C   UNL     1      -5.351 -22.240  16.950  1.00  0.00    -0.000 C 
BRANCH  20  21
ATOM     21  C   UNL     1      -6.800 -22.762  16.957  1.00  0.00    -0.000 C 
BRANCH  21  22
ATOM     22  C   UNL     1      -7.683 -22.038  17.986  1.00  0.00    -0.000 C 
BRANCH  22  23
ATOM     23  C   UNL     1      -9.185 -22.241  17.716  1.00  0.00    -0.000 C 
BRANCH  23  24
ATOM     24  C   UNL     1     -10.028 -21.021  18.117  1.00  0.00    -0.000 C 
BRANCH  24  25
ATOM     25  C   UNL     1     -10.167 -20.869  19.639  1.00  0.00    -0.003 C 
ATOM     26  C   UNL     1      -9.907 -19.430  20.074  1.00  0.00     0.004 C 
ENDBRANCH  24  25
ENDBRANCH  23  24
ENDBRANCH  22  23
ENDBRANCH  21  22
ENDBRANCH  20  21
ENDBRANCH  19  20
ENDBRANCH  18  19
ENDBRANCH  17  18
ENDBRANCH  16  17
ENDBRANCH  15  16
ENDBRANCH   1  15
TORSDOF 22
ENDMDL
