MODEL 1
REMARK VINA RESULT:    -8.177      0.000      0.000
REMARK INTER + INTRA:          -9.627
REMARK INTER:                  -9.850
REMARK INTRA:                   0.223
REMARK UNBOUND:                 0.223
REMARK SMILES O=c1c(O)c(-c2ccc(O)c(O)c2)oc2cc(O)cc(O)c12
REMARK SMILES IDX 5 1 3 2 2 3 1 4 22 5 20 6 19 7 17 8 16 9 15 10 14 11 6 12
REMARK SMILES IDX 7 13 8 14 9 15 13 16 11 17 10 18 12 20 4 22 21 24 18 26
REMARK H PARENT 10 19 12 21 4 23 21 25 18 27
REMARK Flexibility Score: inf
ROOT
ATOM      1  C   UNL     1      17.165  22.486  40.336  1.00  0.00     0.180 A 
ATOM      2  C   UNL     1      16.825  23.490  39.412  1.00  0.00     0.208 A 
ATOM      3  C   UNL     1      15.716  24.309  39.676  1.00  0.00     0.238 A 
ATOM      4  O   UNL     1      15.385  25.171  38.819  1.00  0.00    -0.285 OA
ATOM      5  C   UNL     1      14.970  24.127  40.866  1.00  0.00     0.111 A 
ATOM      6  C   UNL     1      13.853  24.926  41.252  1.00  0.00     0.134 A 
ATOM      7  C   UNL     1      13.111  24.573  42.386  1.00  0.00     0.093 A 
ATOM      8  C   UNL     1      13.483  23.490  43.181  1.00  0.00     0.123 A 
ATOM      9  C   UNL     1      14.609  22.737  42.846  1.00  0.00     0.094 A 
ATOM     10  C   UNL     1      15.348  23.044  41.701  1.00  0.00     0.146 A 
ATOM     11  O   UNL     1      16.408  22.297  41.411  1.00  0.00    -0.452 OA
ENDROOT
BRANCH   1  12
ATOM     12  C   UNL     1      18.334  21.599  40.141  1.00  0.00     0.025 A 
ATOM     13  C   UNL     1      18.282  20.235  40.479  1.00  0.00     0.016 A 
ATOM     14  C   UNL     1      19.390  19.411  40.263  1.00  0.00     0.051 A 
ATOM     15  C   UNL     1      20.558  19.930  39.698  1.00  0.00     0.157 A 
ATOM     16  C   UNL     1      19.503  22.113  39.555  1.00  0.00     0.062 A 
ATOM     17  C   UNL     1      20.615  21.287  39.338  1.00  0.00     0.158 A 
BRANCH  15  18
ATOM     18  O   UNL     1      21.648  19.084  39.497  1.00  0.00    -0.504 OA
ATOM     19  H   UNL     1      22.042  18.526  40.245  1.00  0.00     0.293 HD
ENDBRANCH  15  18
BRANCH  17  20
ATOM     20  O   UNL     1      21.774  21.810  38.767  1.00  0.00    -0.504 OA
ATOM     21  H   UNL     1      22.259  22.599  39.177  1.00  0.00     0.293 HD
ENDBRANCH  17  20
ENDBRANCH   1  12
BRANCH   2  22
ATOM     22  O   UNL     1      17.562  23.639  38.234  1.00  0.00    -0.502 OA
ATOM     23  H   UNL     1      17.933  24.533  37.935  1.00  0.00     0.293 HD
ENDBRANCH   2  22
BRANCH   6  24
ATOM     24  O   UNL     1      13.450  26.083  40.579  1.00  0.00    -0.507 OA
ATOM     25  H   UNL     1      13.817  26.388  39.690  1.00  0.00     0.293 HD
ENDBRANCH   6  24
BRANCH   8  26
ATOM     26  O   UNL     1      12.731  23.176  44.312  1.00  0.00    -0.508 OA
ATOM     27  H   UNL     1      12.631  22.220  44.633  1.00  0.00     0.293 HD
ENDBRANCH   8  26
TORSDOF 6
ENDMDL
MODEL 2
REMARK VINA RESULT:    -8.064      1.570      2.380
REMARK INTER + INTRA:          -9.491
REMARK INTER:                  -9.201
REMARK INTRA:                  -0.290
REMARK UNBOUND:                 0.223
REMARK SMILES O=c1c(O)c(-c2ccc(O)c(O)c2)oc2cc(O)cc(O)c12
REMARK SMILES IDX 5 1 3 2 2 3 1 4 22 5 20 6 19 7 17 8 16 9 15 10 14 11 6 12
REMARK SMILES IDX 7 13 8 14 9 15 13 16 11 17 10 18 12 20 4 22 21 24 18 26
REMARK H PARENT 10 19 12 21 4 23 21 25 18 27
REMARK Flexibility Score: inf
ROOT
ATOM      1  C   UNL     1      15.808  22.860  41.098  1.00  0.00     0.180 A 
ATOM      2  C   UNL     1      15.183  23.959  40.481  1.00  0.00     0.208 A 
ATOM      3  C   UNL     1      14.126  24.601  41.145  1.00  0.00     0.238 A 
ATOM      4  O   UNL     1      13.536  25.550  40.565  1.00  0.00    -0.285 OA
ATOM      5  C   UNL     1      13.717  24.150  42.423  1.00  0.00     0.111 A 
ATOM      6  C   UNL     1      12.684  24.751  43.203  1.00  0.00     0.134 A 
ATOM      7  C   UNL     1      12.275  24.141  44.395  1.00  0.00     0.093 A 
ATOM      8  C   UNL     1      12.904  22.990  44.868  1.00  0.00     0.123 A 
ATOM      9  C   UNL     1      13.955  22.426  44.143  1.00  0.00     0.094 A 
ATOM     10  C   UNL     1      14.361  22.992  42.931  1.00  0.00     0.146 A 
ATOM     11  O   UNL     1      15.358  22.420  42.267  1.00  0.00    -0.452 OA
ENDROOT
BRANCH   1  12
ATOM     12  C   UNL     1      16.944  22.147  40.472  1.00  0.00     0.025 A 
ATOM     13  C   UNL     1      18.240  22.692  40.474  1.00  0.00     0.016 A 
ATOM     14  C   UNL     1      19.302  21.989  39.900  1.00  0.00     0.051 A 
ATOM     15  C   UNL     1      19.091  20.731  39.327  1.00  0.00     0.157 A 
ATOM     16  C   UNL     1      16.739  20.874  39.914  1.00  0.00     0.062 A 
ATOM     17  C   UNL     1      17.804  20.168  39.336  1.00  0.00     0.158 A 
BRANCH  15  18
ATOM     18  O   UNL     1      20.170  20.055  38.759  1.00  0.00    -0.504 OA
ATOM     19  H   UNL     1      20.147  19.059  38.579  1.00  0.00     0.293 HD
ENDBRANCH  15  18
BRANCH  17  20
ATOM     20  O   UNL     1      17.587  18.912  38.773  1.00  0.00    -0.504 OA
ATOM     21  H   UNL     1      16.717  18.411  38.910  1.00  0.00     0.293 HD
ENDBRANCH  17  20
ENDBRANCH   1  12
BRANCH   2  22
ATOM     22  O   UNL     1      15.588  24.375  39.210  1.00  0.00    -0.502 OA
ATOM     23  H   UNL     1      16.547  24.298  38.893  1.00  0.00     0.293 HD
ENDBRANCH   2  22
BRANCH   6  24
ATOM     24  O   UNL     1      12.053  25.953  42.869  1.00  0.00    -0.507 OA
ATOM     25  H   UNL     1      11.612  26.143  41.981  1.00  0.00     0.293 HD
ENDBRANCH   6  24
BRANCH   8  26
ATOM     26  O   UNL     1      12.482  22.418  46.067  1.00  0.00    -0.508 OA
ATOM     27  H   UNL     1      13.126  22.258  46.833  1.00  0.00     0.293 HD
ENDBRANCH   8  26
TORSDOF 6
ENDMDL
MODEL 3
REMARK VINA RESULT:    -7.972     14.545     15.525
REMARK INTER + INTRA:          -9.381
REMARK INTER:                  -9.751
REMARK INTRA:                   0.371
REMARK UNBOUND:                 0.223
REMARK SMILES O=c1c(O)c(-c2ccc(O)c(O)c2)oc2cc(O)cc(O)c12
REMARK SMILES IDX 5 1 3 2 2 3 1 4 22 5 20 6 19 7 17 8 16 9 15 10 14 11 6 12
REMARK SMILES IDX 7 13 8 14 9 15 13 16 11 17 10 18 12 20 4 22 21 24 18 26
REMARK H PARENT 10 19 12 21 4 23 21 25 18 27
REMARK Flexibility Score: inf
ROOT
ATOM      1  C   UNL     1      24.847  12.032  35.090  1.00  0.00     0.180 A 
ATOM      2  C   UNL     1      25.356  13.070  34.290  1.00  0.00     0.208 A 
ATOM      3  C   UNL     1      26.544  13.709  34.678  1.00  0.00     0.238 A 
ATOM      4  O   UNL     1      26.966  14.672  33.986  1.00  0.00    -0.285 OA
ATOM      5  C   UNL     1      27.218  13.292  35.852  1.00  0.00     0.111 A 
ATOM      6  C   UNL     1      28.450  13.842  36.318  1.00  0.00     0.134 A 
ATOM      7  C   UNL     1      28.958  13.444  37.560  1.00  0.00     0.093 A 
ATOM      8  C   UNL     1      28.314  12.470  38.322  1.00  0.00     0.123 A 
ATOM      9  C   UNL     1      27.141  11.882  37.849  1.00  0.00     0.094 A 
ATOM     10  C   UNL     1      26.590  12.285  36.630  1.00  0.00     0.146 A 
ATOM     11  O   UNL     1      25.466  11.708  36.220  1.00  0.00    -0.452 OA
ENDROOT
BRANCH   1  12
ATOM     12  C   UNL     1      23.614  11.294  34.734  1.00  0.00     0.025 A 
ATOM     13  C   UNL     1      22.804  10.705  35.721  1.00  0.00     0.016 A 
ATOM     14  C   UNL     1      21.631  10.035  35.363  1.00  0.00     0.051 A 
ATOM     15  C   UNL     1      21.243   9.952  34.023  1.00  0.00     0.157 A 
ATOM     16  C   UNL     1      23.211  11.228  33.390  1.00  0.00     0.062 A 
ATOM     17  C   UNL     1      22.035  10.554  33.030  1.00  0.00     0.158 A 
BRANCH  15  18
ATOM     18  O   UNL     1      20.069   9.275  33.696  1.00  0.00    -0.504 OA
ATOM     19  H   UNL     1      20.051   8.527  33.013  1.00  0.00     0.293 HD
ENDBRANCH  15  18
BRANCH  17  20
ATOM     20  O   UNL     1      21.651  10.483  31.692  1.00  0.00    -0.504 OA
ATOM     21  H   UNL     1      21.456   9.597  31.242  1.00  0.00     0.293 HD
ENDBRANCH  17  20
ENDBRANCH   1  12
BRANCH   2  22
ATOM     22  O   UNL     1      24.664  13.479  33.146  1.00  0.00    -0.502 OA
ATOM     23  H   UNL     1      23.653  13.460  33.087  1.00  0.00     0.293 HD
ENDBRANCH   2  22
BRANCH   6  24
ATOM     24  O   UNL     1      29.221  14.755  35.592  1.00  0.00    -0.507 OA
ATOM     25  H   UNL     1      29.102  14.955  34.610  1.00  0.00     0.293 HD
ENDBRANCH   6  24
BRANCH   8  26
ATOM     26  O   UNL     1      28.857  12.085  39.547  1.00  0.00    -0.508 OA
ATOM     27  H   UNL     1      29.857  11.986  39.676  1.00  0.00     0.293 HD
ENDBRANCH   8  26
TORSDOF 6
ENDMDL
MODEL 4
REMARK VINA RESULT:    -7.665      1.183      6.707
REMARK INTER + INTRA:          -9.011
REMARK INTER:                  -9.342
REMARK INTRA:                   0.331
REMARK UNBOUND:                 0.223
REMARK SMILES O=c1c(O)c(-c2ccc(O)c(O)c2)oc2cc(O)cc(O)c12
REMARK SMILES IDX 5 1 3 2 2 3 1 4 22 5 20 6 19 7 17 8 16 9 15 10 14 11 6 12
REMARK SMILES IDX 7 13 8 14 9 15 13 16 11 17 10 18 12 20 4 22 21 24 18 26
REMARK H PARENT 10 19 12 21 4 23 21 25 18 27
REMARK Flexibility Score: inf
ROOT
ATOM      1  C   UNL     1      16.405  23.063  40.564  1.00  0.00     0.180 A 
ATOM      2  C   UNL     1      16.887  23.926  39.565  1.00  0.00     0.208 A 
ATOM      3  C   UNL     1      18.018  23.546  38.825  1.00  0.00     0.238 A 
ATOM      4  O   UNL     1      18.476  24.347  37.968  1.00  0.00    -0.285 OA
ATOM      5  C   UNL     1      18.644  22.302  39.081  1.00  0.00     0.111 A 
ATOM      6  C   UNL     1      19.772  21.799  38.365  1.00  0.00     0.134 A 
ATOM      7  C   UNL     1      20.388  20.617  38.790  1.00  0.00     0.093 A 
ATOM      8  C   UNL     1      19.881  19.886  39.864  1.00  0.00     0.123 A 
ATOM      9  C   UNL     1      18.744  20.337  40.535  1.00  0.00     0.094 A 
ATOM     10  C   UNL     1      18.128  21.533  40.156  1.00  0.00     0.146 A 
ATOM     11  O   UNL     1      17.053  21.933  40.826  1.00  0.00    -0.452 OA
ENDROOT
BRANCH   1  12
ATOM     12  C   UNL     1      15.204  23.381  41.370  1.00  0.00     0.025 A 
ATOM     13  C   UNL     1      14.230  24.281  40.904  1.00  0.00     0.016 A 
ATOM     14  C   UNL     1      13.092  24.548  41.670  1.00  0.00     0.051 A 
ATOM     15  C   UNL     1      12.904  23.915  42.902  1.00  0.00     0.157 A 
ATOM     16  C   UNL     1      15.002  22.731  42.598  1.00  0.00     0.062 A 
ATOM     17  C   UNL     1      13.862  22.998  43.368  1.00  0.00     0.158 A 
BRANCH  15  18
ATOM     18  O   UNL     1      11.759  24.203  43.645  1.00  0.00    -0.504 OA
ATOM     19  H   UNL     1      11.486  23.651  44.449  1.00  0.00     0.293 HD
ENDBRANCH  15  18
BRANCH  17  20
ATOM     20  O   UNL     1      13.677  22.357  44.592  1.00  0.00    -0.504 OA
ATOM     21  H   UNL     1      14.379  21.739  44.979  1.00  0.00     0.293 HD
ENDBRANCH  17  20
ENDBRANCH   1  12
BRANCH   2  22
ATOM     22  O   UNL     1      16.267  25.159  39.342  1.00  0.00    -0.502 OA
ATOM     23  H   UNL     1      15.271  25.297  39.469  1.00  0.00     0.293 HD
ENDBRANCH   2  22
BRANCH   6  24
ATOM     24  O   UNL     1      20.303  22.404  37.222  1.00  0.00    -0.507 OA
ATOM     25  H   UNL     1      21.287  22.542  37.049  1.00  0.00     0.293 HD
ENDBRANCH   6  24
BRANCH   8  26
ATOM     26  O   UNL     1      20.510  18.704  40.251  1.00  0.00    -0.508 OA
ATOM     27  H   UNL     1      21.132  18.672  41.050  1.00  0.00     0.293 HD
ENDBRANCH   8  26
TORSDOF 6
ENDMDL
MODEL 5
REMARK VINA RESULT:    -7.463     14.531     15.504
REMARK INTER + INTRA:          -8.768
REMARK INTER:                  -9.006
REMARK INTRA:                   0.238
REMARK UNBOUND:                 0.223
REMARK SMILES O=c1c(O)c(-c2ccc(O)c(O)c2)oc2cc(O)cc(O)c12
REMARK SMILES IDX 5 1 3 2 2 3 1 4 22 5 20 6 19 7 17 8 16 9 15 10 14 11 6 12
REMARK SMILES IDX 7 13 8 14 9 15 13 16 11 17 10 18 12 20 4 22 21 24 18 26
REMARK H PARENT 10 19 12 21 4 23 21 25 18 27
REMARK Flexibility Score: inf
ROOT
ATOM      1  C   UNL     1      24.964  12.155  34.943  1.00  0.00     0.180 A 
ATOM      2  C   UNL     1      25.493  13.274  34.275  1.00  0.00     0.208 A 
ATOM      3  C   UNL     1      26.621  13.916  34.811  1.00  0.00     0.238 A 
ATOM      4  O   UNL     1      27.057  14.948  34.237  1.00  0.00    -0.285 OA
ATOM      5  C   UNL     1      27.217  13.423  35.997  1.00  0.00     0.111 A 
ATOM      6  C   UNL     1      28.385  13.971  36.605  1.00  0.00     0.134 A 
ATOM      7  C   UNL     1      28.810  13.485  37.847  1.00  0.00     0.093 A 
ATOM      8  C   UNL     1      28.147  12.429  38.472  1.00  0.00     0.123 A 
ATOM      9  C   UNL     1      27.038  11.846  37.858  1.00  0.00     0.094 A 
ATOM     10  C   UNL     1      26.570  12.333  36.635  1.00  0.00     0.146 A 
ATOM     11  O   UNL     1      25.505  11.757  36.089  1.00  0.00    -0.452 OA
ENDROOT
BRANCH   1  12
ATOM     12  C   UNL     1      23.792  11.411  34.428  1.00  0.00     0.025 A 
ATOM     13  C   UNL     1      23.530  11.323  33.050  1.00  0.00     0.016 A 
ATOM     14  C   UNL     1      22.432  10.594  32.585  1.00  0.00     0.051 A 
ATOM     15  C   UNL     1      21.589   9.934  33.484  1.00  0.00     0.157 A 
ATOM     16  C   UNL     1      22.956  10.730  35.327  1.00  0.00     0.062 A 
ATOM     17  C   UNL     1      21.853   9.999  34.863  1.00  0.00     0.158 A 
BRANCH  15  18
ATOM     18  O   UNL     1      20.500   9.217  32.990  1.00  0.00    -0.504 OA
ATOM     19  H   UNL     1      20.377   8.229  33.177  1.00  0.00     0.293 HD
ENDBRANCH  15  18
BRANCH  17  20
ATOM     20  O   UNL     1      21.021   9.337  35.764  1.00  0.00    -0.504 OA
ATOM     21  H   UNL     1      20.755   9.756  36.647  1.00  0.00     0.293 HD
ENDBRANCH  17  20
ENDBRANCH   1  12
BRANCH   2  22
ATOM     22  O   UNL     1      24.877  13.757  33.117  1.00  0.00    -0.502 OA
ATOM     23  H   UNL     1      24.089  13.289  32.685  1.00  0.00     0.293 HD
ENDBRANCH   2  22
BRANCH   6  24
ATOM     24  O   UNL     1      29.175  14.967  36.022  1.00  0.00    -0.507 OA
ATOM     25  H   UNL     1      30.070  15.271  36.375  1.00  0.00     0.293 HD
ENDBRANCH   6  24
BRANCH   8  26
ATOM     26  O   UNL     1      28.607  11.959  39.701  1.00  0.00    -0.508 OA
ATOM     27  H   UNL     1      29.379  12.403  40.183  1.00  0.00     0.293 HD
ENDBRANCH   8  26
TORSDOF 6
ENDMDL
MODEL 6
REMARK VINA RESULT:    -7.208     15.608     18.550
REMARK INTER + INTRA:          -8.460
REMARK INTER:                  -8.137
REMARK INTRA:                  -0.323
REMARK UNBOUND:                 0.223
REMARK SMILES O=c1c(O)c(-c2ccc(O)c(O)c2)oc2cc(O)cc(O)c12
REMARK SMILES IDX 5 1 3 2 2 3 1 4 22 5 20 6 19 7 17 8 16 9 15 10 14 11 6 12
REMARK SMILES IDX 7 13 8 14 9 15 13 16 11 17 10 18 12 20 4 22 21 24 18 26
REMARK H PARENT 10 19 12 21 4 23 21 25 18 27
REMARK Flexibility Score: inf
ROOT
ATOM      1  C   UNL     1      30.144  11.254  38.220  1.00  0.00     0.180 A 
ATOM      2  C   UNL     1      30.416   9.901  37.951  1.00  0.00     0.208 A 
ATOM      3  C   UNL     1      30.725   9.043  39.019  1.00  0.00     0.238 A 
ATOM      4  O   UNL     1      31.019   7.846  38.766  1.00  0.00    -0.285 OA
ATOM      5  C   UNL     1      30.742   9.543  40.344  1.00  0.00     0.111 A 
ATOM      6  C   UNL     1      31.002   8.755  41.504  1.00  0.00     0.134 A 
ATOM      7  C   UNL     1      31.122   9.381  42.751  1.00  0.00     0.093 A 
ATOM      8  C   UNL     1      30.928  10.755  42.889  1.00  0.00     0.123 A 
ATOM      9  C   UNL     1      30.615  11.527  41.770  1.00  0.00     0.094 A 
ATOM     10  C   UNL     1      30.523  10.936  40.507  1.00  0.00     0.146 A 
ATOM     11  O   UNL     1      30.233  11.707  39.465  1.00  0.00    -0.452 OA
ENDROOT
BRANCH   1  12
ATOM     12  C   UNL     1      29.787  12.214  37.151  1.00  0.00     0.025 A 
ATOM     13  C   UNL     1      30.773  12.952  36.472  1.00  0.00     0.016 A 
ATOM     14  C   UNL     1      30.415  13.834  35.449  1.00  0.00     0.051 A 
ATOM     15  C   UNL     1      29.075  13.985  35.081  1.00  0.00     0.157 A 
ATOM     16  C   UNL     1      28.444  12.352  36.766  1.00  0.00     0.062 A 
ATOM     17  C   UNL     1      28.083  13.238  35.740  1.00  0.00     0.158 A 
BRANCH  15  18
ATOM     18  O   UNL     1      28.748  14.874  34.059  1.00  0.00    -0.504 OA
ATOM     19  H   UNL     1      28.214  14.589  33.247  1.00  0.00     0.293 HD
ENDBRANCH  15  18
BRANCH  17  20
ATOM     20  O   UNL     1      26.745  13.377  35.374  1.00  0.00    -0.504 OA
ATOM     21  H   UNL     1      26.045  12.701  35.654  1.00  0.00     0.293 HD
ENDBRANCH  17  20
ENDBRANCH   1  12
BRANCH   2  22
ATOM     22  O   UNL     1      30.415   9.433  36.634  1.00  0.00    -0.502 OA
ATOM     23  H   UNL     1      30.822   9.958  35.870  1.00  0.00     0.293 HD
ENDBRANCH   2  22
BRANCH   6  24
ATOM     24  O   UNL     1      31.122   7.362  41.491  1.00  0.00    -0.507 OA
ATOM     25  H   UNL     1      31.663   6.826  42.152  1.00  0.00     0.293 HD
ENDBRANCH   6  24
BRANCH   8  26
ATOM     26  O   UNL     1      31.039  11.342  44.148  1.00  0.00    -0.508 OA
ATOM     27  H   UNL     1      30.222  11.547  44.711  1.00  0.00     0.293 HD
ENDBRANCH   8  26
TORSDOF 6
ENDMDL
MODEL 7
REMARK VINA RESULT:    -7.122     14.483     16.436
REMARK INTER + INTRA:          -8.356
REMARK INTER:                  -8.029
REMARK INTRA:                  -0.327
REMARK UNBOUND:                 0.223
REMARK SMILES O=c1c(O)c(-c2ccc(O)c(O)c2)oc2cc(O)cc(O)c12
REMARK SMILES IDX 5 1 3 2 2 3 1 4 22 5 20 6 19 7 17 8 16 9 15 10 14 11 6 12
REMARK SMILES IDX 7 13 8 14 9 15 13 16 11 17 10 18 12 20 4 22 21 24 18 26
REMARK H PARENT 10 19 12 21 4 23 21 25 18 27
REMARK Flexibility Score: inf
ROOT
ATOM      1  C   UNL     1      29.039  12.419  38.282  1.00  0.00     0.180 A 
ATOM      2  C   UNL     1      29.787  13.247  37.426  1.00  0.00     0.208 A 
ATOM      3  C   UNL     1      29.182  13.748  36.263  1.00  0.00     0.238 A 
ATOM      4  O   UNL     1      29.873  14.444  35.474  1.00  0.00    -0.285 OA
ATOM      5  C   UNL     1      27.832  13.430  35.977  1.00  0.00     0.111 A 
ATOM      6  C   UNL     1      27.107  13.914  34.847  1.00  0.00     0.134 A 
ATOM      7  C   UNL     1      25.818  13.430  34.595  1.00  0.00     0.093 A 
ATOM      8  C   UNL     1      25.204  12.529  35.464  1.00  0.00     0.123 A 
ATOM      9  C   UNL     1      25.881  12.093  36.603  1.00  0.00     0.094 A 
ATOM     10  C   UNL     1      27.182  12.531  36.863  1.00  0.00     0.146 A 
ATOM     11  O   UNL     1      27.796  12.085  37.953  1.00  0.00    -0.452 OA
ENDROOT
BRANCH   1  12
ATOM     12  C   UNL     1      29.599  11.873  39.539  1.00  0.00     0.025 A 
ATOM     13  C   UNL     1      29.589  12.620  40.730  1.00  0.00     0.016 A 
ATOM     14  C   UNL     1      30.101  12.074  41.909  1.00  0.00     0.051 A 
ATOM     15  C   UNL     1      30.618  10.776  41.923  1.00  0.00     0.157 A 
ATOM     16  C   UNL     1      30.100  10.561  39.560  1.00  0.00     0.062 A 
ATOM     17  C   UNL     1      30.616  10.012  40.743  1.00  0.00     0.158 A 
BRANCH  15  18
ATOM     18  O   UNL     1      31.124  10.259  43.115  1.00  0.00    -0.504 OA
ATOM     19  H   UNL     1      32.119  10.186  43.291  1.00  0.00     0.293 HD
ENDBRANCH  15  18
BRANCH  17  20
ATOM     20  O   UNL     1      31.122   8.714  40.750  1.00  0.00    -0.504 OA
ATOM     21  H   UNL     1      31.621   8.334  39.955  1.00  0.00     0.293 HD
ENDBRANCH  17  20
ENDBRANCH   1  12
BRANCH   2  22
ATOM     22  O   UNL     1      31.125  13.531  37.716  1.00  0.00    -0.502 OA
ATOM     23  H   UNL     1      31.871  12.869  37.542  1.00  0.00     0.293 HD
ENDBRANCH   2  22
BRANCH   6  24
ATOM     24  O   UNL     1      27.592  14.885  33.966  1.00  0.00    -0.507 OA
ATOM     25  H   UNL     1      28.550  14.953  33.657  1.00  0.00     0.293 HD
ENDBRANCH   6  24
BRANCH   8  26
ATOM     26  O   UNL     1      23.913  12.079  35.190  1.00  0.00    -0.508 OA
ATOM     27  H   UNL     1      23.136  12.723  35.100  1.00  0.00     0.293 HD
ENDBRANCH   8  26
TORSDOF 6
ENDMDL
MODEL 8
REMARK VINA RESULT:    -6.887      2.005      7.083
REMARK INTER + INTRA:          -8.073
REMARK INTER:                  -7.743
REMARK INTRA:                  -0.330
REMARK UNBOUND:                 0.223
REMARK SMILES O=c1c(O)c(-c2ccc(O)c(O)c2)oc2cc(O)cc(O)c12
REMARK SMILES IDX 5 1 3 2 2 3 1 4 22 5 20 6 19 7 17 8 16 9 15 10 14 11 6 12
REMARK SMILES IDX 7 13 8 14 9 15 13 16 11 17 10 18 12 20 4 22 21 24 18 26
REMARK H PARENT 10 19 12 21 4 23 21 25 18 27
REMARK Flexibility Score: inf
ROOT
ATOM      1  C   UNL     1      13.973  23.636  42.651  1.00  0.00     0.180 A 
ATOM      2  C   UNL     1      13.762  24.691  41.746  1.00  0.00     0.208 A 
ATOM      3  C   UNL     1      14.562  24.771  40.595  1.00  0.00     0.238 A 
ATOM      4  O   UNL     1      14.404  25.748  39.817  1.00  0.00    -0.285 OA
ATOM      5  C   UNL     1      15.552  23.788  40.354  1.00  0.00     0.111 A 
ATOM      6  C   UNL     1      16.392  23.749  39.202  1.00  0.00     0.134 A 
ATOM      7  C   UNL     1      17.424  22.806  39.131  1.00  0.00     0.093 A 
ATOM      8  C   UNL     1      17.606  21.860  40.140  1.00  0.00     0.123 A 
ATOM      9  C   UNL     1      16.753  21.852  41.244  1.00  0.00     0.094 A 
ATOM     10  C   UNL     1      15.737  22.803  41.360  1.00  0.00     0.146 A 
ATOM     11  O   UNL     1      14.953  22.767  42.431  1.00  0.00    -0.452 OA
ENDROOT
BRANCH   1  12
ATOM     12  C   UNL     1      13.154  23.470  43.873  1.00  0.00     0.025 A 
ATOM     13  C   UNL     1      11.977  22.700  43.866  1.00  0.00     0.016 A 
ATOM     14  C   UNL     1      11.234  22.537  45.038  1.00  0.00     0.051 A 
ATOM     15  C   UNL     1      11.656  23.128  46.232  1.00  0.00     0.157 A 
ATOM     16  C   UNL     1      13.587  24.045  45.080  1.00  0.00     0.062 A 
ATOM     17  C   UNL     1      12.841  23.884  46.256  1.00  0.00     0.158 A 
BRANCH  15  18
ATOM     18  O   UNL     1      10.891  22.949  47.385  1.00  0.00    -0.504 OA
ATOM     19  H   UNL     1      10.896  22.080  47.905  1.00  0.00     0.293 HD
ENDBRANCH  15  18
BRANCH  17  20
ATOM     20  O   UNL     1      13.272  24.468  47.445  1.00  0.00    -0.504 OA
ATOM     21  H   UNL     1      14.256  24.608  47.641  1.00  0.00     0.293 HD
ENDBRANCH  17  20
ENDBRANCH   1  12
BRANCH   2  22
ATOM     22  O   UNL     1      12.793  25.663  42.013  1.00  0.00    -0.502 OA
ATOM     23  H   UNL     1      12.109  25.559  42.752  1.00  0.00     0.293 HD
ENDBRANCH   2  22
BRANCH   6  24
ATOM     24  O   UNL     1      16.238  24.589  38.095  1.00  0.00    -0.507 OA
ATOM     25  H   UNL     1      16.855  24.607  37.297  1.00  0.00     0.293 HD
ENDBRANCH   6  24
BRANCH   8  26
ATOM     26  O   UNL     1      18.634  20.926  40.030  1.00  0.00    -0.508 OA
ATOM     27  H   UNL     1      19.560  21.191  39.715  1.00  0.00     0.293 HD
ENDBRANCH   8  26
TORSDOF 6
ENDMDL
MODEL 9
REMARK VINA RESULT:    -6.847      1.576      7.194
REMARK INTER + INTRA:          -8.025
REMARK INTER:                  -7.864
REMARK INTRA:                  -0.161
REMARK UNBOUND:                 0.223
REMARK SMILES O=c1c(O)c(-c2ccc(O)c(O)c2)oc2cc(O)cc(O)c12
REMARK SMILES IDX 5 1 3 2 2 3 1 4 22 5 20 6 19 7 17 8 16 9 15 10 14 11 6 12
REMARK SMILES IDX 7 13 8 14 9 15 13 16 11 17 10 18 12 20 4 22 21 24 18 26
REMARK H PARENT 10 19 12 21 4 23 21 25 18 27
REMARK Flexibility Score: inf
ROOT
ATOM      1  C   UNL     1      16.997  22.146  40.835  1.00  0.00     0.180 A 
ATOM      2  C   UNL     1      17.100  20.760  40.624  1.00  0.00     0.208 A 
ATOM      3  C   UNL     1      18.303  20.235  40.127  1.00  0.00     0.238 A 
ATOM      4  O   UNL     1      18.371  19.001  39.890  1.00  0.00    -0.285 OA
ATOM      5  C   UNL     1      19.394  21.098  39.862  1.00  0.00     0.111 A 
ATOM      6  C   UNL     1      20.672  20.670  39.395  1.00  0.00     0.134 A 
ATOM      7  C   UNL     1      21.634  21.624  39.042  1.00  0.00     0.093 A 
ATOM      8  C   UNL     1      21.388  22.987  39.201  1.00  0.00     0.123 A 
ATOM      9  C   UNL     1      20.163  23.416  39.714  1.00  0.00     0.094 A 
ATOM     10  C   UNL     1      19.170  22.489  40.040  1.00  0.00     0.146 A 
ATOM     11  O   UNL     1      18.014  22.938  40.516  1.00  0.00    -0.452 OA
ENDROOT
BRANCH   1  12
ATOM     12  C   UNL     1      15.770  22.772  41.380  1.00  0.00     0.025 A 
ATOM     13  C   UNL     1      14.980  23.634  40.599  1.00  0.00     0.016 A 
ATOM     14  C   UNL     1      13.813  24.193  41.126  1.00  0.00     0.051 A 
ATOM     15  C   UNL     1      13.411  23.893  42.431  1.00  0.00     0.157 A 
ATOM     16  C   UNL     1      15.353  22.456  42.683  1.00  0.00     0.062 A 
ATOM     17  C   UNL     1      14.182  23.017  43.214  1.00  0.00     0.158 A 
BRANCH  15  18
ATOM     18  O   UNL     1      12.243  24.468  42.930  1.00  0.00    -0.504 OA
ATOM     19  H   UNL     1      11.338  24.301  42.508  1.00  0.00     0.293 HD
ENDBRANCH  15  18
BRANCH  17  20
ATOM     20  O   UNL     1      13.783  22.706  44.513  1.00  0.00    -0.504 OA
ATOM     21  H   UNL     1      12.837  22.873  44.831  1.00  0.00     0.293 HD
ENDBRANCH  17  20
ENDBRANCH   1  12
BRANCH   2  22
ATOM     22  O   UNL     1      16.004  19.928  40.872  1.00  0.00    -0.502 OA
ATOM     23  H   UNL     1      16.089  19.055  41.378  1.00  0.00     0.293 HD
ENDBRANCH   2  22
BRANCH   6  24
ATOM     24  O   UNL     1      21.054  19.329  39.285  1.00  0.00    -0.507 OA
ATOM     25  H   UNL     1      21.810  18.992  38.709  1.00  0.00     0.293 HD
ENDBRANCH   6  24
BRANCH   8  26
ATOM     26  O   UNL     1      22.374  23.909  38.856  1.00  0.00    -0.508 OA
ATOM     27  H   UNL     1      22.140  24.844  38.542  1.00  0.00     0.293 HD
ENDBRANCH   8  26
TORSDOF 6
ENDMDL
