MODEL 1
REMARK VINA RESULT:    -6.199      0.000      0.000
REMARK INTER + INTRA:          -7.589
REMARK INTER:                  -7.286
REMARK INTRA:                  -0.303
REMARK UNBOUND:                -0.303
REMARK SMILES O=c1cc(-c2ccc(O)c(O)c2)oc2cc(O)cc(O)c12
REMARK SMILES IDX 4 1 3 2 2 3 1 4 21 5 19 6 18 7 16 8 15 9 14 10 13 11 5 12
REMARK SMILES IDX 6 13 7 14 8 15 12 16 10 17 9 18 11 20 20 22 17 24
REMARK H PARENT 9 19 11 21 20 23 17 25
REMARK Flexibility Score: inf
ROOT
ATOM      1  C   UNL     1      47.505 -10.614 -56.988  1.00  0.00     0.138 A 
ATOM      2  C   UNL     1      46.518 -10.833 -57.964  1.00  0.00     0.100 A 
ATOM      3  C   UNL     1      46.075 -12.132 -58.212  1.00  0.00     0.197 A 
ATOM      4  O   UNL     1      45.189 -12.319 -59.090  1.00  0.00    -0.289 OA
ATOM      5  C   UNL     1      46.618 -13.205 -57.478  1.00  0.00     0.107 A 
ATOM      6  C   UNL     1      46.226 -14.552 -57.667  1.00  0.00     0.134 A 
ATOM      7  C   UNL     1      46.812 -15.562 -56.891  1.00  0.00     0.093 A 
ATOM      8  C   UNL     1      47.780 -15.253 -55.932  1.00  0.00     0.123 A 
ATOM      9  C   UNL     1      48.172 -13.923 -55.741  1.00  0.00     0.094 A 
ATOM     10  C   UNL     1      47.600 -12.902 -56.505  1.00  0.00     0.146 A 
ATOM     11  O   UNL     1      47.990 -11.648 -56.306  1.00  0.00    -0.456 OA
ENDROOT
BRANCH   1  12
ATOM     12  C   UNL     1      48.013  -9.253 -56.681  1.00  0.00     0.021 A 
ATOM     13  C   UNL     1      48.087  -8.296 -57.707  1.00  0.00     0.016 A 
ATOM     14  C   UNL     1      48.553  -7.005 -57.443  1.00  0.00     0.051 A 
ATOM     15  C   UNL     1      48.946  -6.647 -56.149  1.00  0.00     0.157 A 
ATOM     16  C   UNL     1      48.398  -8.881 -55.378  1.00  0.00     0.062 A 
ATOM     17  C   UNL     1      48.864  -7.589 -55.110  1.00  0.00     0.158 A 
BRANCH  15  18
ATOM     18  O   UNL     1      49.414  -5.360 -55.889  1.00  0.00    -0.504 OA
ATOM     19  H   UNL     1      49.046  -4.805 -55.125  1.00  0.00     0.293 HD
ENDBRANCH  15  18
BRANCH  17  20
ATOM     20  O   UNL     1      49.237  -7.260 -53.808  1.00  0.00    -0.504 OA
ATOM     21  H   UNL     1      48.606  -7.371 -53.023  1.00  0.00     0.293 HD
ENDBRANCH  17  20
ENDBRANCH   1  12
BRANCH   6  22
ATOM     22  O   UNL     1      45.261 -14.891 -58.617  1.00  0.00    -0.507 OA
ATOM     23  H   UNL     1      44.927 -15.842 -58.721  1.00  0.00     0.293 HD
ENDBRANCH   6  22
BRANCH   8  24
ATOM     24  O   UNL     1      48.346 -16.275 -55.174  1.00  0.00    -0.508 OA
ATOM     25  H   UNL     1      47.786 -16.847 -54.551  1.00  0.00     0.293 HD
ENDBRANCH   8  24
TORSDOF 5
ENDMDL
MODEL 2
REMARK VINA RESULT:    -6.176      1.818      7.650
REMARK INTER + INTRA:          -7.563
REMARK INTER:                  -7.295
REMARK INTRA:                  -0.267
REMARK UNBOUND:                -0.303
REMARK SMILES O=c1cc(-c2ccc(O)c(O)c2)oc2cc(O)cc(O)c12
REMARK SMILES IDX 4 1 3 2 2 3 1 4 21 5 19 6 18 7 16 8 15 9 14 10 13 11 5 12
REMARK SMILES IDX 6 13 7 14 8 15 12 16 10 17 9 18 11 20 20 22 17 24
REMARK H PARENT 9 19 11 21 20 23 17 25
REMARK Flexibility Score: inf
ROOT
ATOM      1  C   UNL     1      47.925  -8.697 -56.079  1.00  0.00     0.138 A 
ATOM      2  C   UNL     1      47.250  -8.090 -55.006  1.00  0.00     0.100 A 
ATOM      3  C   UNL     1      47.633  -6.816 -54.586  1.00  0.00     0.197 A 
ATOM      4  O   UNL     1      47.021  -6.280 -53.622  1.00  0.00    -0.289 OA
ATOM      5  C   UNL     1      48.688  -6.154 -55.245  1.00  0.00     0.107 A 
ATOM      6  C   UNL     1      49.139  -4.862 -54.883  1.00  0.00     0.134 A 
ATOM      7  C   UNL     1      50.192  -4.269 -55.595  1.00  0.00     0.093 A 
ATOM      8  C   UNL     1      50.801  -4.940 -56.659  1.00  0.00     0.123 A 
ATOM      9  C   UNL     1      50.358  -6.217 -57.021  1.00  0.00     0.094 A 
ATOM     10  C   UNL     1      49.311  -6.826 -56.324  1.00  0.00     0.146 A 
ATOM     11  O   UNL     1      48.910  -8.040 -56.686  1.00  0.00    -0.456 OA
ENDROOT
BRANCH   1  12
ATOM     12  C   UNL     1      47.560 -10.050 -56.569  1.00  0.00     0.021 A 
ATOM     13  C   UNL     1      46.454 -10.199 -57.423  1.00  0.00     0.016 A 
ATOM     14  C   UNL     1      46.094 -11.460 -57.905  1.00  0.00     0.051 A 
ATOM     15  C   UNL     1      46.837 -12.591 -57.550  1.00  0.00     0.157 A 
ATOM     16  C   UNL     1      48.311 -11.190 -56.226  1.00  0.00     0.062 A 
ATOM     17  C   UNL     1      47.954 -12.454 -56.709  1.00  0.00     0.158 A 
BRANCH  15  18
ATOM     18  O   UNL     1      46.474 -13.848 -58.031  1.00  0.00    -0.504 OA
ATOM     19  H   UNL     1      47.167 -14.556 -58.244  1.00  0.00     0.293 HD
ENDBRANCH  15  18
BRANCH  17  20
ATOM     20  O   UNL     1      48.722 -13.560 -56.346  1.00  0.00    -0.504 OA
ATOM     21  H   UNL     1      49.707 -13.630 -56.573  1.00  0.00     0.293 HD
ENDBRANCH  17  20
ENDBRANCH   1  12
BRANCH   6  22
ATOM     22  O   UNL     1      48.551  -4.168 -53.825  1.00  0.00    -0.507 OA
ATOM     23  H   UNL     1      47.547  -4.154 -53.691  1.00  0.00     0.293 HD
ENDBRANCH   6  22
BRANCH   8  24
ATOM     24  O   UNL     1      51.844  -4.328 -57.349  1.00  0.00    -0.508 OA
ATOM     25  H   UNL     1      52.102  -4.617 -58.286  1.00  0.00     0.293 HD
ENDBRANCH   8  24
TORSDOF 5
ENDMDL
MODEL 3
REMARK VINA RESULT:    -6.134      2.033      7.580
REMARK INTER + INTRA:          -7.513
REMARK INTER:                  -7.217
REMARK INTRA:                  -0.296
REMARK UNBOUND:                -0.303
REMARK SMILES O=c1cc(-c2ccc(O)c(O)c2)oc2cc(O)cc(O)c12
REMARK SMILES IDX 4 1 3 2 2 3 1 4 21 5 19 6 18 7 16 8 15 9 14 10 13 11 5 12
REMARK SMILES IDX 6 13 7 14 8 15 12 16 10 17 9 18 11 20 20 22 17 24
REMARK H PARENT 9 19 11 21 20 23 17 25
REMARK Flexibility Score: inf
ROOT
ATOM      1  C   UNL     1      47.243 -13.987 -56.879  1.00  0.00     0.138 A 
ATOM      2  C   UNL     1      48.239 -13.404 -56.078  1.00  0.00     0.100 A 
ATOM      3  C   UNL     1      48.363 -12.015 -56.040  1.00  0.00     0.197 A 
ATOM      4  O   UNL     1      49.260 -11.501 -55.318  1.00  0.00    -0.289 OA
ATOM      5  C   UNL     1      47.485 -11.217 -56.800  1.00  0.00     0.107 A 
ATOM      6  C   UNL     1      47.543  -9.803 -56.819  1.00  0.00     0.134 A 
ATOM      7  C   UNL     1      46.627  -9.080 -57.599  1.00  0.00     0.093 A 
ATOM      8  C   UNL     1      45.659  -9.742 -58.358  1.00  0.00     0.123 A 
ATOM      9  C   UNL     1      45.598 -11.140 -58.343  1.00  0.00     0.094 A 
ATOM     10  C   UNL     1      46.501 -11.878 -57.573  1.00  0.00     0.146 A 
ATOM     11  O   UNL     1      46.423 -13.205 -57.577  1.00  0.00    -0.456 OA
ENDROOT
BRANCH   1  12
ATOM     12  C   UNL     1      47.064 -15.460 -56.957  1.00  0.00     0.021 A 
ATOM     13  C   UNL     1      46.185 -15.998 -57.912  1.00  0.00     0.016 A 
ATOM     14  C   UNL     1      46.005 -17.381 -58.012  1.00  0.00     0.051 A 
ATOM     15  C   UNL     1      46.706 -18.247 -57.167  1.00  0.00     0.157 A 
ATOM     16  C   UNL     1      47.776 -16.338 -56.118  1.00  0.00     0.062 A 
ATOM     17  C   UNL     1      47.599 -17.723 -56.218  1.00  0.00     0.158 A 
BRANCH  15  18
ATOM     18  O   UNL     1      46.522 -19.626 -57.267  1.00  0.00    -0.504 OA
ATOM     19  H   UNL     1      47.154 -20.280 -56.820  1.00  0.00     0.293 HD
ENDBRANCH  15  18
BRANCH  17  20
ATOM     20  O   UNL     1      48.321 -18.561 -55.369  1.00  0.00    -0.504 OA
ATOM     21  H   UNL     1      49.332 -18.526 -55.309  1.00  0.00     0.293 HD
ENDBRANCH  17  20
ENDBRANCH   1  12
BRANCH   6  22
ATOM     22  O   UNL     1      48.498  -9.114 -56.071  1.00  0.00    -0.507 OA
ATOM     23  H   UNL     1      48.351  -8.158 -55.771  1.00  0.00     0.293 HD
ENDBRANCH   6  22
BRANCH   8  24
ATOM     24  O   UNL     1      44.762  -9.001 -59.124  1.00  0.00    -0.508 OA
ATOM     25  H   UNL     1      43.815  -9.321 -59.289  1.00  0.00     0.293 HD
ENDBRANCH   8  24
TORSDOF 5
ENDMDL
MODEL 4
REMARK VINA RESULT:    -6.015      1.920      2.921
REMARK INTER + INTRA:          -7.374
REMARK INTER:                  -7.095
REMARK INTRA:                  -0.279
REMARK UNBOUND:                -0.303
REMARK SMILES O=c1cc(-c2ccc(O)c(O)c2)oc2cc(O)cc(O)c12
REMARK SMILES IDX 4 1 3 2 2 3 1 4 21 5 19 6 18 7 16 8 15 9 14 10 13 11 5 12
REMARK SMILES IDX 6 13 7 14 8 15 12 16 10 17 9 18 11 20 20 22 17 24
REMARK H PARENT 9 19 11 21 20 23 17 25
REMARK Flexibility Score: inf
ROOT
ATOM      1  C   UNL     1      47.915  -8.173 -56.163  1.00  0.00     0.138 A 
ATOM      2  C   UNL     1      46.831  -7.987 -57.037  1.00  0.00     0.100 A 
ATOM      3  C   UNL     1      46.235  -9.096 -57.638  1.00  0.00     0.197 A 
ATOM      4  O   UNL     1      45.262  -8.919 -58.421  1.00  0.00    -0.289 OA
ATOM      5  C   UNL     1      46.725 -10.387 -57.357  1.00  0.00     0.107 A 
ATOM      6  C   UNL     1      46.179 -11.564 -57.923  1.00  0.00     0.134 A 
ATOM      7  C   UNL     1      46.722 -12.813 -57.586  1.00  0.00     0.093 A 
ATOM      8  C   UNL     1      47.795 -12.907 -56.697  1.00  0.00     0.123 A 
ATOM      9  C   UNL     1      48.339 -11.747 -56.135  1.00  0.00     0.094 A 
ATOM     10  C   UNL     1      47.813 -10.493 -56.458  1.00  0.00     0.146 A 
ATOM     11  O   UNL     1      48.347  -9.406 -55.911  1.00  0.00    -0.456 OA
ENDROOT
BRANCH   1  12
ATOM     12  C   UNL     1      48.587  -7.030 -55.495  1.00  0.00     0.021 A 
ATOM     13  C   UNL     1      49.990  -6.996 -55.430  1.00  0.00     0.016 A 
ATOM     14  C   UNL     1      50.647  -5.927 -54.814  1.00  0.00     0.051 A 
ATOM     15  C   UNL     1      49.915  -4.871 -54.261  1.00  0.00     0.157 A 
ATOM     16  C   UNL     1      47.856  -5.957 -54.949  1.00  0.00     0.062 A 
ATOM     17  C   UNL     1      48.512  -4.885 -54.333  1.00  0.00     0.158 A 
BRANCH  15  18
ATOM     18  O   UNL     1      50.573  -3.808 -53.646  1.00  0.00    -0.504 OA
ATOM     19  H   UNL     1      51.317  -3.961 -52.974  1.00  0.00     0.293 HD
ENDBRANCH  15  18
BRANCH  17  20
ATOM     20  O   UNL     1      47.754  -3.842 -53.802  1.00  0.00    -0.504 OA
ATOM     21  H   UNL     1      48.030  -3.351 -52.960  1.00  0.00     0.293 HD
ENDBRANCH  17  20
ENDBRANCH   1  12
BRANCH   6  22
ATOM     22  O   UNL     1      45.107 -11.500 -58.813  1.00  0.00    -0.507 OA
ATOM     23  H   UNL     1      45.224 -11.171 -59.764  1.00  0.00     0.293 HD
ENDBRANCH   6  22
BRANCH   8  24
ATOM     24  O   UNL     1      48.315 -14.160 -56.380  1.00  0.00    -0.508 OA
ATOM     25  H   UNL     1      47.830 -15.014 -56.628  1.00  0.00     0.293 HD
ENDBRANCH   8  24
TORSDOF 5
ENDMDL
MODEL 5
REMARK VINA RESULT:    -5.864      2.072      7.747
REMARK INTER + INTRA:          -7.196
REMARK INTER:                  -6.931
REMARK INTRA:                  -0.264
REMARK UNBOUND:                -0.303
REMARK SMILES O=c1cc(-c2ccc(O)c(O)c2)oc2cc(O)cc(O)c12
REMARK SMILES IDX 4 1 3 2 2 3 1 4 21 5 19 6 18 7 16 8 15 9 14 10 13 11 5 12
REMARK SMILES IDX 6 13 7 14 8 15 12 16 10 17 9 18 11 20 20 22 17 24
REMARK H PARENT 9 19 11 21 20 23 17 25
REMARK Flexibility Score: inf
ROOT
ATOM      1  C   UNL     1      47.742  -8.576 -56.314  1.00  0.00     0.138 A 
ATOM      2  C   UNL     1      47.061  -7.972 -55.243  1.00  0.00     0.100 A 
ATOM      3  C   UNL     1      47.487  -6.729 -54.772  1.00  0.00     0.197 A 
ATOM      4  O   UNL     1      46.870  -6.195 -53.811  1.00  0.00    -0.289 OA
ATOM      5  C   UNL     1      48.590  -6.096 -55.379  1.00  0.00     0.107 A 
ATOM      6  C   UNL     1      49.087  -4.837 -54.964  1.00  0.00     0.134 A 
ATOM      7  C   UNL     1      50.186  -4.271 -55.626  1.00  0.00     0.093 A 
ATOM      8  C   UNL     1      50.797  -4.937 -56.691  1.00  0.00     0.123 A 
ATOM      9  C   UNL     1      50.310  -6.182 -57.106  1.00  0.00     0.094 A 
ATOM     10  C   UNL     1      49.216  -6.763 -56.459  1.00  0.00     0.146 A 
ATOM     11  O   UNL     1      48.773  -7.946 -56.871  1.00  0.00    -0.456 OA
ENDROOT
BRANCH   1  12
ATOM     12  C   UNL     1      47.333  -9.896 -56.856  1.00  0.00     0.021 A 
ATOM     13  C   UNL     1      48.065 -11.043 -56.507  1.00  0.00     0.016 A 
ATOM     14  C   UNL     1      47.695 -12.299 -56.997  1.00  0.00     0.051 A 
ATOM     15  C   UNL     1      46.584 -12.430 -57.837  1.00  0.00     0.157 A 
ATOM     16  C   UNL     1      46.207 -10.037 -57.691  1.00  0.00     0.062 A 
ATOM     17  C   UNL     1      45.834 -11.293 -58.183  1.00  0.00     0.158 A 
BRANCH  15  18
ATOM     18  O   UNL     1      46.219 -13.683 -58.326  1.00  0.00    -0.504 OA
ATOM     19  H   UNL     1      46.907 -14.406 -58.502  1.00  0.00     0.293 HD
ENDBRANCH  15  18
BRANCH  17  20
ATOM     20  O   UNL     1      44.715 -11.392 -59.008  1.00  0.00    -0.504 OA
ATOM     21  H   UNL     1      44.695 -10.992 -59.939  1.00  0.00     0.293 HD
ENDBRANCH  17  20
ENDBRANCH   1  12
BRANCH   6  22
ATOM     22  O   UNL     1      48.497  -4.148 -53.903  1.00  0.00    -0.507 OA
ATOM     23  H   UNL     1      47.766  -4.565 -53.339  1.00  0.00     0.293 HD
ENDBRANCH   6  22
BRANCH   8  24
ATOM     24  O   UNL     1      51.888  -4.353 -57.331  1.00  0.00    -0.508 OA
ATOM     25  H   UNL     1      52.425  -3.613 -56.894  1.00  0.00     0.293 HD
ENDBRANCH   8  24
TORSDOF 5
ENDMDL
MODEL 6
REMARK VINA RESULT:    -5.822      2.055      7.917
REMARK INTER + INTRA:          -7.146
REMARK INTER:                  -6.850
REMARK INTRA:                  -0.297
REMARK UNBOUND:                -0.303
REMARK SMILES O=c1cc(-c2ccc(O)c(O)c2)oc2cc(O)cc(O)c12
REMARK SMILES IDX 4 1 3 2 2 3 1 4 21 5 19 6 18 7 16 8 15 9 14 10 13 11 5 12
REMARK SMILES IDX 6 13 7 14 8 15 12 16 10 17 9 18 11 20 20 22 17 24
REMARK H PARENT 9 19 11 21 20 23 17 25
REMARK Flexibility Score: inf
ROOT
ATOM      1  C   UNL     1      47.970  -8.551 -56.030  1.00  0.00     0.138 A 
ATOM      2  C   UNL     1      49.142  -8.389 -55.273  1.00  0.00     0.100 A 
ATOM      3  C   UNL     1      49.483  -7.123 -54.797  1.00  0.00     0.197 A 
ATOM      4  O   UNL     1      50.538  -6.987 -54.119  1.00  0.00    -0.289 OA
ATOM      5  C   UNL     1      48.645  -6.025 -55.078  1.00  0.00     0.107 A 
ATOM      6  C   UNL     1      48.917  -4.708 -54.635  1.00  0.00     0.134 A 
ATOM      7  C   UNL     1      48.028  -3.671 -54.953  1.00  0.00     0.093 A 
ATOM      8  C   UNL     1      46.876  -3.924 -55.702  1.00  0.00     0.123 A 
ATOM      9  C   UNL     1      46.603  -5.223 -56.143  1.00  0.00     0.094 A 
ATOM     10  C   UNL     1      47.476  -6.271 -55.837  1.00  0.00     0.146 A 
ATOM     11  O   UNL     1      47.195  -7.496 -56.269  1.00  0.00    -0.456 OA
ENDROOT
BRANCH   1  12
ATOM     12  C   UNL     1      47.557  -9.875 -56.560  1.00  0.00     0.021 A 
ATOM     13  C   UNL     1      46.440  -9.961 -57.409  1.00  0.00     0.016 A 
ATOM     14  C   UNL     1      46.036 -11.194 -57.928  1.00  0.00     0.051 A 
ATOM     15  C   UNL     1      46.745 -12.360 -57.616  1.00  0.00     0.157 A 
ATOM     16  C   UNL     1      48.274 -11.050 -56.260  1.00  0.00     0.062 A 
ATOM     17  C   UNL     1      47.873 -12.286 -56.781  1.00  0.00     0.158 A 
BRANCH  15  18
ATOM     18  O   UNL     1      46.338 -13.588 -58.133  1.00  0.00    -0.504 OA
ATOM     19  H   UNL     1      45.360 -13.797 -58.298  1.00  0.00     0.293 HD
ENDBRANCH  15  18
BRANCH  17  20
ATOM     20  O   UNL     1      48.607 -13.427 -56.460  1.00  0.00    -0.504 OA
ATOM     21  H   UNL     1      48.178 -14.343 -56.399  1.00  0.00     0.293 HD
ENDBRANCH  17  20
ENDBRANCH   1  12
BRANCH   6  22
ATOM     22  O   UNL     1      50.059  -4.426 -53.885  1.00  0.00    -0.507 OA
ATOM     23  H   UNL     1      50.483  -3.506 -53.887  1.00  0.00     0.293 HD
ENDBRANCH   6  22
BRANCH   8  24
ATOM     24  O   UNL     1      46.010  -2.875 -56.004  1.00  0.00    -0.508 OA
ATOM     25  H   UNL     1      45.933  -2.504 -56.943  1.00  0.00     0.293 HD
ENDBRANCH   8  24
TORSDOF 5
ENDMDL
MODEL 7
REMARK VINA RESULT:    -5.742      2.277      4.666
REMARK INTER + INTRA:          -7.053
REMARK INTER:                  -6.735
REMARK INTRA:                  -0.318
REMARK UNBOUND:                -0.303
REMARK SMILES O=c1cc(-c2ccc(O)c(O)c2)oc2cc(O)cc(O)c12
REMARK SMILES IDX 4 1 3 2 2 3 1 4 21 5 19 6 18 7 16 8 15 9 14 10 13 11 5 12
REMARK SMILES IDX 6 13 7 14 8 15 12 16 10 17 9 18 11 20 20 22 17 24
REMARK H PARENT 9 19 11 21 20 23 17 25
REMARK Flexibility Score: inf
ROOT
ATOM      1  C   UNL     1      47.006 -14.052 -57.045  1.00  0.00     0.138 A 
ATOM      2  C   UNL     1      47.924 -14.716 -56.215  1.00  0.00     0.100 A 
ATOM      3  C   UNL     1      47.877 -16.106 -56.112  1.00  0.00     0.197 A 
ATOM      4  O   UNL     1      48.706 -16.693 -55.365  1.00  0.00    -0.289 OA
ATOM      5  C   UNL     1      46.912 -16.825 -56.846  1.00  0.00     0.107 A 
ATOM      6  C   UNL     1      46.794 -18.235 -56.799  1.00  0.00     0.134 A 
ATOM      7  C   UNL     1      45.810 -18.876 -57.565  1.00  0.00     0.093 A 
ATOM      8  C   UNL     1      44.943 -18.138 -58.374  1.00  0.00     0.123 A 
ATOM      9  C   UNL     1      45.055 -16.744 -58.424  1.00  0.00     0.094 A 
ATOM     10  C   UNL     1      46.029 -16.086 -57.668  1.00  0.00     0.146 A 
ATOM     11  O   UNL     1      46.114 -14.761 -57.732  1.00  0.00    -0.456 OA
ENDROOT
BRANCH   1  12
ATOM     12  C   UNL     1      47.011 -12.574 -57.194  1.00  0.00     0.021 A 
ATOM     13  C   UNL     1      47.950 -11.812 -56.479  1.00  0.00     0.016 A 
ATOM     14  C   UNL     1      47.981 -10.420 -56.608  1.00  0.00     0.051 A 
ATOM     15  C   UNL     1      47.082  -9.769 -57.459  1.00  0.00     0.157 A 
ATOM     16  C   UNL     1      46.117 -11.913 -58.059  1.00  0.00     0.062 A 
ATOM     17  C   UNL     1      46.148 -10.520 -58.191  1.00  0.00     0.158 A 
BRANCH  15  18
ATOM     18  O   UNL     1      47.114  -8.381 -57.583  1.00  0.00    -0.504 OA
ATOM     19  H   UNL     1      46.648  -7.777 -56.916  1.00  0.00     0.293 HD
ENDBRANCH  15  18
BRANCH  17  20
ATOM     20  O   UNL     1      45.246  -9.902 -59.056  1.00  0.00    -0.504 OA
ATOM     21  H   UNL     1      45.550  -9.285 -59.800  1.00  0.00     0.293 HD
ENDBRANCH  17  20
ENDBRANCH   1  12
BRANCH   6  22
ATOM     22  O   UNL     1      47.646 -18.999 -55.999  1.00  0.00    -0.507 OA
ATOM     23  H   UNL     1      47.572 -20.008 -55.957  1.00  0.00     0.293 HD
ENDBRANCH   6  22
BRANCH   8  24
ATOM     24  O   UNL     1      43.974 -18.799 -59.125  1.00  0.00    -0.508 OA
ATOM     25  H   UNL     1      43.342 -18.297 -59.737  1.00  0.00     0.293 HD
ENDBRANCH   8  24
TORSDOF 5
ENDMDL
MODEL 8
REMARK VINA RESULT:    -5.704      5.345      7.771
REMARK INTER + INTRA:          -7.008
REMARK INTER:                  -6.713
REMARK INTRA:                  -0.295
REMARK UNBOUND:                -0.303
REMARK SMILES O=c1cc(-c2ccc(O)c(O)c2)oc2cc(O)cc(O)c12
REMARK SMILES IDX 4 1 3 2 2 3 1 4 21 5 19 6 18 7 16 8 15 9 14 10 13 11 5 12
REMARK SMILES IDX 6 13 7 14 8 15 12 16 10 17 9 18 11 20 20 22 17 24
REMARK H PARENT 9 19 11 21 20 23 17 25
REMARK Flexibility Score: inf
ROOT
ATOM      1  C   UNL     1      49.637  -5.565 -56.170  1.00  0.00     0.138 A 
ATOM      2  C   UNL     1      49.050  -6.841 -56.213  1.00  0.00     0.100 A 
ATOM      3  C   UNL     1      47.904  -7.096 -55.461  1.00  0.00     0.197 A 
ATOM      4  O   UNL     1      47.385  -8.244 -55.507  1.00  0.00    -0.289 OA
ATOM      5  C   UNL     1      47.348  -6.070 -54.671  1.00  0.00     0.107 A 
ATOM      6  C   UNL     1      46.188  -6.244 -53.878  1.00  0.00     0.134 A 
ATOM      7  C   UNL     1      45.694  -5.169 -53.124  1.00  0.00     0.093 A 
ATOM      8  C   UNL     1      46.335  -3.928 -53.148  1.00  0.00     0.123 A 
ATOM      9  C   UNL     1      47.481  -3.750 -53.930  1.00  0.00     0.094 A 
ATOM     10  C   UNL     1      47.990  -4.809 -54.688  1.00  0.00     0.146 A 
ATOM     11  O   UNL     1      49.081  -4.615 -55.422  1.00  0.00    -0.456 OA
ENDROOT
BRANCH   1  12
ATOM     12  C   UNL     1      50.857  -5.237 -56.951  1.00  0.00     0.021 A 
ATOM     13  C   UNL     1      51.226  -3.892 -57.121  1.00  0.00     0.016 A 
ATOM     14  C   UNL     1      52.374  -3.557 -57.844  1.00  0.00     0.051 A 
ATOM     15  C   UNL     1      53.176  -4.559 -58.402  1.00  0.00     0.157 A 
ATOM     16  C   UNL     1      51.676  -6.241 -57.503  1.00  0.00     0.062 A 
ATOM     17  C   UNL     1      52.826  -5.908 -58.227  1.00  0.00     0.158 A 
BRANCH  15  18
ATOM     18  O   UNL     1      54.319  -4.221 -59.125  1.00  0.00    -0.504 OA
ATOM     19  H   UNL     1      55.166  -3.911 -58.664  1.00  0.00     0.293 HD
ENDBRANCH  15  18
BRANCH  17  20
ATOM     20  O   UNL     1      53.610  -6.930 -58.760  1.00  0.00    -0.504 OA
ATOM     21  H   UNL     1      53.542  -7.210 -59.731  1.00  0.00     0.293 HD
ENDBRANCH  17  20
ENDBRANCH   1  12
BRANCH   6  22
ATOM     22  O   UNL     1      45.527  -7.472 -53.834  1.00  0.00    -0.507 OA
ATOM     23  H   UNL     1      45.730  -8.160 -53.120  1.00  0.00     0.293 HD
ENDBRANCH   6  22
BRANCH   8  24
ATOM     24  O   UNL     1      45.823  -2.877 -52.390  1.00  0.00    -0.508 OA
ATOM     25  H   UNL     1      45.180  -3.039 -51.624  1.00  0.00     0.293 HD
ENDBRANCH   8  24
TORSDOF 5
ENDMDL
MODEL 9
REMARK VINA RESULT:    -5.686      1.450      6.945
REMARK INTER + INTRA:          -6.986
REMARK INTER:                  -6.694
REMARK INTRA:                  -0.292
REMARK UNBOUND:                -0.303
REMARK SMILES O=c1cc(-c2ccc(O)c(O)c2)oc2cc(O)cc(O)c12
REMARK SMILES IDX 4 1 3 2 2 3 1 4 21 5 19 6 18 7 16 8 15 9 14 10 13 11 5 12
REMARK SMILES IDX 6 13 7 14 8 15 12 16 10 17 9 18 11 20 20 22 17 24
REMARK H PARENT 9 19 11 21 20 23 17 25
REMARK Flexibility Score: inf
ROOT
ATOM      1  C   UNL     1      47.503 -10.837 -56.926  1.00  0.00     0.138 A 
ATOM      2  C   UNL     1      46.967 -10.179 -58.045  1.00  0.00     0.100 A 
ATOM      3  C   UNL     1      47.021  -8.786 -58.114  1.00  0.00     0.197 A 
ATOM      4  O   UNL     1      46.538  -8.205 -59.123  1.00  0.00    -0.289 OA
ATOM      5  C   UNL     1      47.616  -8.060 -57.063  1.00  0.00     0.107 A 
ATOM      6  C   UNL     1      47.711  -6.648 -57.053  1.00  0.00     0.134 A 
ATOM      7  C   UNL     1      48.325  -6.001 -55.970  1.00  0.00     0.093 A 
ATOM      8  C   UNL     1      48.842  -6.736 -54.901  1.00  0.00     0.123 A 
ATOM      9  C   UNL     1      48.750  -8.132 -54.906  1.00  0.00     0.094 A 
ATOM     10  C   UNL     1      48.143  -8.796 -55.975  1.00  0.00     0.146 A 
ATOM     11  O   UNL     1      48.067 -10.122 -55.955  1.00  0.00    -0.456 OA
ENDROOT
BRANCH   1  12
ATOM     12  C   UNL     1      47.475 -12.316 -56.799  1.00  0.00     0.021 A 
ATOM     13  C   UNL     1      48.396 -12.955 -55.952  1.00  0.00     0.016 A 
ATOM     14  C   UNL     1      48.385 -14.345 -55.809  1.00  0.00     0.051 A 
ATOM     15  C   UNL     1      47.448 -15.119 -56.502  1.00  0.00     0.157 A 
ATOM     16  C   UNL     1      46.526 -13.101 -57.484  1.00  0.00     0.062 A 
ATOM     17  C   UNL     1      46.511 -14.493 -57.341  1.00  0.00     0.158 A 
BRANCH  15  18
ATOM     18  O   UNL     1      47.441 -16.506 -56.359  1.00  0.00    -0.504 OA
ATOM     19  H   UNL     1      47.292 -16.946 -55.458  1.00  0.00     0.293 HD
ENDBRANCH  15  18
BRANCH  17  20
ATOM     20  O   UNL     1      45.558 -15.235 -58.036  1.00  0.00    -0.504 OA
ATOM     21  H   UNL     1      45.178 -16.100 -57.671  1.00  0.00     0.293 HD
ENDBRANCH  17  20
ENDBRANCH   1  12
BRANCH   6  22
ATOM     22  O   UNL     1      47.204  -5.888 -58.108  1.00  0.00    -0.507 OA
ATOM     23  H   UNL     1      47.750  -5.702 -58.940  1.00  0.00     0.293 HD
ENDBRANCH   6  22
BRANCH   8  24
ATOM     24  O   UNL     1      49.446  -6.068 -53.838  1.00  0.00    -0.508 OA
ATOM     25  H   UNL     1      50.246  -5.461 -53.978  1.00  0.00     0.293 HD
ENDBRANCH   8  24
TORSDOF 5
ENDMDL
