MODEL 1
REMARK VINA RESULT:    17.278      0.000      0.000
REMARK INTER + INTRA:          36.971
REMARK INTER:                  37.480
REMARK INTRA:                  -0.510
REMARK UNBOUND:                -0.510
REMARK SMILES CCCCCCCCCCCCCCCCCCCCCC(=O)[O-]
REMARK SMILES IDX 12 1 11 2 10 3 9 4 8 5 7 6 6 7 5 8 4 9 3 10 2 11 1 12 13 13
REMARK SMILES IDX 14 14 15 15 16 16 17 17 18 18 19 19 20 20 21 21 22 22 23 23
REMARK SMILES IDX 24 24
REMARK H PARENT
REMARK Flexibility Score: inf
ROOT
ATOM      1  C   UNL     1       0.613   0.575  10.127  1.00  0.00     0.000 C 
ENDROOT
BRANCH   1   2
ATOM      2  C   UNL     1       0.122   1.492   8.993  1.00  0.00     0.000 C 
BRANCH   2   3
ATOM      3  C   UNL     1       0.804   2.870   9.012  1.00  0.00     0.000 C 
BRANCH   3   4
ATOM      4  C   UNL     1       2.331   2.766   9.173  1.00  0.00    -0.000 C 
BRANCH   4   5
ATOM      5  C   UNL     1       2.944   4.036   9.785  1.00  0.00    -0.000 C 
BRANCH   5   6
ATOM      6  C   UNL     1       3.901   3.726  10.950  1.00  0.00    -0.000 C 
BRANCH   6   7
ATOM      7  C   UNL     1       4.514   4.992  11.573  1.00  0.00    -0.000 C 
BRANCH   7   8
ATOM      8  C   UNL     1       3.490   6.028  12.073  1.00  0.00    -0.000 C 
BRANCH   8   9
ATOM      9  C   UNL     1       2.941   5.696  13.472  1.00  0.00    -0.000 C 
BRANCH   9  10
ATOM     10  C   UNL     1       3.319   6.752  14.526  1.00  0.00    -0.000 C 
BRANCH  10  11
ATOM     11  C   UNL     1       4.303   6.261  15.603  1.00  0.00    -0.003 C 
ATOM     12  C   UNL     1       5.283   7.342  16.056  1.00  0.00     0.004 C 
ENDBRANCH  10  11
ENDBRANCH   9  10
ENDBRANCH   8   9
ENDBRANCH   7   8
ENDBRANCH   6   7
ENDBRANCH   5   6
ENDBRANCH   4   5
ENDBRANCH   3   4
ENDBRANCH   2   3
ENDBRANCH   1   2
BRANCH   1  13
ATOM     13  C   UNL     1       1.725  -0.392   9.663  1.00  0.00     0.000 C 
BRANCH  13  14
ATOM     14  C   UNL     1       1.538  -1.835  10.168  1.00  0.00     0.000 C 
BRANCH  14  15
ATOM     15  C   UNL     1       2.706  -2.787   9.852  1.00  0.00     0.000 C 
BRANCH  15  16
ATOM     16  C   UNL     1       2.304  -4.258   9.608  1.00  0.00     0.000 C 
BRANCH  16  17
ATOM     17  C   UNL     1       2.447  -5.183  10.829  1.00  0.00     0.000 C 
BRANCH  17  18
ATOM     18  C   UNL     1       1.405  -6.316  10.845  1.00  0.00     0.000 C 
BRANCH  18  19
ATOM     19  C   UNL     1       1.851  -7.526  11.685  1.00  0.00     0.000 C 
BRANCH  19  20
ATOM     20  C   UNL     1       2.688  -8.569  10.922  1.00  0.00     0.006 C 
BRANCH  20  21
ATOM     21  C   UNL     1       4.163  -8.170  10.785  1.00  0.00     0.053 C 
BRANCH  21  22
ATOM     22  C   UNL     1       4.748  -7.856  12.125  1.00  0.00     0.041 C 
ATOM     23  O   UNL     1       5.560  -6.901  12.254  1.00  0.00    -0.550 OA
ATOM     24  O   UNL     1       4.369  -8.594  13.241  1.00  0.00    -0.550 OA
ENDBRANCH  21  22
ENDBRANCH  20  21
ENDBRANCH  19  20
ENDBRANCH  18  19
ENDBRANCH  17  18
ENDBRANCH  16  17
ENDBRANCH  15  16
ENDBRANCH  14  15
ENDBRANCH  13  14
ENDBRANCH   1  13
TORSDOF 20
ENDMDL
MODEL 2
REMARK VINA RESULT:    17.353      4.349     11.442
REMARK INTER + INTRA:          37.133
REMARK INTER:                  38.027
REMARK INTRA:                  -0.893
REMARK UNBOUND:                -0.510
REMARK SMILES CCCCCCCCCCCCCCCCCCCCCC(=O)[O-]
REMARK SMILES IDX 12 1 11 2 10 3 9 4 8 5 7 6 6 7 5 8 4 9 3 10 2 11 1 12 13 13
REMARK SMILES IDX 14 14 15 15 16 16 17 17 18 18 19 19 20 20 21 21 22 22 23 23
REMARK SMILES IDX 24 24
REMARK H PARENT
REMARK Flexibility Score: inf
ROOT
ATOM      1  C   UNL     1       1.171   0.113  10.354  1.00  0.00     0.000 C 
ENDROOT
BRANCH   1   2
ATOM      2  C   UNL     1       2.127  -0.910   9.716  1.00  0.00     0.000 C 
BRANCH   2   3
ATOM      3  C   UNL     1       1.630  -2.357   9.867  1.00  0.00     0.000 C 
BRANCH   3   4
ATOM      4  C   UNL     1       2.788  -3.367   9.960  1.00  0.00    -0.000 C 
BRANCH   4   5
ATOM      5  C   UNL     1       2.302  -4.824   9.890  1.00  0.00    -0.000 C 
BRANCH   5   6
ATOM      6  C   UNL     1       2.464  -5.564  11.229  1.00  0.00    -0.000 C 
BRANCH   6   7
ATOM      7  C   UNL     1       2.088  -7.053  11.139  1.00  0.00    -0.000 C 
BRANCH   7   8
ATOM      8  C   UNL     1       3.285  -8.020  11.086  1.00  0.00    -0.000 C 
BRANCH   8   9
ATOM      9  C   UNL     1       3.726  -8.500  12.480  1.00  0.00    -0.000 C 
BRANCH   9  10
ATOM     10  C   UNL     1       4.918  -7.700  13.037  1.00  0.00    -0.000 C 
BRANCH  10  11
ATOM     11  C   UNL     1       5.775  -6.996  11.969  1.00  0.00    -0.003 C 
ATOM     12  C   UNL     1       7.173  -6.635  12.465  1.00  0.00     0.004 C 
ENDBRANCH  10  11
ENDBRANCH   9  10
ENDBRANCH   8   9
ENDBRANCH   7   8
ENDBRANCH   6   7
ENDBRANCH   5   6
ENDBRANCH   4   5
ENDBRANCH   3   4
ENDBRANCH   2   3
ENDBRANCH   1   2
BRANCH   1  13
ATOM     13  C   UNL     1       0.637   1.140   9.332  1.00  0.00     0.000 C 
BRANCH  13  14
ATOM     14  C   UNL     1       1.486   2.423   9.247  1.00  0.00     0.000 C 
BRANCH  14  15
ATOM     15  C   UNL     1       2.472   2.622  10.413  1.00  0.00     0.000 C 
BRANCH  15  16
ATOM     16  C   UNL     1       3.546   3.708  10.183  1.00  0.00     0.000 C 
BRANCH  16  17
ATOM     17  C   UNL     1       4.034   4.420  11.457  1.00  0.00     0.000 C 
BRANCH  17  18
ATOM     18  C   UNL     1       3.450   5.835  11.611  1.00  0.00     0.000 C 
BRANCH  18  19
ATOM     19  C   UNL     1       3.719   6.445  12.998  1.00  0.00     0.000 C 
BRANCH  19  20
ATOM     20  C   UNL     1       3.041   5.709  14.170  1.00  0.00     0.006 C 
BRANCH  20  21
ATOM     21  C   UNL     1       3.127   6.482  15.493  1.00  0.00     0.053 C 
BRANCH  21  22
ATOM     22  C   UNL     1       4.485   7.084  15.662  1.00  0.00     0.041 C 
ATOM     23  O   UNL     1       4.627   8.336  15.677  1.00  0.00    -0.550 OA
ATOM     24  O   UNL     1       5.593   6.262  15.840  1.00  0.00    -0.550 OA
ENDBRANCH  21  22
ENDBRANCH  20  21
ENDBRANCH  19  20
ENDBRANCH  18  19
ENDBRANCH  17  18
ENDBRANCH  16  17
ENDBRANCH  15  16
ENDBRANCH  14  15
ENDBRANCH  13  14
ENDBRANCH   1  13
TORSDOF 20
ENDMDL
MODEL 3
REMARK VINA RESULT:    17.482      4.441     11.473
REMARK INTER + INTRA:          37.412
REMARK INTER:                  38.143
REMARK INTRA:                  -0.731
REMARK UNBOUND:                -0.510
REMARK SMILES CCCCCCCCCCCCCCCCCCCCCC(=O)[O-]
REMARK SMILES IDX 12 1 11 2 10 3 9 4 8 5 7 6 6 7 5 8 4 9 3 10 2 11 1 12 13 13
REMARK SMILES IDX 14 14 15 15 16 16 17 17 18 18 19 19 20 20 21 21 22 22 23 23
REMARK SMILES IDX 24 24
REMARK H PARENT
REMARK Flexibility Score: inf
ROOT
ATOM      1  C   UNL     1       2.248  -0.964   9.685  1.00  0.00     0.000 C 
ENDROOT
BRANCH   1   2
ATOM      2  C   UNL     1       1.737  -2.377  10.016  1.00  0.00     0.000 C 
BRANCH   2   3
ATOM      3  C   UNL     1       2.839  -3.444   9.908  1.00  0.00     0.000 C 
BRANCH   3   4
ATOM      4  C   UNL     1       2.267  -4.867   9.772  1.00  0.00    -0.000 C 
BRANCH   4   5
ATOM      5  C   UNL     1       2.399  -5.679  11.070  1.00  0.00    -0.000 C 
BRANCH   5   6
ATOM      6  C   UNL     1       1.356  -6.806  11.168  1.00  0.00    -0.000 C 
BRANCH   6   7
ATOM      7  C   UNL     1       1.988  -8.209  11.134  1.00  0.00    -0.000 C 
BRANCH   7   8
ATOM      8  C   UNL     1       3.522  -8.224  11.010  1.00  0.00    -0.000 C 
BRANCH   8   9
ATOM      9  C   UNL     1       4.231  -8.303  12.374  1.00  0.00    -0.000 C 
BRANCH   9  10
ATOM     10  C   UNL     1       4.923  -6.985  12.763  1.00  0.00    -0.000 C 
BRANCH  10  11
ATOM     11  C   UNL     1       6.289  -6.753  12.091  1.00  0.00    -0.003 C 
ATOM     12  C   UNL     1       7.460  -6.846  13.066  1.00  0.00     0.004 C 
ENDBRANCH  10  11
ENDBRANCH   9  10
ENDBRANCH   8   9
ENDBRANCH   7   8
ENDBRANCH   6   7
ENDBRANCH   5   6
ENDBRANCH   4   5
ENDBRANCH   3   4
ENDBRANCH   2   3
ENDBRANCH   1   2
BRANCH   1  13
ATOM     13  C   UNL     1       1.303   0.141  10.206  1.00  0.00     0.000 C 
BRANCH  13  14
ATOM     14  C   UNL     1       1.118   1.308   9.218  1.00  0.00     0.000 C 
BRANCH  14  15
ATOM     15  C   UNL     1       1.795   2.626   9.640  1.00  0.00     0.000 C 
BRANCH  15  16
ATOM     16  C   UNL     1       2.690   2.529  10.895  1.00  0.00     0.000 C 
BRANCH  16  17
ATOM     17  C   UNL     1       3.956   3.403  10.860  1.00  0.00     0.000 C 
BRANCH  17  18
ATOM     18  C   UNL     1       3.717   4.820  11.409  1.00  0.00     0.000 C 
BRANCH  18  19
ATOM     19  C   UNL     1       3.775   4.884  12.945  1.00  0.00     0.000 C 
BRANCH  19  20
ATOM     20  C   UNL     1       3.402   6.250  13.551  1.00  0.00     0.006 C 
BRANCH  20  21
ATOM     21  C   UNL     1       3.445   6.258  15.085  1.00  0.00     0.053 C 
BRANCH  21  22
ATOM     22  C   UNL     1       4.562   7.123  15.574  1.00  0.00     0.041 C 
ATOM     23  O   UNL     1       5.595   6.603  16.074  1.00  0.00    -0.550 OA
ATOM     24  O   UNL     1       4.480   8.505  15.443  1.00  0.00    -0.550 OA
ENDBRANCH  21  22
ENDBRANCH  20  21
ENDBRANCH  19  20
ENDBRANCH  18  19
ENDBRANCH  17  18
ENDBRANCH  16  17
ENDBRANCH  15  16
ENDBRANCH  14  15
ENDBRANCH  13  14
ENDBRANCH   1  13
TORSDOF 20
ENDMDL
MODEL 4
REMARK VINA RESULT:    17.797      4.064      6.715
REMARK INTER + INTRA:          38.096
REMARK INTER:                  36.230
REMARK INTRA:                   1.866
REMARK UNBOUND:                -0.510
REMARK SMILES CCCCCCCCCCCCCCCCCCCCCC(=O)[O-]
REMARK SMILES IDX 12 1 11 2 10 3 9 4 8 5 7 6 6 7 5 8 4 9 3 10 2 11 1 12 13 13
REMARK SMILES IDX 14 14 15 15 16 16 17 17 18 18 19 19 20 20 21 21 22 22 23 23
REMARK SMILES IDX 24 24
REMARK H PARENT
REMARK Flexibility Score: inf
ROOT
ATOM      1  C   UNL     1       0.408  -7.187  12.281  1.00  0.00     0.000 C 
ENDROOT
BRANCH   1   2
ATOM      2  C   UNL     1       1.870  -6.789  12.544  1.00  0.00     0.000 C 
BRANCH   2   3
ATOM      3  C   UNL     1       2.295  -5.545  11.746  1.00  0.00     0.000 C 
BRANCH   3   4
ATOM      4  C   UNL     1       2.575  -5.864  10.267  1.00  0.00    -0.000 C 
BRANCH   4   5
ATOM      5  C   UNL     1       2.577  -4.605   9.385  1.00  0.00    -0.000 C 
BRANCH   5   6
ATOM      6  C   UNL     1       2.062  -3.362  10.132  1.00  0.00    -0.000 C 
BRANCH   6   7
ATOM      7  C   UNL     1       2.735  -2.060   9.660  1.00  0.00    -0.000 C 
BRANCH   7   8
ATOM      8  C   UNL     1       2.205  -0.779  10.330  1.00  0.00    -0.000 C 
BRANCH   8   9
ATOM      9  C   UNL     1       1.242   0.012   9.426  1.00  0.00    -0.000 C 
BRANCH   9  10
ATOM     10  C   UNL     1       0.329   0.965  10.218  1.00  0.00    -0.000 C 
BRANCH  10  11
ATOM     11  C   UNL     1      -0.480   1.947   9.352  1.00  0.00    -0.003 C 
ATOM     12  C   UNL     1       0.400   2.917   8.565  1.00  0.00     0.004 C 
ENDBRANCH  10  11
ENDBRANCH   9  10
ENDBRANCH   8   9
ENDBRANCH   7   8
ENDBRANCH   6   7
ENDBRANCH   5   6
ENDBRANCH   4   5
ENDBRANCH   3   4
ENDBRANCH   2   3
ENDBRANCH   1   2
BRANCH   1  13
ATOM     13  C   UNL     1      -0.062  -6.806  10.860  1.00  0.00     0.000 C 
BRANCH  13  14
ATOM     14  C   UNL     1      -0.609  -7.997  10.052  1.00  0.00     0.000 C 
BRANCH  14  15
ATOM     15  C   UNL     1       0.197  -9.301  10.197  1.00  0.00     0.000 C 
BRANCH  15  16
ATOM     16  C   UNL     1       1.554  -9.154  10.919  1.00  0.00     0.000 C 
BRANCH  16  17
ATOM     17  C   UNL     1       2.782  -9.096   9.993  1.00  0.00     0.000 C 
BRANCH  17  18
ATOM     18  C   UNL     1       4.070  -8.697  10.735  1.00  0.00     0.000 C 
BRANCH  18  19
ATOM     19  C   UNL     1       3.854  -8.508  12.247  1.00  0.00     0.000 C 
BRANCH  19  20
ATOM     20  C   UNL     1       5.090  -8.011  13.020  1.00  0.00     0.006 C 
BRANCH  20  21
ATOM     21  C   UNL     1       5.835  -6.882  12.297  1.00  0.00     0.053 C 
BRANCH  21  22
ATOM     22  C   UNL     1       7.108  -6.553  13.009  1.00  0.00     0.041 C 
ATOM     23  O   UNL     1       7.111  -5.710  13.946  1.00  0.00    -0.550 OA
ATOM     24  O   UNL     1       8.287  -7.205  12.665  1.00  0.00    -0.550 OA
ENDBRANCH  21  22
ENDBRANCH  20  21
ENDBRANCH  19  20
ENDBRANCH  18  19
ENDBRANCH  17  18
ENDBRANCH  16  17
ENDBRANCH  15  16
ENDBRANCH  14  15
ENDBRANCH  13  14
ENDBRANCH   1  13
TORSDOF 20
ENDMDL
MODEL 5
REMARK VINA RESULT:    17.972      0.915      1.650
REMARK INTER + INTRA:          38.475
REMARK INTER:                  39.319
REMARK INTRA:                  -0.844
REMARK UNBOUND:                -0.510
REMARK SMILES CCCCCCCCCCCCCCCCCCCCCC(=O)[O-]
REMARK SMILES IDX 12 1 11 2 10 3 9 4 8 5 7 6 6 7 5 8 4 9 3 10 2 11 1 12 13 13
REMARK SMILES IDX 14 14 15 15 16 16 17 17 18 18 19 19 20 20 21 21 22 22 23 23
REMARK SMILES IDX 24 24
REMARK H PARENT
REMARK Flexibility Score: inf
ROOT
ATOM      1  C   UNL     1       1.945  -0.657   9.676  1.00  0.00     0.000 C 
ENDROOT
BRANCH   1   2
ATOM      2  C   UNL     1       1.037   0.399  10.329  1.00  0.00     0.000 C 
BRANCH   2   3
ATOM      3  C   UNL     1       0.565   1.470   9.332  1.00  0.00     0.000 C 
BRANCH   3   4
ATOM      4  C   UNL     1       1.546   2.652   9.233  1.00  0.00    -0.000 C 
BRANCH   4   5
ATOM      5  C   UNL     1       2.659   2.581  10.291  1.00  0.00    -0.000 C 
BRANCH   5   6
ATOM      6  C   UNL     1       3.600   3.798  10.239  1.00  0.00    -0.000 C 
BRANCH   6   7
ATOM      7  C   UNL     1       4.021   4.288  11.636  1.00  0.00    -0.000 C 
BRANCH   7   8
ATOM      8  C   UNL     1       3.764   5.783  11.901  1.00  0.00    -0.000 C 
BRANCH   8   9
ATOM      9  C   UNL     1       2.906   6.027  13.156  1.00  0.00    -0.000 C 
BRANCH   9  10
ATOM     10  C   UNL     1       3.646   5.677  14.460  1.00  0.00    -0.000 C 
BRANCH  10  11
ATOM     11  C   UNL     1       3.913   6.874  15.389  1.00  0.00    -0.003 C 
ATOM     12  C   UNL     1       5.283   6.815  16.063  1.00  0.00     0.004 C 
ENDBRANCH  10  11
ENDBRANCH   9  10
ENDBRANCH   8   9
ENDBRANCH   7   8
ENDBRANCH   6   7
ENDBRANCH   5   6
ENDBRANCH   4   5
ENDBRANCH   3   4
ENDBRANCH   2   3
ENDBRANCH   1   2
BRANCH   1  13
ATOM     13  C   UNL     1       1.609  -2.092  10.137  1.00  0.00     0.000 C 
BRANCH  13  14
ATOM     14  C   UNL     1       2.737  -3.105   9.871  1.00  0.00     0.000 C 
BRANCH  14  15
ATOM     15  C   UNL     1       2.273  -4.566   9.726  1.00  0.00     0.000 C 
BRANCH  15  16
ATOM     16  C   UNL     1       2.347  -5.408  11.018  1.00  0.00     0.000 C 
BRANCH  16  17
ATOM     17  C   UNL     1       1.240  -6.466  11.171  1.00  0.00     0.000 C 
BRANCH  17  18
ATOM     18  C   UNL     1       1.795  -7.882  11.403  1.00  0.00     0.000 C 
BRANCH  18  19
ATOM     19  C   UNL     1       3.281  -8.011  11.020  1.00  0.00     0.000 C 
BRANCH  19  20
ATOM     20  C   UNL     1       4.182  -8.604  12.119  1.00  0.00     0.006 C 
BRANCH  20  21
ATOM     21  C   UNL     1       4.686  -7.551  13.115  1.00  0.00     0.053 C 
BRANCH  21  22
ATOM     22  C   UNL     1       5.926  -6.893  12.600  1.00  0.00     0.041 C 
ATOM     23  O   UNL     1       7.053  -7.213  13.063  1.00  0.00    -0.550 OA
ATOM     24  O   UNL     1       5.842  -5.951  11.580  1.00  0.00    -0.550 OA
ENDBRANCH  21  22
ENDBRANCH  20  21
ENDBRANCH  19  20
ENDBRANCH  18  19
ENDBRANCH  17  18
ENDBRANCH  16  17
ENDBRANCH  15  16
ENDBRANCH  14  15
ENDBRANCH  13  14
ENDBRANCH   1  13
TORSDOF 20
ENDMDL
MODEL 6
REMARK VINA RESULT:    18.317      1.966      2.436
REMARK INTER + INTRA:          39.224
REMARK INTER:                  39.994
REMARK INTRA:                  -0.770
REMARK UNBOUND:                -0.510
REMARK SMILES CCCCCCCCCCCCCCCCCCCCCC(=O)[O-]
REMARK SMILES IDX 12 1 11 2 10 3 9 4 8 5 7 6 6 7 5 8 4 9 3 10 2 11 1 12 13 13
REMARK SMILES IDX 14 14 15 15 16 16 17 17 18 18 19 19 20 20 21 21 22 22 23 23
REMARK SMILES IDX 24 24
REMARK H PARENT
REMARK Flexibility Score: inf
ROOT
ATOM      1  C   UNL     1       0.697   0.510  10.084  1.00  0.00     0.000 C 
ENDROOT
BRANCH   1   2
ATOM      2  C   UNL     1       0.239   1.616   9.119  1.00  0.00     0.000 C 
BRANCH   2   3
ATOM      3  C   UNL     1       1.250   2.771   9.022  1.00  0.00     0.000 C 
BRANCH   3   4
ATOM      4  C   UNL     1       2.371   2.658  10.070  1.00  0.00    -0.000 C 
BRANCH   4   5
ATOM      5  C   UNL     1       3.391   3.803   9.964  1.00  0.00    -0.000 C 
BRANCH   5   6
ATOM      6  C   UNL     1       4.419   3.784  11.109  1.00  0.00    -0.000 C 
BRANCH   6   7
ATOM      7  C   UNL     1       4.541   5.141  11.826  1.00  0.00    -0.000 C 
BRANCH   7   8
ATOM      8  C   UNL     1       3.277   6.018  11.767  1.00  0.00    -0.000 C 
BRANCH   8   9
ATOM      9  C   UNL     1       2.757   6.409  13.162  1.00  0.00    -0.000 C 
BRANCH   9  10
ATOM     10  C   UNL     1       3.390   5.574  14.290  1.00  0.00    -0.000 C 
BRANCH  10  11
ATOM     11  C   UNL     1       3.703   6.361  15.575  1.00  0.00    -0.003 C 
ATOM     12  C   UNL     1       5.189   6.672  15.740  1.00  0.00     0.004 C 
ENDBRANCH  10  11
ENDBRANCH   9  10
ENDBRANCH   8   9
ENDBRANCH   7   8
ENDBRANCH   6   7
ENDBRANCH   5   6
ENDBRANCH   4   5
ENDBRANCH   3   4
ENDBRANCH   2   3
ENDBRANCH   1   2
BRANCH   1  13
ATOM     13  C   UNL     1       1.770  -0.411   9.461  1.00  0.00     0.000 C 
BRANCH  13  14
ATOM     14  C   UNL     1       2.355  -1.434  10.452  1.00  0.00     0.000 C 
BRANCH  14  15
ATOM     15  C   UNL     1       2.797  -2.767   9.819  1.00  0.00     0.000 C 
BRANCH  15  16
ATOM     16  C   UNL     1       1.709  -3.862   9.773  1.00  0.00     0.000 C 
BRANCH  16  17
ATOM     17  C   UNL     1       2.239  -5.307   9.795  1.00  0.00     0.000 C 
BRANCH  17  18
ATOM     18  C   UNL     1       2.608  -5.785  11.211  1.00  0.00     0.000 C 
BRANCH  18  19
ATOM     19  C   UNL     1       2.382  -7.295  11.408  1.00  0.00     0.000 C 
BRANCH  19  20
ATOM     20  C   UNL     1       1.418  -7.660  12.552  1.00  0.00     0.006 C 
BRANCH  20  21
ATOM     21  C   UNL     1      -0.059  -7.528  12.156  1.00  0.00     0.053 C 
BRANCH  21  22
ATOM     22  C   UNL     1      -0.252  -7.896  10.720  1.00  0.00     0.041 C 
ATOM     23  O   UNL     1      -0.193  -9.103  10.361  1.00  0.00    -0.550 OA
ATOM     24  O   UNL     1      -0.537  -6.911   9.781  1.00  0.00    -0.550 OA
ENDBRANCH  21  22
ENDBRANCH  20  21
ENDBRANCH  19  20
ENDBRANCH  18  19
ENDBRANCH  17  18
ENDBRANCH  16  17
ENDBRANCH  15  16
ENDBRANCH  14  15
ENDBRANCH  13  14
ENDBRANCH   1  13
TORSDOF 20
ENDMDL
MODEL 7
REMARK VINA RESULT:    18.342      4.544     11.562
REMARK INTER + INTRA:          39.279
REMARK INTER:                  40.628
REMARK INTRA:                  -1.349
REMARK UNBOUND:                -0.510
REMARK SMILES CCCCCCCCCCCCCCCCCCCCCC(=O)[O-]
REMARK SMILES IDX 12 1 11 2 10 3 9 4 8 5 7 6 6 7 5 8 4 9 3 10 2 11 1 12 13 13
REMARK SMILES IDX 14 14 15 15 16 16 17 17 18 18 19 19 20 20 21 21 22 22 23 23
REMARK SMILES IDX 24 24
REMARK H PARENT
REMARK Flexibility Score: inf
ROOT
ATOM      1  C   UNL     1       4.597  -1.091  11.357  1.00  0.00     0.000 C 
ENDROOT
BRANCH   1   2
ATOM      2  C   UNL     1       3.254  -0.513  10.879  1.00  0.00     0.000 C 
BRANCH   2   3
ATOM      3  C   UNL     1       2.455  -1.509  10.022  1.00  0.00     0.000 C 
BRANCH   3   4
ATOM      4  C   UNL     1       3.101  -2.906   9.991  1.00  0.00    -0.000 C 
BRANCH   4   5
ATOM      5  C   UNL     1       2.060  -4.035  10.048  1.00  0.00    -0.000 C 
BRANCH   5   6
ATOM      6  C   UNL     1       2.668  -5.375  10.500  1.00  0.00    -0.000 C 
BRANCH   6   7
ATOM      7  C   UNL     1       1.838  -6.069  11.595  1.00  0.00    -0.000 C 
BRANCH   7   8
ATOM      8  C   UNL     1       1.982  -7.601  11.641  1.00  0.00    -0.000 C 
BRANCH   8   9
ATOM      9  C   UNL     1       2.910  -8.146  10.540  1.00  0.00    -0.000 C 
BRANCH   9  10
ATOM     10  C   UNL     1       4.236  -8.694  11.096  1.00  0.00    -0.000 C 
BRANCH  10  11
ATOM     11  C   UNL     1       4.691  -8.055  12.421  1.00  0.00    -0.003 C 
ATOM     12  C   UNL     1       5.603  -6.846  12.220  1.00  0.00     0.004 C 
ENDBRANCH  10  11
ENDBRANCH   9  10
ENDBRANCH   8   9
ENDBRANCH   7   8
ENDBRANCH   6   7
ENDBRANCH   5   6
ENDBRANCH   4   5
ENDBRANCH   3   4
ENDBRANCH   2   3
ENDBRANCH   1   2
BRANCH   1  13
ATOM     13  C   UNL     1       5.589   0.009  11.797  1.00  0.00     0.000 C 
BRANCH  13  14
ATOM     14  C   UNL     1       5.052   1.439  11.595  1.00  0.00     0.000 C 
BRANCH  14  15
ATOM     15  C   UNL     1       6.097   2.457  11.101  1.00  0.00     0.000 C 
BRANCH  15  16
ATOM     16  C   UNL     1       5.634   3.930  11.119  1.00  0.00     0.000 C 
BRANCH  16  17
ATOM     17  C   UNL     1       4.109   4.134  11.085  1.00  0.00     0.000 C 
BRANCH  17  18
ATOM     18  C   UNL     1       3.666   5.435  11.777  1.00  0.00     0.000 C 
BRANCH  18  19
ATOM     19  C   UNL     1       3.942   5.430  13.291  1.00  0.00     0.000 C 
BRANCH  19  20
ATOM     20  C   UNL     1       2.913   6.201  14.139  1.00  0.00     0.006 C 
BRANCH  20  21
ATOM     21  C   UNL     1       3.332   6.344  15.608  1.00  0.00     0.053 C 
BRANCH  21  22
ATOM     22  C   UNL     1       4.618   7.098  15.716  1.00  0.00     0.041 C 
ATOM     23  O   UNL     1       5.666   6.514  16.102  1.00  0.00    -0.550 OA
ATOM     24  O   UNL     1       4.672   8.439  15.353  1.00  0.00    -0.550 OA
ENDBRANCH  21  22
ENDBRANCH  20  21
ENDBRANCH  19  20
ENDBRANCH  18  19
ENDBRANCH  17  18
ENDBRANCH  16  17
ENDBRANCH  15  16
ENDBRANCH  14  15
ENDBRANCH  13  14
ENDBRANCH   1  13
TORSDOF 20
ENDMDL
MODEL 8
REMARK VINA RESULT:    18.441      4.222     11.019
REMARK INTER + INTRA:          39.493
REMARK INTER:                  40.614
REMARK INTRA:                  -1.121
REMARK UNBOUND:                -0.510
REMARK SMILES CCCCCCCCCCCCCCCCCCCCCC(=O)[O-]
REMARK SMILES IDX 12 1 11 2 10 3 9 4 8 5 7 6 6 7 5 8 4 9 3 10 2 11 1 12 13 13
REMARK SMILES IDX 14 14 15 15 16 16 17 17 18 18 19 19 20 20 21 21 22 22 23 23
REMARK SMILES IDX 24 24
REMARK H PARENT
REMARK Flexibility Score: inf
ROOT
ATOM      1  C   UNL     1       2.818  -2.200   9.746  1.00  0.00     0.000 C 
ENDROOT
BRANCH   1   2
ATOM      2  C   UNL     1       1.912  -3.382  10.133  1.00  0.00     0.000 C 
BRANCH   2   3
ATOM      3  C   UNL     1       2.649  -4.730  10.086  1.00  0.00     0.000 C 
BRANCH   3   4
ATOM      4  C   UNL     1       2.265  -5.650  11.259  1.00  0.00    -0.000 C 
BRANCH   4   5
ATOM      5  C   UNL     1       1.327  -6.789  10.830  1.00  0.00    -0.000 C 
BRANCH   5   6
ATOM      6  C   UNL     1       1.781  -8.159  11.364  1.00  0.00    -0.000 C 
BRANCH   6   7
ATOM      7  C   UNL     1       3.312  -8.287  11.456  1.00  0.00    -0.000 C 
BRANCH   7   8
ATOM      8  C   UNL     1       3.853  -8.558  12.872  1.00  0.00    -0.000 C 
BRANCH   8   9
ATOM      9  C   UNL     1       5.024  -7.633  13.250  1.00  0.00    -0.000 C 
BRANCH   9  10
ATOM     10  C   UNL     1       5.564  -6.834  12.049  1.00  0.00    -0.000 C 
BRANCH  10  11
ATOM     11  C   UNL     1       7.088  -6.618  12.054  1.00  0.00    -0.003 C 
ATOM     12  C   UNL     1       7.694  -6.658  13.455  1.00  0.00     0.004 C 
ENDBRANCH  10  11
ENDBRANCH   9  10
ENDBRANCH   8   9
ENDBRANCH   7   8
ENDBRANCH   6   7
ENDBRANCH   5   6
ENDBRANCH   4   5
ENDBRANCH   3   4
ENDBRANCH   2   3
ENDBRANCH   1   2
BRANCH   1  13
ATOM     13  C   UNL     1       2.264  -0.846  10.241  1.00  0.00     0.000 C 
BRANCH  13  14
ATOM     14  C   UNL     1       1.073  -0.327   9.414  1.00  0.00     0.000 C 
BRANCH  14  15
ATOM     15  C   UNL     1       0.234   0.764  10.104  1.00  0.00     0.000 C 
BRANCH  15  16
ATOM     16  C   UNL     1      -0.038   2.020   9.248  1.00  0.00     0.000 C 
BRANCH  16  17
ATOM     17  C   UNL     1       1.198   2.893   8.964  1.00  0.00     0.000 C 
BRANCH  17  18
ATOM     18  C   UNL     1       2.318   2.697  10.001  1.00  0.00     0.000 C 
BRANCH  18  19
ATOM     19  C   UNL     1       3.356   3.834   9.980  1.00  0.00     0.000 C 
BRANCH  19  20
ATOM     20  C   UNL     1       4.310   3.861  11.189  1.00  0.00     0.006 C 
BRANCH  20  21
ATOM     21  C   UNL     1       4.700   5.282  11.613  1.00  0.00     0.053 C 
BRANCH  21  22
ATOM     22  C   UNL     1       3.510   6.018  12.142  1.00  0.00     0.041 C 
ATOM     23  O   UNL     1       3.093   5.793  13.310  1.00  0.00    -0.550 OA
ATOM     24  O   UNL     1       2.881   6.980  11.359  1.00  0.00    -0.550 OA
ENDBRANCH  21  22
ENDBRANCH  20  21
ENDBRANCH  19  20
ENDBRANCH  18  19
ENDBRANCH  17  18
ENDBRANCH  16  17
ENDBRANCH  15  16
ENDBRANCH  14  15
ENDBRANCH  13  14
ENDBRANCH   1  13
TORSDOF 20
ENDMDL
MODEL 9
REMARK VINA RESULT:    18.683      0.911      2.268
REMARK INTER + INTRA:          40.016
REMARK INTER:                  40.781
REMARK INTRA:                  -0.764
REMARK UNBOUND:                -0.510
REMARK SMILES CCCCCCCCCCCCCCCCCCCCCC(=O)[O-]
REMARK SMILES IDX 12 1 11 2 10 3 9 4 8 5 7 6 6 7 5 8 4 9 3 10 2 11 1 12 13 13
REMARK SMILES IDX 14 14 15 15 16 16 17 17 18 18 19 19 20 20 21 21 22 22 23 23
REMARK SMILES IDX 24 24
REMARK H PARENT
REMARK Flexibility Score: inf
ROOT
ATOM      1  C   UNL     1       2.166  -1.425  10.364  1.00  0.00     0.000 C 
ENDROOT
BRANCH   1   2
ATOM      2  C   UNL     1       1.575  -0.398   9.383  1.00  0.00     0.000 C 
BRANCH   2   3
ATOM      3  C   UNL     1       0.531   0.517  10.044  1.00  0.00     0.000 C 
BRANCH   3   4
ATOM      4  C   UNL     1      -0.019   1.577   9.072  1.00  0.00    -0.000 C 
BRANCH   4   5
ATOM      5  C   UNL     1       0.912   2.792   8.940  1.00  0.00    -0.000 C 
BRANCH   5   6
ATOM      6  C   UNL     1       2.058   2.771   9.967  1.00  0.00    -0.000 C 
BRANCH   6   7
ATOM      7  C   UNL     1       3.136   3.832   9.682  1.00  0.00    -0.000 C 
BRANCH   7   8
ATOM      8  C   UNL     1       4.044   4.168  10.879  1.00  0.00    -0.000 C 
BRANCH   8   9
ATOM      9  C   UNL     1       3.624   5.461  11.602  1.00  0.00    -0.000 C 
BRANCH   9  10
ATOM     10  C   UNL     1       3.996   5.457  13.095  1.00  0.00    -0.000 C 
BRANCH  10  11
ATOM     11  C   UNL     1       2.937   6.078  14.024  1.00  0.00    -0.003 C 
ATOM     12  C   UNL     1       3.521   6.595  15.337  1.00  0.00     0.004 C 
ENDBRANCH  10  11
ENDBRANCH   9  10
ENDBRANCH   8   9
ENDBRANCH   7   8
ENDBRANCH   6   7
ENDBRANCH   5   6
ENDBRANCH   4   5
ENDBRANCH   3   4
ENDBRANCH   2   3
ENDBRANCH   1   2
BRANCH   1  13
ATOM     13  C   UNL     1       2.807  -2.630   9.641  1.00  0.00     0.000 C 
BRANCH  13  14
ATOM     14  C   UNL     1       1.974  -3.922   9.739  1.00  0.00     0.000 C 
BRANCH  14  15
ATOM     15  C   UNL     1       2.700  -5.110  10.399  1.00  0.00     0.000 C 
BRANCH  15  16
ATOM     16  C   UNL     1       1.965  -5.739  11.602  1.00  0.00     0.000 C 
BRANCH  16  17
ATOM     17  C   UNL     1       1.086  -6.956  11.264  1.00  0.00     0.000 C 
BRANCH  17  18
ATOM     18  C   UNL     1       1.799  -8.296  11.519  1.00  0.00     0.000 C 
BRANCH  18  19
ATOM     19  C   UNL     1       2.864  -8.617  10.455  1.00  0.00     0.000 C 
BRANCH  19  20
ATOM     20  C   UNL     1       4.318  -8.574  10.963  1.00  0.00     0.006 C 
BRANCH  20  21
ATOM     21  C   UNL     1       4.453  -7.910  12.339  1.00  0.00     0.053 C 
BRANCH  21  22
ATOM     22  C   UNL     1       5.718  -7.117  12.418  1.00  0.00     0.041 C 
ATOM     23  O   UNL     1       6.715  -7.573  13.039  1.00  0.00    -0.550 OA
ATOM     24  O   UNL     1       5.811  -5.889  11.771  1.00  0.00    -0.550 OA
ENDBRANCH  21  22
ENDBRANCH  20  21
ENDBRANCH  19  20
ENDBRANCH  18  19
ENDBRANCH  17  18
ENDBRANCH  16  17
ENDBRANCH  15  16
ENDBRANCH  14  15
ENDBRANCH  13  14
ENDBRANCH   1  13
TORSDOF 20
ENDMDL
