MODEL 1
REMARK VINA RESULT:    -7.824      0.000      0.000
REMARK INTER + INTRA:         -11.283
REMARK INTER:                 -10.340
REMARK INTRA:                  -0.943
REMARK UNBOUND:                -0.943
REMARK SMILES CC[C@H](C=C[C@H](C)[C@H]1CC[C@H]2[C@@H]3CC=C4C[C@@H](O)CC[C@@]4(C)[C@@H]3CC[C@@]12C)C(C)C
REMARK SMILES IDX 6 1 7 2 5 3 4 4 3 5 2 6 1 7 28 8 29 9 30 10 8 11 9 12 26 13
REMARK SMILES IDX 10 14 11 15 25 16 27 17 12 18 24 19 23 20 13 21 21 22 14 23
REMARK SMILES IDX 15 24 20 25 22 26 16 27 19 28 17 29 18 30
REMARK H PARENT 18 31
REMARK Flexibility Score: inf
ROOT
ATOM      1  C   UNL     1     115.626 125.770 126.761  1.00  0.00     0.012 C 
ATOM      2  C   UNL     1     117.105 125.334 126.860  1.00  0.00     0.012 C 
ENDROOT
BRANCH   1   3
ATOM      3  C   UNL     1     115.599 127.231 126.363  1.00  0.00    -0.028 C 
ATOM      4  C   UNL     1     116.554 127.781 125.594  1.00  0.00    -0.027 C 
BRANCH   4   5
ATOM      5  C   UNL     1     116.613 129.303 125.427  1.00  0.00     0.014 C 
BRANCH   5   6
ATOM      6  C   UNL     1     115.289 130.027 125.835  1.00  0.00     0.004 C 
ATOM      7  C   UNL     1     114.677 130.978 124.792  1.00  0.00     0.004 C 
ENDBRANCH   5   6
BRANCH   5   8
ATOM      8  C   UNL     1     117.906 129.900 126.067  1.00  0.00    -0.011 C 
ATOM      9  C   UNL     1     119.105 129.806 125.111  1.00  0.00     0.008 C 
ATOM     10  C   UNL     1     117.746 131.327 126.597  1.00  0.00     0.008 C 
ENDBRANCH   5   8
ENDBRANCH   4   5
ENDBRANCH   1   3
BRANCH   1  11
ATOM     11  C   UNL     1     114.715 124.975 125.744  1.00  0.00     0.002 C 
ATOM     12  C   UNL     1     115.445 124.397 124.526  1.00  0.00     0.005 C 
ATOM     13  C   UNL     1     113.773 123.843 126.236  1.00  0.00    -0.026 C 
ATOM     14  C   UNL     1     114.503 123.357 123.940  1.00  0.00     0.005 C 
ATOM     15  C   UNL     1     113.296 123.248 124.896  1.00  0.00    -0.001 C 
ATOM     16  C   UNL     1     114.504 122.773 127.073  1.00  0.00     0.007 C 
ATOM     17  C   UNL     1     112.579 124.437 127.024  1.00  0.00     0.012 C 
ATOM     18  C   UNL     1     112.660 121.831 124.903  1.00  0.00     0.000 C 
ATOM     19  C   UNL     1     113.651 121.520 127.336  1.00  0.00     0.005 C 
ATOM     20  C   UNL     1     113.128 120.850 126.045  1.00  0.00     0.003 C 
ATOM     21  C   UNL     1     111.136 121.869 124.746  1.00  0.00     0.031 C 
ATOM     22  C   UNL     1     112.103 119.676 126.371  1.00  0.00    -0.008 C 
ATOM     23  C   UNL     1     110.643 120.475 124.508  1.00  0.00    -0.027 C 
ATOM     24  C   UNL     1     111.169 119.425 125.170  1.00  0.00    -0.065 C 
ATOM     25  C   UNL     1     112.931 118.394 126.745  1.00  0.00     0.014 C 
ATOM     26  C   UNL     1     111.143 120.010 127.550  1.00  0.00     0.016 C 
ATOM     27  C   UNL     1     110.522 118.074 124.989  1.00  0.00     0.063 C 
ATOM     28  C   UNL     1     112.138 117.095 126.619  1.00  0.00     0.033 C 
ATOM     29  C   UNL     1     111.577 116.962 125.193  1.00  0.00     0.118 C 
BRANCH  29  30
ATOM     30  O   UNL     1     112.630 117.042 124.260  1.00  0.00    -0.393 OA
ATOM     31  H   UNL     1     112.576 116.221 123.683  1.00  0.00     0.210 HD
ENDBRANCH  29  30
ENDBRANCH   1  11
TORSDOF 6
ENDMDL
MODEL 2
REMARK VINA RESULT:    -7.320      2.581      5.014
REMARK INTER + INTRA:         -10.617
REMARK INTER:                  -9.880
REMARK INTRA:                  -0.737
REMARK UNBOUND:                -0.943
REMARK SMILES CC[C@H](C=C[C@H](C)[C@H]1CC[C@H]2[C@@H]3CC=C4C[C@@H](O)CC[C@@]4(C)[C@@H]3CC[C@@]12C)C(C)C
REMARK SMILES IDX 6 1 7 2 5 3 4 4 3 5 2 6 1 7 28 8 29 9 30 10 8 11 9 12 26 13
REMARK SMILES IDX 10 14 11 15 25 16 27 17 12 18 24 19 23 20 13 21 21 22 14 23
REMARK SMILES IDX 15 24 20 25 22 26 16 27 19 28 17 29 18 30
REMARK H PARENT 18 31
REMARK Flexibility Score: inf
ROOT
ATOM      1  C   UNL     1     115.449 121.621 123.919  1.00  0.00     0.012 C 
ATOM      2  C   UNL     1     115.131 122.485 122.677  1.00  0.00     0.012 C 
ENDROOT
BRANCH   1   3
ATOM      3  C   UNL     1     115.041 122.407 125.147  1.00  0.00    -0.028 C 
ATOM      4  C   UNL     1     114.602 123.675 125.073  1.00  0.00    -0.027 C 
BRANCH   4   5
ATOM      5  C   UNL     1     114.439 124.501 126.354  1.00  0.00     0.014 C 
BRANCH   5   6
ATOM      6  C   UNL     1     115.064 125.930 126.258  1.00  0.00     0.004 C 
ATOM      7  C   UNL     1     116.428 126.038 125.553  1.00  0.00     0.004 C 
ENDBRANCH   5   6
BRANCH   5   8
ATOM      8  C   UNL     1     112.968 124.466 126.876  1.00  0.00    -0.011 C 
ATOM      9  C   UNL     1     111.988 124.035 125.773  1.00  0.00     0.008 C 
ATOM     10  C   UNL     1     112.767 123.625 128.139  1.00  0.00     0.008 C 
ENDBRANCH   5   8
ENDBRANCH   4   5
ENDBRANCH   1   3
BRANCH   1  11
ATOM     11  C   UNL     1     114.754 120.205 123.999  1.00  0.00     0.002 C 
ATOM     12  C   UNL     1     115.683 119.039 124.355  1.00  0.00     0.005 C 
ATOM     13  C   UNL     1     113.477 119.992 124.857  1.00  0.00    -0.026 C 
ATOM     14  C   UNL     1     114.767 117.902 124.783  1.00  0.00     0.005 C 
ATOM     15  C   UNL     1     113.328 118.459 124.797  1.00  0.00    -0.001 C 
ATOM     16  C   UNL     1     113.648 120.461 126.318  1.00  0.00     0.007 C 
ATOM     17  C   UNL     1     112.259 120.685 124.197  1.00  0.00     0.012 C 
ATOM     18  C   UNL     1     112.423 117.763 125.850  1.00  0.00     0.000 C 
ATOM     19  C   UNL     1     112.500 120.014 127.238  1.00  0.00     0.005 C 
ATOM     20  C   UNL     1     112.276 118.485 127.244  1.00  0.00     0.003 C 
ATOM     21  C   UNL     1     111.076 117.321 125.269  1.00  0.00     0.031 C 
ATOM     22  C   UNL     1     110.966 118.090 128.058  1.00  0.00    -0.008 C 
ATOM     23  C   UNL     1     110.386 116.446 126.270  1.00  0.00    -0.027 C 
ATOM     24  C   UNL     1     110.428 116.724 127.589  1.00  0.00    -0.065 C 
ATOM     25  C   UNL     1     111.327 118.081 129.588  1.00  0.00     0.014 C 
ATOM     26  C   UNL     1     109.783 119.076 127.832  1.00  0.00     0.016 C 
ATOM     27  C   UNL     1     109.588 115.885 128.518  1.00  0.00     0.063 C 
ATOM     28  C   UNL     1     110.345 117.281 130.443  1.00  0.00     0.033 C 
ATOM     29  C   UNL     1     110.249 115.840 129.916  1.00  0.00     0.118 C 
BRANCH  29  30
ATOM     30  O   UNL     1     111.532 115.259 129.885  1.00  0.00    -0.393 OA
ATOM     31  H   UNL     1     112.154 115.937 129.482  1.00  0.00     0.210 HD
ENDBRANCH  29  30
ENDBRANCH   1  11
TORSDOF 6
ENDMDL
MODEL 3
REMARK VINA RESULT:    -7.242      3.695     10.021
REMARK INTER + INTRA:         -10.514
REMARK INTER:                  -9.650
REMARK INTRA:                  -0.864
REMARK UNBOUND:                -0.943
REMARK SMILES CC[C@H](C=C[C@H](C)[C@H]1CC[C@H]2[C@@H]3CC=C4C[C@@H](O)CC[C@@]4(C)[C@@H]3CC[C@@]12C)C(C)C
REMARK SMILES IDX 6 1 7 2 5 3 4 4 3 5 2 6 1 7 28 8 29 9 30 10 8 11 9 12 26 13
REMARK SMILES IDX 10 14 11 15 25 16 27 17 12 18 24 19 23 20 13 21 21 22 14 23
REMARK SMILES IDX 15 24 20 25 22 26 16 27 19 28 17 29 18 30
REMARK H PARENT 18 31
REMARK Flexibility Score: inf
ROOT
ATOM      1  C   UNL     1     109.248 116.629 124.247  1.00  0.00     0.012 C 
ATOM      2  C   UNL     1     109.205 116.596 122.702  1.00  0.00     0.012 C 
ENDROOT
BRANCH   1   3
ATOM      3  C   UNL     1     110.399 115.753 124.696  1.00  0.00    -0.028 C 
ATOM      4  C   UNL     1     111.171 115.081 123.824  1.00  0.00    -0.027 C 
BRANCH   4   5
ATOM      5  C   UNL     1     112.155 114.025 124.337  1.00  0.00     0.014 C 
BRANCH   5   6
ATOM      6  C   UNL     1     111.974 112.626 123.663  1.00  0.00     0.004 C 
ATOM      7  C   UNL     1     113.262 111.879 123.273  1.00  0.00     0.004 C 
ENDBRANCH   5   6
BRANCH   5   8
ATOM      8  C   UNL     1     113.622 114.562 124.342  1.00  0.00    -0.011 C 
ATOM      9  C   UNL     1     113.876 115.522 123.170  1.00  0.00     0.008 C 
ATOM     10  C   UNL     1     114.055 115.196 125.666  1.00  0.00     0.008 C 
ENDBRANCH   5   8
ENDBRANCH   4   5
ENDBRANCH   1   3
BRANCH   1  11
ATOM     11  C   UNL     1     109.425 118.044 124.925  1.00  0.00     0.002 C 
ATOM     12  C   UNL     1     109.564 118.026 126.451  1.00  0.00     0.005 C 
ATOM     13  C   UNL     1     110.508 119.038 124.424  1.00  0.00    -0.026 C 
ATOM     14  C   UNL     1     110.132 119.386 126.827  1.00  0.00     0.005 C 
ATOM     15  C   UNL     1     110.438 120.129 125.510  1.00  0.00    -0.001 C 
ATOM     16  C   UNL     1     111.919 118.414 124.374  1.00  0.00     0.007 C 
ATOM     17  C   UNL     1     110.115 119.616 123.042  1.00  0.00     0.012 C 
ATOM     18  C   UNL     1     111.629 121.118 125.639  1.00  0.00     0.000 C 
ATOM     19  C   UNL     1     113.033 119.449 124.142  1.00  0.00     0.005 C 
ATOM     20  C   UNL     1     113.043 120.587 125.188  1.00  0.00     0.003 C 
ATOM     21  C   UNL     1     111.309 122.503 125.067  1.00  0.00     0.031 C 
ATOM     22  C   UNL     1     114.085 121.727 124.801  1.00  0.00    -0.008 C 
ATOM     23  C   UNL     1     112.402 123.449 125.461  1.00  0.00    -0.027 C 
ATOM     24  C   UNL     1     113.694 123.064 125.459  1.00  0.00    -0.065 C 
ATOM     25  C   UNL     1     115.516 121.253 125.248  1.00  0.00     0.014 C 
ATOM     26  C   UNL     1     114.118 122.035 123.275  1.00  0.00     0.016 C 
ATOM     27  C   UNL     1     114.747 124.111 125.722  1.00  0.00     0.063 C 
ATOM     28  C   UNL     1     116.524 122.393 125.382  1.00  0.00     0.033 C 
ATOM     29  C   UNL     1     115.988 123.449 126.363  1.00  0.00     0.118 C 
BRANCH  29  30
ATOM     30  O   UNL     1     115.695 122.842 127.601  1.00  0.00    -0.393 OA
ATOM     31  H   UNL     1     116.465 123.037 128.216  1.00  0.00     0.210 HD
ENDBRANCH  29  30
ENDBRANCH   1  11
TORSDOF 6
ENDMDL
MODEL 4
REMARK VINA RESULT:    -7.240      3.107      9.844
REMARK INTER + INTRA:         -10.511
REMARK INTER:                  -9.212
REMARK INTRA:                  -1.299
REMARK UNBOUND:                -0.943
REMARK SMILES CC[C@H](C=C[C@H](C)[C@H]1CC[C@H]2[C@@H]3CC=C4C[C@@H](O)CC[C@@]4(C)[C@@H]3CC[C@@]12C)C(C)C
REMARK SMILES IDX 6 1 7 2 5 3 4 4 3 5 2 6 1 7 28 8 29 9 30 10 8 11 9 12 26 13
REMARK SMILES IDX 10 14 11 15 25 16 27 17 12 18 24 19 23 20 13 21 21 22 14 23
REMARK SMILES IDX 15 24 20 25 22 26 16 27 19 28 17 29 18 30
REMARK H PARENT 18 31
REMARK Flexibility Score: inf
ROOT
ATOM      1  C   UNL     1     114.507 117.049 124.001  1.00  0.00     0.012 C 
ATOM      2  C   UNL     1     115.858 116.309 123.866  1.00  0.00     0.012 C 
ENDROOT
BRANCH   1   3
ATOM      3  C   UNL     1     113.410 116.006 124.042  1.00  0.00    -0.028 C 
ATOM      4  C   UNL     1     112.200 116.217 123.498  1.00  0.00    -0.027 C 
BRANCH   4   5
ATOM      5  C   UNL     1     111.057 115.237 123.782  1.00  0.00     0.014 C 
BRANCH   5   6
ATOM      6  C   UNL     1     111.532 113.898 124.432  1.00  0.00     0.004 C 
ATOM      7  C   UNL     1     112.028 112.804 123.471  1.00  0.00     0.004 C 
ENDBRANCH   5   6
BRANCH   5   8
ATOM      8  C   UNL     1     109.871 115.937 124.519  1.00  0.00    -0.011 C 
ATOM      9  C   UNL     1     110.109 116.002 126.036  1.00  0.00     0.008 C 
ATOM     10  C   UNL     1     109.512 117.318 123.966  1.00  0.00     0.008 C 
ENDBRANCH   5   8
ENDBRANCH   4   5
ENDBRANCH   1   3
BRANCH   1  11
ATOM     11  C   UNL     1     114.331 117.987 125.260  1.00  0.00     0.002 C 
ATOM     12  C   UNL     1     115.497 117.972 126.254  1.00  0.00     0.005 C 
ATOM     13  C   UNL     1     113.951 119.483 125.091  1.00  0.00    -0.026 C 
ATOM     14  C   UNL     1     115.315 119.211 127.117  1.00  0.00     0.005 C 
ATOM     15  C   UNL     1     114.124 119.999 126.533  1.00  0.00    -0.001 C 
ATOM     16  C   UNL     1     114.893 120.239 124.130  1.00  0.00     0.007 C 
ATOM     17  C   UNL     1     112.477 119.619 124.635  1.00  0.00     0.012 C 
ATOM     18  C   UNL     1     114.246 121.531 126.758  1.00  0.00     0.000 C 
ATOM     19  C   UNL     1     114.698 121.764 124.162  1.00  0.00     0.005 C 
ATOM     20  C   UNL     1     114.855 122.375 125.573  1.00  0.00     0.003 C 
ATOM     21  C   UNL     1     112.963 122.148 127.324  1.00  0.00     0.031 C 
ATOM     22  C   UNL     1     114.460 123.917 125.589  1.00  0.00    -0.008 C 
ATOM     23  C   UNL     1     113.253 123.556 127.745  1.00  0.00    -0.027 C 
ATOM     24  C   UNL     1     114.049 124.357 127.008  1.00  0.00    -0.065 C 
ATOM     25  C   UNL     1     115.688 124.741 125.055  1.00  0.00     0.014 C 
ATOM     26  C   UNL     1     113.221 124.242 124.703  1.00  0.00     0.016 C 
ATOM     27  C   UNL     1     114.174 125.804 127.414  1.00  0.00     0.063 C 
ATOM     28  C   UNL     1     115.651 126.217 125.447  1.00  0.00     0.033 C 
ATOM     29  C   UNL     1     115.553 126.349 126.975  1.00  0.00     0.118 C 
BRANCH  29  30
ATOM     30  O   UNL     1     116.621 125.659 127.581  1.00  0.00    -0.393 OA
ATOM     31  H   UNL     1     116.339 125.443 128.521  1.00  0.00     0.210 HD
ENDBRANCH  29  30
ENDBRANCH   1  11
TORSDOF 6
ENDMDL
MODEL 5
REMARK VINA RESULT:    -7.120      3.097      6.345
REMARK INTER + INTRA:         -10.353
REMARK INTER:                  -9.500
REMARK INTRA:                  -0.852
REMARK UNBOUND:                -0.943
REMARK SMILES CC[C@H](C=C[C@H](C)[C@H]1CC[C@H]2[C@@H]3CC=C4C[C@@H](O)CC[C@@]4(C)[C@@H]3CC[C@@]12C)C(C)C
REMARK SMILES IDX 6 1 7 2 5 3 4 4 3 5 2 6 1 7 28 8 29 9 30 10 8 11 9 12 26 13
REMARK SMILES IDX 10 14 11 15 25 16 27 17 12 18 24 19 23 20 13 21 21 22 14 23
REMARK SMILES IDX 15 24 20 25 22 26 16 27 19 28 17 29 18 30
REMARK H PARENT 18 31
REMARK Flexibility Score: inf
ROOT
ATOM      1  C   UNL     1     111.731 121.784 125.684  1.00  0.00     0.012 C 
ATOM      2  C   UNL     1     112.372 121.913 127.085  1.00  0.00     0.012 C 
ENDROOT
BRANCH   1   3
ATOM      3  C   UNL     1     112.835 121.921 124.656  1.00  0.00    -0.028 C 
ATOM      4  C   UNL     1     114.062 122.365 124.977  1.00  0.00    -0.027 C 
BRANCH   4   5
ATOM      5  C   UNL     1     115.058 122.718 123.867  1.00  0.00     0.014 C 
BRANCH   5   6
ATOM      6  C   UNL     1     115.645 124.161 123.992  1.00  0.00     0.004 C 
ATOM      7  C   UNL     1     115.610 124.799 125.391  1.00  0.00     0.004 C 
ENDBRANCH   5   6
BRANCH   5   8
ATOM      8  C   UNL     1     116.125 121.593 123.676  1.00  0.00    -0.011 C 
ATOM      9  C   UNL     1     116.446 120.888 125.003  1.00  0.00     0.008 C 
ATOM     10  C   UNL     1     115.777 120.573 122.589  1.00  0.00     0.008 C 
ENDBRANCH   5   8
ENDBRANCH   4   5
ENDBRANCH   1   3
BRANCH   1  11
ATOM     11  C   UNL     1     110.950 120.446 125.378  1.00  0.00     0.002 C 
ATOM     12  C   UNL     1     110.191 120.420 124.047  1.00  0.00     0.005 C 
ATOM     13  C   UNL     1     111.661 119.069 125.475  1.00  0.00    -0.026 C 
ATOM     14  C   UNL     1     109.889 118.954 123.776  1.00  0.00     0.005 C 
ATOM     15  C   UNL     1     110.587 118.135 124.882  1.00  0.00    -0.001 C 
ATOM     16  C   UNL     1     112.957 119.001 124.639  1.00  0.00     0.007 C 
ATOM     17  C   UNL     1     111.942 118.707 126.954  1.00  0.00     0.012 C 
ATOM     18  C   UNL     1     111.020 116.723 124.403  1.00  0.00     0.000 C 
ATOM     19  C   UNL     1     113.522 117.577 124.509  1.00  0.00     0.005 C 
ATOM     20  C   UNL     1     112.512 116.566 123.918  1.00  0.00     0.003 C 
ATOM     21  C   UNL     1     110.596 115.616 125.374  1.00  0.00     0.031 C 
ATOM     22  C   UNL     1     113.074 115.077 123.978  1.00  0.00    -0.008 C 
ATOM     23  C   UNL     1     110.823 114.289 124.718  1.00  0.00    -0.027 C 
ATOM     24  C   UNL     1     111.915 114.061 123.962  1.00  0.00    -0.065 C 
ATOM     25  C   UNL     1     114.046 114.873 122.759  1.00  0.00     0.014 C 
ATOM     26  C   UNL     1     113.850 114.766 125.291  1.00  0.00     0.016 C 
ATOM     27  C   UNL     1     112.150 112.659 123.457  1.00  0.00     0.063 C 
ATOM     28  C   UNL     1     114.286 113.406 122.407  1.00  0.00     0.033 C 
ATOM     29  C   UNL     1     112.943 112.710 122.131  1.00  0.00     0.118 C 
BRANCH  29  30
ATOM     30  O   UNL     1     112.250 113.400 121.117  1.00  0.00    -0.393 OA
ATOM     31  H   UNL     1     112.240 112.805 120.308  1.00  0.00     0.210 HD
ENDBRANCH  29  30
ENDBRANCH   1  11
TORSDOF 6
ENDMDL
MODEL 6
REMARK VINA RESULT:    -7.079      3.768      9.621
REMARK INTER + INTRA:         -10.298
REMARK INTER:                  -9.440
REMARK INTRA:                  -0.858
REMARK UNBOUND:                -0.943
REMARK SMILES CC[C@H](C=C[C@H](C)[C@H]1CC[C@H]2[C@@H]3CC=C4C[C@@H](O)CC[C@@]4(C)[C@@H]3CC[C@@]12C)C(C)C
REMARK SMILES IDX 6 1 7 2 5 3 4 4 3 5 2 6 1 7 28 8 29 9 30 10 8 11 9 12 26 13
REMARK SMILES IDX 10 14 11 15 25 16 27 17 12 18 24 19 23 20 13 21 21 22 14 23
REMARK SMILES IDX 15 24 20 25 22 26 16 27 19 28 17 29 18 30
REMARK H PARENT 18 31
REMARK Flexibility Score: inf
ROOT
ATOM      1  C   UNL     1     110.558 116.092 127.884  1.00  0.00     0.012 C 
ATOM      2  C   UNL     1     109.286 116.338 128.728  1.00  0.00     0.012 C 
ENDROOT
BRANCH   1   3
ATOM      3  C   UNL     1     110.171 116.196 126.424  1.00  0.00    -0.028 C 
ATOM      4  C   UNL     1     110.446 115.223 125.539  1.00  0.00    -0.027 C 
BRANCH   4   5
ATOM      5  C   UNL     1     110.257 115.481 124.040  1.00  0.00     0.014 C 
BRANCH   5   6
ATOM      6  C   UNL     1     109.458 116.788 123.729  1.00  0.00     0.004 C 
ATOM      7  C   UNL     1     110.005 117.675 122.598  1.00  0.00     0.004 C 
ENDBRANCH   5   6
BRANCH   5   8
ATOM      8  C   UNL     1     111.603 115.338 123.260  1.00  0.00    -0.011 C 
ATOM      9  C   UNL     1     112.799 115.793 124.109  1.00  0.00     0.008 C 
ATOM     10  C   UNL     1     111.849 113.943 122.679  1.00  0.00     0.008 C 
ENDBRANCH   5   8
ENDBRANCH   4   5
ENDBRANCH   1   3
BRANCH   1  11
ATOM     11  C   UNL     1     111.776 117.067 128.132  1.00  0.00     0.002 C 
ATOM     12  C   UNL     1     113.162 116.456 127.895  1.00  0.00     0.005 C 
ATOM     13  C   UNL     1     111.823 118.468 127.465  1.00  0.00    -0.026 C 
ATOM     14  C   UNL     1     114.114 117.636 127.776  1.00  0.00     0.005 C 
ATOM     15  C   UNL     1     113.256 118.918 127.814  1.00  0.00    -0.001 C 
ATOM     16  C   UNL     1     111.632 118.414 125.935  1.00  0.00     0.007 C 
ATOM     17  C   UNL     1     110.781 119.413 128.115  1.00  0.00     0.012 C 
ATOM     18  C   UNL     1     113.881 120.085 127.004  1.00  0.00     0.000 C 
ATOM     19  C   UNL     1     111.943 119.747 125.235  1.00  0.00     0.005 C 
ATOM     20  C   UNL     1     113.365 120.278 125.526  1.00  0.00     0.003 C 
ATOM     21  C   UNL     1     113.915 121.399 127.792  1.00  0.00     0.031 C 
ATOM     22  C   UNL     1     113.573 121.743 124.938  1.00  0.00    -0.008 C 
ATOM     23  C   UNL     1     114.753 122.387 127.042  1.00  0.00    -0.027 C 
ATOM     24  C   UNL     1     114.695 122.477 125.698  1.00  0.00    -0.065 C 
ATOM     25  C   UNL     1     113.895 121.612 123.405  1.00  0.00     0.014 C 
ATOM     26  C   UNL     1     112.323 122.655 125.107  1.00  0.00     0.016 C 
ATOM     27  C   UNL     1     115.455 123.593 125.027  1.00  0.00     0.063 C 
ATOM     28  C   UNL     1     114.574 122.847 122.815  1.00  0.00     0.033 C 
ATOM     29  C   UNL     1     115.859 123.161 123.599  1.00  0.00     0.118 C 
BRANCH  29  30
ATOM     30  O   UNL     1     116.703 122.032 123.598  1.00  0.00    -0.393 OA
ATOM     31  H   UNL     1     117.284 122.098 122.781  1.00  0.00     0.210 HD
ENDBRANCH  29  30
ENDBRANCH   1  11
TORSDOF 6
ENDMDL
MODEL 7
REMARK VINA RESULT:    -7.073      3.740      7.195
REMARK INTER + INTRA:         -10.290
REMARK INTER:                  -9.543
REMARK INTRA:                  -0.747
REMARK UNBOUND:                -0.943
REMARK SMILES CC[C@H](C=C[C@H](C)[C@H]1CC[C@H]2[C@@H]3CC=C4C[C@@H](O)CC[C@@]4(C)[C@@H]3CC[C@@]12C)C(C)C
REMARK SMILES IDX 6 1 7 2 5 3 4 4 3 5 2 6 1 7 28 8 29 9 30 10 8 11 9 12 26 13
REMARK SMILES IDX 10 14 11 15 25 16 27 17 12 18 24 19 23 20 13 21 21 22 14 23
REMARK SMILES IDX 15 24 20 25 22 26 16 27 19 28 17 29 18 30
REMARK H PARENT 18 31
REMARK Flexibility Score: inf
ROOT
ATOM      1  C   UNL     1     111.123 120.474 125.870  1.00  0.00     0.012 C 
ATOM      2  C   UNL     1     112.099 120.461 127.069  1.00  0.00     0.012 C 
ENDROOT
BRANCH   1   3
ATOM      3  C   UNL     1     111.836 121.116 124.699  1.00  0.00    -0.028 C 
ATOM      4  C   UNL     1     113.122 121.500 124.767  1.00  0.00    -0.027 C 
BRANCH   4   5
ATOM      5  C   UNL     1     113.718 122.361 123.648  1.00  0.00     0.014 C 
BRANCH   5   6
ATOM      6  C   UNL     1     113.821 123.877 124.016  1.00  0.00     0.004 C 
ATOM      7  C   UNL     1     113.665 124.235 125.504  1.00  0.00     0.004 C 
ENDBRANCH   5   6
BRANCH   5   8
ATOM      8  C   UNL     1     115.033 121.737 123.083  1.00  0.00    -0.011 C 
ATOM      9  C   UNL     1     116.235 122.672 123.285  1.00  0.00     0.008 C 
ATOM     10  C   UNL     1     115.342 120.334 123.612  1.00  0.00     0.008 C 
ENDBRANCH   5   8
ENDBRANCH   4   5
ENDBRANCH   1   3
BRANCH   1  11
ATOM     11  C   UNL     1     110.567 119.075 125.390  1.00  0.00     0.002 C 
ATOM     12  C   UNL     1     109.795 119.097 124.066  1.00  0.00     0.005 C 
ATOM     13  C   UNL     1     111.497 117.835 125.305  1.00  0.00    -0.026 C 
ATOM     14  C   UNL     1     109.734 117.650 123.604  1.00  0.00     0.005 C 
ATOM     15  C   UNL     1     110.580 116.821 124.593  1.00  0.00    -0.001 C 
ATOM     16  C   UNL     1     112.769 118.093 124.469  1.00  0.00     0.007 C 
ATOM     17  C   UNL     1     111.865 117.335 126.724  1.00  0.00     0.012 C 
ATOM     18  C   UNL     1     111.230 115.575 123.933  1.00  0.00     0.000 C 
ATOM     19  C   UNL     1     113.558 116.812 124.152  1.00  0.00     0.005 C 
ATOM     20  C   UNL     1     112.717 115.733 123.433  1.00  0.00     0.003 C 
ATOM     21  C   UNL     1     111.015 114.296 124.748  1.00  0.00     0.031 C 
ATOM     22  C   UNL     1     113.518 114.364 123.296  1.00  0.00    -0.008 C 
ATOM     23  C   UNL     1     111.444 113.122 123.923  1.00  0.00    -0.027 C 
ATOM     24  C   UNL     1     112.543 113.179 123.145  1.00  0.00    -0.065 C 
ATOM     25  C   UNL     1     114.485 114.485 122.062  1.00  0.00     0.014 C 
ATOM     26  C   UNL     1     114.362 114.018 124.557  1.00  0.00     0.016 C 
ATOM     27  C   UNL     1     112.995 111.914 122.460  1.00  0.00     0.063 C 
ATOM     28  C   UNL     1     114.956 113.137 121.520  1.00  0.00     0.033 C 
ATOM     29  C   UNL     1     113.741 112.269 121.153  1.00  0.00     0.118 C 
BRANCH  29  30
ATOM     30  O   UNL     1     112.923 112.960 120.238  1.00  0.00    -0.393 OA
ATOM     31  H   UNL     1     113.494 113.662 119.801  1.00  0.00     0.210 HD
ENDBRANCH  29  30
ENDBRANCH   1  11
TORSDOF 6
ENDMDL
MODEL 8
REMARK VINA RESULT:    -6.999      3.419     10.041
REMARK INTER + INTRA:         -10.192
REMARK INTER:                  -9.266
REMARK INTRA:                  -0.926
REMARK UNBOUND:                -0.943
REMARK SMILES CC[C@H](C=C[C@H](C)[C@H]1CC[C@H]2[C@@H]3CC=C4C[C@@H](O)CC[C@@]4(C)[C@@H]3CC[C@@]12C)C(C)C
REMARK SMILES IDX 6 1 7 2 5 3 4 4 3 5 2 6 1 7 28 8 29 9 30 10 8 11 9 12 26 13
REMARK SMILES IDX 10 14 11 15 25 16 27 17 12 18 24 19 23 20 13 21 21 22 14 23
REMARK SMILES IDX 15 24 20 25 22 26 16 27 19 28 17 29 18 30
REMARK H PARENT 18 31
REMARK Flexibility Score: inf
ROOT
ATOM      1  C   UNL     1     110.232 116.002 125.389  1.00  0.00     0.012 C 
ATOM      2  C   UNL     1     109.421 116.552 124.193  1.00  0.00     0.012 C 
ENDROOT
BRANCH   1   3
ATOM      3  C   UNL     1     111.399 115.214 124.833  1.00  0.00    -0.028 C 
ATOM      4  C   UNL     1     111.881 115.423 123.596  1.00  0.00    -0.027 C 
BRANCH   4   5
ATOM      5  C   UNL     1     112.892 114.440 122.996  1.00  0.00     0.014 C 
BRANCH   5   6
ATOM      6  C   UNL     1     114.233 115.114 122.558  1.00  0.00     0.004 C 
ATOM      7  C   UNL     1     114.605 116.428 123.266  1.00  0.00     0.004 C 
ENDBRANCH   5   6
BRANCH   5   8
ATOM      8  C   UNL     1     113.062 113.173 123.894  1.00  0.00    -0.011 C 
ATOM      9  C   UNL     1     112.575 111.904 123.178  1.00  0.00     0.008 C 
ATOM     10  C   UNL     1     114.477 112.977 124.445  1.00  0.00     0.008 C 
ENDBRANCH   5   8
ENDBRANCH   4   5
ENDBRANCH   1   3
BRANCH   1  11
ATOM     11  C   UNL     1     110.807 117.063 126.408  1.00  0.00     0.002 C 
ATOM     12  C   UNL     1     112.145 116.690 127.056  1.00  0.00     0.005 C 
ATOM     13  C   UNL     1     110.944 118.557 126.009  1.00  0.00    -0.026 C 
ATOM     14  C   UNL     1     112.693 117.984 127.637  1.00  0.00     0.005 C 
ATOM     15  C   UNL     1     111.736 119.116 127.208  1.00  0.00    -0.001 C 
ATOM     16  C   UNL     1     111.733 118.760 124.699  1.00  0.00     0.007 C 
ATOM     17  C   UNL     1     109.549 119.224 125.918  1.00  0.00     0.012 C 
ATOM     18  C   UNL     1     112.453 120.483 127.046  1.00  0.00     0.000 C 
ATOM     19  C   UNL     1     112.107 120.229 124.435  1.00  0.00     0.005 C 
ATOM     20  C   UNL     1     112.909 120.875 125.588  1.00  0.00     0.003 C 
ATOM     21  C   UNL     1     111.720 121.622 127.762  1.00  0.00     0.031 C 
ATOM     22  C   UNL     1     113.108 122.438 125.355  1.00  0.00    -0.008 C 
ATOM     23  C   UNL     1     112.603 122.832 127.769  1.00  0.00    -0.027 C 
ATOM     24  C   UNL     1     113.351 123.158 126.696  1.00  0.00    -0.065 C 
ATOM     25  C   UNL     1     114.309 122.634 124.360  1.00  0.00     0.014 C 
ATOM     26  C   UNL     1     111.850 123.135 124.759  1.00  0.00     0.016 C 
ATOM     27  C   UNL     1     114.099 124.468 126.723  1.00  0.00     0.063 C 
ATOM     28  C   UNL     1     114.919 124.034 124.407  1.00  0.00     0.033 C 
ATOM     29  C   UNL     1     115.365 124.361 125.842  1.00  0.00     0.118 C 
BRANCH  29  30
ATOM     30  O   UNL     1     116.256 123.370 126.300  1.00  0.00    -0.393 OA
ATOM     31  H   UNL     1     116.226 122.616 125.637  1.00  0.00     0.210 HD
ENDBRANCH  29  30
ENDBRANCH   1  11
TORSDOF 6
ENDMDL
MODEL 9
REMARK VINA RESULT:    -6.962      4.714      8.143
REMARK INTER + INTRA:         -10.144
REMARK INTER:                  -9.404
REMARK INTRA:                  -0.739
REMARK UNBOUND:                -0.943
REMARK SMILES CC[C@H](C=C[C@H](C)[C@H]1CC[C@H]2[C@@H]3CC=C4C[C@@H](O)CC[C@@]4(C)[C@@H]3CC[C@@]12C)C(C)C
REMARK SMILES IDX 6 1 7 2 5 3 4 4 3 5 2 6 1 7 28 8 29 9 30 10 8 11 9 12 26 13
REMARK SMILES IDX 10 14 11 15 25 16 27 17 12 18 24 19 23 20 13 21 21 22 14 23
REMARK SMILES IDX 15 24 20 25 22 26 16 27 19 28 17 29 18 30
REMARK H PARENT 18 31
REMARK Flexibility Score: inf
ROOT
ATOM      1  C   UNL     1     109.230 119.111 125.163  1.00  0.00     0.012 C 
ATOM      2  C   UNL     1     109.374 119.120 126.703  1.00  0.00     0.012 C 
ENDROOT
BRANCH   1   3
ATOM      3  C   UNL     1     110.268 120.055 124.596  1.00  0.00    -0.028 C 
ATOM      4  C   UNL     1     111.155 120.697 125.375  1.00  0.00    -0.027 C 
BRANCH   4   5
ATOM      5  C   UNL     1     112.014 121.820 124.785  1.00  0.00     0.014 C 
BRANCH   5   6
ATOM      6  C   UNL     1     112.310 122.975 125.795  1.00  0.00     0.004 C 
ATOM      7  C   UNL     1     112.195 122.628 127.290  1.00  0.00     0.004 C 
ENDBRANCH   5   6
BRANCH   5   8
ATOM      8  C   UNL     1     113.273 121.255 124.053  1.00  0.00    -0.011 C 
ATOM      9  C   UNL     1     114.045 122.362 123.320  1.00  0.00     0.008 C 
ATOM     10  C   UNL     1     114.211 120.442 124.950  1.00  0.00     0.008 C 
ENDBRANCH   5   8
ENDBRANCH   4   5
ENDBRANCH   1   3
BRANCH   1  11
ATOM     11  C   UNL     1     109.398 117.716 124.441  1.00  0.00     0.002 C 
ATOM     12  C   UNL     1     109.286 117.753 122.912  1.00  0.00     0.005 C 
ATOM     13  C   UNL     1     110.619 116.805 124.743  1.00  0.00    -0.026 C 
ATOM     14  C   UNL     1     109.884 116.442 122.426  1.00  0.00     0.005 C 
ATOM     15  C   UNL     1     110.455 115.717 123.663  1.00  0.00    -0.001 C 
ATOM     16  C   UNL     1     111.970 117.533 124.575  1.00  0.00     0.007 C 
ATOM     17  C   UNL     1     110.499 116.191 126.159  1.00  0.00     0.012 C 
ATOM     18  C   UNL     1     111.678 114.822 123.325  1.00  0.00     0.000 C 
ATOM     19  C   UNL     1     113.179 116.584 124.606  1.00  0.00     0.005 C 
ATOM     20  C   UNL     1     113.104 115.457 123.551  1.00  0.00     0.003 C 
ATOM     21  C   UNL     1     111.559 113.414 123.917  1.00  0.00     0.031 C 
ATOM     22  C   UNL     1     114.276 114.397 123.745  1.00  0.00    -0.008 C 
ATOM     23  C   UNL     1     112.640 112.556 123.335  1.00  0.00    -0.027 C 
ATOM     24  C   UNL     1     113.883 113.037 123.135  1.00  0.00    -0.065 C 
ATOM     25  C   UNL     1     115.576 114.981 123.082  1.00  0.00     0.014 C 
ATOM     26  C   UNL     1     114.579 114.083 125.239  1.00  0.00     0.016 C 
ATOM     27  C   UNL     1     114.954 112.074 122.686  1.00  0.00     0.063 C 
ATOM     28  C   UNL     1     116.630 113.921 122.766  1.00  0.00     0.033 C 
ATOM     29  C   UNL     1     116.022 112.833 121.865  1.00  0.00     0.118 C 
BRANCH  29  30
ATOM     30  O   UNL     1     115.488 113.423 120.703  1.00  0.00    -0.393 OA
ATOM     31  H   UNL     1     114.987 112.705 120.210  1.00  0.00     0.210 HD
ENDBRANCH  29  30
ENDBRANCH   1  11
TORSDOF 6
ENDMDL
