MODEL 1
REMARK VINA RESULT:    56.469      0.000      0.000
REMARK INTER + INTRA:          76.984
REMARK INTER:                  77.927
REMARK INTRA:                  -0.943
REMARK UNBOUND:                -0.943
REMARK SMILES CC[C@H](CC[C@H](C)[C@@H]1CC[C@@H]2C3=CC[C@@H]4C[C@H](O)CC[C@]4(C)[C@@H]3CC[C@]21C)C(C)C
REMARK SMILES IDX 5 1 4 2 3 3 2 4 1 5 28 6 29 7 30 8 6 9 7 10 8 11 9 12 26 13
REMARK SMILES IDX 10 14 11 15 25 16 27 17 12 18 24 19 23 20 13 21 21 22 14 23
REMARK SMILES IDX 15 24 20 25 22 26 16 27 19 28 17 29 18 30
REMARK H PARENT 18 31
REMARK Flexibility Score: inf
ROOT
ATOM      1  C   UNL     1     -36.286  28.451  -1.632  1.00  0.00     0.004 C 
ENDROOT
BRANCH   1   2
ATOM      2  C   UNL     1     -34.801  28.830  -1.783  1.00  0.00     0.004 C 
BRANCH   2   3
ATOM      3  C   UNL     1     -34.581  30.260  -2.363  1.00  0.00    -0.009 C 
BRANCH   3   4
ATOM      4  C   UNL     1     -33.108  30.419  -2.844  1.00  0.00     0.000 C 
ATOM      5  C   UNL     1     -32.159  30.965  -1.773  1.00  0.00     0.004 C 
ENDBRANCH   3   4
BRANCH   3   6
ATOM      6  C   UNL     1     -35.656  30.597  -3.475  1.00  0.00    -0.014 C 
ATOM      7  C   UNL     1     -35.094  30.925  -4.873  1.00  0.00     0.007 C 
ATOM      8  C   UNL     1     -36.563  31.761  -3.035  1.00  0.00     0.007 C 
ENDBRANCH   3   6
ENDBRANCH   2   3
ENDBRANCH   1   2
BRANCH   1   9
ATOM      9  C   UNL     1     -36.505  26.940  -1.338  1.00  0.00    -0.011 C 
ATOM     10  C   UNL     1     -36.537  26.150  -2.661  1.00  0.00     0.008 C 
BRANCH   9  11
ATOM     11  C   UNL     1     -37.786  26.609  -0.487  1.00  0.00    -0.002 C 
ATOM     12  C   UNL     1     -38.827  27.744  -0.302  1.00  0.00     0.005 C 
ATOM     13  C   UNL     1     -37.567  26.043   0.942  1.00  0.00    -0.023 C 
ATOM     14  C   UNL     1     -39.514  27.484   1.054  1.00  0.00     0.009 C 
ATOM     15  C   UNL     1     -38.996  26.111   1.484  1.00  0.00     0.021 C 
ATOM     16  C   UNL     1     -37.122  24.559   0.985  1.00  0.00     0.008 C 
ATOM     17  C   UNL     1     -36.588  26.930   1.771  1.00  0.00     0.012 C 
ATOM     18  C   UNL     1     -39.048  25.661   2.929  1.00  0.00    -0.067 C 
ATOM     19  C   UNL     1     -37.167  23.993   2.427  1.00  0.00     0.009 C 
ATOM     20  C   UNL     1     -38.525  24.242   3.172  1.00  0.00     0.021 C 
ATOM     21  C   UNL     1     -39.788  26.317   3.836  1.00  0.00    -0.027 C 
ATOM     22  C   UNL     1     -38.543  23.746   4.681  1.00  0.00    -0.023 C 
ATOM     23  C   UNL     1     -39.855  25.890   5.263  1.00  0.00     0.031 C 
ATOM     24  C   UNL     1     -39.777  24.359   5.426  1.00  0.00     0.002 C 
ATOM     25  C   UNL     1     -37.242  24.131   5.454  1.00  0.00     0.010 C 
ATOM     26  C   UNL     1     -38.677  22.194   4.651  1.00  0.00     0.012 C 
ATOM     27  C   UNL     1     -39.818  23.985   6.931  1.00  0.00     0.036 C 
ATOM     28  C   UNL     1     -37.273  23.742   6.944  1.00  0.00     0.032 C 
ATOM     29  C   UNL     1     -38.503  24.274   7.691  1.00  0.00     0.114 C 
BRANCH  29  30
ATOM     30  O   UNL     1     -38.345  25.645   7.938  1.00  0.00    -0.393 OA
ATOM     31  H   UNL     1     -38.633  25.807   8.875  1.00  0.00     0.210 HD
ENDBRANCH  29  30
ENDBRANCH   9  11
ENDBRANCH   1   9
TORSDOF 7
ENDMDL
