MODEL 1
REMARK VINA RESULT:    -7.918      0.000      0.000
REMARK INTER + INTRA:          -9.859
REMARK INTER:                  -9.538
REMARK INTRA:                  -0.320
REMARK UNBOUND:                -0.320
REMARK SMILES O=c1c(O)c(-c2ccc(O)c(O)c2)oc2cc(O)cc(O)c12
REMARK SMILES IDX 5 1 3 2 2 3 1 4 22 5 20 6 19 7 17 8 16 9 15 10 14 11 6 12
REMARK SMILES IDX 7 13 8 14 9 15 13 16 11 17 10 18 12 20 4 22 21 24 18 26
REMARK H PARENT 10 19 12 21 4 23 21 25 18 27
REMARK Flexibility Score: inf
ROOT
ATOM      1  C   UNL     1      14.629  -5.469  13.511  1.00  0.00     0.180 A 
ATOM      2  C   UNL     1      13.443  -4.870  13.969  1.00  0.00     0.208 A 
ATOM      3  C   UNL     1      12.679  -5.532  14.943  1.00  0.00     0.238 A 
ATOM      4  O   UNL     1      11.647  -4.966  15.390  1.00  0.00    -0.285 OA
ATOM      5  C   UNL     1      13.100  -6.792  15.433  1.00  0.00     0.111 A 
ATOM      6  C   UNL     1      12.383  -7.570  16.391  1.00  0.00     0.134 A 
ATOM      7  C   UNL     1      12.958  -8.741  16.900  1.00  0.00     0.093 A 
ATOM      8  C   UNL     1      14.194  -9.194  16.441  1.00  0.00     0.123 A 
ATOM      9  C   UNL     1      14.877  -8.472  15.462  1.00  0.00     0.094 A 
ATOM     10  C   UNL     1      14.345  -7.281  14.960  1.00  0.00     0.146 A 
ATOM     11  O   UNL     1      15.032  -6.619  14.037  1.00  0.00    -0.452 OA
ENDROOT
BRANCH   1  12
ATOM     12  C   UNL     1      15.476  -4.844  12.468  1.00  0.00     0.025 A 
ATOM     13  C   UNL     1      16.471  -3.906  12.799  1.00  0.00     0.016 A 
ATOM     14  C   UNL     1      17.241  -3.312  11.796  1.00  0.00     0.051 A 
ATOM     15  C   UNL     1      17.021  -3.633  10.451  1.00  0.00     0.157 A 
ATOM     16  C   UNL     1      15.245  -5.147  11.116  1.00  0.00     0.062 A 
ATOM     17  C   UNL     1      16.019  -4.550  10.110  1.00  0.00     0.158 A 
BRANCH  15  18
ATOM     18  O   UNL     1      17.788  -3.043   9.448  1.00  0.00    -0.504 OA
ATOM     19  H   UNL     1      18.788  -3.198   9.386  1.00  0.00     0.293 HD
ENDBRANCH  15  18
BRANCH  17  20
ATOM     20  O   UNL     1      15.795  -4.863   8.770  1.00  0.00    -0.504 OA
ATOM     21  H   UNL     1      16.489  -4.669   8.058  1.00  0.00     0.293 HD
ENDBRANCH  17  20
ENDBRANCH   1  12
BRANCH   2  22
ATOM     22  O   UNL     1      13.058  -3.615  13.488  1.00  0.00    -0.502 OA
ATOM     23  H   UNL     1      12.186  -3.467  12.995  1.00  0.00     0.293 HD
ENDBRANCH   2  22
BRANCH   6  24
ATOM     24  O   UNL     1      11.099  -7.256  16.848  1.00  0.00    -0.507 OA
ATOM     25  H   UNL     1      10.330  -6.979  16.257  1.00  0.00     0.293 HD
ENDBRANCH   6  24
BRANCH   8  26
ATOM     26  O   UNL     1      14.730 -10.371  16.960  1.00  0.00    -0.508 OA
ATOM     27  H   UNL     1      14.689 -11.243  16.445  1.00  0.00     0.293 HD
ENDBRANCH   8  26
TORSDOF 6
ENDMDL
MODEL 2
REMARK VINA RESULT:    -7.859      2.368      8.042
REMARK INTER + INTRA:          -9.787
REMARK INTER:                  -9.509
REMARK INTRA:                  -0.279
REMARK UNBOUND:                -0.320
REMARK SMILES O=c1c(O)c(-c2ccc(O)c(O)c2)oc2cc(O)cc(O)c12
REMARK SMILES IDX 5 1 3 2 2 3 1 4 22 5 20 6 19 7 17 8 16 9 15 10 14 11 6 12
REMARK SMILES IDX 7 13 8 14 9 15 13 16 11 17 10 18 12 20 4 22 21 24 18 26
REMARK H PARENT 10 19 12 21 4 23 21 25 18 27
REMARK Flexibility Score: inf
ROOT
ATOM      1  C   UNL     1      16.670  -3.817  11.811  1.00  0.00     0.180 A 
ATOM      2  C   UNL     1      17.634  -3.056  12.495  1.00  0.00     0.208 A 
ATOM      3  C   UNL     1      18.582  -2.333  11.754  1.00  0.00     0.238 A 
ATOM      4  O   UNL     1      19.408  -1.610  12.369  1.00  0.00    -0.285 OA
ATOM      5  C   UNL     1      18.565  -2.393  10.339  1.00  0.00     0.111 A 
ATOM      6  C   UNL     1      19.502  -1.733   9.489  1.00  0.00     0.134 A 
ATOM      7  C   UNL     1      19.312  -1.756   8.101  1.00  0.00     0.093 A 
ATOM      8  C   UNL     1      18.257  -2.467   7.531  1.00  0.00     0.123 A 
ATOM      9  C   UNL     1      17.369  -3.166   8.351  1.00  0.00     0.094 A 
ATOM     10  C   UNL     1      17.512  -3.132   9.740  1.00  0.00     0.146 A 
ATOM     11  O   UNL     1      16.639  -3.800  10.484  1.00  0.00    -0.452 OA
ENDROOT
BRANCH   1  12
ATOM     12  C   UNL     1      15.653  -4.625  12.523  1.00  0.00     0.025 A 
ATOM     13  C   UNL     1      15.768  -6.023  12.622  1.00  0.00     0.016 A 
ATOM     14  C   UNL     1      14.784  -6.767  13.279  1.00  0.00     0.051 A 
ATOM     15  C   UNL     1      13.667  -6.130  13.832  1.00  0.00     0.157 A 
ATOM     16  C   UNL     1      14.521  -3.993  13.062  1.00  0.00     0.062 A 
ATOM     17  C   UNL     1      13.534  -4.740  13.721  1.00  0.00     0.158 A 
BRANCH  15  18
ATOM     18  O   UNL     1      12.685  -6.868  14.489  1.00  0.00    -0.504 OA
ATOM     19  H   UNL     1      12.151  -6.476  15.256  1.00  0.00     0.293 HD
ENDBRANCH  15  18
BRANCH  17  20
ATOM     20  O   UNL     1      12.417  -4.108  14.266  1.00  0.00    -0.504 OA
ATOM     21  H   UNL     1      11.900  -3.406  13.750  1.00  0.00     0.293 HD
ENDBRANCH  17  20
ENDBRANCH   1  12
BRANCH   2  22
ATOM     22  O   UNL     1      17.618  -2.993  13.891  1.00  0.00    -0.502 OA
ATOM     23  H   UNL     1      17.775  -2.131  14.398  1.00  0.00     0.293 HD
ENDBRANCH   2  22
BRANCH   6  24
ATOM     24  O   UNL     1      20.643  -1.070   9.951  1.00  0.00    -0.507 OA
ATOM     25  H   UNL     1      20.649  -0.380  10.686  1.00  0.00     0.293 HD
ENDBRANCH   6  24
BRANCH   8  26
ATOM     26  O   UNL     1      18.107  -2.481   6.146  1.00  0.00    -0.508 OA
ATOM     27  H   UNL     1      18.151  -3.345   5.618  1.00  0.00     0.293 HD
ENDBRANCH   8  26
TORSDOF 6
ENDMDL
MODEL 3
REMARK VINA RESULT:    -7.832     14.914     16.850
REMARK INTER + INTRA:          -9.755
REMARK INTER:                  -9.466
REMARK INTRA:                  -0.289
REMARK UNBOUND:                -0.320
REMARK SMILES O=c1c(O)c(-c2ccc(O)c(O)c2)oc2cc(O)cc(O)c12
REMARK SMILES IDX 5 1 3 2 2 3 1 4 22 5 20 6 19 7 17 8 16 9 15 10 14 11 6 12
REMARK SMILES IDX 7 13 8 14 9 15 13 16 11 17 10 18 12 20 4 22 21 24 18 26
REMARK H PARENT 10 19 12 21 4 23 21 25 18 27
REMARK Flexibility Score: inf
ROOT
ATOM      1  C   UNL     1      22.037 -17.760   6.738  1.00  0.00     0.180 A 
ATOM      2  C   UNL     1      20.958 -16.943   7.118  1.00  0.00     0.208 A 
ATOM      3  C   UNL     1      19.934 -16.691   6.190  1.00  0.00     0.238 A 
ATOM      4  O   UNL     1      18.944 -16.005   6.553  1.00  0.00    -0.285 OA
ATOM      5  C   UNL     1      20.010 -17.246   4.890  1.00  0.00     0.111 A 
ATOM      6  C   UNL     1      19.051 -17.025   3.857  1.00  0.00     0.134 A 
ATOM      7  C   UNL     1      19.159 -17.728   2.650  1.00  0.00     0.093 A 
ATOM      8  C   UNL     1      20.226 -18.594   2.416  1.00  0.00     0.123 A 
ATOM      9  C   UNL     1      21.203 -18.773   3.397  1.00  0.00     0.094 A 
ATOM     10  C   UNL     1      21.103 -18.112   4.624  1.00  0.00     0.146 A 
ATOM     11  O   UNL     1      22.047 -18.318   5.534  1.00  0.00    -0.452 OA
ENDROOT
BRANCH   1  12
ATOM     12  C   UNL     1      23.166 -18.050   7.652  1.00  0.00     0.025 A 
ATOM     13  C   UNL     1      24.168 -17.097   7.902  1.00  0.00     0.016 A 
ATOM     14  C   UNL     1      25.237 -17.402   8.750  1.00  0.00     0.051 A 
ATOM     15  C   UNL     1      25.327 -18.665   9.348  1.00  0.00     0.157 A 
ATOM     16  C   UNL     1      23.271 -19.322   8.238  1.00  0.00     0.062 A 
ATOM     17  C   UNL     1      24.343 -19.628   9.089  1.00  0.00     0.158 A 
BRANCH  15  18
ATOM     18  O   UNL     1      26.389 -18.972  10.195  1.00  0.00    -0.504 OA
ATOM     19  H   UNL     1      27.351 -18.920   9.880  1.00  0.00     0.293 HD
ENDBRANCH  15  18
BRANCH  17  20
ATOM     20  O   UNL     1      24.438 -20.888   9.679  1.00  0.00    -0.504 OA
ATOM     21  H   UNL     1      24.421 -21.735   9.125  1.00  0.00     0.293 HD
ENDBRANCH  17  20
ENDBRANCH   1  12
BRANCH   2  22
ATOM     22  O   UNL     1      20.891 -16.424   8.414  1.00  0.00    -0.502 OA
ATOM     23  H   UNL     1      21.700 -16.043   8.890  1.00  0.00     0.293 HD
ENDBRANCH   2  22
BRANCH   6  24
ATOM     24  O   UNL     1      17.997 -16.111   3.953  1.00  0.00    -0.507 OA
ATOM     25  H   UNL     1      17.622 -15.582   3.180  1.00  0.00     0.293 HD
ENDBRANCH   6  24
BRANCH   8  26
ATOM     26  O   UNL     1      20.311 -19.266   1.198  1.00  0.00    -0.508 OA
ATOM     27  H   UNL     1      20.007 -18.834   0.333  1.00  0.00     0.293 HD
ENDBRANCH   8  26
TORSDOF 6
ENDMDL
MODEL 4
REMARK VINA RESULT:    -7.808      4.263      8.250
REMARK INTER + INTRA:          -9.726
REMARK INTER:                 -10.133
REMARK INTRA:                   0.407
REMARK UNBOUND:                -0.320
REMARK SMILES O=c1c(O)c(-c2ccc(O)c(O)c2)oc2cc(O)cc(O)c12
REMARK SMILES IDX 5 1 3 2 2 3 1 4 22 5 20 6 19 7 17 8 16 9 15 10 14 11 6 12
REMARK SMILES IDX 7 13 8 14 9 15 13 16 11 17 10 18 12 20 4 22 21 24 18 26
REMARK H PARENT 10 19 12 21 4 23 21 25 18 27
REMARK Flexibility Score: inf
ROOT
ATOM      1  C   UNL     1      15.804  -3.689   9.928  1.00  0.00     0.180 A 
ATOM      2  C   UNL     1      16.524  -3.317  11.076  1.00  0.00     0.208 A 
ATOM      3  C   UNL     1      17.795  -2.739  10.925  1.00  0.00     0.238 A 
ATOM      4  O   UNL     1      18.412  -2.357  11.953  1.00  0.00    -0.285 OA
ATOM      5  C   UNL     1      18.336  -2.556   9.629  1.00  0.00     0.111 A 
ATOM      6  C   UNL     1      19.630  -2.017   9.359  1.00  0.00     0.134 A 
ATOM      7  C   UNL     1      20.010  -1.761   8.036  1.00  0.00     0.093 A 
ATOM      8  C   UNL     1      19.170  -2.083   6.971  1.00  0.00     0.123 A 
ATOM      9  C   UNL     1      17.926  -2.665   7.220  1.00  0.00     0.094 A 
ATOM     10  C   UNL     1      17.504  -2.900   8.531  1.00  0.00     0.146 A 
ATOM     11  O   UNL     1      16.310  -3.445   8.725  1.00  0.00    -0.452 OA
ENDROOT
BRANCH   1  12
ATOM     12  C   UNL     1      14.469  -4.327  10.008  1.00  0.00     0.025 A 
ATOM     13  C   UNL     1      13.986  -4.864  11.215  1.00  0.00     0.016 A 
ATOM     14  C   UNL     1      12.733  -5.482  11.260  1.00  0.00     0.051 A 
ATOM     15  C   UNL     1      11.953  -5.585  10.103  1.00  0.00     0.157 A 
ATOM     16  C   UNL     1      13.691  -4.450   8.845  1.00  0.00     0.062 A 
ATOM     17  C   UNL     1      12.434  -5.070   8.892  1.00  0.00     0.158 A 
BRANCH  15  18
ATOM     18  O   UNL     1      10.703  -6.198  10.145  1.00  0.00    -0.504 OA
ATOM     19  H   UNL     1      10.526  -7.002  10.737  1.00  0.00     0.293 HD
ENDBRANCH  15  18
BRANCH  17  20
ATOM     20  O   UNL     1      11.658  -5.180   7.738  1.00  0.00    -0.504 OA
ATOM     21  H   UNL     1      11.298  -4.362   7.263  1.00  0.00     0.293 HD
ENDBRANCH  17  20
ENDBRANCH   1  12
BRANCH   2  22
ATOM     22  O   UNL     1      15.962  -3.485  12.345  1.00  0.00    -0.502 OA
ATOM     23  H   UNL     1      15.176  -2.936  12.669  1.00  0.00     0.293 HD
ENDBRANCH   2  22
BRANCH   6  24
ATOM     24  O   UNL     1      20.583  -1.746  10.345  1.00  0.00    -0.507 OA
ATOM     25  H   UNL     1      20.401  -1.749  11.338  1.00  0.00     0.293 HD
ENDBRANCH   6  24
BRANCH   8  26
ATOM     26  O   UNL     1      19.586  -1.828   5.666  1.00  0.00    -0.508 OA
ATOM     27  H   UNL     1      19.705  -2.576   4.993  1.00  0.00     0.293 HD
ENDBRANCH   8  26
TORSDOF 6
ENDMDL
MODEL 5
REMARK VINA RESULT:    -7.789      5.107      8.060
REMARK INTER + INTRA:          -9.703
REMARK INTER:                  -9.854
REMARK INTRA:                   0.152
REMARK UNBOUND:                -0.320
REMARK SMILES O=c1c(O)c(-c2ccc(O)c(O)c2)oc2cc(O)cc(O)c12
REMARK SMILES IDX 5 1 3 2 2 3 1 4 22 5 20 6 19 7 17 8 16 9 15 10 14 11 6 12
REMARK SMILES IDX 7 13 8 14 9 15 13 16 11 17 10 18 12 20 4 22 21 24 18 26
REMARK H PARENT 10 19 12 21 4 23 21 25 18 27
REMARK Flexibility Score: inf
ROOT
ATOM      1  C   UNL     1      19.216  -2.385  11.967  1.00  0.00     0.180 A 
ATOM      2  C   UNL     1      19.727  -1.930  10.739  1.00  0.00     0.208 A 
ATOM      3  C   UNL     1      18.966  -2.117   9.574  1.00  0.00     0.238 A 
ATOM      4  O   UNL     1      19.403  -1.659   8.486  1.00  0.00    -0.285 OA
ATOM      5  C   UNL     1      17.712  -2.770   9.648  1.00  0.00     0.111 A 
ATOM      6  C   UNL     1      16.874  -3.048   8.527  1.00  0.00     0.134 A 
ATOM      7  C   UNL     1      15.596  -3.582   8.734  1.00  0.00     0.093 A 
ATOM      8  C   UNL     1      15.151  -3.907  10.014  1.00  0.00     0.123 A 
ATOM      9  C   UNL     1      15.985  -3.695  11.113  1.00  0.00     0.094 A 
ATOM     10  C   UNL     1      17.251  -3.130  10.942  1.00  0.00     0.146 A 
ATOM     11  O   UNL     1      18.008  -2.935  12.014  1.00  0.00    -0.452 OA
ENDROOT
BRANCH   1  12
ATOM     12  C   UNL     1      19.971  -2.247  13.234  1.00  0.00     0.025 A 
ATOM     13  C   UNL     1      20.698  -1.080  13.529  1.00  0.00     0.016 A 
ATOM     14  C   UNL     1      21.422  -0.982  14.720  1.00  0.00     0.051 A 
ATOM     15  C   UNL     1      21.442  -2.050  15.626  1.00  0.00     0.157 A 
ATOM     16  C   UNL     1      20.011  -3.323  14.136  1.00  0.00     0.062 A 
ATOM     17  C   UNL     1      20.737  -3.224  15.332  1.00  0.00     0.158 A 
BRANCH  15  18
ATOM     18  O   UNL     1      22.161  -1.955  16.815  1.00  0.00    -0.504 OA
ATOM     19  H   UNL     1      22.025  -2.617  17.571  1.00  0.00     0.293 HD
ENDBRANCH  15  18
BRANCH  17  20
ATOM     20  O   UNL     1      20.764  -4.289  16.231  1.00  0.00    -0.504 OA
ATOM     21  H   UNL     1      21.512  -4.394  16.906  1.00  0.00     0.293 HD
ENDBRANCH  17  20
ENDBRANCH   1  12
BRANCH   2  22
ATOM     22  O   UNL     1      20.957  -1.268  10.691  1.00  0.00    -0.502 OA
ATOM     23  H   UNL     1      21.186  -0.597   9.968  1.00  0.00     0.293 HD
ENDBRANCH   2  22
BRANCH   6  24
ATOM     24  O   UNL     1      17.258  -2.846   7.197  1.00  0.00    -0.507 OA
ATOM     25  H   UNL     1      17.693  -3.544   6.612  1.00  0.00     0.293 HD
ENDBRANCH   6  24
BRANCH   8  26
ATOM     26  O   UNL     1      13.880  -4.452  10.181  1.00  0.00    -0.508 OA
ATOM     27  H   UNL     1      13.728  -5.454  10.179  1.00  0.00     0.293 HD
ENDBRANCH   8  26
TORSDOF 6
ENDMDL
MODEL 6
REMARK VINA RESULT:    -7.714     13.278     14.498
REMARK INTER + INTRA:          -9.613
REMARK INTER:                  -9.288
REMARK INTRA:                  -0.326
REMARK UNBOUND:                -0.320
REMARK SMILES O=c1c(O)c(-c2ccc(O)c(O)c2)oc2cc(O)cc(O)c12
REMARK SMILES IDX 5 1 3 2 2 3 1 4 22 5 20 6 19 7 17 8 16 9 15 10 14 11 6 12
REMARK SMILES IDX 7 13 8 14 9 15 13 16 11 17 10 18 12 20 4 22 21 24 18 26
REMARK H PARENT 10 19 12 21 4 23 21 25 18 27
REMARK Flexibility Score: inf
ROOT
ATOM      1  C   UNL     1      19.989 -17.351   7.285  1.00  0.00     0.180 A 
ATOM      2  C   UNL     1      19.408 -17.230   6.011  1.00  0.00     0.208 A 
ATOM      3  C   UNL     1      18.035 -17.482   5.862  1.00  0.00     0.238 A 
ATOM      4  O   UNL     1      17.509 -17.318   4.730  1.00  0.00    -0.285 OA
ATOM      5  C   UNL     1      17.263 -17.867   6.984  1.00  0.00     0.111 A 
ATOM      6  C   UNL     1      15.873 -18.186   6.942  1.00  0.00     0.134 A 
ATOM      7  C   UNL     1      15.182 -18.428   8.136  1.00  0.00     0.093 A 
ATOM      8  C   UNL     1      15.844 -18.427   9.363  1.00  0.00     0.123 A 
ATOM      9  C   UNL     1      17.216 -18.176   9.410  1.00  0.00     0.094 A 
ATOM     10  C   UNL     1      17.925 -17.895   8.240  1.00  0.00     0.146 A 
ATOM     11  O   UNL     1      19.227 -17.650   8.330  1.00  0.00    -0.452 OA
ENDROOT
BRANCH   1  12
ATOM     12  C   UNL     1      21.434 -17.126   7.517  1.00  0.00     0.025 A 
ATOM     13  C   UNL     1      22.378 -18.146   7.298  1.00  0.00     0.016 A 
ATOM     14  C   UNL     1      23.734 -17.917   7.547  1.00  0.00     0.051 A 
ATOM     15  C   UNL     1      24.165 -16.675   8.029  1.00  0.00     0.157 A 
ATOM     16  C   UNL     1      21.870 -15.889   8.020  1.00  0.00     0.062 A 
ATOM     17  C   UNL     1      23.231 -15.660   8.268  1.00  0.00     0.158 A 
BRANCH  15  18
ATOM     18  O   UNL     1      25.517 -16.443   8.276  1.00  0.00    -0.504 OA
ATOM     19  H   UNL     1      25.914 -16.558   9.201  1.00  0.00     0.293 HD
ENDBRANCH  15  18
BRANCH  17  20
ATOM     20  O   UNL     1      23.661 -14.426   8.755  1.00  0.00    -0.504 OA
ATOM     21  H   UNL     1      24.603 -14.293   9.103  1.00  0.00     0.293 HD
ENDBRANCH  17  20
ENDBRANCH   1  12
BRANCH   2  22
ATOM     22  O   UNL     1      20.183 -16.826   4.920  1.00  0.00    -0.502 OA
ATOM     23  H   UNL     1      21.066 -16.342   5.030  1.00  0.00     0.293 HD
ENDBRANCH   2  22
BRANCH   6  24
ATOM     24  O   UNL     1      15.135 -18.304   5.760  1.00  0.00    -0.507 OA
ATOM     25  H   UNL     1      14.455 -19.027   5.576  1.00  0.00     0.293 HD
ENDBRANCH   6  24
BRANCH   8  26
ATOM     26  O   UNL     1      15.128 -18.688  10.529  1.00  0.00    -0.508 OA
ATOM     27  H   UNL     1      14.923 -17.957  11.200  1.00  0.00     0.293 HD
ENDBRANCH   8  26
TORSDOF 6
ENDMDL
MODEL 7
REMARK VINA RESULT:    -7.649      3.197      7.503
REMARK INTER + INTRA:          -9.535
REMARK INTER:                  -9.216
REMARK INTRA:                  -0.319
REMARK UNBOUND:                -0.320
REMARK SMILES O=c1c(O)c(-c2ccc(O)c(O)c2)oc2cc(O)cc(O)c12
REMARK SMILES IDX 5 1 3 2 2 3 1 4 22 5 20 6 19 7 17 8 16 9 15 10 14 11 6 12
REMARK SMILES IDX 7 13 8 14 9 15 13 16 11 17 10 18 12 20 4 22 21 24 18 26
REMARK H PARENT 10 19 12 21 4 23 21 25 18 27
REMARK Flexibility Score: inf
ROOT
ATOM      1  C   UNL     1      16.848  -3.690  13.802  1.00  0.00     0.180 A 
ATOM      2  C   UNL     1      16.984  -3.350  12.445  1.00  0.00     0.208 A 
ATOM      3  C   UNL     1      18.194  -2.794  12.000  1.00  0.00     0.238 A 
ATOM      4  O   UNL     1      18.330  -2.542  10.775  1.00  0.00    -0.285 OA
ATOM      5  C   UNL     1      19.246  -2.569  12.920  1.00  0.00     0.111 A 
ATOM      6  C   UNL     1      20.501  -1.975  12.588  1.00  0.00     0.134 A 
ATOM      7  C   UNL     1      21.517  -1.921  13.551  1.00  0.00     0.093 A 
ATOM      8  C   UNL     1      21.303  -2.380  14.849  1.00  0.00     0.123 A 
ATOM      9  C   UNL     1      20.060  -2.909  15.202  1.00  0.00     0.094 A 
ATOM     10  C   UNL     1      19.039  -3.010  14.254  1.00  0.00     0.146 A 
ATOM     11  O   UNL     1      17.876  -3.529  14.627  1.00  0.00    -0.452 OA
ENDROOT
BRANCH   1  12
ATOM     12  C   UNL     1      15.594  -4.258  14.351  1.00  0.00     0.025 A 
ATOM     13  C   UNL     1      15.337  -5.639  14.307  1.00  0.00     0.016 A 
ATOM     14  C   UNL     1      14.136  -6.149  14.810  1.00  0.00     0.051 A 
ATOM     15  C   UNL     1      13.172  -5.288  15.348  1.00  0.00     0.157 A 
ATOM     16  C   UNL     1      14.616  -3.396  14.873  1.00  0.00     0.062 A 
ATOM     17  C   UNL     1      13.411  -3.908  15.377  1.00  0.00     0.158 A 
BRANCH  15  18
ATOM     18  O   UNL     1      11.975  -5.793  15.851  1.00  0.00    -0.504 OA
ATOM     19  H   UNL     1      11.087  -5.594  15.405  1.00  0.00     0.293 HD
ENDBRANCH  15  18
BRANCH  17  20
ATOM     20  O   UNL     1      12.447  -3.051  15.906  1.00  0.00    -0.504 OA
ATOM     21  H   UNL     1      12.532  -2.671  16.841  1.00  0.00     0.293 HD
ENDBRANCH  17  20
ENDBRANCH   1  12
BRANCH   2  22
ATOM     22  O   UNL     1      15.940  -3.601  11.549  1.00  0.00    -0.502 OA
ATOM     23  H   UNL     1      15.326  -2.870  11.213  1.00  0.00     0.293 HD
ENDBRANCH   2  22
BRANCH   6  24
ATOM     24  O   UNL     1      20.788  -1.402  11.346  1.00  0.00    -0.507 OA
ATOM     25  H   UNL     1      21.623  -0.877  11.134  1.00  0.00     0.293 HD
ENDBRANCH   6  24
BRANCH   8  26
ATOM     26  O   UNL     1      22.331  -2.297  15.786  1.00  0.00    -0.508 OA
ATOM     27  H   UNL     1      23.296  -2.468  15.529  1.00  0.00     0.293 HD
ENDBRANCH   8  26
TORSDOF 6
ENDMDL
MODEL 8
REMARK VINA RESULT:    -7.609     13.349     15.443
REMARK INTER + INTRA:          -9.487
REMARK INTER:                  -9.274
REMARK INTRA:                  -0.212
REMARK UNBOUND:                -0.320
REMARK SMILES O=c1c(O)c(-c2ccc(O)c(O)c2)oc2cc(O)cc(O)c12
REMARK SMILES IDX 5 1 3 2 2 3 1 4 22 5 20 6 19 7 17 8 16 9 15 10 14 11 6 12
REMARK SMILES IDX 7 13 8 14 9 15 13 16 11 17 10 18 12 20 4 22 21 24 18 26
REMARK H PARENT 10 19 12 21 4 23 21 25 18 27
REMARK Flexibility Score: inf
ROOT
ATOM      1  C   UNL     1      19.635 -17.772   8.036  1.00  0.00     0.180 A 
ATOM      2  C   UNL     1      20.272 -16.573   7.673  1.00  0.00     0.208 A 
ATOM      3  C   UNL     1      21.666 -16.472   7.813  1.00  0.00     0.238 A 
ATOM      4  O   UNL     1      22.237 -15.417   7.435  1.00  0.00    -0.285 OA
ATOM      5  C   UNL     1      22.402 -17.565   8.329  1.00  0.00     0.111 A 
ATOM      6  C   UNL     1      23.812 -17.561   8.551  1.00  0.00     0.134 A 
ATOM      7  C   UNL     1      24.455 -18.742   8.944  1.00  0.00     0.093 A 
ATOM      8  C   UNL     1      23.731 -19.909   9.183  1.00  0.00     0.123 A 
ATOM      9  C   UNL     1      22.344 -19.909   9.027  1.00  0.00     0.094 A 
ATOM     10  C   UNL     1      21.679 -18.756   8.602  1.00  0.00     0.146 A 
ATOM     11  O   UNL     1      20.361 -18.802   8.455  1.00  0.00    -0.452 OA
ENDROOT
BRANCH   1  12
ATOM     12  C   UNL     1      18.167 -17.945   7.940  1.00  0.00     0.025 A 
ATOM     13  C   UNL     1      17.520 -18.025   6.694  1.00  0.00     0.016 A 
ATOM     14  C   UNL     1      16.131 -18.165   6.628  1.00  0.00     0.051 A 
ATOM     15  C   UNL     1      15.369 -18.211   7.802  1.00  0.00     0.157 A 
ATOM     16  C   UNL     1      17.396 -17.972   9.114  1.00  0.00     0.062 A 
ATOM     17  C   UNL     1      16.002 -18.112   9.047  1.00  0.00     0.158 A 
BRANCH  15  18
ATOM     18  O   UNL     1      13.984 -18.352   7.740  1.00  0.00    -0.504 OA
ATOM     19  H   UNL     1      13.498 -19.054   8.286  1.00  0.00     0.293 HD
ENDBRANCH  15  18
BRANCH  17  20
ATOM     20  O   UNL     1      15.241 -18.151  10.214  1.00  0.00    -0.504 OA
ATOM     21  H   UNL     1      14.906 -17.304  10.657  1.00  0.00     0.293 HD
ENDBRANCH  17  20
ENDBRANCH   1  12
BRANCH   2  22
ATOM     22  O   UNL     1      19.529 -15.514   7.144  1.00  0.00    -0.502 OA
ATOM     23  H   UNL     1      18.523 -15.558   7.031  1.00  0.00     0.293 HD
ENDBRANCH   2  22
BRANCH   6  24
ATOM     24  O   UNL     1      24.617 -16.424   8.430  1.00  0.00    -0.507 OA
ATOM     25  H   UNL     1      24.560 -15.612   9.026  1.00  0.00     0.293 HD
ENDBRANCH   6  24
BRANCH   8  26
ATOM     26  O   UNL     1      24.401 -21.062   9.588  1.00  0.00    -0.508 OA
ATOM     27  H   UNL     1      23.984 -21.715  10.241  1.00  0.00     0.293 HD
ENDBRANCH   8  26
TORSDOF 6
ENDMDL
MODEL 9
REMARK VINA RESULT:    -7.593      2.216      7.538
REMARK INTER + INTRA:          -9.467
REMARK INTER:                  -9.222
REMARK INTRA:                  -0.245
REMARK UNBOUND:                -0.320
REMARK SMILES O=c1c(O)c(-c2ccc(O)c(O)c2)oc2cc(O)cc(O)c12
REMARK SMILES IDX 5 1 3 2 2 3 1 4 22 5 20 6 19 7 17 8 16 9 15 10 14 11 6 12
REMARK SMILES IDX 7 13 8 14 9 15 13 16 11 17 10 18 12 20 4 22 21 24 18 26
REMARK H PARENT 10 19 12 21 4 23 21 25 18 27
REMARK Flexibility Score: inf
ROOT
ATOM      1  C   UNL     1      15.689  -3.936  12.156  1.00  0.00     0.180 A 
ATOM      2  C   UNL     1      15.355  -3.799  10.797  1.00  0.00     0.208 A 
ATOM      3  C   UNL     1      16.275  -3.193   9.927  1.00  0.00     0.238 A 
ATOM      4  O   UNL     1      15.994  -3.122   8.703  1.00  0.00    -0.285 OA
ATOM      5  C   UNL     1      17.511  -2.718  10.429  1.00  0.00     0.111 A 
ATOM      6  C   UNL     1      18.502  -2.052   9.646  1.00  0.00     0.134 A 
ATOM      7  C   UNL     1      19.741  -1.741  10.219  1.00  0.00     0.093 A 
ATOM      8  C   UNL     1      20.002  -2.013  11.561  1.00  0.00     0.123 A 
ATOM      9  C   UNL     1      19.019  -2.609  12.352  1.00  0.00     0.094 A 
ATOM     10  C   UNL     1      17.785  -2.964  11.800  1.00  0.00     0.146 A 
ATOM     11  O   UNL     1      16.882  -3.539  12.583  1.00  0.00    -0.452 OA
ENDROOT
BRANCH   1  12
ATOM     12  C   UNL     1      14.760  -4.541  13.139  1.00  0.00     0.025 A 
ATOM     13  C   UNL     1      14.519  -5.926  13.160  1.00  0.00     0.016 A 
ATOM     14  C   UNL     1      13.620  -6.471  14.081  1.00  0.00     0.051 A 
ATOM     15  C   UNL     1      12.941  -5.643  14.982  1.00  0.00     0.157 A 
ATOM     16  C   UNL     1      14.062  -3.712  14.031  1.00  0.00     0.062 A 
ATOM     17  C   UNL     1      13.160  -4.260  14.956  1.00  0.00     0.158 A 
BRANCH  15  18
ATOM     18  O   UNL     1      12.046  -6.183  15.903  1.00  0.00    -0.504 OA
ATOM     19  H   UNL     1      12.015  -5.861  16.864  1.00  0.00     0.293 HD
ENDBRANCH  15  18
BRANCH  17  20
ATOM     20  O   UNL     1      12.478  -3.435  15.849  1.00  0.00    -0.504 OA
ATOM     21  H   UNL     1      12.005  -2.594  15.539  1.00  0.00     0.293 HD
ENDBRANCH  17  20
ENDBRANCH   1  12
BRANCH   2  22
ATOM     22  O   UNL     1      14.139  -4.295  10.319  1.00  0.00    -0.502 OA
ATOM     23  H   UNL     1      13.832  -5.244  10.495  1.00  0.00     0.293 HD
ENDBRANCH   2  22
BRANCH   6  24
ATOM     24  O   UNL     1      18.309  -1.652   8.320  1.00  0.00    -0.507 OA
ATOM     25  H   UNL     1      17.409  -1.505   7.889  1.00  0.00     0.293 HD
ENDBRANCH   6  24
BRANCH   8  26
ATOM     26  O   UNL     1      21.241  -1.675  12.102  1.00  0.00    -0.508 OA
ATOM     27  H   UNL     1      21.688  -2.254  12.803  1.00  0.00     0.293 HD
ENDBRANCH   8  26
TORSDOF 6
ENDMDL
