MODEL 1
REMARK VINA RESULT:    -4.224      0.000      0.000
REMARK INTER + INTRA:          -9.902
REMARK INTER:                  -7.682
REMARK INTRA:                  -2.220
REMARK UNBOUND:                -2.220
REMARK SMILES CCCCCCCCCCCCCCCC(=O)[O-]
REMARK SMILES IDX 9 1 10 2 11 3 12 4 13 5 14 6 15 7 16 8 17 9 18 10 8 11 7 12
REMARK SMILES IDX 6 13 5 14 4 15 3 16 2 17 1 18
REMARK H PARENT
REMARK Flexibility Score: inf
ROOT
ATOM      1  C   UNL     1      10.700   6.053  11.676  1.00  0.00     0.000 C 
ENDROOT
BRANCH   1   2
ATOM      2  C   UNL     1      11.800   6.499  10.705  1.00  0.00     0.000 C 
BRANCH   2   3
ATOM      3  C   UNL     1      12.782   5.351  10.422  1.00  0.00     0.000 C 
BRANCH   3   4
ATOM      4  C   UNL     1      12.566   4.144  11.350  1.00  0.00     0.000 C 
BRANCH   4   5
ATOM      5  C   UNL     1      12.432   2.821  10.575  1.00  0.00     0.000 C 
BRANCH   5   6
ATOM      6  C   UNL     1      11.148   2.045  10.925  1.00  0.00     0.006 C 
BRANCH   6   7
ATOM      7  C   UNL     1       9.850   2.796  10.581  1.00  0.00     0.053 C 
BRANCH   7   8
ATOM      8  C   UNL     1       9.707   3.056   9.112  1.00  0.00     0.041 C 
ATOM      9  O   UNL     1       9.406   2.117   8.329  1.00  0.00    -0.550 OA
ATOM     10  O   UNL     1       9.872   4.342   8.610  1.00  0.00    -0.550 OA
ENDBRANCH   7   8
ENDBRANCH   6   7
ENDBRANCH   5   6
ENDBRANCH   4   5
ENDBRANCH   3   4
ENDBRANCH   2   3
ENDBRANCH   1   2
BRANCH   1  11
ATOM     11  C   UNL     1      10.614   6.999  12.882  1.00  0.00     0.000 C 
BRANCH  11  12
ATOM     12  C   UNL     1      10.150   6.285  14.161  1.00  0.00    -0.000 C 
BRANCH  12  13
ATOM     13  C   UNL     1       9.857   4.792  13.931  1.00  0.00    -0.000 C 
BRANCH  13  14
ATOM     14  C   UNL     1      10.814   3.868  14.706  1.00  0.00    -0.000 C 
BRANCH  14  15
ATOM     15  C   UNL     1      10.465   2.369  14.642  1.00  0.00    -0.000 C 
BRANCH  15  16
ATOM     16  C   UNL     1      11.708   1.470  14.525  1.00  0.00    -0.000 C 
BRANCH  16  17
ATOM     17  C   UNL     1      12.699   1.683  15.680  1.00  0.00    -0.003 C 
ATOM     18  C   UNL     1      14.073   2.154  15.203  1.00  0.00     0.004 C 
ENDBRANCH  16  17
ENDBRANCH  15  16
ENDBRANCH  14  15
ENDBRANCH  13  14
ENDBRANCH  12  13
ENDBRANCH  11  12
ENDBRANCH   1  11
TORSDOF 14
ENDMDL
MODEL 2
REMARK VINA RESULT:    -4.176      5.045      7.004
REMARK INTER + INTRA:          -9.814
REMARK INTER:                  -9.073
REMARK INTRA:                  -0.741
REMARK UNBOUND:                -2.220
REMARK SMILES CCCCCCCCCCCCCCCC(=O)[O-]
REMARK SMILES IDX 9 1 10 2 11 3 12 4 13 5 14 6 15 7 16 8 17 9 18 10 8 11 7 12
REMARK SMILES IDX 6 13 5 14 4 15 3 16 2 17 1 18
REMARK H PARENT
REMARK Flexibility Score: inf
ROOT
ATOM      1  C   UNL     1      10.877   7.432  12.346  1.00  0.00     0.000 C 
ENDROOT
BRANCH   1   2
ATOM      2  C   UNL     1      11.548   8.474  11.443  1.00  0.00     0.000 C 
BRANCH   2   3
ATOM      3  C   UNL     1      11.209   9.901  11.904  1.00  0.00     0.000 C 
BRANCH   3   4
ATOM      4  C   UNL     1      12.153  10.957  11.305  1.00  0.00     0.000 C 
BRANCH   4   5
ATOM      5  C   UNL     1      12.520  10.657   9.841  1.00  0.00     0.000 C 
BRANCH   5   6
ATOM      6  C   UNL     1      12.766  11.930   9.009  1.00  0.00     0.006 C 
BRANCH   6   7
ATOM      7  C   UNL     1      12.231  13.216   9.661  1.00  0.00     0.053 C 
BRANCH   7   8
ATOM      8  C   UNL     1      12.745  14.457   8.996  1.00  0.00     0.041 C 
ATOM      9  O   UNL     1      13.547  15.215   9.603  1.00  0.00    -0.550 OA
ATOM     10  O   UNL     1      12.367  14.760   7.694  1.00  0.00    -0.550 OA
ENDBRANCH   7   8
ENDBRANCH   6   7
ENDBRANCH   5   6
ENDBRANCH   4   5
ENDBRANCH   3   4
ENDBRANCH   2   3
ENDBRANCH   1   2
BRANCH   1  11
ATOM     11  C   UNL     1      10.718   6.091  11.616  1.00  0.00     0.000 C 
BRANCH  11  12
ATOM     12  C   UNL     1      11.572   6.008  10.341  1.00  0.00    -0.000 C 
BRANCH  12  13
ATOM     13  C   UNL     1      12.752   5.030  10.484  1.00  0.00    -0.000 C 
BRANCH  13  14
ATOM     14  C   UNL     1      12.317   3.631  10.958  1.00  0.00    -0.000 C 
BRANCH  14  15
ATOM     15  C   UNL     1      13.266   2.962  11.969  1.00  0.00    -0.000 C 
BRANCH  15  16
ATOM     16  C   UNL     1      12.568   2.580  13.285  1.00  0.00    -0.000 C 
BRANCH  16  17
ATOM     17  C   UNL     1      13.357   1.534  14.088  1.00  0.00    -0.003 C 
ATOM     18  C   UNL     1      13.730   2.019  15.489  1.00  0.00     0.004 C 
ENDBRANCH  16  17
ENDBRANCH  15  16
ENDBRANCH  14  15
ENDBRANCH  13  14
ENDBRANCH  12  13
ENDBRANCH  11  12
ENDBRANCH   1  11
TORSDOF 14
ENDMDL
MODEL 3
REMARK VINA RESULT:    -4.131      4.122      6.745
REMARK INTER + INTRA:          -9.733
REMARK INTER:                  -8.249
REMARK INTRA:                  -1.484
REMARK UNBOUND:                -2.220
REMARK SMILES CCCCCCCCCCCCCCCC(=O)[O-]
REMARK SMILES IDX 9 1 10 2 11 3 12 4 13 5 14 6 15 7 16 8 17 9 18 10 8 11 7 12
REMARK SMILES IDX 6 13 5 14 4 15 3 16 2 17 1 18
REMARK H PARENT
REMARK Flexibility Score: inf
ROOT
ATOM      1  C   UNL     1      12.882  10.779  10.215  1.00  0.00     0.000 C 
ENDROOT
BRANCH   1   2
ATOM      2  C   UNL     1      11.874   9.624  10.172  1.00  0.00     0.000 C 
BRANCH   2   3
ATOM      3  C   UNL     1      11.506   9.162  11.592  1.00  0.00     0.000 C 
BRANCH   3   4
ATOM      4  C   UNL     1      11.349   7.636  11.697  1.00  0.00     0.000 C 
BRANCH   4   5
ATOM      5  C   UNL     1      11.966   6.896  10.498  1.00  0.00     0.000 C 
BRANCH   5   6
ATOM      6  C   UNL     1      12.539   5.516  10.872  1.00  0.00     0.006 C 
BRANCH   6   7
ATOM      7  C   UNL     1      11.488   4.393  10.917  1.00  0.00     0.053 C 
BRANCH   7   8
ATOM      8  C   UNL     1      11.265   3.759   9.577  1.00  0.00     0.041 C 
ATOM      9  O   UNL     1      12.047   2.862   9.162  1.00  0.00    -0.550 OA
ATOM     10  O   UNL     1      10.175   4.132   8.800  1.00  0.00    -0.550 OA
ENDBRANCH   7   8
ENDBRANCH   6   7
ENDBRANCH   5   6
ENDBRANCH   4   5
ENDBRANCH   3   4
ENDBRANCH   2   3
ENDBRANCH   1   2
BRANCH   1  11
ATOM     11  C   UNL     1      12.343  12.007   9.467  1.00  0.00     0.000 C 
BRANCH  11  12
ATOM     12  C   UNL     1      11.906  13.132  10.418  1.00  0.00    -0.000 C 
BRANCH  12  13
ATOM     13  C   UNL     1      12.326  12.872  11.875  1.00  0.00    -0.000 C 
BRANCH  13  14
ATOM     14  C   UNL     1      11.162  13.027  12.870  1.00  0.00    -0.000 C 
BRANCH  14  15
ATOM     15  C   UNL     1       9.758  12.842  12.265  1.00  0.00    -0.000 C 
BRANCH  15  16
ATOM     16  C   UNL     1       9.020  11.615  12.826  1.00  0.00    -0.000 C 
BRANCH  16  17
ATOM     17  C   UNL     1       9.720  11.020  14.058  1.00  0.00    -0.003 C 
ATOM     18  C   UNL     1       8.838  11.034  15.306  1.00  0.00     0.004 C 
ENDBRANCH  16  17
ENDBRANCH  15  16
ENDBRANCH  14  15
ENDBRANCH  13  14
ENDBRANCH  12  13
ENDBRANCH  11  12
ENDBRANCH   1  11
TORSDOF 14
ENDMDL
MODEL 4
REMARK VINA RESULT:    -4.113      3.927      6.155
REMARK INTER + INTRA:          -9.699
REMARK INTER:                  -8.331
REMARK INTRA:                  -1.368
REMARK UNBOUND:                -2.220
REMARK SMILES CCCCCCCCCCCCCCCC(=O)[O-]
REMARK SMILES IDX 9 1 10 2 11 3 12 4 13 5 14 6 15 7 16 8 17 9 18 10 8 11 7 12
REMARK SMILES IDX 6 13 5 14 4 15 3 16 2 17 1 18
REMARK H PARENT
REMARK Flexibility Score: inf
ROOT
ATOM      1  C   UNL     1      10.578   5.979  11.397  1.00  0.00     0.000 C 
ENDROOT
BRANCH   1   2
ATOM      2  C   UNL     1      12.002   6.004  10.829  1.00  0.00     0.000 C 
BRANCH   2   3
ATOM      3  C   UNL     1      12.246   7.284  10.013  1.00  0.00     0.000 C 
BRANCH   3   4
ATOM      4  C   UNL     1      11.634   8.531  10.671  1.00  0.00     0.000 C 
BRANCH   4   5
ATOM      5  C   UNL     1      12.291   9.836  10.186  1.00  0.00     0.000 C 
BRANCH   5   6
ATOM      6  C   UNL     1      11.882  11.063  11.022  1.00  0.00     0.006 C 
BRANCH   6   7
ATOM      7  C   UNL     1      10.963  10.731  12.211  1.00  0.00     0.053 C 
BRANCH   7   8
ATOM      8  C   UNL     1      10.823  11.876  13.169  1.00  0.00     0.041 C 
ATOM      9  O   UNL     1      10.253  11.707  14.279  1.00  0.00    -0.550 OA
ATOM     10  O   UNL     1      11.351  13.121  12.851  1.00  0.00    -0.550 OA
ENDBRANCH   7   8
ENDBRANCH   6   7
ENDBRANCH   5   6
ENDBRANCH   4   5
ENDBRANCH   3   4
ENDBRANCH   2   3
ENDBRANCH   1   2
BRANCH   1  11
ATOM     11  C   UNL     1       9.797   4.764  10.876  1.00  0.00     0.000 C 
BRANCH  11  12
ATOM     12  C   UNL     1      10.156   4.410   9.424  1.00  0.00    -0.000 C 
BRANCH  12  13
ATOM     13  C   UNL     1      10.397   2.903   9.225  1.00  0.00    -0.000 C 
BRANCH  13  14
ATOM     14  C   UNL     1      11.887   2.523   9.271  1.00  0.00    -0.000 C 
BRANCH  14  15
ATOM     15  C   UNL     1      12.315   1.712  10.509  1.00  0.00    -0.000 C 
BRANCH  15  16
ATOM     16  C   UNL     1      13.073   2.558  11.547  1.00  0.00    -0.000 C 
BRANCH  16  17
ATOM     17  C   UNL     1      12.354   2.606  12.904  1.00  0.00    -0.003 C 
ATOM     18  C   UNL     1      13.199   2.038  14.044  1.00  0.00     0.004 C 
ENDBRANCH  16  17
ENDBRANCH  15  16
ENDBRANCH  14  15
ENDBRANCH  13  14
ENDBRANCH  12  13
ENDBRANCH  11  12
ENDBRANCH   1  11
TORSDOF 14
ENDMDL
MODEL 5
REMARK VINA RESULT:    -4.110      4.587      6.764
REMARK INTER + INTRA:          -9.695
REMARK INTER:                  -8.324
REMARK INTRA:                  -1.371
REMARK UNBOUND:                -2.220
REMARK SMILES CCCCCCCCCCCCCCCC(=O)[O-]
REMARK SMILES IDX 9 1 10 2 11 3 12 4 13 5 14 6 15 7 16 8 17 9 18 10 8 11 7 12
REMARK SMILES IDX 6 13 5 14 4 15 3 16 2 17 1 18
REMARK H PARENT
REMARK Flexibility Score: inf
ROOT
ATOM      1  C   UNL     1      11.236   7.064  12.126  1.00  0.00     0.000 C 
ENDROOT
BRANCH   1   2
ATOM      2  C   UNL     1      11.779   7.186  10.697  1.00  0.00     0.000 C 
BRANCH   2   3
ATOM      3  C   UNL     1      12.033   8.657  10.329  1.00  0.00     0.000 C 
BRANCH   3   4
ATOM      4  C   UNL     1      11.860   9.606  11.526  1.00  0.00     0.000 C 
BRANCH   4   5
ATOM      5  C   UNL     1      11.976  11.087  11.126  1.00  0.00     0.000 C 
BRANCH   5   6
ATOM      6  C   UNL     1      12.767  11.298   9.821  1.00  0.00     0.006 C 
BRANCH   6   7
ATOM      7  C   UNL     1      12.423  12.605   9.085  1.00  0.00     0.053 C 
BRANCH   7   8
ATOM      8  C   UNL     1      12.128  13.735  10.025  1.00  0.00     0.041 C 
ATOM      9  O   UNL     1      13.066  14.306  10.643  1.00  0.00    -0.550 OA
ATOM     10  O   UNL     1      10.823  14.181  10.193  1.00  0.00    -0.550 OA
ENDBRANCH   7   8
ENDBRANCH   6   7
ENDBRANCH   5   6
ENDBRANCH   4   5
ENDBRANCH   3   4
ENDBRANCH   2   3
ENDBRANCH   1   2
BRANCH   1  11
ATOM     11  C   UNL     1      10.392   5.792  12.288  1.00  0.00     0.000 C 
BRANCH  11  12
ATOM     12  C   UNL     1      10.019   5.155  10.940  1.00  0.00    -0.000 C 
BRANCH  12  13
ATOM     13  C   UNL     1       9.681   3.660  11.067  1.00  0.00    -0.000 C 
BRANCH  13  14
ATOM     14  C   UNL     1      10.139   2.836   9.850  1.00  0.00    -0.000 C 
BRANCH  14  15
ATOM     15  C   UNL     1      11.654   2.873   9.572  1.00  0.00    -0.000 C 
BRANCH  15  16
ATOM     16  C   UNL     1      12.442   1.856  10.414  1.00  0.00    -0.000 C 
BRANCH  16  17
ATOM     17  C   UNL     1      13.095   2.494  11.650  1.00  0.00    -0.003 C 
ATOM     18  C   UNL     1      13.509   3.947  11.419  1.00  0.00     0.004 C 
ENDBRANCH  16  17
ENDBRANCH  15  16
ENDBRANCH  14  15
ENDBRANCH  13  14
ENDBRANCH  12  13
ENDBRANCH  11  12
ENDBRANCH   1  11
TORSDOF 14
ENDMDL
MODEL 6
REMARK VINA RESULT:    -4.082      3.639      5.835
REMARK INTER + INTRA:          -9.644
REMARK INTER:                  -8.479
REMARK INTRA:                  -1.165
REMARK UNBOUND:                -2.220
REMARK SMILES CCCCCCCCCCCCCCCC(=O)[O-]
REMARK SMILES IDX 9 1 10 2 11 3 12 4 13 5 14 6 15 7 16 8 17 9 18 10 8 11 7 12
REMARK SMILES IDX 6 13 5 14 4 15 3 16 2 17 1 18
REMARK H PARENT
REMARK Flexibility Score: inf
ROOT
ATOM      1  C   UNL     1       9.244   4.033   9.732  1.00  0.00     0.000 C 
ENDROOT
BRANCH   1   2
ATOM      2  C   UNL     1       9.905   4.879  10.827  1.00  0.00     0.000 C 
BRANCH   2   3
ATOM      3  C   UNL     1      11.221   5.495  10.326  1.00  0.00     0.000 C 
BRANCH   3   4
ATOM      4  C   UNL     1      11.636   6.740  11.127  1.00  0.00     0.000 C 
BRANCH   4   5
ATOM      5  C   UNL     1      12.152   7.876  10.227  1.00  0.00     0.000 C 
BRANCH   5   6
ATOM      6  C   UNL     1      11.708   9.272  10.703  1.00  0.00     0.006 C 
BRANCH   6   7
ATOM      7  C   UNL     1      12.478  10.431  10.048  1.00  0.00     0.053 C 
BRANCH   7   8
ATOM      8  C   UNL     1      12.224  11.746  10.722  1.00  0.00     0.041 C 
ATOM      9  O   UNL     1      12.102  11.803  11.974  1.00  0.00    -0.550 OA
ATOM     10  O   UNL     1      12.155  12.913   9.971  1.00  0.00    -0.550 OA
ENDBRANCH   7   8
ENDBRANCH   6   7
ENDBRANCH   5   6
ENDBRANCH   4   5
ENDBRANCH   3   4
ENDBRANCH   2   3
ENDBRANCH   1   2
BRANCH   1  11
ATOM     11  C   UNL     1      10.283   3.173   8.998  1.00  0.00     0.000 C 
BRANCH  11  12
ATOM     12  C   UNL     1      10.041   1.667   9.184  1.00  0.00    -0.000 C 
BRANCH  12  13
ATOM     13  C   UNL     1      11.303   0.918   9.647  1.00  0.00    -0.000 C 
BRANCH  13  14
ATOM     14  C   UNL     1      12.383   1.858  10.211  1.00  0.00    -0.000 C 
BRANCH  14  15
ATOM     15  C   UNL     1      12.812   1.562  11.661  1.00  0.00    -0.000 C 
BRANCH  15  16
ATOM     16  C   UNL     1      12.696   2.789  12.582  1.00  0.00    -0.000 C 
BRANCH  16  17
ATOM     17  C   UNL     1      12.382   2.405  14.036  1.00  0.00    -0.003 C 
ATOM     18  C   UNL     1      13.635   2.087  14.851  1.00  0.00     0.004 C 
ENDBRANCH  16  17
ENDBRANCH  15  16
ENDBRANCH  14  15
ENDBRANCH  13  14
ENDBRANCH  12  13
ENDBRANCH  11  12
ENDBRANCH   1  11
TORSDOF 14
ENDMDL
MODEL 7
REMARK VINA RESULT:    -4.056      4.136      6.149
REMARK INTER + INTRA:          -9.596
REMARK INTER:                  -8.821
REMARK INTRA:                  -0.775
REMARK UNBOUND:                -2.220
REMARK SMILES CCCCCCCCCCCCCCCC(=O)[O-]
REMARK SMILES IDX 9 1 10 2 11 3 12 4 13 5 14 6 15 7 16 8 17 9 18 10 8 11 7 12
REMARK SMILES IDX 6 13 5 14 4 15 3 16 2 17 1 18
REMARK H PARENT
REMARK Flexibility Score: inf
ROOT
ATOM      1  C   UNL     1      10.459   4.835  11.977  1.00  0.00     0.000 C 
ENDROOT
BRANCH   1   2
ATOM      2  C   UNL     1      10.526   6.270  12.514  1.00  0.00     0.000 C 
BRANCH   2   3
ATOM      3  C   UNL     1      11.615   7.078  11.790  1.00  0.00     0.000 C 
BRANCH   3   4
ATOM      4  C   UNL     1      11.260   8.568  11.660  1.00  0.00     0.000 C 
BRANCH   4   5
ATOM      5  C   UNL     1      11.936   9.232  10.447  1.00  0.00     0.000 C 
BRANCH   5   6
ATOM      6  C   UNL     1      12.354  10.690  10.714  1.00  0.00     0.006 C 
BRANCH   6   7
ATOM      7  C   UNL     1      12.641  11.502   9.439  1.00  0.00     0.053 C 
BRANCH   7   8
ATOM      8  C   UNL     1      12.330  12.960   9.602  1.00  0.00     0.041 C 
ATOM      9  O   UNL     1      12.925  13.816   8.894  1.00  0.00    -0.550 OA
ATOM     10  O   UNL     1      11.362  13.371  10.509  1.00  0.00    -0.550 OA
ENDBRANCH   7   8
ENDBRANCH   6   7
ENDBRANCH   5   6
ENDBRANCH   4   5
ENDBRANCH   3   4
ENDBRANCH   2   3
ENDBRANCH   1   2
BRANCH   1  11
ATOM     11  C   UNL     1      10.409   4.824  10.442  1.00  0.00     0.000 C 
BRANCH  11  12
ATOM     12  C   UNL     1      11.672   4.214   9.814  1.00  0.00    -0.000 C 
BRANCH  12  13
ATOM     13  C   UNL     1      11.606   2.679   9.726  1.00  0.00    -0.000 C 
BRANCH  13  14
ATOM     14  C   UNL     1      12.655   1.982  10.611  1.00  0.00    -0.000 C 
BRANCH  14  15
ATOM     15  C   UNL     1      12.206   1.706  12.058  1.00  0.00    -0.000 C 
BRANCH  15  16
ATOM     16  C   UNL     1      13.150   2.321  13.105  1.00  0.00    -0.000 C 
BRANCH  16  17
ATOM     17  C   UNL     1      13.054   1.618  14.469  1.00  0.00    -0.003 C 
ATOM     18  C   UNL     1      14.081   2.134  15.476  1.00  0.00     0.004 C 
ENDBRANCH  16  17
ENDBRANCH  15  16
ENDBRANCH  14  15
ENDBRANCH  13  14
ENDBRANCH  12  13
ENDBRANCH  11  12
ENDBRANCH   1  11
TORSDOF 14
ENDMDL
MODEL 8
REMARK VINA RESULT:    -4.018      1.534      3.706
REMARK INTER + INTRA:          -9.526
REMARK INTER:                  -7.884
REMARK INTRA:                  -1.642
REMARK UNBOUND:                -2.220
REMARK SMILES CCCCCCCCCCCCCCCC(=O)[O-]
REMARK SMILES IDX 9 1 10 2 11 3 12 4 13 5 14 6 15 7 16 8 17 9 18 10 8 11 7 12
REMARK SMILES IDX 6 13 5 14 4 15 3 16 2 17 1 18
REMARK H PARENT
REMARK Flexibility Score: inf
ROOT
ATOM      1  C   UNL     1      10.610   4.221  14.830  1.00  0.00     0.000 C 
ENDROOT
BRANCH   1   2
ATOM      2  C   UNL     1       9.841   5.508  15.153  1.00  0.00     0.000 C 
BRANCH   2   3
ATOM      3  C   UNL     1      10.272   6.654  14.223  1.00  0.00     0.000 C 
BRANCH   3   4
ATOM      4  C   UNL     1      10.521   6.185  12.780  1.00  0.00     0.000 C 
BRANCH   4   5
ATOM      5  C   UNL     1      11.401   7.165  11.985  1.00  0.00     0.000 C 
BRANCH   5   6
ATOM      6  C   UNL     1      11.785   6.635  10.591  1.00  0.00     0.006 C 
BRANCH   6   7
ATOM      7  C   UNL     1      12.436   5.241  10.609  1.00  0.00     0.053 C 
BRANCH   7   8
ATOM      8  C   UNL     1      11.669   4.235   9.805  1.00  0.00     0.041 C 
ATOM      9  O   UNL     1      12.072   3.044   9.729  1.00  0.00    -0.550 OA
ATOM     10  O   UNL     1      10.491   4.602   9.167  1.00  0.00    -0.550 OA
ENDBRANCH   7   8
ENDBRANCH   6   7
ENDBRANCH   5   6
ENDBRANCH   4   5
ENDBRANCH   3   4
ENDBRANCH   2   3
ENDBRANCH   1   2
BRANCH   1  11
ATOM     11  C   UNL     1       9.661   3.017  14.757  1.00  0.00     0.000 C 
BRANCH  11  12
ATOM     12  C   UNL     1       9.900   2.007  15.891  1.00  0.00    -0.000 C 
BRANCH  12  13
ATOM     13  C   UNL     1      11.373   1.954  16.334  1.00  0.00    -0.000 C 
BRANCH  13  14
ATOM     14  C   UNL     1      12.038   0.597  16.039  1.00  0.00    -0.000 C 
BRANCH  14  15
ATOM     15  C   UNL     1      13.298   0.668  15.156  1.00  0.00    -0.000 C 
BRANCH  15  16
ATOM     16  C   UNL     1      13.628   2.098  14.696  1.00  0.00    -0.000 C 
BRANCH  16  17
ATOM     17  C   UNL     1      13.278   2.336  13.219  1.00  0.00    -0.003 C 
ATOM     18  C   UNL     1      12.913   1.049  12.480  1.00  0.00     0.004 C 
ENDBRANCH  16  17
ENDBRANCH  15  16
ENDBRANCH  14  15
ENDBRANCH  13  14
ENDBRANCH  12  13
ENDBRANCH  11  12
ENDBRANCH   1  11
TORSDOF 14
ENDMDL
MODEL 9
REMARK VINA RESULT:    -3.941      2.824      5.500
REMARK INTER + INTRA:          -9.386
REMARK INTER:                  -7.273
REMARK INTRA:                  -2.114
REMARK UNBOUND:                -2.220
REMARK SMILES CCCCCCCCCCCCCCCC(=O)[O-]
REMARK SMILES IDX 9 1 10 2 11 3 12 4 13 5 14 6 15 7 16 8 17 9 18 10 8 11 7 12
REMARK SMILES IDX 6 13 5 14 4 15 3 16 2 17 1 18
REMARK H PARENT
REMARK Flexibility Score: inf
ROOT
ATOM      1  C   UNL     1      10.507   5.963  11.886  1.00  0.00     0.000 C 
ENDROOT
BRANCH   1   2
ATOM      2  C   UNL     1      10.501   6.615  13.274  1.00  0.00     0.000 C 
BRANCH   2   3
ATOM      3  C   UNL     1      10.267   5.566  14.373  1.00  0.00     0.000 C 
BRANCH   3   4
ATOM      4  C   UNL     1       9.708   4.244  13.821  1.00  0.00     0.000 C 
BRANCH   4   5
ATOM      5  C   UNL     1      10.222   3.018  14.596  1.00  0.00     0.000 C 
BRANCH   5   6
ATOM      6  C   UNL     1      11.745   2.824  14.475  1.00  0.00     0.006 C 
BRANCH   6   7
ATOM      7  C   UNL     1      12.383   2.117  15.683  1.00  0.00     0.053 C 
BRANCH   7   8
ATOM      8  C   UNL     1      12.589   0.650  15.450  1.00  0.00     0.041 C 
ATOM      9  O   UNL     1      13.500   0.254  14.676  1.00  0.00    -0.550 OA
ATOM     10  O   UNL     1      11.798  -0.280  16.113  1.00  0.00    -0.550 OA
ENDBRANCH   7   8
ENDBRANCH   6   7
ENDBRANCH   5   6
ENDBRANCH   4   5
ENDBRANCH   3   4
ENDBRANCH   2   3
ENDBRANCH   1   2
BRANCH   1  11
ATOM     11  C   UNL     1      11.624   6.545  11.008  1.00  0.00     0.000 C 
BRANCH  11  12
ATOM     12  C   UNL     1      12.491   5.457  10.357  1.00  0.00    -0.000 C 
BRANCH  12  13
ATOM     13  C   UNL     1      12.876   4.340  11.343  1.00  0.00    -0.000 C 
BRANCH  13  14
ATOM     14  C   UNL     1      12.397   2.949  10.889  1.00  0.00    -0.000 C 
BRANCH  14  15
ATOM     15  C   UNL     1      12.001   2.849   9.404  1.00  0.00    -0.000 C 
BRANCH  15  16
ATOM     16  C   UNL     1      10.600   2.248   9.197  1.00  0.00    -0.000 C 
BRANCH  16  17
ATOM     17  C   UNL     1       9.488   3.135   9.780  1.00  0.00    -0.003 C 
ATOM     18  C   UNL     1       9.122   4.305   8.868  1.00  0.00     0.004 C 
ENDBRANCH  16  17
ENDBRANCH  15  16
ENDBRANCH  14  15
ENDBRANCH  13  14
ENDBRANCH  12  13
ENDBRANCH  11  12
ENDBRANCH   1  11
TORSDOF 14
ENDMDL
