MODEL 1
REMARK VINA RESULT:    -6.229      0.000      0.000
REMARK INTER + INTRA:          -7.908
REMARK INTER:                  -7.503
REMARK INTRA:                  -0.405
REMARK UNBOUND:                -0.405
REMARK SMILES O=c1c(O)c(-c2ccc(O)cc2O)oc2cc(O)cc(O)c12
REMARK SMILES IDX 5 1 3 2 2 3 1 4 22 5 20 6 19 7 17 8 16 9 15 10 14 11 6 12
REMARK SMILES IDX 8 13 7 14 9 15 11 16 12 17 10 18 13 20 4 22 21 24 18 26
REMARK H PARENT 10 19 13 21 4 23 21 25 18 27
REMARK Flexibility Score: inf
ROOT
ATOM      1  C   UNL     1      35.191  11.757 105.407  1.00  0.00     0.184 A 
ATOM      2  C   UNL     1      34.487  12.934 105.110  1.00  0.00     0.208 A 
ATOM      3  C   UNL     1      33.086  12.884 105.018  1.00  0.00     0.238 A 
ATOM      4  O   UNL     1      32.464  13.930 104.699  1.00  0.00    -0.285 OA
ATOM      5  C   UNL     1      32.410  11.660 105.243  1.00  0.00     0.111 A 
ATOM      6  C   UNL     1      30.992  11.501 105.217  1.00  0.00     0.134 A 
ATOM      7  C   UNL     1      30.439  10.219 105.323  1.00  0.00     0.093 A 
ATOM      8  C   UNL     1      31.247   9.101 105.522  1.00  0.00     0.123 A 
ATOM      9  C   UNL     1      32.631   9.252 105.609  1.00  0.00     0.094 A 
ATOM     10  C   UNL     1      33.216  10.512 105.469  1.00  0.00     0.146 A 
ATOM     11  O   UNL     1      34.538  10.612 105.547  1.00  0.00    -0.451 OA
ENDROOT
BRANCH   1  12
ATOM     12  C   UNL     1      36.664  11.745 105.534  1.00  0.00     0.063 A 
ATOM     13  C   UNL     1      38.627  11.955 106.952  1.00  0.00     0.047 A 
ATOM     14  C   UNL     1      37.239  11.955 106.798  1.00  0.00     0.020 A 
ATOM     15  C   UNL     1      39.459  11.759 105.843  1.00  0.00     0.119 A 
ATOM     16  C   UNL     1      38.896  11.573 104.577  1.00  0.00     0.093 A 
ATOM     17  C   UNL     1      37.502  11.578 104.412  1.00  0.00     0.130 A 
BRANCH  15  18
ATOM     18  O   UNL     1      40.845  11.753 105.986  1.00  0.00    -0.508 OA
ATOM     19  H   UNL     1      41.335  12.527 106.420  1.00  0.00     0.293 HD
ENDBRANCH  15  18
BRANCH  17  20
ATOM     20  O   UNL     1      36.955  11.439 103.137  1.00  0.00    -0.507 OA
ATOM     21  H   UNL     1      35.953  11.409 102.988  1.00  0.00     0.293 HD
ENDBRANCH  17  20
ENDBRANCH   1  12
BRANCH   2  22
ATOM     22  O   UNL     1      35.180  14.125 104.874  1.00  0.00    -0.502 OA
ATOM     23  H   UNL     1      36.183  14.201 104.994  1.00  0.00     0.293 HD
ENDBRANCH   2  22
BRANCH   6  24
ATOM     24  O   UNL     1      30.090  12.564 105.115  1.00  0.00    -0.507 OA
ATOM     25  H   UNL     1      29.088  12.464 105.060  1.00  0.00     0.293 HD
ENDBRANCH   6  24
BRANCH   8  26
ATOM     26  O   UNL     1      30.661   7.842 105.640  1.00  0.00    -0.508 OA
ATOM     27  H   UNL     1      30.650   7.342 106.522  1.00  0.00     0.293 HD
ENDBRANCH   8  26
TORSDOF 6
ENDMDL
MODEL 2
REMARK VINA RESULT:    -5.975      2.145      2.852
REMARK INTER + INTRA:          -7.601
REMARK INTER:                  -7.212
REMARK INTRA:                  -0.390
REMARK UNBOUND:                -0.405
REMARK SMILES O=c1c(O)c(-c2ccc(O)cc2O)oc2cc(O)cc(O)c12
REMARK SMILES IDX 5 1 3 2 2 3 1 4 22 5 20 6 19 7 17 8 16 9 15 10 14 11 6 12
REMARK SMILES IDX 8 13 7 14 9 15 11 16 12 17 10 18 13 20 4 22 21 24 18 26
REMARK H PARENT 10 19 13 21 4 23 21 25 18 27
REMARK Flexibility Score: inf
ROOT
ATOM      1  C   UNL     1      35.076  10.703 106.432  1.00  0.00     0.184 A 
ATOM      2  C   UNL     1      34.060  10.907 105.486  1.00  0.00     0.208 A 
ATOM      3  C   UNL     1      32.944  10.054 105.491  1.00  0.00     0.238 A 
ATOM      4  O   UNL     1      32.063  10.207 104.606  1.00  0.00    -0.285 OA
ATOM      5  C   UNL     1      32.854   9.021 106.456  1.00  0.00     0.111 A 
ATOM      6  C   UNL     1      31.750   8.123 106.581  1.00  0.00     0.134 A 
ATOM      7  C   UNL     1      31.826   7.058 107.485  1.00  0.00     0.093 A 
ATOM      8  C   UNL     1      32.934   6.896 108.316  1.00  0.00     0.123 A 
ATOM      9  C   UNL     1      33.993   7.802 108.244  1.00  0.00     0.094 A 
ATOM     10  C   UNL     1      33.964   8.853 107.326  1.00  0.00     0.146 A 
ATOM     11  O   UNL     1      34.996   9.687 107.281  1.00  0.00    -0.451 OA
ENDROOT
BRANCH   1  12
ATOM     12  C   UNL     1      36.268  11.575 106.492  1.00  0.00     0.063 A 
ATOM     13  C   UNL     1      37.373  13.519 107.445  1.00  0.00     0.047 A 
ATOM     14  C   UNL     1      36.265  12.672 107.368  1.00  0.00     0.020 A 
ATOM     15  C   UNL     1      38.492  13.289 106.637  1.00  0.00     0.119 A 
ATOM     16  C   UNL     1      38.495  12.213 105.745  1.00  0.00     0.093 A 
ATOM     17  C   UNL     1      37.384  11.361 105.657  1.00  0.00     0.130 A 
BRANCH  15  18
ATOM     18  O   UNL     1      39.605  14.125 106.708  1.00  0.00    -0.508 OA
ATOM     19  H   UNL     1      39.598  15.050 106.294  1.00  0.00     0.293 HD
ENDBRANCH  15  18
BRANCH  17  20
ATOM     20  O   UNL     1      37.380  10.320 104.727  1.00  0.00    -0.507 OA
ATOM     21  H   UNL     1      37.712  10.452 103.779  1.00  0.00     0.293 HD
ENDBRANCH  17  20
ENDBRANCH   1  12
BRANCH   2  22
ATOM     22  O   UNL     1      34.184  11.922 104.533  1.00  0.00    -0.502 OA
ATOM     23  H   UNL     1      34.479  11.741 103.581  1.00  0.00     0.293 HD
ENDBRANCH   2  22
BRANCH   6  24
ATOM     24  O   UNL     1      30.557   8.250 105.863  1.00  0.00    -0.507 OA
ATOM     25  H   UNL     1      30.449   8.790 105.018  1.00  0.00     0.293 HD
ENDBRANCH   6  24
BRANCH   8  26
ATOM     26  O   UNL     1      32.968   5.832 109.216  1.00  0.00    -0.508 OA
ATOM     27  H   UNL     1      33.466   4.975 109.005  1.00  0.00     0.293 HD
ENDBRANCH   8  26
TORSDOF 6
ENDMDL
MODEL 3
REMARK VINA RESULT:    -5.565      1.306      2.809
REMARK INTER + INTRA:          -7.108
REMARK INTER:                  -6.690
REMARK INTRA:                  -0.418
REMARK UNBOUND:                -0.405
REMARK SMILES O=c1c(O)c(-c2ccc(O)cc2O)oc2cc(O)cc(O)c12
REMARK SMILES IDX 5 1 3 2 2 3 1 4 22 5 20 6 19 7 17 8 16 9 15 10 14 11 6 12
REMARK SMILES IDX 8 13 7 14 9 15 11 16 12 17 10 18 13 20 4 22 21 24 18 26
REMARK H PARENT 10 19 13 21 4 23 21 25 18 27
REMARK Flexibility Score: inf
ROOT
ATOM      1  C   UNL     1      35.209  11.525 105.779  1.00  0.00     0.184 A 
ATOM      2  C   UNL     1      35.005  10.185 106.142  1.00  0.00     0.208 A 
ATOM      3  C   UNL     1      33.702   9.662 106.108  1.00  0.00     0.238 A 
ATOM      4  O   UNL     1      33.518   8.476 106.486  1.00  0.00    -0.285 OA
ATOM      5  C   UNL     1      32.625  10.483 105.693  1.00  0.00     0.111 A 
ATOM      6  C   UNL     1      31.270  10.048 105.581  1.00  0.00     0.134 A 
ATOM      7  C   UNL     1      30.268  10.979 105.288  1.00  0.00     0.093 A 
ATOM      8  C   UNL     1      30.577  12.315 105.037  1.00  0.00     0.123 A 
ATOM      9  C   UNL     1      31.905  12.740 105.086  1.00  0.00     0.094 A 
ATOM     10  C   UNL     1      32.924  11.843 105.412  1.00  0.00     0.146 A 
ATOM     11  O   UNL     1      34.174  12.289 105.459  1.00  0.00    -0.451 OA
ENDROOT
BRANCH   1  12
ATOM     12  C   UNL     1      36.557  12.132 105.777  1.00  0.00     0.063 A 
ATOM     13  C   UNL     1      38.257  13.418 106.947  1.00  0.00     0.047 A 
ATOM     14  C   UNL     1      36.992  12.828 106.917  1.00  0.00     0.020 A 
ATOM     15  C   UNL     1      39.100  13.332 105.832  1.00  0.00     0.119 A 
ATOM     16  C   UNL     1      38.667  12.661 104.684  1.00  0.00     0.093 A 
ATOM     17  C   UNL     1      37.395  12.072 104.644  1.00  0.00     0.130 A 
BRANCH  15  18
ATOM     18  O   UNL     1      40.366  13.913 105.851  1.00  0.00    -0.508 OA
ATOM     19  H   UNL     1      40.866  14.062 106.721  1.00  0.00     0.293 HD
ENDBRANCH  15  18
BRANCH  17  20
ATOM     20  O   UNL     1      36.957  11.448 103.475  1.00  0.00    -0.507 OA
ATOM     21  H   UNL     1      37.606  11.142 102.760  1.00  0.00     0.293 HD
ENDBRANCH  17  20
ENDBRANCH   1  12
BRANCH   2  22
ATOM     22  O   UNL     1      36.083   9.402 106.565  1.00  0.00    -0.502 OA
ATOM     23  H   UNL     1      36.227   9.156 107.537  1.00  0.00     0.293 HD
ENDBRANCH   2  22
BRANCH   6  24
ATOM     24  O   UNL     1      30.865   8.717 105.722  1.00  0.00    -0.507 OA
ATOM     25  H   UNL     1      29.915   8.420 105.884  1.00  0.00     0.293 HD
ENDBRANCH   6  24
BRANCH   8  26
ATOM     26  O   UNL     1      29.555  13.212 104.733  1.00  0.00    -0.508 OA
ATOM     27  H   UNL     1      29.129  13.792 105.447  1.00  0.00     0.293 HD
ENDBRANCH   8  26
TORSDOF 6
ENDMDL
MODEL 4
REMARK VINA RESULT:    -5.535      1.980      3.048
REMARK INTER + INTRA:          -7.072
REMARK INTER:                  -6.663
REMARK INTRA:                  -0.408
REMARK UNBOUND:                -0.405
REMARK SMILES O=c1c(O)c(-c2ccc(O)cc2O)oc2cc(O)cc(O)c12
REMARK SMILES IDX 5 1 3 2 2 3 1 4 22 5 20 6 19 7 17 8 16 9 15 10 14 11 6 12
REMARK SMILES IDX 8 13 7 14 9 15 11 16 12 17 10 18 13 20 4 22 21 24 18 26
REMARK H PARENT 10 19 13 21 4 23 21 25 18 27
REMARK Flexibility Score: inf
ROOT
ATOM      1  C   UNL     1      37.721  11.844 105.279  1.00  0.00     0.184 A 
ATOM      2  C   UNL     1      36.897  12.610 104.441  1.00  0.00     0.208 A 
ATOM      3  C   UNL     1      35.516  12.353 104.424  1.00  0.00     0.238 A 
ATOM      4  O   UNL     1      34.790  13.006 103.631  1.00  0.00    -0.285 OA
ATOM      5  C   UNL     1      34.979  11.344 105.260  1.00  0.00     0.111 A 
ATOM      6  C   UNL     1      33.591  11.024 105.355  1.00  0.00     0.134 A 
ATOM      7  C   UNL     1      33.187   9.921 106.116  1.00  0.00     0.093 A 
ATOM      8  C   UNL     1      34.110   9.167 106.838  1.00  0.00     0.123 A 
ATOM      9  C   UNL     1      35.464   9.506 106.800  1.00  0.00     0.094 A 
ATOM     10  C   UNL     1      35.903  10.578 106.020  1.00  0.00     0.146 A 
ATOM     11  O   UNL     1      37.200  10.862 106.002  1.00  0.00    -0.451 OA
ENDROOT
BRANCH   1  12
ATOM     12  C   UNL     1      39.179  12.075 105.357  1.00  0.00     0.063 A 
ATOM     13  C   UNL     1      41.409  11.570 104.530  1.00  0.00     0.047 A 
ATOM     14  C   UNL     1      40.026  11.379 104.480  1.00  0.00     0.020 A 
ATOM     15  C   UNL     1      41.964  12.449 105.467  1.00  0.00     0.119 A 
ATOM     16  C   UNL     1      41.130  13.130 106.360  1.00  0.00     0.093 A 
ATOM     17  C   UNL     1      39.741  12.939 106.320  1.00  0.00     0.130 A 
BRANCH  15  18
ATOM     18  O   UNL     1      43.341  12.651 105.524  1.00  0.00    -0.508 OA
ATOM     19  H   UNL     1      43.843  13.091 104.760  1.00  0.00     0.293 HD
ENDBRANCH  15  18
BRANCH  17  20
ATOM     20  O   UNL     1      38.926  13.587 107.248  1.00  0.00    -0.507 OA
ATOM     21  H   UNL     1      38.849  13.264 108.206  1.00  0.00     0.293 HD
ENDBRANCH  17  20
ENDBRANCH   1  12
BRANCH   2  22
ATOM     22  O   UNL     1      37.456  13.587 103.612  1.00  0.00    -0.502 OA
ATOM     23  H   UNL     1      36.898  14.144 102.976  1.00  0.00     0.293 HD
ENDBRANCH   2  22
BRANCH   6  24
ATOM     24  O   UNL     1      32.576  11.769 104.747  1.00  0.00    -0.507 OA
ATOM     25  H   UNL     1      31.666  11.410 104.504  1.00  0.00     0.293 HD
ENDBRANCH   6  24
BRANCH   8  26
ATOM     26  O   UNL     1      33.670   8.085 107.597  1.00  0.00    -0.508 OA
ATOM     27  H   UNL     1      33.279   7.256 107.163  1.00  0.00     0.293 HD
ENDBRANCH   8  26
TORSDOF 6
ENDMDL
MODEL 5
REMARK VINA RESULT:    -5.423      2.223      6.644
REMARK INTER + INTRA:          -6.937
REMARK INTER:                  -6.583
REMARK INTRA:                  -0.353
REMARK UNBOUND:                -0.405
REMARK SMILES O=c1c(O)c(-c2ccc(O)cc2O)oc2cc(O)cc(O)c12
REMARK SMILES IDX 5 1 3 2 2 3 1 4 22 5 20 6 19 7 17 8 16 9 15 10 14 11 6 12
REMARK SMILES IDX 8 13 7 14 9 15 11 16 12 17 10 18 13 20 4 22 21 24 18 26
REMARK H PARENT 10 19 13 21 4 23 21 25 18 27
REMARK Flexibility Score: inf
ROOT
ATOM      1  C   UNL     1      35.200  10.356 106.648  1.00  0.00     0.184 A 
ATOM      2  C   UNL     1      35.548  11.228 107.691  1.00  0.00     0.208 A 
ATOM      3  C   UNL     1      36.692  12.031 107.552  1.00  0.00     0.238 A 
ATOM      4  O   UNL     1      37.030  12.772 108.512  1.00  0.00    -0.285 OA
ATOM      5  C   UNL     1      37.459  11.963 106.364  1.00  0.00     0.111 A 
ATOM      6  C   UNL     1      38.614  12.760 106.098  1.00  0.00     0.134 A 
ATOM      7  C   UNL     1      39.370  12.516 104.946  1.00  0.00     0.093 A 
ATOM      8  C   UNL     1      38.980  11.552 104.019  1.00  0.00     0.123 A 
ATOM      9  C   UNL     1      37.820  10.807 104.239  1.00  0.00     0.094 A 
ATOM     10  C   UNL     1      37.064  11.001 105.397  1.00  0.00     0.146 A 
ATOM     11  O   UNL     1      35.974  10.265 105.575  1.00  0.00    -0.451 OA
ENDROOT
BRANCH   1  12
ATOM     12  C   UNL     1      34.000   9.496 106.723  1.00  0.00     0.063 A 
ATOM     13  C   UNL     1      32.826   7.659 107.800  1.00  0.00     0.047 A 
ATOM     14  C   UNL     1      33.942   8.493 107.704  1.00  0.00     0.020 A 
ATOM     15  C   UNL     1      31.758   7.809 106.907  1.00  0.00     0.119 A 
ATOM     16  C   UNL     1      31.815   8.791 105.913  1.00  0.00     0.093 A 
ATOM     17  C   UNL     1      32.936   9.627 105.806  1.00  0.00     0.130 A 
BRANCH  15  18
ATOM     18  O   UNL     1      30.637   6.986 106.996  1.00  0.00    -0.508 OA
ATOM     19  H   UNL     1      30.685   6.072 107.431  1.00  0.00     0.293 HD
ENDBRANCH  15  18
BRANCH  17  20
ATOM     20  O   UNL     1      33.002  10.570 104.779  1.00  0.00    -0.507 OA
ATOM     21  H   UNL     1      32.321  10.588 104.030  1.00  0.00     0.293 HD
ENDBRANCH  17  20
ENDBRANCH   1  12
BRANCH   2  22
ATOM     22  O   UNL     1      34.783  11.262 108.860  1.00  0.00    -0.502 OA
ATOM     23  H   UNL     1      33.792  11.053 108.867  1.00  0.00     0.293 HD
ENDBRANCH   2  22
BRANCH   6  24
ATOM     24  O   UNL     1      39.039  13.812 106.914  1.00  0.00    -0.507 OA
ATOM     25  H   UNL     1      38.732  13.965 107.862  1.00  0.00     0.293 HD
ENDBRANCH   6  24
BRANCH   8  26
ATOM     26  O   UNL     1      39.749  11.346 102.875  1.00  0.00    -0.508 OA
ATOM     27  H   UNL     1      39.427  11.639 101.960  1.00  0.00     0.293 HD
ENDBRANCH   8  26
TORSDOF 6
ENDMDL
MODEL 6
REMARK VINA RESULT:    -5.405      1.778      6.494
REMARK INTER + INTRA:          -6.916
REMARK INTER:                  -7.422
REMARK INTRA:                   0.506
REMARK UNBOUND:                -0.405
REMARK SMILES O=c1c(O)c(-c2ccc(O)cc2O)oc2cc(O)cc(O)c12
REMARK SMILES IDX 5 1 3 2 2 3 1 4 22 5 20 6 19 7 17 8 16 9 15 10 14 11 6 12
REMARK SMILES IDX 8 13 7 14 9 15 11 16 12 17 10 18 13 20 4 22 21 24 18 26
REMARK H PARENT 10 19 13 21 4 23 21 25 18 27
REMARK Flexibility Score: inf
ROOT
ATOM      1  C   UNL     1      34.843  10.657 105.978  1.00  0.00     0.184 A 
ATOM      2  C   UNL     1      34.548  11.588 104.970  1.00  0.00     0.208 A 
ATOM      3  C   UNL     1      35.548  12.483 104.557  1.00  0.00     0.238 A 
ATOM      4  O   UNL     1      35.262  13.350 103.691  1.00  0.00    -0.285 OA
ATOM      5  C   UNL     1      36.834  12.422 105.147  1.00  0.00     0.111 A 
ATOM      6  C   UNL     1      37.936  13.252 104.778  1.00  0.00     0.134 A 
ATOM      7  C   UNL     1      39.122  13.193 105.518  1.00  0.00     0.093 A 
ATOM      8  C   UNL     1      39.272  12.290 106.569  1.00  0.00     0.123 A 
ATOM      9  C   UNL     1      38.223  11.432 106.901  1.00  0.00     0.094 A 
ATOM     10  C   UNL     1      37.013  11.492 106.206  1.00  0.00     0.146 A 
ATOM     11  O   UNL     1      36.035  10.666 106.559  1.00  0.00    -0.451 OA
ENDROOT
BRANCH   1  12
ATOM     12  C   UNL     1      33.841   9.677 106.447  1.00  0.00     0.063 A 
ATOM     13  C   UNL     1      31.697   8.580 106.117  1.00  0.00     0.047 A 
ATOM     14  C   UNL     1      32.666   9.494 105.700  1.00  0.00     0.020 A 
ATOM     15  C   UNL     1      31.882   7.845 107.294  1.00  0.00     0.119 A 
ATOM     16  C   UNL     1      33.039   8.036 108.057  1.00  0.00     0.093 A 
ATOM     17  C   UNL     1      34.014   8.958 107.648  1.00  0.00     0.130 A 
BRANCH  15  18
ATOM     18  O   UNL     1      30.924   6.927 107.718  1.00  0.00    -0.508 OA
ATOM     19  H   UNL     1      30.486   6.282 107.070  1.00  0.00     0.293 HD
ENDBRANCH  15  18
BRANCH  17  20
ATOM     20  O   UNL     1      35.140   9.175 108.444  1.00  0.00    -0.507 OA
ATOM     21  H   UNL     1      36.078   9.052 108.083  1.00  0.00     0.293 HD
ENDBRANCH  17  20
ENDBRANCH   1  12
BRANCH   2  22
ATOM     22  O   UNL     1      33.265  11.639 104.418  1.00  0.00    -0.502 OA
ATOM     23  H   UNL     1      32.886  12.481 104.002  1.00  0.00     0.293 HD
ENDBRANCH   2  22
BRANCH   6  24
ATOM     24  O   UNL     1      37.922  14.124 103.686  1.00  0.00    -0.507 OA
ATOM     25  H   UNL     1      37.960  13.837 102.720  1.00  0.00     0.293 HD
ENDBRANCH   6  24
BRANCH   8  26
ATOM     26  O   UNL     1      40.474  12.249 107.274  1.00  0.00    -0.508 OA
ATOM     27  H   UNL     1      41.359  12.101 106.803  1.00  0.00     0.293 HD
ENDBRANCH   8  26
TORSDOF 6
ENDMDL
MODEL 7
REMARK VINA RESULT:    -5.215      2.442      6.582
REMARK INTER + INTRA:          -6.687
REMARK INTER:                  -6.890
REMARK INTRA:                   0.203
REMARK UNBOUND:                -0.405
REMARK SMILES O=c1c(O)c(-c2ccc(O)cc2O)oc2cc(O)cc(O)c12
REMARK SMILES IDX 5 1 3 2 2 3 1 4 22 5 20 6 19 7 17 8 16 9 15 10 14 11 6 12
REMARK SMILES IDX 8 13 7 14 9 15 11 16 12 17 10 18 13 20 4 22 21 24 18 26
REMARK H PARENT 10 19 13 21 4 23 21 25 18 27
REMARK Flexibility Score: inf
ROOT
ATOM      1  C   UNL     1      33.813   9.622 106.650  1.00  0.00     0.184 A 
ATOM      2  C   UNL     1      34.602   9.898 107.778  1.00  0.00     0.208 A 
ATOM      3  C   UNL     1      35.468  11.002 107.748  1.00  0.00     0.238 A 
ATOM      4  O   UNL     1      36.213  11.213 108.740  1.00  0.00    -0.285 OA
ATOM      5  C   UNL     1      35.518  11.826 106.596  1.00  0.00     0.111 A 
ATOM      6  C   UNL     1      36.329  12.994 106.471  1.00  0.00     0.134 A 
ATOM      7  C   UNL     1      36.397  13.657 105.240  1.00  0.00     0.093 A 
ATOM      8  C   UNL     1      35.636  13.236 104.151  1.00  0.00     0.123 A 
ATOM      9  C   UNL     1      34.795  12.129 104.280  1.00  0.00     0.094 A 
ATOM     10  C   UNL     1      34.733  11.424 105.483  1.00  0.00     0.146 A 
ATOM     11  O   UNL     1      33.929  10.371 105.562  1.00  0.00    -0.451 OA
ENDROOT
BRANCH   1  12
ATOM     12  C   UNL     1      32.868   8.485 106.623  1.00  0.00     0.063 A 
ATOM     13  C   UNL     1      32.295   6.244 107.370  1.00  0.00     0.047 A 
ATOM     14  C   UNL     1      33.162   7.338 107.378  1.00  0.00     0.020 A 
ATOM     15  C   UNL     1      31.128   6.276 106.597  1.00  0.00     0.119 A 
ATOM     16  C   UNL     1      30.838   7.405 105.825  1.00  0.00     0.093 A 
ATOM     17  C   UNL     1      31.708   8.506 105.822  1.00  0.00     0.130 A 
BRANCH  15  18
ATOM     18  O   UNL     1      30.253   5.192 106.585  1.00  0.00    -0.508 OA
ATOM     19  H   UNL     1      30.359   4.434 105.920  1.00  0.00     0.293 HD
ENDBRANCH  15  18
BRANCH  17  20
ATOM     20  O   UNL     1      31.431   9.606 105.009  1.00  0.00    -0.507 OA
ATOM     21  H   UNL     1      32.076   9.910 104.289  1.00  0.00     0.293 HD
ENDBRANCH  17  20
ENDBRANCH   1  12
BRANCH   2  22
ATOM     22  O   UNL     1      34.546   9.057 108.894  1.00  0.00    -0.502 OA
ATOM     23  H   UNL     1      33.678   8.847 109.372  1.00  0.00     0.293 HD
ENDBRANCH   2  22
BRANCH   6  24
ATOM     24  O   UNL     1      37.058  13.554 107.523  1.00  0.00    -0.507 OA
ATOM     25  H   UNL     1      38.059  13.673 107.530  1.00  0.00     0.293 HD
ENDBRANCH   6  24
BRANCH   8  26
ATOM     26  O   UNL     1      35.718  13.929 102.945  1.00  0.00    -0.508 OA
ATOM     27  H   UNL     1      36.014  13.473 102.090  1.00  0.00     0.293 HD
ENDBRANCH   8  26
TORSDOF 6
ENDMDL
MODEL 8
REMARK VINA RESULT:    -5.124      1.977      6.538
REMARK INTER + INTRA:          -6.577
REMARK INTER:                  -6.683
REMARK INTRA:                   0.107
REMARK UNBOUND:                -0.405
REMARK SMILES O=c1c(O)c(-c2ccc(O)cc2O)oc2cc(O)cc(O)c12
REMARK SMILES IDX 5 1 3 2 2 3 1 4 22 5 20 6 19 7 17 8 16 9 15 10 14 11 6 12
REMARK SMILES IDX 8 13 7 14 9 15 11 16 12 17 10 18 13 20 4 22 21 24 18 26
REMARK H PARENT 10 19 13 21 4 23 21 25 18 27
REMARK Flexibility Score: inf
ROOT
ATOM      1  C   UNL     1      33.108   9.635 106.031  1.00  0.00     0.184 A 
ATOM      2  C   UNL     1      32.555  10.746 105.376  1.00  0.00     0.208 A 
ATOM      3  C   UNL     1      33.346  11.891 105.193  1.00  0.00     0.238 A 
ATOM      4  O   UNL     1      32.828  12.903 104.653  1.00  0.00    -0.285 OA
ATOM      5  C   UNL     1      34.686  11.901 105.652  1.00  0.00     0.111 A 
ATOM      6  C   UNL     1      35.592  12.992 105.484  1.00  0.00     0.134 A 
ATOM      7  C   UNL     1      36.851  12.943 106.093  1.00  0.00     0.093 A 
ATOM      8  C   UNL     1      37.263  11.819 106.806  1.00  0.00     0.123 A 
ATOM      9  C   UNL     1      36.408  10.723 106.927  1.00  0.00     0.094 A 
ATOM     10  C   UNL     1      35.131  10.755 106.362  1.00  0.00     0.146 A 
ATOM     11  O   UNL     1      34.344   9.696 106.509  1.00  0.00    -0.451 OA
ENDROOT
BRANCH   1  12
ATOM     12  C   UNL     1      32.335   8.392 106.241  1.00  0.00     0.063 A 
ATOM     13  C   UNL     1      30.618   6.858 105.461  1.00  0.00     0.047 A 
ATOM     14  C   UNL     1      31.370   8.023 105.290  1.00  0.00     0.020 A 
ATOM     15  C   UNL     1      30.812   6.055 106.591  1.00  0.00     0.119 A 
ATOM     16  C   UNL     1      31.755   6.426 107.554  1.00  0.00     0.093 A 
ATOM     17  C   UNL     1      32.510   7.598 107.393  1.00  0.00     0.130 A 
BRANCH  15  18
ATOM     18  O   UNL     1      30.071   4.889 106.769  1.00  0.00    -0.508 OA
ATOM     19  H   UNL     1      30.439   4.104 107.295  1.00  0.00     0.293 HD
ENDBRANCH  15  18
BRANCH  17  20
ATOM     20  O   UNL     1      33.412   7.983 108.386  1.00  0.00    -0.507 OA
ATOM     21  H   UNL     1      34.412   7.987 108.222  1.00  0.00     0.293 HD
ENDBRANCH  17  20
ENDBRANCH   1  12
BRANCH   2  22
ATOM     22  O   UNL     1      31.224  10.715 104.949  1.00  0.00    -0.502 OA
ATOM     23  H   UNL     1      30.639   9.895 105.055  1.00  0.00     0.293 HD
ENDBRANCH   2  22
BRANCH   6  24
ATOM     24  O   UNL     1      35.314  14.125 104.713  1.00  0.00    -0.507 OA
ATOM     25  H   UNL     1      34.804  14.118 103.843  1.00  0.00     0.293 HD
ENDBRANCH   6  24
BRANCH   8  26
ATOM     26  O   UNL     1      38.530  11.799 107.385  1.00  0.00    -0.508 OA
ATOM     27  H   UNL     1      38.702  11.332 108.269  1.00  0.00     0.293 HD
ENDBRANCH   8  26
TORSDOF 6
ENDMDL
MODEL 9
REMARK VINA RESULT:    -5.010      2.141      3.549
REMARK INTER + INTRA:          -6.440
REMARK INTER:                  -6.067
REMARK INTRA:                  -0.372
REMARK UNBOUND:                -0.405
REMARK SMILES O=c1c(O)c(-c2ccc(O)cc2O)oc2cc(O)cc(O)c12
REMARK SMILES IDX 5 1 3 2 2 3 1 4 22 5 20 6 19 7 17 8 16 9 15 10 14 11 6 12
REMARK SMILES IDX 8 13 7 14 9 15 11 16 12 17 10 18 13 20 4 22 21 24 18 26
REMARK H PARENT 10 19 13 21 4 23 21 25 18 27
REMARK Flexibility Score: inf
ROOT
ATOM      1  C   UNL     1      35.306  10.636 105.862  1.00  0.00     0.184 A 
ATOM      2  C   UNL     1      35.632  10.121 107.127  1.00  0.00     0.208 A 
ATOM      3  C   UNL     1      34.739   9.235 107.751  1.00  0.00     0.238 A 
ATOM      4  O   UNL     1      35.011   8.820 108.907  1.00  0.00    -0.285 OA
ATOM      5  C   UNL     1      33.542   8.863 107.092  1.00  0.00     0.111 A 
ATOM      6  C   UNL     1      32.584   7.941 107.613  1.00  0.00     0.134 A 
ATOM      7  C   UNL     1      31.375   7.747 106.936  1.00  0.00     0.093 A 
ATOM      8  C   UNL     1      31.115   8.388 105.726  1.00  0.00     0.123 A 
ATOM      9  C   UNL     1      32.069   9.247 105.178  1.00  0.00     0.094 A 
ATOM     10  C   UNL     1      33.270   9.490 105.847  1.00  0.00     0.146 A 
ATOM     11  O   UNL     1      34.148  10.322 105.298  1.00  0.00    -0.451 OA
ENDROOT
BRANCH   1  12
ATOM     12  C   UNL     1      36.209  11.559 105.143  1.00  0.00     0.063 A 
ATOM     13  C   UNL     1      38.361  11.953 104.082  1.00  0.00     0.047 A 
ATOM     14  C   UNL     1      37.481  11.105 104.758  1.00  0.00     0.020 A 
ATOM     15  C   UNL     1      37.987  13.271 103.795  1.00  0.00     0.119 A 
ATOM     16  C   UNL     1      36.731  13.739 104.194  1.00  0.00     0.093 A 
ATOM     17  C   UNL     1      35.844  12.896 104.879  1.00  0.00     0.130 A 
BRANCH  15  18
ATOM     18  O   UNL     1      38.854  14.125 103.118  1.00  0.00    -0.508 OA
ATOM     19  H   UNL     1      39.556  13.768 102.479  1.00  0.00     0.293 HD
ENDBRANCH  15  18
BRANCH  17  20
ATOM     20  O   UNL     1      34.614  13.390 105.315  1.00  0.00    -0.507 OA
ATOM     21  H   UNL     1      33.854  12.772 105.575  1.00  0.00     0.293 HD
ENDBRANCH  17  20
ENDBRANCH   1  12
BRANCH   2  22
ATOM     22  O   UNL     1      36.812  10.521 107.762  1.00  0.00    -0.502 OA
ATOM     23  H   UNL     1      37.342  11.331 107.463  1.00  0.00     0.293 HD
ENDBRANCH   2  22
BRANCH   6  24
ATOM     24  O   UNL     1      32.783   7.178 108.767  1.00  0.00    -0.507 OA
ATOM     25  H   UNL     1      32.178   6.432 109.075  1.00  0.00     0.293 HD
ENDBRANCH   6  24
BRANCH   8  26
ATOM     26  O   UNL     1      29.906   8.159 105.072  1.00  0.00    -0.508 OA
ATOM     27  H   UNL     1      29.637   7.231 104.766  1.00  0.00     0.293 HD
ENDBRANCH   8  26
TORSDOF 6
ENDMDL
