MODEL 1
REMARK VINA RESULT:    -5.214      0.000      0.000
REMARK INTER + INTRA:         -12.205
REMARK INTER:                  -9.787
REMARK INTRA:                  -2.418
REMARK UNBOUND:                -2.418
REMARK SMILES CCCCCCCCC=CCCCCCCCC(=O)[O-]
REMARK SMILES IDX 10 1 9 2 11 3 12 4 13 5 14 6 15 7 16 8 17 9 18 10 19 11
REMARK SMILES IDX 20 12 8 13 7 14 6 15 5 16 4 17 3 18 2 19 1 20
REMARK H PARENT
REMARK Flexibility Score: inf
ROOT
ATOM      1  C   UNL     1      35.510  18.388  34.135  1.00  0.00    -0.031 C 
ATOM      2  C   UNL     1      36.685  17.741  34.258  1.00  0.00    -0.031 C 
ENDROOT
BRANCH   1   3
ATOM      3  C   UNL     1      34.365  17.951  33.252  1.00  0.00     0.027 C 
BRANCH   3   4
ATOM      4  C   UNL     1      34.455  18.592  31.861  1.00  0.00     0.004 C 
BRANCH   4   5
ATOM      5  C   UNL     1      33.977  17.639  30.753  1.00  0.00     0.000 C 
BRANCH   5   6
ATOM      6  C   UNL     1      34.714  16.289  30.766  1.00  0.00     0.000 C 
BRANCH   6   7
ATOM      7  C   UNL     1      34.137  15.260  29.770  1.00  0.00     0.000 C 
BRANCH   7   8
ATOM      8  C   UNL     1      34.745  15.409  28.364  1.00  0.00     0.006 C 
BRANCH   8   9
ATOM      9  C   UNL     1      33.688  15.750  27.307  1.00  0.00     0.053 C 
BRANCH   9  10
ATOM     10  C   UNL     1      34.106  16.912  26.460  1.00  0.00     0.041 C 
ATOM     11  O   UNL     1      33.421  17.248  25.459  1.00  0.00    -0.550 OA
ATOM     12  O   UNL     1      35.273  17.605  26.759  1.00  0.00    -0.550 OA
ENDBRANCH   9  10
ENDBRANCH   8   9
ENDBRANCH   7   8
ENDBRANCH   6   7
ENDBRANCH   5   6
ENDBRANCH   4   5
ENDBRANCH   3   4
ENDBRANCH   1   3
BRANCH   2  13
ATOM     13  C   UNL     1      37.077  16.505  33.488  1.00  0.00     0.027 C 
BRANCH  13  14
ATOM     14  C   UNL     1      38.601  16.380  33.317  1.00  0.00     0.004 C 
BRANCH  14  15
ATOM     15  C   UNL     1      39.397  17.593  33.837  1.00  0.00     0.000 C 
BRANCH  15  16
ATOM     16  C   UNL     1      39.895  18.507  32.704  1.00  0.00     0.000 C 
BRANCH  16  17
ATOM     17  C   UNL     1      39.176  19.865  32.683  1.00  0.00    -0.000 C 
BRANCH  17  18
ATOM     18  C   UNL     1      38.190  19.998  31.508  1.00  0.00    -0.000 C 
BRANCH  18  19
ATOM     19  C   UNL     1      38.354  18.874  30.473  1.00  0.00    -0.003 C 
ATOM     20  C   UNL     1      37.235  18.860  29.433  1.00  0.00     0.004 C 
ENDBRANCH  18  19
ENDBRANCH  17  18
ENDBRANCH  16  17
ENDBRANCH  15  16
ENDBRANCH  14  15
ENDBRANCH  13  14
ENDBRANCH   2  13
TORSDOF 15
ENDMDL
MODEL 2
REMARK VINA RESULT:    -5.166      1.773      3.404
REMARK INTER + INTRA:         -12.115
REMARK INTER:                  -9.415
REMARK INTRA:                  -2.700
REMARK UNBOUND:                -2.418
REMARK SMILES CCCCCCCCC=CCCCCCCCC(=O)[O-]
REMARK SMILES IDX 10 1 9 2 11 3 12 4 13 5 14 6 15 7 16 8 17 9 18 10 19 11
REMARK SMILES IDX 20 12 8 13 7 14 6 15 5 16 4 17 3 18 2 19 1 20
REMARK H PARENT
REMARK Flexibility Score: inf
ROOT
ATOM      1  C   UNL     1      38.125  19.990  33.014  1.00  0.00    -0.031 C 
ATOM      2  C   UNL     1      39.395  19.903  32.576  1.00  0.00    -0.031 C 
ENDROOT
BRANCH   1   3
ATOM      3  C   UNL     1      37.488  19.068  34.027  1.00  0.00     0.027 C 
BRANCH   3   4
ATOM      4  C   UNL     1      36.644  17.984  33.345  1.00  0.00     0.004 C 
BRANCH   4   5
ATOM      5  C   UNL     1      35.262  17.828  34.000  1.00  0.00     0.000 C 
BRANCH   5   6
ATOM      6  C   UNL     1      34.114  18.309  33.096  1.00  0.00     0.000 C 
BRANCH   6   7
ATOM      7  C   UNL     1      34.544  18.571  31.637  1.00  0.00     0.000 C 
BRANCH   7   8
ATOM      8  C   UNL     1      33.935  17.549  30.661  1.00  0.00     0.006 C 
BRANCH   8   9
ATOM      9  C   UNL     1      34.724  16.234  30.630  1.00  0.00     0.053 C 
BRANCH   9  10
ATOM     10  C   UNL     1      34.298  15.359  29.490  1.00  0.00     0.041 C 
ATOM     11  O   UNL     1      33.143  15.470  29.002  1.00  0.00    -0.550 OA
ATOM     12  O   UNL     1      35.170  14.400  28.988  1.00  0.00    -0.550 OA
ENDBRANCH   9  10
ENDBRANCH   8   9
ENDBRANCH   7   8
ENDBRANCH   6   7
ENDBRANCH   5   6
ENDBRANCH   4   5
ENDBRANCH   3   4
ENDBRANCH   1   3
BRANCH   2  13
ATOM     13  C   UNL     1      40.377  18.830  32.978  1.00  0.00     0.027 C 
BRANCH  13  14
ATOM     14  C   UNL     1      41.058  18.175  31.763  1.00  0.00     0.004 C 
BRANCH  14  15
ATOM     15  C   UNL     1      40.449  18.574  30.405  1.00  0.00     0.000 C 
BRANCH  15  16
ATOM     16  C   UNL     1      39.780  17.391  29.683  1.00  0.00     0.000 C 
BRANCH  16  17
ATOM     17  C   UNL     1      38.258  17.358  29.893  1.00  0.00    -0.000 C 
BRANCH  17  18
ATOM     18  C   UNL     1      37.595  18.728  29.660  1.00  0.00    -0.000 C 
BRANCH  18  19
ATOM     19  C   UNL     1      36.925  18.830  28.281  1.00  0.00    -0.003 C 
ATOM     20  C   UNL     1      36.651  17.464  27.653  1.00  0.00     0.004 C 
ENDBRANCH  18  19
ENDBRANCH  17  18
ENDBRANCH  16  17
ENDBRANCH  15  16
ENDBRANCH  14  15
ENDBRANCH  13  14
ENDBRANCH   2  13
TORSDOF 15
ENDMDL
MODEL 3
REMARK VINA RESULT:    -5.099      1.717      4.829
REMARK INTER + INTRA:         -11.988
REMARK INTER:                  -9.560
REMARK INTRA:                  -2.429
REMARK UNBOUND:                -2.418
REMARK SMILES CCCCCCCCC=CCCCCCCCC(=O)[O-]
REMARK SMILES IDX 10 1 9 2 11 3 12 4 13 5 14 6 15 7 16 8 17 9 18 10 19 11
REMARK SMILES IDX 20 12 8 13 7 14 6 15 5 16 4 17 3 18 2 19 1 20
REMARK H PARENT
REMARK Flexibility Score: inf
ROOT
ATOM      1  C   UNL     1      39.001  19.976  32.548  1.00  0.00    -0.031 C 
ATOM      2  C   UNL     1      37.728  19.647  32.836  1.00  0.00    -0.031 C 
ENDROOT
BRANCH   1   3
ATOM      3  C   UNL     1      40.222  19.421  33.243  1.00  0.00     0.027 C 
BRANCH   3   4
ATOM      4  C   UNL     1      41.096  18.610  32.277  1.00  0.00     0.004 C 
BRANCH   4   5
ATOM      5  C   UNL     1      40.835  18.983  30.809  1.00  0.00     0.000 C 
BRANCH   5   6
ATOM      6  C   UNL     1      40.959  17.782  29.856  1.00  0.00     0.000 C 
BRANCH   6   7
ATOM      7  C   UNL     1      39.890  16.694  30.092  1.00  0.00     0.000 C 
BRANCH   7   8
ATOM      8  C   UNL     1      38.466  17.208  29.811  1.00  0.00     0.006 C 
BRANCH   8   9
ATOM      9  C   UNL     1      38.019  16.924  28.372  1.00  0.00     0.053 C 
BRANCH   9  10
ATOM     10  C   UNL     1      36.854  17.778  27.976  1.00  0.00     0.041 C 
ATOM     11  O   UNL     1      35.938  17.307  27.253  1.00  0.00    -0.550 OA
ATOM     12  O   UNL     1      36.797  19.106  28.381  1.00  0.00    -0.550 OA
ENDBRANCH   9  10
ENDBRANCH   8   9
ENDBRANCH   7   8
ENDBRANCH   6   7
ENDBRANCH   5   6
ENDBRANCH   4   5
ENDBRANCH   3   4
ENDBRANCH   1   3
BRANCH   2  13
ATOM     13  C   UNL     1      37.304  18.715  33.943  1.00  0.00     0.027 C 
BRANCH  13  14
ATOM     14  C   UNL     1      36.433  17.554  33.431  1.00  0.00     0.004 C 
BRANCH  14  15
ATOM     15  C   UNL     1      34.922  17.749  33.660  1.00  0.00     0.000 C 
BRANCH  15  16
ATOM     16  C   UNL     1      34.198  18.297  32.416  1.00  0.00     0.000 C 
BRANCH  16  17
ATOM     17  C   UNL     1      34.833  17.810  31.104  1.00  0.00    -0.000 C 
BRANCH  17  18
ATOM     18  C   UNL     1      33.795  17.255  30.112  1.00  0.00    -0.000 C 
BRANCH  18  19
ATOM     19  C   UNL     1      33.803  15.719  30.051  1.00  0.00    -0.003 C 
ATOM     20  C   UNL     1      35.211  15.131  30.131  1.00  0.00     0.004 C 
ENDBRANCH  18  19
ENDBRANCH  17  18
ENDBRANCH  16  17
ENDBRANCH  15  16
ENDBRANCH  14  15
ENDBRANCH  13  14
ENDBRANCH   2  13
TORSDOF 15
ENDMDL
MODEL 4
REMARK VINA RESULT:    -5.002      1.293      3.419
REMARK INTER + INTRA:         -11.806
REMARK INTER:                  -8.888
REMARK INTRA:                  -2.918
REMARK UNBOUND:                -2.418
REMARK SMILES CCCCCCCCC=CCCCCCCCC(=O)[O-]
REMARK SMILES IDX 10 1 9 2 11 3 12 4 13 5 14 6 15 7 16 8 17 9 18 10 19 11
REMARK SMILES IDX 20 12 8 13 7 14 6 15 5 16 4 17 3 18 2 19 1 20
REMARK H PARENT
REMARK Flexibility Score: inf
ROOT
ATOM      1  C   UNL     1      36.857  18.792  30.168  1.00  0.00    -0.031 C 
ATOM      2  C   UNL     1      37.656  19.499  30.989  1.00  0.00    -0.031 C 
ENDROOT
BRANCH   1   3
ATOM      3  C   UNL     1      37.329  17.779  29.152  1.00  0.00     0.027 C 
BRANCH   3   4
ATOM      4  C   UNL     1      37.467  16.384  29.776  1.00  0.00     0.004 C 
BRANCH   4   5
ATOM      5  C   UNL     1      37.056  15.270  28.799  1.00  0.00     0.000 C 
BRANCH   5   6
ATOM      6  C   UNL     1      35.868  14.436  29.309  1.00  0.00     0.000 C 
BRANCH   6   7
ATOM      7  C   UNL     1      34.986  15.179  30.334  1.00  0.00     0.000 C 
BRANCH   7   8
ATOM      8  C   UNL     1      33.600  15.528  29.763  1.00  0.00     0.006 C 
BRANCH   8   9
ATOM      9  C   UNL     1      33.608  16.852  28.989  1.00  0.00     0.053 C 
BRANCH   9  10
ATOM     10  C   UNL     1      33.736  16.629  27.513  1.00  0.00     0.041 C 
ATOM     11  O   UNL     1      32.929  15.870  26.913  1.00  0.00    -0.550 OA
ATOM     12  O   UNL     1      34.767  17.235  26.805  1.00  0.00    -0.550 OA
ENDBRANCH   9  10
ENDBRANCH   8   9
ENDBRANCH   7   8
ENDBRANCH   6   7
ENDBRANCH   5   6
ENDBRANCH   4   5
ENDBRANCH   3   4
ENDBRANCH   1   3
BRANCH   2  13
ATOM     13  C   UNL     1      39.163  19.440  30.990  1.00  0.00     0.027 C 
BRANCH  13  14
ATOM     14  C   UNL     1      39.721  18.730  32.237  1.00  0.00     0.004 C 
BRANCH  14  15
ATOM     15  C   UNL     1      38.663  18.418  33.312  1.00  0.00     0.000 C 
BRANCH  15  16
ATOM     16  C   UNL     1      38.419  16.908  33.486  1.00  0.00     0.000 C 
BRANCH  16  17
ATOM     17  C   UNL     1      36.937  16.530  33.342  1.00  0.00    -0.000 C 
BRANCH  17  18
ATOM     18  C   UNL     1      35.989  17.645  33.822  1.00  0.00    -0.000 C 
BRANCH  18  19
ATOM     19  C   UNL     1      34.740  17.776  32.937  1.00  0.00    -0.003 C 
ATOM     20  C   UNL     1      33.618  18.566  33.611  1.00  0.00     0.004 C 
ENDBRANCH  18  19
ENDBRANCH  17  18
ENDBRANCH  16  17
ENDBRANCH  15  16
ENDBRANCH  14  15
ENDBRANCH  13  14
ENDBRANCH   2  13
TORSDOF 15
ENDMDL
MODEL 5
REMARK VINA RESULT:    -5.000      2.881      5.915
REMARK INTER + INTRA:         -11.803
REMARK INTER:                  -9.430
REMARK INTRA:                  -2.373
REMARK UNBOUND:                -2.418
REMARK SMILES CCCCCCCCC=CCCCCCCCC(=O)[O-]
REMARK SMILES IDX 10 1 9 2 11 3 12 4 13 5 14 6 15 7 16 8 17 9 18 10 19 11
REMARK SMILES IDX 20 12 8 13 7 14 6 15 5 16 4 17 3 18 2 19 1 20
REMARK H PARENT
REMARK Flexibility Score: inf
ROOT
ATOM      1  C   UNL     1      34.751  16.219  30.926  1.00  0.00    -0.031 C 
ATOM      2  C   UNL     1      35.906  15.531  30.848  1.00  0.00    -0.031 C 
ENDROOT
BRANCH   1   3
ATOM      3  C   UNL     1      34.636  17.725  30.962  1.00  0.00     0.027 C 
BRANCH   3   4
ATOM      4  C   UNL     1      34.206  18.221  32.348  1.00  0.00     0.004 C 
BRANCH   4   5
ATOM      5  C   UNL     1      35.093  17.650  33.468  1.00  0.00     0.000 C 
BRANCH   5   6
ATOM      6  C   UNL     1      35.469  18.701  34.526  1.00  0.00     0.000 C 
BRANCH   6   7
ATOM      7  C   UNL     1      36.937  19.169  34.437  1.00  0.00     0.000 C 
BRANCH   7   8
ATOM      8  C   UNL     1      37.556  18.880  33.058  1.00  0.00     0.006 C 
BRANCH   8   9
ATOM      9  C   UNL     1      38.422  20.041  32.555  1.00  0.00     0.053 C 
BRANCH   9  10
ATOM     10  C   UNL     1      39.848  19.624  32.359  1.00  0.00     0.041 C 
ATOM     11  O   UNL     1      40.629  19.550  33.343  1.00  0.00    -0.550 OA
ATOM     12  O   UNL     1      40.321  19.348  31.082  1.00  0.00    -0.550 OA
ENDBRANCH   9  10
ENDBRANCH   8   9
ENDBRANCH   7   8
ENDBRANCH   6   7
ENDBRANCH   5   6
ENDBRANCH   4   5
ENDBRANCH   3   4
ENDBRANCH   1   3
BRANCH   2  13
ATOM     13  C   UNL     1      37.282  16.148  30.845  1.00  0.00     0.027 C 
BRANCH  13  14
ATOM     14  C   UNL     1      37.781  16.461  29.423  1.00  0.00     0.004 C 
BRANCH  14  15
ATOM     15  C   UNL     1      37.800  17.963  29.077  1.00  0.00     0.000 C 
BRANCH  15  16
ATOM     16  C   UNL     1      36.842  18.321  27.927  1.00  0.00     0.000 C 
BRANCH  16  17
ATOM     17  C   UNL     1      36.001  17.120  27.466  1.00  0.00    -0.000 C 
BRANCH  17  18
ATOM     18  C   UNL     1      34.826  17.530  26.560  1.00  0.00    -0.000 C 
BRANCH  18  19
ATOM     19  C   UNL     1      33.498  16.889  26.994  1.00  0.00    -0.003 C 
ATOM     20  C   UNL     1      33.664  15.444  27.461  1.00  0.00     0.004 C 
ENDBRANCH  18  19
ENDBRANCH  17  18
ENDBRANCH  16  17
ENDBRANCH  15  16
ENDBRANCH  14  15
ENDBRANCH  13  14
ENDBRANCH   2  13
TORSDOF 15
ENDMDL
MODEL 6
REMARK VINA RESULT:    -4.999      2.611      5.099
REMARK INTER + INTRA:         -11.800
REMARK INTER:                  -9.000
REMARK INTRA:                  -2.800
REMARK UNBOUND:                -2.418
REMARK SMILES CCCCCCCCC=CCCCCCCCC(=O)[O-]
REMARK SMILES IDX 10 1 9 2 11 3 12 4 13 5 14 6 15 7 16 8 17 9 18 10 19 11
REMARK SMILES IDX 20 12 8 13 7 14 6 15 5 16 4 17 3 18 2 19 1 20
REMARK H PARENT
REMARK Flexibility Score: inf
ROOT
ATOM      1  C   UNL     1      37.750  19.133  33.108  1.00  0.00    -0.031 C 
ATOM      2  C   UNL     1      36.772  18.713  33.933  1.00  0.00    -0.031 C 
ENDROOT
BRANCH   1   3
ATOM      3  C   UNL     1      37.970  18.639  31.697  1.00  0.00     0.027 C 
BRANCH   3   4
ATOM      4  C   UNL     1      37.302  19.563  30.670  1.00  0.00     0.004 C 
BRANCH   4   5
ATOM      5  C   UNL     1      37.094  18.868  29.315  1.00  0.00     0.000 C 
BRANCH   5   6
ATOM      6  C   UNL     1      38.018  17.655  29.117  1.00  0.00     0.000 C 
BRANCH   6   7
ATOM      7  C   UNL     1      37.490  16.638  28.083  1.00  0.00     0.000 C 
BRANCH   7   8
ATOM      8  C   UNL     1      37.109  15.295  28.731  1.00  0.00     0.006 C 
BRANCH   8   9
ATOM      9  C   UNL     1      37.482  15.242  30.218  1.00  0.00     0.053 C 
BRANCH   9  10
ATOM     10  C   UNL     1      38.651  14.338  30.463  1.00  0.00     0.041 C 
ATOM     11  O   UNL     1      38.899  13.922  31.625  1.00  0.00    -0.550 OA
ATOM     12  O   UNL     1      39.485  13.981  29.411  1.00  0.00    -0.550 OA
ENDBRANCH   9  10
ENDBRANCH   8   9
ENDBRANCH   7   8
ENDBRANCH   6   7
ENDBRANCH   5   6
ENDBRANCH   4   5
ENDBRANCH   3   4
ENDBRANCH   1   3
BRANCH   2  13
ATOM     13  C   UNL     1      35.769  17.634  33.607  1.00  0.00     0.027 C 
BRANCH  13  14
ATOM     14  C   UNL     1      34.371  18.205  33.310  1.00  0.00     0.004 C 
BRANCH  14  15
ATOM     15  C   UNL     1      34.074  18.402  31.811  1.00  0.00     0.000 C 
BRANCH  15  16
ATOM     16  C   UNL     1      34.332  17.131  30.982  1.00  0.00     0.000 C 
BRANCH  16  17
ATOM     17  C   UNL     1      33.602  17.153  29.629  1.00  0.00    -0.000 C 
BRANCH  17  18
ATOM     18  C   UNL     1      33.528  15.763  28.971  1.00  0.00    -0.000 C 
BRANCH  18  19
ATOM     19  C   UNL     1      33.258  15.842  27.460  1.00  0.00    -0.003 C 
ATOM     20  C   UNL     1      34.092  16.917  26.766  1.00  0.00     0.004 C 
ENDBRANCH  18  19
ENDBRANCH  17  18
ENDBRANCH  16  17
ENDBRANCH  15  16
ENDBRANCH  14  15
ENDBRANCH  13  14
ENDBRANCH   2  13
TORSDOF 15
ENDMDL
MODEL 7
REMARK VINA RESULT:    -4.986      1.603      5.305
REMARK INTER + INTRA:         -11.776
REMARK INTER:                  -9.715
REMARK INTRA:                  -2.061
REMARK UNBOUND:                -2.418
REMARK SMILES CCCCCCCCC=CCCCCCCCC(=O)[O-]
REMARK SMILES IDX 10 1 9 2 11 3 12 4 13 5 14 6 15 7 16 8 17 9 18 10 19 11
REMARK SMILES IDX 20 12 8 13 7 14 6 15 5 16 4 17 3 18 2 19 1 20
REMARK H PARENT
REMARK Flexibility Score: inf
ROOT
ATOM      1  C   UNL     1      37.706  17.956  33.661  1.00  0.00    -0.031 C 
ATOM      2  C   UNL     1      36.528  17.356  33.915  1.00  0.00    -0.031 C 
ENDROOT
BRANCH   1   3
ATOM      3  C   UNL     1      37.933  19.450  33.630  1.00  0.00     0.027 C 
BRANCH   3   4
ATOM      4  C   UNL     1      39.378  19.788  33.239  1.00  0.00     0.004 C 
BRANCH   4   5
ATOM      5  C   UNL     1      40.242  18.528  33.070  1.00  0.00     0.000 C 
BRANCH   5   6
ATOM      6  C   UNL     1      41.041  18.522  31.755  1.00  0.00     0.000 C 
BRANCH   6   7
ATOM      7  C   UNL     1      40.200  18.911  30.520  1.00  0.00     0.000 C 
BRANCH   7   8
ATOM      8  C   UNL     1      39.631  17.679  29.795  1.00  0.00     0.006 C 
BRANCH   8   9
ATOM      9  C   UNL     1      38.125  17.512  30.029  1.00  0.00     0.053 C 
BRANCH   9  10
ATOM     10  C   UNL     1      37.354  18.704  29.552  1.00  0.00     0.041 C 
ATOM     11  O   UNL     1      37.051  18.819  28.335  1.00  0.00    -0.550 OA
ATOM     12  O   UNL     1      36.998  19.705  30.448  1.00  0.00    -0.550 OA
ENDBRANCH   9  10
ENDBRANCH   8   9
ENDBRANCH   7   8
ENDBRANCH   6   7
ENDBRANCH   5   6
ENDBRANCH   4   5
ENDBRANCH   3   4
ENDBRANCH   1   3
BRANCH   2  13
ATOM     13  C   UNL     1      35.223  18.076  34.149  1.00  0.00     0.027 C 
BRANCH  13  14
ATOM     14  C   UNL     1      34.366  18.165  32.873  1.00  0.00     0.004 C 
BRANCH  14  15
ATOM     15  C   UNL     1      34.795  17.195  31.755  1.00  0.00     0.000 C 
BRANCH  15  16
ATOM     16  C   UNL     1      33.954  17.353  30.476  1.00  0.00     0.000 C 
BRANCH  16  17
ATOM     17  C   UNL     1      33.600  16.002  29.833  1.00  0.00    -0.000 C 
BRANCH  17  18
ATOM     18  C   UNL     1      34.737  15.443  28.959  1.00  0.00    -0.000 C 
BRANCH  18  19
ATOM     19  C   UNL     1      34.822  16.137  27.591  1.00  0.00    -0.003 C 
ATOM     20  C   UNL     1      33.449  16.382  26.966  1.00  0.00     0.004 C 
ENDBRANCH  18  19
ENDBRANCH  17  18
ENDBRANCH  16  17
ENDBRANCH  15  16
ENDBRANCH  14  15
ENDBRANCH  13  14
ENDBRANCH   2  13
TORSDOF 15
ENDMDL
MODEL 8
REMARK VINA RESULT:    -4.938      1.147      3.299
REMARK INTER + INTRA:         -11.686
REMARK INTER:                  -8.777
REMARK INTRA:                  -2.909
REMARK UNBOUND:                -2.418
REMARK SMILES CCCCCCCCC=CCCCCCCCC(=O)[O-]
REMARK SMILES IDX 10 1 9 2 11 3 12 4 13 5 14 6 15 7 16 8 17 9 18 10 19 11
REMARK SMILES IDX 20 12 8 13 7 14 6 15 5 16 4 17 3 18 2 19 1 20
REMARK H PARENT
REMARK Flexibility Score: inf
ROOT
ATOM      1  C   UNL     1      37.229  18.769  29.751  1.00  0.00    -0.031 C 
ATOM      2  C   UNL     1      36.401  19.039  30.778  1.00  0.00    -0.031 C 
ENDROOT
BRANCH   1   3
ATOM      3  C   UNL     1      36.918  17.834  28.605  1.00  0.00     0.027 C 
BRANCH   3   4
ATOM      4  C   UNL     1      37.586  16.467  28.802  1.00  0.00     0.004 C 
BRANCH   4   5
ATOM      5  C   UNL     1      36.706  15.504  29.615  1.00  0.00     0.000 C 
BRANCH   5   6
ATOM      6  C   UNL     1      35.558  14.900  28.788  1.00  0.00     0.000 C 
BRANCH   6   7
ATOM      7  C   UNL     1      34.156  15.243  29.335  1.00  0.00     0.000 C 
BRANCH   7   8
ATOM      8  C   UNL     1      33.432  16.284  28.462  1.00  0.00     0.006 C 
BRANCH   8   9
ATOM      9  C   UNL     1      33.258  15.808  27.015  1.00  0.00     0.053 C 
BRANCH   9  10
ATOM     10  C   UNL     1      33.658  16.866  26.033  1.00  0.00     0.041 C 
ATOM     11  O   UNL     1      34.675  17.577  26.244  1.00  0.00    -0.550 OA
ATOM     12  O   UNL     1      32.886  17.087  24.898  1.00  0.00    -0.550 OA
ENDBRANCH   9  10
ENDBRANCH   8   9
ENDBRANCH   7   8
ENDBRANCH   6   7
ENDBRANCH   5   6
ENDBRANCH   4   5
ENDBRANCH   3   4
ENDBRANCH   1   3
BRANCH   2  13
ATOM     13  C   UNL     1      35.048  18.407  30.988  1.00  0.00     0.027 C 
BRANCH  13  14
ATOM     14  C   UNL     1      35.004  17.525  32.249  1.00  0.00     0.004 C 
BRANCH  14  15
ATOM     15  C   UNL     1      36.242  17.659  33.158  1.00  0.00     0.000 C 
BRANCH  15  16
ATOM     16  C   UNL     1      37.091  16.376  33.198  1.00  0.00     0.000 C 
BRANCH  16  17
ATOM     17  C   UNL     1      38.522  16.601  32.685  1.00  0.00    -0.000 C 
BRANCH  17  18
ATOM     18  C   UNL     1      39.232  17.768  33.394  1.00  0.00    -0.000 C 
BRANCH  18  19
ATOM     19  C   UNL     1      39.814  18.790  32.405  1.00  0.00    -0.003 C 
ATOM     20  C   UNL     1      39.231  20.190  32.589  1.00  0.00     0.004 C 
ENDBRANCH  18  19
ENDBRANCH  17  18
ENDBRANCH  16  17
ENDBRANCH  15  16
ENDBRANCH  14  15
ENDBRANCH  13  14
ENDBRANCH   2  13
TORSDOF 15
ENDMDL
MODEL 9
REMARK VINA RESULT:    -4.905      1.964      3.956
REMARK INTER + INTRA:         -11.625
REMARK INTER:                  -8.661
REMARK INTRA:                  -2.963
REMARK UNBOUND:                -2.418
REMARK SMILES CCCCCCCCC=CCCCCCCCC(=O)[O-]
REMARK SMILES IDX 10 1 9 2 11 3 12 4 13 5 14 6 15 7 16 8 17 9 18 10 19 11
REMARK SMILES IDX 20 12 8 13 7 14 6 15 5 16 4 17 3 18 2 19 1 20
REMARK H PARENT
REMARK Flexibility Score: inf
ROOT
ATOM      1  C   UNL     1      37.994  19.835  32.896  1.00  0.00    -0.031 C 
ATOM      2  C   UNL     1      39.179  20.252  32.412  1.00  0.00    -0.031 C 
ENDROOT
BRANCH   1   3
ATOM      3  C   UNL     1      37.791  18.625  33.778  1.00  0.00     0.027 C 
BRANCH   3   4
ATOM      4  C   UNL     1      36.398  18.629  34.421  1.00  0.00     0.004 C 
BRANCH   4   5
ATOM      5  C   UNL     1      35.434  17.658  33.721  1.00  0.00     0.000 C 
BRANCH   5   6
ATOM      6  C   UNL     1      34.204  18.363  33.124  1.00  0.00     0.000 C 
BRANCH   6   7
ATOM      7  C   UNL     1      34.194  18.387  31.581  1.00  0.00     0.000 C 
BRANCH   7   8
ATOM      8  C   UNL     1      35.349  17.566  30.980  1.00  0.00     0.006 C 
BRANCH   8   9
ATOM      9  C   UNL     1      36.214  18.395  30.023  1.00  0.00     0.053 C 
BRANCH   9  10
ATOM     10  C   UNL     1      36.307  17.760  28.670  1.00  0.00     0.041 C 
ATOM     11  O   UNL     1      37.338  17.917  27.964  1.00  0.00    -0.550 OA
ATOM     12  O   UNL     1      35.239  17.021  28.175  1.00  0.00    -0.550 OA
ENDBRANCH   9  10
ENDBRANCH   8   9
ENDBRANCH   7   8
ENDBRANCH   6   7
ENDBRANCH   5   6
ENDBRANCH   4   5
ENDBRANCH   3   4
ENDBRANCH   1   3
BRANCH   2  13
ATOM     13  C   UNL     1      40.495  19.545  32.619  1.00  0.00     0.027 C 
BRANCH  13  14
ATOM     14  C   UNL     1      41.120  19.071  31.294  1.00  0.00     0.004 C 
BRANCH  14  15
ATOM     15  C   UNL     1      40.107  18.479  30.295  1.00  0.00     0.000 C 
BRANCH  15  16
ATOM     16  C   UNL     1      40.105  16.939  30.292  1.00  0.00     0.000 C 
BRANCH  16  17
ATOM     17  C   UNL     1      38.981  16.350  31.159  1.00  0.00    -0.000 C 
BRANCH  17  18
ATOM     18  C   UNL     1      39.499  15.337  32.196  1.00  0.00    -0.000 C 
BRANCH  18  19
ATOM     19  C   UNL     1      40.863  15.737  32.779  1.00  0.00    -0.003 C 
ATOM     20  C   UNL     1      40.753  16.342  34.178  1.00  0.00     0.004 C 
ENDBRANCH  18  19
ENDBRANCH  17  18
ENDBRANCH  16  17
ENDBRANCH  15  16
ENDBRANCH  14  15
ENDBRANCH  13  14
ENDBRANCH   2  13
TORSDOF 15
ENDMDL
