MODEL 1
REMARK VINA RESULT:    -5.155      0.000      0.000
REMARK INTER + INTRA:          -5.306
REMARK INTER:                  -5.306
REMARK INTRA:                   0.000
REMARK UNBOUND:                 0.000
REMARK SMILES O=c1ccc2ccc(O)cc2o1
REMARK SMILES IDX 6 1 7 2 8 3 10 4 11 5 5 6 4 7 3 8 2 9 1 10 12 11 9 12
REMARK H PARENT 9 13
REMARK Flexibility Score: inf
ROOT
ATOM      1  C   UNL     1      20.890  40.264  27.769  1.00  0.00     0.016 A 
ATOM      2  C   UNL     1      20.574  39.976  29.101  1.00  0.00     0.047 A 
ATOM      3  C   UNL     1      20.832  40.913  30.109  1.00  0.00     0.119 A 
ATOM      4  C   UNL     1      21.413  42.147  29.784  1.00  0.00     0.094 A 
ATOM      5  C   UNL     1      21.733  42.445  28.454  1.00  0.00     0.142 A 
ATOM      6  C   UNL     1      21.470  41.497  27.441  1.00  0.00     0.018 A 
ATOM      7  C   UNL     1      21.801  41.822  26.121  1.00  0.00     0.019 A 
ATOM      8  C   UNL     1      22.376  43.062  25.846  1.00  0.00     0.094 A 
ATOM      9  C   UNL     1      22.607  43.952  26.901  1.00  0.00     0.336 A 
ATOM     10  O   UNL     1      23.125  45.076  26.673  1.00  0.00    -0.246 OA
ATOM     11  O   UNL     1      22.283  43.617  28.148  1.00  0.00    -0.423 OA
ENDROOT
BRANCH   3  12
ATOM     12  O   UNL     1      20.510  40.608  31.429  1.00  0.00    -0.508 OA
ATOM     13  H   UNL     1      21.106  40.017  31.996  1.00  0.00     0.293 HD
ENDBRANCH   3  12
TORSDOF 1
ENDMDL
MODEL 2
REMARK VINA RESULT:    -4.563      1.613      4.182
REMARK INTER + INTRA:          -4.696
REMARK INTER:                  -4.696
REMARK INTRA:                   0.000
REMARK UNBOUND:                 0.000
REMARK SMILES O=c1ccc2ccc(O)cc2o1
REMARK SMILES IDX 6 1 7 2 8 3 10 4 11 5 5 6 4 7 3 8 2 9 1 10 12 11 9 12
REMARK H PARENT 9 13
REMARK Flexibility Score: inf
ROOT
ATOM      1  C   UNL     1      22.760  43.900  26.581  1.00  0.00     0.016 A 
ATOM      2  C   UNL     1      23.031  45.147  27.154  1.00  0.00     0.047 A 
ATOM      3  C   UNL     1      22.710  45.396  28.494  1.00  0.00     0.119 A 
ATOM      4  C   UNL     1      22.112  44.391  29.268  1.00  0.00     0.094 A 
ATOM      5  C   UNL     1      21.836  43.139  28.704  1.00  0.00     0.142 A 
ATOM      6  C   UNL     1      22.162  42.893  27.352  1.00  0.00     0.018 A 
ATOM      7  C   UNL     1      21.875  41.634  26.816  1.00  0.00     0.019 A 
ATOM      8  C   UNL     1      21.280  40.666  27.625  1.00  0.00     0.094 A 
ATOM      9  C   UNL     1      20.986  40.981  28.956  1.00  0.00     0.336 A 
ATOM     10  O   UNL     1      20.449  40.121  29.701  1.00  0.00    -0.246 OA
ATOM     11  O   UNL     1      21.269  42.188  29.440  1.00  0.00    -0.423 OA
ENDROOT
BRANCH   3  12
ATOM     12  O   UNL     1      22.988  46.644  29.046  1.00  0.00    -0.508 OA
ATOM     13  H   UNL     1      23.054  47.474  28.470  1.00  0.00     0.293 HD
ENDBRANCH   3  12
TORSDOF 1
ENDMDL
MODEL 3
REMARK VINA RESULT:    -4.173      2.259      3.332
REMARK INTER + INTRA:          -4.295
REMARK INTER:                  -4.295
REMARK INTRA:                   0.000
REMARK UNBOUND:                 0.000
REMARK SMILES O=c1ccc2ccc(O)cc2o1
REMARK SMILES IDX 6 1 7 2 8 3 10 4 11 5 5 6 4 7 3 8 2 9 1 10 12 11 9 12
REMARK H PARENT 9 13
REMARK Flexibility Score: inf
ROOT
ATOM      1  C   UNL     1      22.471  43.042  26.750  1.00  0.00     0.016 A 
ATOM      2  C   UNL     1      22.031  41.725  26.579  1.00  0.00     0.047 A 
ATOM      3  C   UNL     1      21.420  41.040  27.636  1.00  0.00     0.119 A 
ATOM      4  C   UNL     1      21.249  41.675  28.875  1.00  0.00     0.094 A 
ATOM      5  C   UNL     1      21.686  42.992  29.056  1.00  0.00     0.142 A 
ATOM      6  C   UNL     1      22.301  43.680  27.986  1.00  0.00     0.018 A 
ATOM      7  C   UNL     1      22.727  44.995  28.196  1.00  0.00     0.019 A 
ATOM      8  C   UNL     1      22.535  45.585  29.446  1.00  0.00     0.094 A 
ATOM      9  C   UNL     1      21.918  44.843  30.458  1.00  0.00     0.336 A 
ATOM     10  O   UNL     1      21.735  45.358  31.593  1.00  0.00    -0.246 OA
ATOM     11  O   UNL     1      21.522  43.592  30.232  1.00  0.00    -0.423 OA
ENDROOT
BRANCH   3  12
ATOM     12  O   UNL     1      20.989  39.729  27.447  1.00  0.00    -0.508 OA
ATOM     13  H   UNL     1      21.590  39.030  27.027  1.00  0.00     0.293 HD
ENDBRANCH   3  12
TORSDOF 1
ENDMDL
MODEL 4
REMARK VINA RESULT:    -4.083      2.410      3.583
REMARK INTER + INTRA:          -4.203
REMARK INTER:                  -4.203
REMARK INTRA:                   0.000
REMARK UNBOUND:                 0.000
REMARK SMILES O=c1ccc2ccc(O)cc2o1
REMARK SMILES IDX 6 1 7 2 8 3 10 4 11 5 5 6 4 7 3 8 2 9 1 10 12 11 9 12
REMARK H PARENT 9 13
REMARK Flexibility Score: inf
ROOT
ATOM      1  C   UNL     1      22.487  44.967  29.040  1.00  0.00     0.016 A 
ATOM      2  C   UNL     1      22.211  45.314  30.367  1.00  0.00     0.047 A 
ATOM      3  C   UNL     1      21.598  44.395  31.227  1.00  0.00     0.119 A 
ATOM      4  C   UNL     1      21.256  43.118  30.757  1.00  0.00     0.094 A 
ATOM      5  C   UNL     1      21.528  42.761  29.431  1.00  0.00     0.142 A 
ATOM      6  C   UNL     1      22.148  43.692  28.567  1.00  0.00     0.018 A 
ATOM      7  C   UNL     1      22.407  43.308  27.248  1.00  0.00     0.019 A 
ATOM      8  C   UNL     1      22.050  42.027  26.826  1.00  0.00     0.094 A 
ATOM      9  C   UNL     1      21.440  41.158  27.737  1.00  0.00     0.336 A 
ATOM     10  O   UNL     1      21.111  39.998  27.375  1.00  0.00    -0.246 OA
ATOM     11  O   UNL     1      21.204  41.550  28.987  1.00  0.00    -0.423 OA
ENDROOT
BRANCH   3  12
ATOM     12  O   UNL     1      21.331  44.759  32.544  1.00  0.00    -0.508 OA
ATOM     13  H   UNL     1      20.514  44.415  33.034  1.00  0.00     0.293 HD
ENDBRANCH   3  12
TORSDOF 1
ENDMDL
MODEL 5
REMARK VINA RESULT:    -4.009      2.513      3.729
REMARK INTER + INTRA:          -4.126
REMARK INTER:                  -4.126
REMARK INTRA:                   0.000
REMARK UNBOUND:                 0.000
REMARK SMILES O=c1ccc2ccc(O)cc2o1
REMARK SMILES IDX 6 1 7 2 8 3 10 4 11 5 5 6 4 7 3 8 2 9 1 10 12 11 9 12
REMARK H PARENT 9 13
REMARK Flexibility Score: inf
ROOT
ATOM      1  C   UNL     1      22.103  43.425  24.517  1.00  0.00     0.016 A 
ATOM      2  C   UNL     1      21.981  42.188  25.158  1.00  0.00     0.047 A 
ATOM      3  C   UNL     1      22.121  42.093  26.548  1.00  0.00     0.119 A 
ATOM      4  C   UNL     1      22.386  43.245  27.304  1.00  0.00     0.094 A 
ATOM      5  C   UNL     1      22.509  44.488  26.672  1.00  0.00     0.142 A 
ATOM      6  C   UNL     1      22.367  44.578  25.270  1.00  0.00     0.018 A 
ATOM      7  C   UNL     1      22.496  45.832  24.666  1.00  0.00     0.019 A 
ATOM      8  C   UNL     1      22.759  46.949  25.459  1.00  0.00     0.094 A 
ATOM      9  C   UNL     1      22.887  46.784  26.842  1.00  0.00     0.336 A 
ATOM     10  O   UNL     1      23.124  47.780  27.575  1.00  0.00    -0.246 OA
ATOM     11  O   UNL     1      22.760  45.578  27.391  1.00  0.00    -0.423 OA
ENDROOT
BRANCH   3  12
ATOM     12  O   UNL     1      21.996  40.853  27.168  1.00  0.00    -0.508 OA
ATOM     13  H   UNL     1      21.503  40.087  26.725  1.00  0.00     0.293 HD
ENDBRANCH   3  12
TORSDOF 1
ENDMDL
MODEL 6
REMARK VINA RESULT:    -3.919      1.627      2.339
REMARK INTER + INTRA:          -4.033
REMARK INTER:                  -4.033
REMARK INTRA:                   0.000
REMARK UNBOUND:                 0.000
REMARK SMILES O=c1ccc2ccc(O)cc2o1
REMARK SMILES IDX 6 1 7 2 8 3 10 4 11 5 5 6 4 7 3 8 2 9 1 10 12 11 9 12
REMARK H PARENT 9 13
REMARK Flexibility Score: inf
ROOT
ATOM      1  C   UNL     1      21.842  42.836  29.245  1.00  0.00     0.016 A 
ATOM      2  C   UNL     1      21.252  41.736  29.876  1.00  0.00     0.047 A 
ATOM      3  C   UNL     1      20.809  40.641  29.124  1.00  0.00     0.119 A 
ATOM      4  C   UNL     1      20.955  40.647  27.729  1.00  0.00     0.094 A 
ATOM      5  C   UNL     1      21.544  41.743  27.088  1.00  0.00     0.142 A 
ATOM      6  C   UNL     1      21.990  42.844  27.851  1.00  0.00     0.018 A 
ATOM      7  C   UNL     1      22.575  43.925  27.184  1.00  0.00     0.019 A 
ATOM      8  C   UNL     1      22.699  43.886  25.796  1.00  0.00     0.094 A 
ATOM      9  C   UNL     1      22.235  42.761  25.105  1.00  0.00     0.336 A 
ATOM     10  O   UNL     1      22.339  42.706  23.852  1.00  0.00    -0.246 OA
ATOM     11  O   UNL     1      21.682  41.746  25.765  1.00  0.00    -0.423 OA
ENDROOT
BRANCH   3  12
ATOM     12  O   UNL     1      20.224  39.555  29.770  1.00  0.00    -0.508 OA
ATOM     13  H   UNL     1      19.245  39.327  29.642  1.00  0.00     0.293 HD
ENDBRANCH   3  12
TORSDOF 1
ENDMDL
MODEL 7
REMARK VINA RESULT:    -3.907      2.115      3.294
REMARK INTER + INTRA:          -4.021
REMARK INTER:                  -4.021
REMARK INTRA:                   0.000
REMARK UNBOUND:                 0.000
REMARK SMILES O=c1ccc2ccc(O)cc2o1
REMARK SMILES IDX 6 1 7 2 8 3 10 4 11 5 5 6 4 7 3 8 2 9 1 10 12 11 9 12
REMARK H PARENT 9 13
REMARK Flexibility Score: inf
ROOT
ATOM      1  C   UNL     1      21.249  42.786  30.617  1.00  0.00     0.016 A 
ATOM      2  C   UNL     1      21.528  43.989  31.275  1.00  0.00     0.047 A 
ATOM      3  C   UNL     1      22.090  45.064  30.577  1.00  0.00     0.119 A 
ATOM      4  C   UNL     1      22.379  44.937  29.211  1.00  0.00     0.094 A 
ATOM      5  C   UNL     1      22.104  43.737  28.543  1.00  0.00     0.142 A 
ATOM      6  C   UNL     1      21.536  42.655  29.251  1.00  0.00     0.018 A 
ATOM      7  C   UNL     1      21.272  41.470  28.559  1.00  0.00     0.019 A 
ATOM      8  C   UNL     1      21.575  41.390  27.199  1.00  0.00     0.094 A 
ATOM      9  C   UNL     1      22.137  42.503  26.563  1.00  0.00     0.336 A 
ATOM     10  O   UNL     1      22.417  42.450  25.337  1.00  0.00    -0.246 OA
ATOM     11  O   UNL     1      22.378  43.619  27.247  1.00  0.00    -0.423 OA
ENDROOT
BRANCH   3  12
ATOM     12  O   UNL     1      22.360  46.253  31.250  1.00  0.00    -0.508 OA
ATOM     13  H   UNL     1      23.252  46.724  31.157  1.00  0.00     0.293 HD
ENDBRANCH   3  12
TORSDOF 1
ENDMDL
MODEL 8
REMARK VINA RESULT:    -3.885      2.556      4.795
REMARK INTER + INTRA:          -3.999
REMARK INTER:                  -3.999
REMARK INTRA:                   0.000
REMARK UNBOUND:                 0.000
REMARK SMILES O=c1ccc2ccc(O)cc2o1
REMARK SMILES IDX 6 1 7 2 8 3 10 4 11 5 5 6 4 7 3 8 2 9 1 10 12 11 9 12
REMARK H PARENT 9 13
REMARK Flexibility Score: inf
ROOT
ATOM      1  C   UNL     1      22.659  45.738  25.072  1.00  0.00     0.016 A 
ATOM      2  C   UNL     1      22.898  46.766  25.991  1.00  0.00     0.047 A 
ATOM      3  C   UNL     1      22.884  46.503  27.366  1.00  0.00     0.119 A 
ATOM      4  C   UNL     1      22.628  45.203  27.827  1.00  0.00     0.094 A 
ATOM      5  C   UNL     1      22.387  44.169  26.915  1.00  0.00     0.142 A 
ATOM      6  C   UNL     1      22.403  44.438  25.529  1.00  0.00     0.018 A 
ATOM      7  C   UNL     1      22.159  43.385  24.642  1.00  0.00     0.019 A 
ATOM      8  C   UNL     1      21.909  42.109  25.148  1.00  0.00     0.094 A 
ATOM      9  C   UNL     1      21.910  41.917  26.534  1.00  0.00     0.336 A 
ATOM     10  O   UNL     1      21.688  40.773  27.009  1.00  0.00    -0.246 OA
ATOM     11  O   UNL     1      22.145  42.937  27.355  1.00  0.00    -0.423 OA
ENDROOT
BRANCH   3  12
ATOM     12  O   UNL     1      23.125  47.539  28.265  1.00  0.00    -0.508 OA
ATOM     13  H   UNL     1      23.098  47.388  29.266  1.00  0.00     0.293 HD
ENDBRANCH   3  12
TORSDOF 1
ENDMDL
MODEL 9
REMARK VINA RESULT:    -3.837      1.936      3.014
REMARK INTER + INTRA:          -3.949
REMARK INTER:                  -3.949
REMARK INTRA:                   0.000
REMARK UNBOUND:                 0.000
REMARK SMILES O=c1ccc2ccc(O)cc2o1
REMARK SMILES IDX 6 1 7 2 8 3 10 4 11 5 5 6 4 7 3 8 2 9 1 10 12 11 9 12
REMARK H PARENT 9 13
REMARK Flexibility Score: inf
ROOT
ATOM      1  C   UNL     1      20.876  41.354  30.460  1.00  0.00     0.016 A 
ATOM      2  C   UNL     1      20.728  40.336  29.511  1.00  0.00     0.047 A 
ATOM      3  C   UNL     1      21.067  40.561  28.171  1.00  0.00     0.119 A 
ATOM      4  C   UNL     1      21.554  41.815  27.775  1.00  0.00     0.094 A 
ATOM      5  C   UNL     1      21.705  42.840  28.716  1.00  0.00     0.142 A 
ATOM      6  C   UNL     1      21.364  42.608  30.067  1.00  0.00     0.018 A 
ATOM      7  C   UNL     1      21.525  43.650  30.984  1.00  0.00     0.019 A 
ATOM      8  C   UNL     1      22.014  44.880  30.544  1.00  0.00     0.094 A 
ATOM      9  C   UNL     1      22.332  45.037  29.190  1.00  0.00     0.336 A 
ATOM     10  O   UNL     1      22.776  46.139  28.773  1.00  0.00    -0.246 OA
ATOM     11  O   UNL     1      22.169  44.028  28.338  1.00  0.00    -0.423 OA
ENDROOT
BRANCH   3  12
ATOM     12  O   UNL     1      20.913  39.535  27.243  1.00  0.00    -0.508 OA
ATOM     13  H   UNL     1      20.846  38.566  27.530  1.00  0.00     0.293 HD
ENDBRANCH   3  12
TORSDOF 1
ENDMDL
