MODEL 1
REMARK VINA RESULT:    -3.278      0.000      0.000
REMARK INTER + INTRA:          -6.023
REMARK INTER:                  -5.194
REMARK INTRA:                  -0.829
REMARK UNBOUND:                -0.829
REMARK SMILES CCCCCCCCCCCC(=O)[O-]
REMARK SMILES IDX 7 1 8 2 9 3 10 4 11 5 12 6 13 7 14 8 6 9 5 10 4 11 3 12 2 13
REMARK SMILES IDX 1 14
REMARK H PARENT
REMARK Flexibility Score: inf
ROOT
ATOM      1  C   UNL     1       6.977 -22.027  12.738  1.00  0.00     0.000 C 
ENDROOT
BRANCH   1   2
ATOM      2  C   UNL     1       6.576 -22.887  11.526  1.00  0.00     0.000 C 
BRANCH   2   3
ATOM      3  C   UNL     1       7.543 -22.722  10.342  1.00  0.00     0.000 C 
BRANCH   3   4
ATOM      4  C   UNL     1       6.990 -21.788   9.254  1.00  0.00     0.006 C 
BRANCH   4   5
ATOM      5  C   UNL     1       7.757 -20.462   9.229  1.00  0.00     0.053 C 
BRANCH   5   6
ATOM      6  C   UNL     1       6.899 -19.351   9.743  1.00  0.00     0.041 C 
ATOM      7  O   UNL     1       6.889 -19.073  10.971  1.00  0.00    -0.550 OA
ATOM      8  O   UNL     1       6.147 -18.587   8.860  1.00  0.00    -0.550 OA
ENDBRANCH   5   6
ENDBRANCH   4   5
ENDBRANCH   3   4
ENDBRANCH   2   3
ENDBRANCH   1   2
BRANCH   1   9
ATOM      9  C   UNL     1       8.472 -21.671  12.741  1.00  0.00     0.000 C 
BRANCH   9  10
ATOM     10  C   UNL     1       8.874 -20.818  13.954  1.00  0.00    -0.000 C 
BRANCH  10  11
ATOM     11  C   UNL     1       8.903 -21.662  15.234  1.00  0.00    -0.000 C 
BRANCH  11  12
ATOM     12  C   UNL     1       7.839 -21.184  16.232  1.00  0.00    -0.000 C 
BRANCH  12  13
ATOM     13  C   UNL     1       7.137 -22.347  16.950  1.00  0.00    -0.003 C 
ATOM     14  C   UNL     1       5.911 -21.899  17.747  1.00  0.00     0.004 C 
ENDBRANCH  12  13
ENDBRANCH  11  12
ENDBRANCH  10  11
ENDBRANCH   9  10
ENDBRANCH   1   9
TORSDOF 10
ENDMDL
MODEL 2
REMARK VINA RESULT:    -3.077      1.980      2.677
REMARK INTER + INTRA:          -5.705
REMARK INTER:                  -5.100
REMARK INTRA:                  -0.605
REMARK UNBOUND:                -0.829
REMARK SMILES CCCCCCCCCCCC(=O)[O-]
REMARK SMILES IDX 7 1 8 2 9 3 10 4 11 5 12 6 13 7 14 8 6 9 5 10 4 11 3 12 2 13
REMARK SMILES IDX 1 14
REMARK H PARENT
REMARK Flexibility Score: inf
ROOT
ATOM      1  C   UNL     1       9.087 -19.931  12.472  1.00  0.00     0.000 C 
ENDROOT
BRANCH   1   2
ATOM      2  C   UNL     1       7.791 -19.544  11.737  1.00  0.00     0.000 C 
BRANCH   2   3
ATOM      3  C   UNL     1       7.883 -19.771  10.220  1.00  0.00     0.000 C 
BRANCH   3   4
ATOM      4  C   UNL     1       8.876 -20.883   9.849  1.00  0.00     0.006 C 
BRANCH   4   5
ATOM      5  C   UNL     1       8.271 -21.831   8.807  1.00  0.00     0.053 C 
BRANCH   5   6
ATOM      6  C   UNL     1       7.083 -22.542   9.372  1.00  0.00     0.041 C 
ATOM      7  O   UNL     1       6.075 -22.764   8.651  1.00  0.00    -0.550 OA
ATOM      8  O   UNL     1       7.107 -23.004  10.682  1.00  0.00    -0.550 OA
ENDBRANCH   5   6
ENDBRANCH   4   5
ENDBRANCH   3   4
ENDBRANCH   2   3
ENDBRANCH   1   2
BRANCH   1   9
ATOM      9  C   UNL     1       8.841 -20.319  13.938  1.00  0.00     0.000 C 
BRANCH   9  10
ATOM     10  C   UNL     1       8.904 -21.837  14.166  1.00  0.00    -0.000 C 
BRANCH  10  11
ATOM     11  C   UNL     1       7.730 -22.313  15.031  1.00  0.00    -0.000 C 
BRANCH  11  12
ATOM     12  C   UNL     1       8.143 -22.423  16.506  1.00  0.00    -0.000 C 
BRANCH  12  13
ATOM     13  C   UNL     1       7.305 -21.517  17.422  1.00  0.00    -0.003 C 
ATOM     14  C   UNL     1       5.833 -21.927  17.475  1.00  0.00     0.004 C 
ENDBRANCH  12  13
ENDBRANCH  11  12
ENDBRANCH  10  11
ENDBRANCH   9  10
ENDBRANCH   1   9
TORSDOF 10
ENDMDL
MODEL 3
REMARK VINA RESULT:    -2.990      2.824      6.107
REMARK INTER + INTRA:          -5.568
REMARK INTER:                  -4.838
REMARK INTRA:                  -0.729
REMARK UNBOUND:                -0.829
REMARK SMILES CCCCCCCCCCCC(=O)[O-]
REMARK SMILES IDX 7 1 8 2 9 3 10 4 11 5 12 6 13 7 14 8 6 9 5 10 4 11 3 12 2 13
REMARK SMILES IDX 1 14
REMARK H PARENT
REMARK Flexibility Score: inf
ROOT
ATOM      1  C   UNL     1       7.732 -19.991  11.904  1.00  0.00     0.000 C 
ENDROOT
BRANCH   1   2
ATOM      2  C   UNL     1       8.960 -19.429  12.642  1.00  0.00     0.000 C 
BRANCH   2   3
ATOM      3  C   UNL     1       9.057 -19.929  14.092  1.00  0.00     0.000 C 
BRANCH   3   4
ATOM      4  C   UNL     1       9.124 -21.460  14.185  1.00  0.00     0.006 C 
BRANCH   4   5
ATOM      5  C   UNL     1       9.035 -21.925  15.642  1.00  0.00     0.053 C 
BRANCH   5   6
ATOM      6  C   UNL     1       7.608 -21.976  16.089  1.00  0.00     0.041 C 
ATOM      7  O   UNL     1       7.239 -21.331  17.105  1.00  0.00    -0.550 OA
ATOM      8  O   UNL     1       6.675 -22.697  15.355  1.00  0.00    -0.550 OA
ENDBRANCH   5   6
ENDBRANCH   4   5
ENDBRANCH   3   4
ENDBRANCH   2   3
ENDBRANCH   1   2
BRANCH   1   9
ATOM      9  C   UNL     1       7.251 -19.071  10.771  1.00  0.00     0.000 C 
BRANCH   9  10
ATOM     10  C   UNL     1       7.354 -19.732   9.388  1.00  0.00    -0.000 C 
BRANCH  10  11
ATOM     11  C   UNL     1       8.622 -20.589   9.282  1.00  0.00    -0.000 C 
BRANCH  11  12
ATOM     12  C   UNL     1       8.309 -21.960   8.665  1.00  0.00    -0.000 C 
BRANCH  12  13
ATOM     13  C   UNL     1       6.908 -22.470   9.038  1.00  0.00    -0.003 C 
ATOM     14  C   UNL     1       6.865 -23.121  10.421  1.00  0.00     0.004 C 
ENDBRANCH  12  13
ENDBRANCH  11  12
ENDBRANCH  10  11
ENDBRANCH   9  10
ENDBRANCH   1   9
TORSDOF 10
ENDMDL
MODEL 4
REMARK VINA RESULT:    -2.876      1.666      2.885
REMARK INTER + INTRA:          -5.386
REMARK INTER:                  -4.782
REMARK INTRA:                  -0.604
REMARK UNBOUND:                -0.829
REMARK SMILES CCCCCCCCCCCC(=O)[O-]
REMARK SMILES IDX 7 1 8 2 9 3 10 4 11 5 12 6 13 7 14 8 6 9 5 10 4 11 3 12 2 13
REMARK SMILES IDX 1 14
REMARK H PARENT
REMARK Flexibility Score: inf
ROOT
ATOM      1  C   UNL     1       8.469 -20.685  14.896  1.00  0.00     0.000 C 
ENDROOT
BRANCH   1   2
ATOM      2  C   UNL     1       8.801 -21.187  13.479  1.00  0.00     0.000 C 
BRANCH   2   3
ATOM      3  C   UNL     1       7.724 -22.133  12.922  1.00  0.00     0.000 C 
BRANCH   3   4
ATOM      4  C   UNL     1       6.829 -21.455  11.873  1.00  0.00     0.006 C 
BRANCH   4   5
ATOM      5  C   UNL     1       7.486 -20.179  11.336  1.00  0.00     0.053 C 
BRANCH   5   6
ATOM      6  C   UNL     1       7.255 -20.050   9.864  1.00  0.00     0.041 C 
ATOM      7  O   UNL     1       6.527 -19.126   9.415  1.00  0.00    -0.550 OA
ATOM      8  O   UNL     1       7.884 -20.920   8.983  1.00  0.00    -0.550 OA
ENDBRANCH   5   6
ENDBRANCH   4   5
ENDBRANCH   3   4
ENDBRANCH   2   3
ENDBRANCH   1   2
BRANCH   1   9
ATOM      9  C   UNL     1       8.115 -21.829  15.860  1.00  0.00     0.000 C 
BRANCH   9  10
ATOM     10  C   UNL     1       7.432 -21.332  17.142  1.00  0.00    -0.000 C 
BRANCH  10  11
ATOM     11  C   UNL     1       6.378 -22.335  17.629  1.00  0.00    -0.000 C 
BRANCH  11  12
ATOM     12  C   UNL     1       4.976 -21.936  17.149  1.00  0.00    -0.000 C 
BRANCH  12  13
ATOM     13  C   UNL     1       4.491 -22.790  15.967  1.00  0.00    -0.003 C 
ATOM     14  C   UNL     1       2.969 -22.787  15.819  1.00  0.00     0.004 C 
ENDBRANCH  12  13
ENDBRANCH  11  12
ENDBRANCH  10  11
ENDBRANCH   9  10
ENDBRANCH   1   9
TORSDOF 10
ENDMDL
MODEL 5
REMARK VINA RESULT:    -2.840     16.014     18.219
REMARK INTER + INTRA:          -5.329
REMARK INTER:                  -4.664
REMARK INTRA:                  -0.665
REMARK UNBOUND:                -0.829
REMARK SMILES CCCCCCCCCCCC(=O)[O-]
REMARK SMILES IDX 7 1 8 2 9 3 10 4 11 5 12 6 13 7 14 8 6 9 5 10 4 11 3 12 2 13
REMARK SMILES IDX 1 14
REMARK H PARENT
REMARK Flexibility Score: inf
ROOT
ATOM      1  C   UNL     1     -11.125 -18.764  18.571  1.00  0.00     0.000 C 
ENDROOT
BRANCH   1   2
ATOM      2  C   UNL     1     -11.116 -20.092  17.793  1.00  0.00     0.000 C 
BRANCH   2   3
ATOM      3  C   UNL     1     -10.762 -19.903  16.309  1.00  0.00     0.000 C 
BRANCH   3   4
ATOM      4  C   UNL     1      -9.651 -20.855  15.842  1.00  0.00     0.006 C 
BRANCH   4   5
ATOM      5  C   UNL     1      -9.114 -21.686  17.012  1.00  0.00     0.053 C 
BRANCH   5   6
ATOM      6  C   UNL     1      -7.670 -22.016  16.802  1.00  0.00     0.041 C 
ATOM      7  O   UNL     1      -7.201 -22.095  15.636  1.00  0.00    -0.550 OA
ATOM      8  O   UNL     1      -6.829 -22.187  17.894  1.00  0.00    -0.550 OA
ENDBRANCH   5   6
ENDBRANCH   4   5
ENDBRANCH   3   4
ENDBRANCH   2   3
ENDBRANCH   1   2
BRANCH   1   9
ATOM      9  C   UNL     1     -10.577 -18.913  19.999  1.00  0.00     0.000 C 
BRANCH   9  10
ATOM     10  C   UNL     1     -10.002 -20.312  20.268  1.00  0.00    -0.000 C 
BRANCH  10  11
ATOM     11  C   UNL     1     -10.429 -20.826  21.649  1.00  0.00    -0.000 C 
BRANCH  11  12
ATOM     12  C   UNL     1      -9.425 -20.402  22.729  1.00  0.00    -0.000 C 
BRANCH  12  13
ATOM     13  C   UNL     1      -8.333 -21.457  22.968  1.00  0.00    -0.003 C 
ATOM     14  C   UNL     1      -8.819 -22.628  23.823  1.00  0.00     0.004 C 
ENDBRANCH  12  13
ENDBRANCH  11  12
ENDBRANCH  10  11
ENDBRANCH   9  10
ENDBRANCH   1   9
TORSDOF 10
ENDMDL
MODEL 6
REMARK VINA RESULT:    -2.808     16.557     18.897
REMARK INTER + INTRA:          -5.279
REMARK INTER:                  -4.480
REMARK INTRA:                  -0.799
REMARK UNBOUND:                -0.829
REMARK SMILES CCCCCCCCCCCC(=O)[O-]
REMARK SMILES IDX 7 1 8 2 9 3 10 4 11 5 12 6 13 7 14 8 6 9 5 10 4 11 3 12 2 13
REMARK SMILES IDX 1 14
REMARK H PARENT
REMARK Flexibility Score: inf
ROOT
ATOM      1  C   UNL     1     -11.035 -19.438  16.956  1.00  0.00     0.000 C 
ENDROOT
BRANCH   1   2
ATOM      2  C   UNL     1     -11.090 -19.824  18.445  1.00  0.00     0.000 C 
BRANCH   2   3
ATOM      3  C   UNL     1     -10.383 -21.158  18.735  1.00  0.00     0.000 C 
BRANCH   3   4
ATOM      4  C   UNL     1      -9.638 -21.152  20.078  1.00  0.00     0.006 C 
BRANCH   4   5
ATOM      5  C   UNL     1     -10.173 -20.047  20.996  1.00  0.00     0.053 C 
BRANCH   5   6
ATOM      6  C   UNL     1      -9.987 -20.423  22.431  1.00  0.00     0.041 C 
ATOM      7  O   UNL     1     -10.985 -20.693  23.150  1.00  0.00    -0.550 OA
ATOM      8  O   UNL     1      -8.709 -20.524  22.964  1.00  0.00    -0.550 OA
ENDBRANCH   5   6
ENDBRANCH   4   5
ENDBRANCH   3   4
ENDBRANCH   2   3
ENDBRANCH   1   2
BRANCH   1   9
ATOM      9  C   UNL     1     -10.881 -20.660  16.036  1.00  0.00     0.000 C 
BRANCH   9  10
ATOM     10  C   UNL     1     -10.273 -20.300  14.672  1.00  0.00    -0.000 C 
BRANCH  10  11
ATOM     11  C   UNL     1      -8.901 -20.961  14.489  1.00  0.00    -0.000 C 
BRANCH  11  12
ATOM     12  C   UNL     1      -8.131 -21.004  15.817  1.00  0.00    -0.000 C 
BRANCH  12  13
ATOM     13  C   UNL     1      -7.314 -22.296  15.983  1.00  0.00    -0.003 C 
ATOM     14  C   UNL     1      -6.517 -22.328  17.287  1.00  0.00     0.004 C 
ENDBRANCH  12  13
ENDBRANCH  11  12
ENDBRANCH  10  11
ENDBRANCH   9  10
ENDBRANCH   1   9
TORSDOF 10
ENDMDL
MODEL 7
REMARK VINA RESULT:    -2.645      2.949      6.212
REMARK INTER + INTRA:          -5.021
REMARK INTER:                  -4.062
REMARK INTRA:                  -0.959
REMARK UNBOUND:                -0.829
REMARK SMILES CCCCCCCCCCCC(=O)[O-]
REMARK SMILES IDX 7 1 8 2 9 3 10 4 11 5 12 6 13 7 14 8 6 9 5 10 4 11 3 12 2 13
REMARK SMILES IDX 1 14
REMARK H PARENT
REMARK Flexibility Score: inf
ROOT
ATOM      1  C   UNL     1       6.540 -23.005  13.048  1.00  0.00     0.000 C 
ENDROOT
BRANCH   1   2
ATOM      2  C   UNL     1       7.602 -21.967  13.453  1.00  0.00     0.000 C 
BRANCH   2   3
ATOM      3  C   UNL     1       8.748 -22.584  14.271  1.00  0.00     0.000 C 
BRANCH   3   4
ATOM      4  C   UNL     1       8.361 -22.828  15.738  1.00  0.00     0.006 C 
BRANCH   4   5
ATOM      5  C   UNL     1       7.627 -21.615  16.319  1.00  0.00     0.053 C 
BRANCH   5   6
ATOM      6  C   UNL     1       6.369 -22.042  17.005  1.00  0.00     0.041 C 
ATOM      7  O   UNL     1       6.297 -22.028  18.262  1.00  0.00    -0.550 OA
ATOM      8  O   UNL     1       5.259 -22.410  16.256  1.00  0.00    -0.550 OA
ENDBRANCH   5   6
ENDBRANCH   4   5
ENDBRANCH   3   4
ENDBRANCH   2   3
ENDBRANCH   1   2
BRANCH   1   9
ATOM      9  C   UNL     1       6.274 -23.018  11.535  1.00  0.00     0.000 C 
BRANCH   9  10
ATOM     10  C   UNL     1       7.562 -22.897  10.707  1.00  0.00    -0.000 C 
BRANCH  10  11
ATOM     11  C   UNL     1       7.276 -22.282   9.331  1.00  0.00    -0.000 C 
BRANCH  11  12
ATOM     12  C   UNL     1       7.907 -20.888   9.209  1.00  0.00    -0.000 C 
BRANCH  12  13
ATOM     13  C   UNL     1       6.939 -19.765   9.611  1.00  0.00    -0.003 C 
ATOM     14  C   UNL     1       7.240 -19.189  10.995  1.00  0.00     0.004 C 
ENDBRANCH  12  13
ENDBRANCH  11  12
ENDBRANCH  10  11
ENDBRANCH   9  10
ENDBRANCH   1   9
TORSDOF 10
ENDMDL
MODEL 8
REMARK VINA RESULT:    -2.628     17.136     19.460
REMARK INTER + INTRA:          -4.993
REMARK INTER:                  -4.252
REMARK INTRA:                  -0.741
REMARK UNBOUND:                -0.829
REMARK SMILES CCCCCCCCCCCC(=O)[O-]
REMARK SMILES IDX 7 1 8 2 9 3 10 4 11 5 12 6 13 7 14 8 6 9 5 10 4 11 3 12 2 13
REMARK SMILES IDX 1 14
REMARK H PARENT
REMARK Flexibility Score: inf
ROOT
ATOM      1  C   UNL     1      -8.517 -22.171  18.550  1.00  0.00     0.000 C 
ENDROOT
BRANCH   1   2
ATOM      2  C   UNL     1      -8.528 -22.374  20.076  1.00  0.00     0.000 C 
BRANCH   2   3
ATOM      3  C   UNL     1      -9.929 -22.193  20.684  1.00  0.00     0.000 C 
BRANCH   3   4
ATOM      4  C   UNL     1     -10.128 -20.801  21.301  1.00  0.00     0.006 C 
BRANCH   4   5
ATOM      5  C   UNL     1      -9.262 -20.629  22.553  1.00  0.00     0.053 C 
BRANCH   5   6
ATOM      6  C   UNL     1      -9.476 -21.767  23.500  1.00  0.00     0.041 C 
ATOM      7  O   UNL     1      -8.502 -22.472  23.874  1.00  0.00    -0.550 OA
ATOM      8  O   UNL     1     -10.743 -22.019  24.009  1.00  0.00    -0.550 OA
ENDBRANCH   5   6
ENDBRANCH   4   5
ENDBRANCH   3   4
ENDBRANCH   2   3
ENDBRANCH   1   2
BRANCH   1   9
ATOM      9  C   UNL     1      -9.579 -23.020  17.834  1.00  0.00     0.000 C 
BRANCH   9  10
ATOM     10  C   UNL     1     -10.792 -22.191  17.382  1.00  0.00    -0.000 C 
BRANCH  10  11
ATOM     11  C   UNL     1     -10.358 -20.804  16.892  1.00  0.00    -0.000 C 
BRANCH  11  12
ATOM     12  C   UNL     1     -10.976 -20.486  15.523  1.00  0.00    -0.000 C 
BRANCH  12  13
ATOM     13  C   UNL     1      -9.938 -20.500  14.390  1.00  0.00    -0.003 C 
ATOM     14  C   UNL     1      -8.537 -20.875  14.874  1.00  0.00     0.004 C 
ENDBRANCH  12  13
ENDBRANCH  11  12
ENDBRANCH  10  11
ENDBRANCH   9  10
ENDBRANCH   1   9
TORSDOF 10
ENDMDL
