MODEL 1
REMARK VINA RESULT:    -3.922      0.000      0.000
REMARK INTER + INTRA:          -8.439
REMARK INTER:                  -6.674
REMARK INTRA:                  -1.765
REMARK UNBOUND:                -1.765
REMARK SMILES CCCCCCCCCCCCCC(=O)[O-]
REMARK SMILES IDX 8 1 9 2 10 3 11 4 12 5 13 6 14 7 15 8 16 9 7 10 6 11 5 12
REMARK SMILES IDX 4 13 3 14 2 15 1 16
REMARK H PARENT
REMARK Flexibility Score: inf
ROOT
ATOM      1  C   UNL     1     -13.008  -6.275 -29.491  1.00  0.00     0.000 C 
ENDROOT
BRANCH   1   2
ATOM      2  C   UNL     1     -11.485  -6.243 -29.702  1.00  0.00     0.000 C 
BRANCH   2   3
ATOM      3  C   UNL     1     -11.040  -5.121 -30.657  1.00  0.00     0.000 C 
BRANCH   3   4
ATOM      4  C   UNL     1     -12.229  -4.380 -31.288  1.00  0.00     0.000 C 
BRANCH   4   5
ATOM      5  C   UNL     1     -12.253  -2.886 -30.923  1.00  0.00     0.006 C 
BRANCH   5   6
ATOM      6  C   UNL     1     -13.394  -2.544 -29.957  1.00  0.00     0.053 C 
BRANCH   6   7
ATOM      7  C   UNL     1     -14.116  -1.298 -30.372  1.00  0.00     0.041 C 
ATOM      8  O   UNL     1     -13.627  -0.544 -31.253  1.00  0.00    -0.550 OA
ATOM      9  O   UNL     1     -15.315  -0.954 -29.760  1.00  0.00    -0.550 OA
ENDBRANCH   6   7
ENDBRANCH   5   6
ENDBRANCH   4   5
ENDBRANCH   3   4
ENDBRANCH   2   3
ENDBRANCH   1   2
BRANCH   1  10
ATOM     10  C   UNL     1     -13.693  -7.602 -29.877  1.00  0.00     0.000 C 
BRANCH  10  11
ATOM     11  C   UNL     1     -15.035  -7.459 -30.619  1.00  0.00    -0.000 C 
BRANCH  11  12
ATOM     12  C   UNL     1     -15.549  -6.011 -30.652  1.00  0.00    -0.000 C 
BRANCH  12  13
ATOM     13  C   UNL     1     -15.869  -5.522 -32.077  1.00  0.00    -0.000 C 
BRANCH  13  14
ATOM     14  C   UNL     1     -15.952  -3.991 -32.244  1.00  0.00    -0.000 C 
BRANCH  14  15
ATOM     15  C   UNL     1     -15.055  -3.409 -33.350  1.00  0.00    -0.003 C 
ATOM     16  C   UNL     1     -15.519  -2.036 -33.832  1.00  0.00     0.004 C 
ENDBRANCH  14  15
ENDBRANCH  13  14
ENDBRANCH  12  13
ENDBRANCH  11  12
ENDBRANCH  10  11
ENDBRANCH   1  10
TORSDOF 12
ENDMDL
MODEL 2
REMARK VINA RESULT:    -3.918      1.665      4.657
REMARK INTER + INTRA:          -8.431
REMARK INTER:                  -7.353
REMARK INTRA:                  -1.079
REMARK UNBOUND:                -1.765
REMARK SMILES CCCCCCCCCCCCCC(=O)[O-]
REMARK SMILES IDX 8 1 9 2 10 3 11 4 12 5 13 6 14 7 15 8 16 9 7 10 6 11 5 12
REMARK SMILES IDX 4 13 3 14 2 15 1 16
REMARK H PARENT
REMARK Flexibility Score: inf
ROOT
ATOM      1  C   UNL     1     -13.771  -4.218 -31.995  1.00  0.00     0.000 C 
ENDROOT
BRANCH   1   2
ATOM      2  C   UNL     1     -14.301  -3.784 -33.373  1.00  0.00     0.000 C 
BRANCH   2   3
ATOM      3  C   UNL     1     -15.633  -3.020 -33.284  1.00  0.00     0.000 C 
BRANCH   3   4
ATOM      4  C   UNL     1     -15.620  -1.717 -34.099  1.00  0.00     0.000 C 
BRANCH   4   5
ATOM      5  C   UNL     1     -15.045  -0.532 -33.306  1.00  0.00     0.006 C 
BRANCH   5   6
ATOM      6  C   UNL     1     -15.362  -0.629 -31.808  1.00  0.00     0.053 C 
BRANCH   6   7
ATOM      7  C   UNL     1     -14.196  -0.208 -30.967  1.00  0.00     0.041 C 
ATOM      8  O   UNL     1     -13.964  -0.782 -29.870  1.00  0.00    -0.550 OA
ATOM      9  O   UNL     1     -13.385   0.841 -31.379  1.00  0.00    -0.550 OA
ENDBRANCH   6   7
ENDBRANCH   5   6
ENDBRANCH   4   5
ENDBRANCH   3   4
ENDBRANCH   2   3
ENDBRANCH   1   2
BRANCH   1  10
ATOM     10  C   UNL     1     -14.784  -4.098 -30.838  1.00  0.00     0.000 C 
BRANCH  10  11
ATOM     11  C   UNL     1     -15.173  -5.426 -30.163  1.00  0.00    -0.000 C 
BRANCH  11  12
ATOM     12  C   UNL     1     -15.270  -6.595 -31.155  1.00  0.00    -0.000 C 
BRANCH  12  13
ATOM     13  C   UNL     1     -14.751  -7.922 -30.570  1.00  0.00    -0.000 C 
BRANCH  13  14
ATOM     14  C   UNL     1     -13.564  -7.791 -29.594  1.00  0.00    -0.000 C 
BRANCH  14  15
ATOM     15  C   UNL     1     -12.949  -9.125 -29.136  1.00  0.00    -0.003 C 
ATOM     16  C   UNL     1     -12.153  -8.998 -27.839  1.00  0.00     0.004 C 
ENDBRANCH  14  15
ENDBRANCH  13  14
ENDBRANCH  12  13
ENDBRANCH  11  12
ENDBRANCH  10  11
ENDBRANCH   1  10
TORSDOF 12
ENDMDL
MODEL 3
REMARK VINA RESULT:    -3.852      1.432      4.033
REMARK INTER + INTRA:          -8.319
REMARK INTER:                  -7.142
REMARK INTRA:                  -1.177
REMARK UNBOUND:                -1.765
REMARK SMILES CCCCCCCCCCCCCC(=O)[O-]
REMARK SMILES IDX 8 1 9 2 10 3 11 4 12 5 13 6 14 7 15 8 16 9 7 10 6 11 5 12
REMARK SMILES IDX 4 13 3 14 2 15 1 16
REMARK H PARENT
REMARK Flexibility Score: inf
ROOT
ATOM      1  C   UNL     1     -14.507  -6.749 -30.262  1.00  0.00     0.000 C 
ENDROOT
BRANCH   1   2
ATOM      2  C   UNL     1     -15.413  -6.262 -31.407  1.00  0.00     0.000 C 
BRANCH   2   3
ATOM      3  C   UNL     1     -15.420  -4.730 -31.548  1.00  0.00     0.000 C 
BRANCH   3   4
ATOM      4  C   UNL     1     -15.538  -4.275 -33.012  1.00  0.00     0.000 C 
BRANCH   4   5
ATOM      5  C   UNL     1     -14.545  -3.154 -33.362  1.00  0.00     0.006 C 
BRANCH   5   6
ATOM      6  C   UNL     1     -15.252  -1.893 -33.874  1.00  0.00     0.053 C 
BRANCH   6   7
ATOM      7  C   UNL     1     -15.308  -0.825 -32.824  1.00  0.00     0.041 C 
ATOM      8  O   UNL     1     -14.849   0.323 -33.061  1.00  0.00    -0.550 OA
ATOM      9  O   UNL     1     -15.838  -1.109 -31.572  1.00  0.00    -0.550 OA
ENDBRANCH   6   7
ENDBRANCH   5   6
ENDBRANCH   4   5
ENDBRANCH   3   4
ENDBRANCH   2   3
ENDBRANCH   1   2
BRANCH   1  10
ATOM     10  C   UNL     1     -14.231  -8.266 -30.248  1.00  0.00     0.000 C 
BRANCH  10  11
ATOM     11  C   UNL     1     -13.136  -8.728 -29.268  1.00  0.00    -0.000 C 
BRANCH  11  12
ATOM     12  C   UNL     1     -12.395  -7.556 -28.605  1.00  0.00    -0.000 C 
BRANCH  12  13
ATOM     13  C   UNL     1     -10.942  -7.413 -29.095  1.00  0.00    -0.000 C 
BRANCH  13  14
ATOM     14  C   UNL     1     -10.505  -5.977 -29.447  1.00  0.00    -0.000 C 
BRANCH  14  15
ATOM     15  C   UNL     1     -11.203  -5.367 -30.675  1.00  0.00    -0.003 C 
ATOM     16  C   UNL     1     -11.908  -4.048 -30.366  1.00  0.00     0.004 C 
ENDBRANCH  14  15
ENDBRANCH  13  14
ENDBRANCH  12  13
ENDBRANCH  11  12
ENDBRANCH  10  11
ENDBRANCH   1  10
TORSDOF 12
ENDMDL
MODEL 4
REMARK VINA RESULT:    -3.733     22.066     24.211
REMARK INTER + INTRA:          -8.117
REMARK INTER:                  -6.378
REMARK INTRA:                  -1.739
REMARK UNBOUND:                -1.765
REMARK SMILES CCCCCCCCCCCCCC(=O)[O-]
REMARK SMILES IDX 8 1 9 2 10 3 11 4 12 5 13 6 14 7 15 8 16 9 7 10 6 11 5 12
REMARK SMILES IDX 4 13 3 14 2 15 1 16
REMARK H PARENT
REMARK Flexibility Score: inf
ROOT
ATOM      1  C   UNL     1       3.394  10.190 -18.068  1.00  0.00     0.000 C 
ENDROOT
BRANCH   1   2
ATOM      2  C   UNL     1       3.999   9.274 -19.146  1.00  0.00     0.000 C 
BRANCH   2   3
ATOM      3  C   UNL     1       2.986   8.892 -20.240  1.00  0.00     0.000 C 
BRANCH   3   4
ATOM      4  C   UNL     1       3.407   7.637 -21.021  1.00  0.00     0.000 C 
BRANCH   4   5
ATOM      5  C   UNL     1       2.539   6.413 -20.681  1.00  0.00     0.006 C 
BRANCH   5   6
ATOM      6  C   UNL     1       3.348   5.302 -20.001  1.00  0.00     0.053 C 
BRANCH   6   7
ATOM      7  C   UNL     1       2.697   3.963 -20.166  1.00  0.00     0.041 C 
ATOM      8  O   UNL     1       1.865   3.551 -19.314  1.00  0.00    -0.550 OA
ATOM      9  O   UNL     1       3.033   3.155 -21.244  1.00  0.00    -0.550 OA
ENDBRANCH   6   7
ENDBRANCH   5   6
ENDBRANCH   4   5
ENDBRANCH   3   4
ENDBRANCH   2   3
ENDBRANCH   1   2
BRANCH   1  10
ATOM     10  C   UNL     1       1.874  10.421 -18.186  1.00  0.00     0.000 C 
BRANCH  10  11
ATOM     11  C   UNL     1       1.155  10.761 -16.868  1.00  0.00    -0.000 C 
BRANCH  11  12
ATOM     12  C   UNL     1       1.790  10.076 -15.647  1.00  0.00    -0.000 C 
BRANCH  12  13
ATOM     13  C   UNL     1       1.075   8.770 -15.254  1.00  0.00    -0.000 C 
BRANCH  13  14
ATOM     14  C   UNL     1       1.852   7.475 -15.566  1.00  0.00    -0.000 C 
BRANCH  14  15
ATOM     15  C   UNL     1       1.780   7.011 -17.030  1.00  0.00    -0.003 C 
ATOM     16  C   UNL     1       0.359   7.034 -17.593  1.00  0.00     0.004 C 
ENDBRANCH  14  15
ENDBRANCH  13  14
ENDBRANCH  12  13
ENDBRANCH  11  12
ENDBRANCH  10  11
ENDBRANCH   1  10
TORSDOF 12
ENDMDL
MODEL 5
REMARK VINA RESULT:    -3.733     22.442     24.348
REMARK INTER + INTRA:          -8.116
REMARK INTER:                  -6.158
REMARK INTRA:                  -1.958
REMARK UNBOUND:                -1.765
REMARK SMILES CCCCCCCCCCCCCC(=O)[O-]
REMARK SMILES IDX 8 1 9 2 10 3 11 4 12 5 13 6 14 7 15 8 16 9 7 10 6 11 5 12
REMARK SMILES IDX 4 13 3 14 2 15 1 16
REMARK H PARENT
REMARK Flexibility Score: inf
ROOT
ATOM      1  C   UNL     1       2.227  10.025 -15.731  1.00  0.00     0.000 C 
ENDROOT
BRANCH   1   2
ATOM      2  C   UNL     1       1.599  10.856 -16.864  1.00  0.00     0.000 C 
BRANCH   2   3
ATOM      3  C   UNL     1       2.112  10.448 -18.256  1.00  0.00     0.000 C 
BRANCH   3   4
ATOM      4  C   UNL     1       3.544   9.889 -18.216  1.00  0.00     0.000 C 
BRANCH   4   5
ATOM      5  C   UNL     1       3.991   9.319 -19.572  1.00  0.00     0.006 C 
BRANCH   5   6
ATOM      6  C   UNL     1       3.260   8.017 -19.922  1.00  0.00     0.053 C 
BRANCH   6   7
ATOM      7  C   UNL     1       3.743   7.442 -21.218  1.00  0.00     0.041 C 
ATOM      8  O   UNL     1       4.125   8.201 -22.147  1.00  0.00    -0.550 OA
ATOM      9  O   UNL     1       3.739   6.066 -21.413  1.00  0.00    -0.550 OA
ENDBRANCH   6   7
ENDBRANCH   5   6
ENDBRANCH   4   5
ENDBRANCH   3   4
ENDBRANCH   2   3
ENDBRANCH   1   2
BRANCH   1  10
ATOM     10  C   UNL     1       1.247   9.102 -14.979  1.00  0.00     0.000 C 
BRANCH  10  11
ATOM     11  C   UNL     1       1.505   7.593 -15.143  1.00  0.00    -0.000 C 
BRANCH  11  12
ATOM     12  C   UNL     1       1.775   7.188 -16.601  1.00  0.00    -0.000 C 
BRANCH  12  13
ATOM     13  C   UNL     1       0.519   6.656 -17.317  1.00  0.00    -0.000 C 
BRANCH  13  14
ATOM     14  C   UNL     1      -0.118   7.624 -18.335  1.00  0.00    -0.000 C 
BRANCH  14  15
ATOM     15  C   UNL     1      -1.147   8.603 -17.745  1.00  0.00    -0.003 C 
ATOM     16  C   UNL     1      -1.986   7.983 -16.628  1.00  0.00     0.004 C 
ENDBRANCH  14  15
ENDBRANCH  13  14
ENDBRANCH  12  13
ENDBRANCH  11  12
ENDBRANCH  10  11
ENDBRANCH   1  10
TORSDOF 12
ENDMDL
MODEL 6
REMARK VINA RESULT:    -3.720     22.025     24.082
REMARK INTER + INTRA:          -8.094
REMARK INTER:                  -6.145
REMARK INTRA:                  -1.950
REMARK UNBOUND:                -1.765
REMARK SMILES CCCCCCCCCCCCCC(=O)[O-]
REMARK SMILES IDX 8 1 9 2 10 3 11 4 12 5 13 6 14 7 15 8 16 9 7 10 6 11 5 12
REMARK SMILES IDX 4 13 3 14 2 15 1 16
REMARK H PARENT
REMARK Flexibility Score: inf
ROOT
ATOM      1  C   UNL     1       1.905  10.432 -17.721  1.00  0.00     0.000 C 
ENDROOT
BRANCH   1   2
ATOM      2  C   UNL     1       3.378  10.017 -17.873  1.00  0.00     0.000 C 
BRANCH   2   3
ATOM      3  C   UNL     1       3.659   9.299 -19.205  1.00  0.00     0.000 C 
BRANCH   3   4
ATOM      4  C   UNL     1       2.415   9.218 -20.104  1.00  0.00     0.000 C 
BRANCH   4   5
ATOM      5  C   UNL     1       2.598   8.238 -21.276  1.00  0.00     0.006 C 
BRANCH   5   6
ATOM      6  C   UNL     1       3.727   7.232 -21.017  1.00  0.00     0.053 C 
BRANCH   6   7
ATOM      7  C   UNL     1       3.216   5.824 -20.985  1.00  0.00     0.041 C 
ATOM      8  O   UNL     1       2.402   5.423 -21.858  1.00  0.00    -0.550 OA
ATOM      9  O   UNL     1       3.615   4.963 -19.971  1.00  0.00    -0.550 OA
ENDBRANCH   6   7
ENDBRANCH   5   6
ENDBRANCH   4   5
ENDBRANCH   3   4
ENDBRANCH   2   3
ENDBRANCH   1   2
BRANCH   1  10
ATOM     10  C   UNL     1       1.466  10.765 -16.280  1.00  0.00     0.000 C 
BRANCH  10  11
ATOM     11  C   UNL     1       1.674   9.639 -15.251  1.00  0.00    -0.000 C 
BRANCH  11  12
ATOM     12  C   UNL     1       0.881   8.366 -15.588  1.00  0.00    -0.000 C 
BRANCH  12  13
ATOM     13  C   UNL     1       1.780   7.205 -16.051  1.00  0.00    -0.000 C 
BRANCH  13  14
ATOM     14  C   UNL     1       1.522   6.703 -17.486  1.00  0.00    -0.000 C 
BRANCH  14  15
ATOM     15  C   UNL     1       0.078   6.878 -17.986  1.00  0.00    -0.003 C 
ATOM     16  C   UNL     1      -0.097   6.480 -19.450  1.00  0.00     0.004 C 
ENDBRANCH  14  15
ENDBRANCH  13  14
ENDBRANCH  12  13
ENDBRANCH  11  12
ENDBRANCH  10  11
ENDBRANCH   1  10
TORSDOF 12
ENDMDL
MODEL 7
REMARK VINA RESULT:    -3.684     22.248     24.337
REMARK INTER + INTRA:          -8.033
REMARK INTER:                  -6.567
REMARK INTRA:                  -1.466
REMARK UNBOUND:                -1.765
REMARK SMILES CCCCCCCCCCCCCC(=O)[O-]
REMARK SMILES IDX 8 1 9 2 10 3 11 4 12 5 13 6 14 7 15 8 16 9 7 10 6 11 5 12
REMARK SMILES IDX 4 13 3 14 2 15 1 16
REMARK H PARENT
REMARK Flexibility Score: inf
ROOT
ATOM      1  C   UNL     1       1.865  10.395 -18.227  1.00  0.00     0.000 C 
ENDROOT
BRANCH   1   2
ATOM      2  C   UNL     1       3.309  10.008 -17.862  1.00  0.00     0.000 C 
BRANCH   2   3
ATOM      3  C   UNL     1       4.125   9.540 -19.079  1.00  0.00     0.000 C 
BRANCH   3   4
ATOM      4  C   UNL     1       3.417   8.430 -19.872  1.00  0.00     0.000 C 
BRANCH   4   5
ATOM      5  C   UNL     1       4.073   8.172 -21.239  1.00  0.00     0.006 C 
BRANCH   5   6
ATOM      6  C   UNL     1       3.478   9.058 -22.342  1.00  0.00     0.053 C 
BRANCH   6   7
ATOM      7  C   UNL     1       2.152   8.542 -22.810  1.00  0.00     0.041 C 
ATOM      8  O   UNL     1       2.075   7.438 -23.410  1.00  0.00    -0.550 OA
ATOM      9  O   UNL     1       1.004   9.298 -22.614  1.00  0.00    -0.550 OA
ENDBRANCH   6   7
ENDBRANCH   5   6
ENDBRANCH   4   5
ENDBRANCH   3   4
ENDBRANCH   2   3
ENDBRANCH   1   2
BRANCH   1  10
ATOM     10  C   UNL     1       0.960  10.745 -17.028  1.00  0.00     0.000 C 
BRANCH  10  11
ATOM     11  C   UNL     1       1.516  10.354 -15.647  1.00  0.00    -0.000 C 
BRANCH  11  12
ATOM     12  C   UNL     1       0.803   9.135 -15.039  1.00  0.00    -0.000 C 
BRANCH  12  13
ATOM     13  C   UNL     1       1.698   7.883 -14.986  1.00  0.00    -0.000 C 
BRANCH  13  14
ATOM     14  C   UNL     1       1.906   7.165 -16.334  1.00  0.00    -0.000 C 
BRANCH  14  15
ATOM     15  C   UNL     1       0.638   7.011 -17.191  1.00  0.00    -0.003 C 
ATOM     16  C   UNL     1       0.790   5.970 -18.299  1.00  0.00     0.004 C 
ENDBRANCH  14  15
ENDBRANCH  13  14
ENDBRANCH  12  13
ENDBRANCH  11  12
ENDBRANCH  10  11
ENDBRANCH   1  10
TORSDOF 12
ENDMDL
MODEL 8
REMARK VINA RESULT:    -3.679      3.144      5.319
REMARK INTER + INTRA:          -8.024
REMARK INTER:                  -6.652
REMARK INTRA:                  -1.372
REMARK UNBOUND:                -1.765
REMARK SMILES CCCCCCCCCCCCCC(=O)[O-]
REMARK SMILES IDX 8 1 9 2 10 3 11 4 12 5 13 6 14 7 15 8 16 9 7 10 6 11 5 12
REMARK SMILES IDX 4 13 3 14 2 15 1 16
REMARK H PARENT
REMARK Flexibility Score: inf
ROOT
ATOM      1  C   UNL     1     -13.878  -4.747 -32.147  1.00  0.00     0.000 C 
ENDROOT
BRANCH   1   2
ATOM      2  C   UNL     1     -15.230  -5.297 -31.660  1.00  0.00     0.000 C 
BRANCH   2   3
ATOM      3  C   UNL     1     -15.107  -6.115 -30.363  1.00  0.00     0.000 C 
BRANCH   3   4
ATOM      4  C   UNL     1     -15.010  -7.626 -30.626  1.00  0.00     0.000 C 
BRANCH   4   5
ATOM      5  C   UNL     1     -13.844  -8.282 -29.867  1.00  0.00     0.006 C 
BRANCH   5   6
ATOM      6  C   UNL     1     -12.808  -7.253 -29.397  1.00  0.00     0.053 C 
BRANCH   6   7
ATOM      7  C   UNL     1     -12.083  -7.718 -28.171  1.00  0.00     0.041 C 
ATOM      8  O   UNL     1     -10.864  -7.446 -28.012  1.00  0.00    -0.550 OA
ATOM      9  O   UNL     1     -12.746  -8.482 -27.219  1.00  0.00    -0.550 OA
ENDBRANCH   6   7
ENDBRANCH   5   6
ENDBRANCH   4   5
ENDBRANCH   3   4
ENDBRANCH   2   3
ENDBRANCH   1   2
BRANCH   1  10
ATOM     10  C   UNL     1     -13.967  -3.690 -33.266  1.00  0.00     0.000 C 
BRANCH  10  11
ATOM     11  C   UNL     1     -15.379  -3.137 -33.538  1.00  0.00    -0.000 C 
BRANCH  11  12
ATOM     12  C   UNL     1     -15.378  -1.638 -33.880  1.00  0.00    -0.000 C 
BRANCH  12  13
ATOM     13  C   UNL     1     -15.030  -0.748 -32.672  1.00  0.00    -0.000 C 
BRANCH  13  14
ATOM     14  C   UNL     1     -15.746  -1.114 -31.356  1.00  0.00    -0.000 C 
BRANCH  14  15
ATOM     15  C   UNL     1     -14.824  -1.621 -30.234  1.00  0.00    -0.003 C 
ATOM     16  C   UNL     1     -13.350  -1.313 -30.490  1.00  0.00     0.004 C 
ENDBRANCH  14  15
ENDBRANCH  13  14
ENDBRANCH  12  13
ENDBRANCH  11  12
ENDBRANCH  10  11
ENDBRANCH   1  10
TORSDOF 12
ENDMDL
MODEL 9
REMARK VINA RESULT:    -3.677      3.296      5.717
REMARK INTER + INTRA:          -8.022
REMARK INTER:                  -6.854
REMARK INTRA:                  -1.168
REMARK UNBOUND:                -1.765
REMARK SMILES CCCCCCCCCCCCCC(=O)[O-]
REMARK SMILES IDX 8 1 9 2 10 3 11 4 12 5 13 6 14 7 15 8 16 9 7 10 6 11 5 12
REMARK SMILES IDX 4 13 3 14 2 15 1 16
REMARK H PARENT
REMARK Flexibility Score: inf
ROOT
ATOM      1  C   UNL     1     -15.880  -4.904 -31.718  1.00  0.00     0.000 C 
ENDROOT
BRANCH   1   2
ATOM      2  C   UNL     1     -14.851  -6.007 -31.416  1.00  0.00     0.000 C 
BRANCH   2   3
ATOM      3  C   UNL     1     -15.471  -7.219 -30.700  1.00  0.00     0.000 C 
BRANCH   3   4
ATOM      4  C   UNL     1     -14.421  -8.272 -30.309  1.00  0.00     0.000 C 
BRANCH   4   5
ATOM      5  C   UNL     1     -13.258  -7.672 -29.501  1.00  0.00     0.006 C 
BRANCH   5   6
ATOM      6  C   UNL     1     -12.419  -8.752 -28.806  1.00  0.00     0.053 C 
BRANCH   6   7
ATOM      7  C   UNL     1     -10.992  -8.326 -28.645  1.00  0.00     0.041 C 
ATOM      8  O   UNL     1     -10.060  -9.039 -29.102  1.00  0.00    -0.550 OA
ATOM      9  O   UNL     1     -10.689  -7.156 -27.960  1.00  0.00    -0.550 OA
ENDBRANCH   6   7
ENDBRANCH   5   6
ENDBRANCH   4   5
ENDBRANCH   3   4
ENDBRANCH   2   3
ENDBRANCH   1   2
BRANCH   1  10
ATOM     10  C   UNL     1     -15.602  -4.083 -32.994  1.00  0.00     0.000 C 
BRANCH  10  11
ATOM     11  C   UNL     1     -14.296  -3.267 -32.981  1.00  0.00    -0.000 C 
BRANCH  11  12
ATOM     12  C   UNL     1     -14.131  -2.423 -31.708  1.00  0.00    -0.000 C 
BRANCH  12  13
ATOM     13  C   UNL     1     -12.695  -2.451 -31.153  1.00  0.00    -0.000 C 
BRANCH  13  14
ATOM     14  C   UNL     1     -12.381  -3.618 -30.196  1.00  0.00    -0.000 C 
BRANCH  14  15
ATOM     15  C   UNL     1     -11.503  -4.731 -30.793  1.00  0.00    -0.003 C 
ATOM     16  C   UNL     1     -10.045  -4.308 -30.970  1.00  0.00     0.004 C 
ENDBRANCH  14  15
ENDBRANCH  13  14
ENDBRANCH  12  13
ENDBRANCH  11  12
ENDBRANCH  10  11
ENDBRANCH   1  10
TORSDOF 12
ENDMDL
