MODEL 1
REMARK VINA RESULT:    -5.746      0.000      0.000
REMARK INTER + INTRA:          -7.034
REMARK INTER:                  -6.754
REMARK INTRA:                  -0.280
REMARK UNBOUND:                -0.280
REMARK SMILES O=c1cc(-c2ccc(O)c(O)c2)oc2cc(O)cc(O)c12
REMARK SMILES IDX 4 1 3 2 2 3 1 4 21 5 19 6 18 7 16 8 15 9 14 10 13 11 5 12
REMARK SMILES IDX 6 13 7 14 8 15 12 16 10 17 9 18 11 20 20 22 17 24
REMARK H PARENT 9 19 11 21 20 23 17 25
REMARK Flexibility Score: inf
ROOT
ATOM      1  C   UNL     1     -18.960 -19.316  -4.442  1.00  0.00     0.138 A 
ATOM      2  C   UNL     1     -18.598 -20.670  -4.413  1.00  0.00     0.100 A 
ATOM      3  C   UNL     1     -19.525 -21.640  -4.797  1.00  0.00     0.197 A 
ATOM      4  O   UNL     1     -19.192 -22.849  -4.702  1.00  0.00    -0.289 OA
ATOM      5  C   UNL     1     -20.811 -21.249  -5.240  1.00  0.00     0.107 A 
ATOM      6  C   UNL     1     -21.823 -22.147  -5.693  1.00  0.00     0.134 A 
ATOM      7  C   UNL     1     -23.097 -21.653  -5.998  1.00  0.00     0.093 A 
ATOM      8  C   UNL     1     -23.378 -20.287  -5.924  1.00  0.00     0.123 A 
ATOM      9  C   UNL     1     -22.381 -19.395  -5.534  1.00  0.00     0.094 A 
ATOM     10  C   UNL     1     -21.110 -19.860  -5.190  1.00  0.00     0.146 A 
ATOM     11  O   UNL     1     -20.191 -18.978  -4.810  1.00  0.00    -0.456 OA
ENDROOT
BRANCH   1  12
ATOM     12  C   UNL     1     -18.012 -18.243  -4.045  1.00  0.00     0.021 A 
ATOM     13  C   UNL     1     -16.780 -18.129  -4.711  1.00  0.00     0.016 A 
ATOM     14  C   UNL     1     -15.867 -17.134  -4.351  1.00  0.00     0.051 A 
ATOM     15  C   UNL     1     -16.164 -16.243  -3.316  1.00  0.00     0.157 A 
ATOM     16  C   UNL     1     -18.301 -17.353  -2.993  1.00  0.00     0.062 A 
ATOM     17  C   UNL     1     -17.385 -16.353  -2.631  1.00  0.00     0.158 A 
BRANCH  15  18
ATOM     18  O   UNL     1     -15.234 -15.259  -2.980  1.00  0.00    -0.504 OA
ATOM     19  H   UNL     1     -15.060 -14.989  -2.019  1.00  0.00     0.293 HD
ENDBRANCH  15  18
BRANCH  17  20
ATOM     20  O   UNL     1     -17.682 -15.476  -1.590  1.00  0.00    -0.504 OA
ATOM     21  H   UNL     1     -17.269 -15.583  -0.670  1.00  0.00     0.293 HD
ENDBRANCH  17  20
ENDBRANCH   1  12
BRANCH   6  22
ATOM     22  O   UNL     1     -21.622 -23.517  -5.884  1.00  0.00    -0.507 OA
ATOM     23  H   UNL     1     -21.713 -23.996  -6.767  1.00  0.00     0.293 HD
ENDBRANCH   6  22
BRANCH   8  24
ATOM     24  O   UNL     1     -24.645 -19.803  -6.243  1.00  0.00    -0.508 OA
ATOM     25  H   UNL     1     -25.127 -19.142  -5.643  1.00  0.00     0.293 HD
ENDBRANCH   8  24
TORSDOF 5
ENDMDL
MODEL 2
REMARK VINA RESULT:    -5.605      1.765      3.288
REMARK INTER + INTRA:          -6.868
REMARK INTER:                  -6.581
REMARK INTRA:                  -0.287
REMARK UNBOUND:                -0.280
REMARK SMILES O=c1cc(-c2ccc(O)c(O)c2)oc2cc(O)cc(O)c12
REMARK SMILES IDX 4 1 3 2 2 3 1 4 21 5 19 6 18 7 16 8 15 9 14 10 13 11 5 12
REMARK SMILES IDX 6 13 7 14 8 15 12 16 10 17 9 18 11 20 20 22 17 24
REMARK H PARENT 9 19 11 21 20 23 17 25
REMARK Flexibility Score: inf
ROOT
ATOM      1  C   UNL     1     -18.249 -19.390  -4.659  1.00  0.00     0.138 A 
ATOM      2  C   UNL     1     -19.638 -19.523  -4.529  1.00  0.00     0.100 A 
ATOM      3  C   UNL     1     -20.262 -20.697  -4.954  1.00  0.00     0.197 A 
ATOM      4  O   UNL     1     -21.516 -20.762  -4.881  1.00  0.00    -0.289 OA
ATOM      5  C   UNL     1     -19.486 -21.754  -5.484  1.00  0.00     0.107 A 
ATOM      6  C   UNL     1     -20.008 -23.011  -5.911  1.00  0.00     0.134 A 
ATOM      7  C   UNL     1     -19.158 -23.938  -6.527  1.00  0.00     0.093 A 
ATOM      8  C   UNL     1     -17.794 -23.678  -6.676  1.00  0.00     0.123 A 
ATOM      9  C   UNL     1     -17.264 -22.475  -6.213  1.00  0.00     0.094 A 
ATOM     10  C   UNL     1     -18.092 -21.516  -5.626  1.00  0.00     0.146 A 
ATOM     11  O   UNL     1     -17.549 -20.376  -5.211  1.00  0.00    -0.456 OA
ENDROOT
BRANCH   1  12
ATOM     12  C   UNL     1     -17.535 -18.163  -4.223  1.00  0.00     0.021 A 
ATOM     13  C   UNL     1     -16.364 -17.770  -4.894  1.00  0.00     0.016 A 
ATOM     14  C   UNL     1     -15.669 -16.625  -4.497  1.00  0.00     0.051 A 
ATOM     15  C   UNL     1     -16.123 -15.858  -3.420  1.00  0.00     0.157 A 
ATOM     16  C   UNL     1     -17.981 -17.397  -3.129  1.00  0.00     0.062 A 
ATOM     17  C   UNL     1     -17.283 -16.247  -2.730  1.00  0.00     0.158 A 
BRANCH  15  18
ATOM     18  O   UNL     1     -15.409 -14.720  -3.048  1.00  0.00    -0.504 OA
ATOM     19  H   UNL     1     -14.730 -14.732  -2.297  1.00  0.00     0.293 HD
ENDBRANCH  15  18
BRANCH  17  20
ATOM     20  O   UNL     1     -17.735 -15.494  -1.647  1.00  0.00    -0.504 OA
ATOM     21  H   UNL     1     -18.096 -15.933  -0.809  1.00  0.00     0.293 HD
ENDBRANCH  17  20
ENDBRANCH   1  12
BRANCH   6  22
ATOM     22  O   UNL     1     -21.337 -23.406  -5.733  1.00  0.00    -0.507 OA
ATOM     23  H   UNL     1     -21.702 -23.848  -4.903  1.00  0.00     0.293 HD
ENDBRANCH   6  22
BRANCH   8  24
ATOM     24  O   UNL     1     -16.952 -24.612  -7.277  1.00  0.00    -0.508 OA
ATOM     25  H   UNL     1     -16.954 -24.759  -8.280  1.00  0.00     0.293 HD
ENDBRANCH   8  24
TORSDOF 5
ENDMDL
MODEL 3
REMARK VINA RESULT:    -5.448      4.937      8.212
REMARK INTER + INTRA:          -6.684
REMARK INTER:                  -6.420
REMARK INTRA:                  -0.264
REMARK UNBOUND:                -0.280
REMARK SMILES O=c1cc(-c2ccc(O)c(O)c2)oc2cc(O)cc(O)c12
REMARK SMILES IDX 4 1 3 2 2 3 1 4 21 5 19 6 18 7 16 8 15 9 14 10 13 11 5 12
REMARK SMILES IDX 6 13 7 14 8 15 12 16 10 17 9 18 11 20 20 22 17 24
REMARK H PARENT 9 19 11 21 20 23 17 25
REMARK Flexibility Score: inf
ROOT
ATOM      1  C   UNL     1     -19.438 -25.479  -3.350  1.00  0.00     0.138 A 
ATOM      2  C   UNL     1     -19.177 -25.544  -4.725  1.00  0.00     0.100 A 
ATOM      3  C   UNL     1     -19.198 -24.376  -5.487  1.00  0.00     0.197 A 
ATOM      4  O   UNL     1     -19.021 -24.474  -6.730  1.00  0.00    -0.289 OA
ATOM      5  C   UNL     1     -19.452 -23.132  -4.863  1.00  0.00     0.107 A 
ATOM      6  C   UNL     1     -19.459 -21.872  -5.533  1.00  0.00     0.134 A 
ATOM      7  C   UNL     1     -19.837 -20.720  -4.832  1.00  0.00     0.093 A 
ATOM      8  C   UNL     1     -20.152 -20.774  -3.472  1.00  0.00     0.123 A 
ATOM      9  C   UNL     1     -20.097 -21.991  -2.796  1.00  0.00     0.094 A 
ATOM     10  C   UNL     1     -19.756 -23.163  -3.475  1.00  0.00     0.146 A 
ATOM     11  O   UNL     1     -19.728 -24.306  -2.796  1.00  0.00    -0.456 OA
ENDROOT
BRANCH   1  12
ATOM     12  C   UNL     1     -19.428 -26.691  -2.492  1.00  0.00     0.021 A 
ATOM     13  C   UNL     1     -20.619 -27.413  -2.301  1.00  0.00     0.016 A 
ATOM     14  C   UNL     1     -20.638 -28.551  -1.491  1.00  0.00     0.051 A 
ATOM     15  C   UNL     1     -19.473 -28.984  -0.851  1.00  0.00     0.157 A 
ATOM     16  C   UNL     1     -18.260 -27.122  -1.834  1.00  0.00     0.062 A 
ATOM     17  C   UNL     1     -18.278 -28.265  -1.020  1.00  0.00     0.158 A 
BRANCH  15  18
ATOM     18  O   UNL     1     -19.522 -30.125  -0.051  1.00  0.00    -0.504 OA
ATOM     19  H   UNL     1     -20.387 -30.623   0.124  1.00  0.00     0.293 HD
ENDBRANCH  15  18
BRANCH  17  20
ATOM     20  O   UNL     1     -17.115 -28.684  -0.376  1.00  0.00    -0.504 OA
ATOM     21  H   UNL     1     -16.443 -29.290  -0.832  1.00  0.00     0.293 HD
ENDBRANCH  17  20
ENDBRANCH   1  12
BRANCH   6  22
ATOM     22  O   UNL     1     -19.080 -21.695  -6.867  1.00  0.00    -0.507 OA
ATOM     23  H   UNL     1     -19.269 -20.870  -7.415  1.00  0.00     0.293 HD
ENDBRANCH   6  22
BRANCH   8  24
ATOM     24  O   UNL     1     -20.514 -19.620  -2.779  1.00  0.00    -0.508 OA
ATOM     25  H   UNL     1     -21.390 -19.559  -2.273  1.00  0.00     0.293 HD
ENDBRANCH   8  24
TORSDOF 5
ENDMDL
MODEL 4
REMARK VINA RESULT:    -5.447     10.510     13.430
REMARK INTER + INTRA:          -6.683
REMARK INTER:                  -6.420
REMARK INTRA:                  -0.263
REMARK UNBOUND:                -0.280
REMARK SMILES O=c1cc(-c2ccc(O)c(O)c2)oc2cc(O)cc(O)c12
REMARK SMILES IDX 4 1 3 2 2 3 1 4 21 5 19 6 18 7 16 8 15 9 14 10 13 11 5 12
REMARK SMILES IDX 6 13 7 14 8 15 12 16 10 17 9 18 11 20 20 22 17 24
REMARK H PARENT 9 19 11 21 20 23 17 25
REMARK Flexibility Score: inf
ROOT
ATOM      1  C   UNL     1     -26.948 -15.891   3.404  1.00  0.00     0.138 A 
ATOM      2  C   UNL     1     -25.811 -16.427   2.783  1.00  0.00     0.100 A 
ATOM      3  C   UNL     1     -24.594 -15.751   2.873  1.00  0.00     0.197 A 
ATOM      4  O   UNL     1     -23.606 -16.224   2.253  1.00  0.00    -0.289 OA
ATOM      5  C   UNL     1     -24.509 -14.548   3.613  1.00  0.00     0.107 A 
ATOM      6  C   UNL     1     -23.312 -13.795   3.806  1.00  0.00     0.134 A 
ATOM      7  C   UNL     1     -23.373 -12.559   4.462  1.00  0.00     0.093 A 
ATOM      8  C   UNL     1     -24.576 -12.078   4.983  1.00  0.00     0.123 A 
ATOM      9  C   UNL     1     -25.741 -12.831   4.847  1.00  0.00     0.094 A 
ATOM     10  C   UNL     1     -25.719 -14.052   4.168  1.00  0.00     0.146 A 
ATOM     11  O   UNL     1     -26.854 -14.733   4.048  1.00  0.00    -0.456 OA
ENDROOT
BRANCH   1  12
ATOM     12  C   UNL     1     -28.268 -16.569   3.341  1.00  0.00     0.021 A 
ATOM     13  C   UNL     1     -28.681 -17.377   4.414  1.00  0.00     0.016 A 
ATOM     14  C   UNL     1     -29.914 -18.033   4.376  1.00  0.00     0.051 A 
ATOM     15  C   UNL     1     -30.752 -17.902   3.265  1.00  0.00     0.157 A 
ATOM     16  C   UNL     1     -29.108 -16.451   2.217  1.00  0.00     0.062 A 
ATOM     17  C   UNL     1     -30.346 -17.110   2.178  1.00  0.00     0.158 A 
BRANCH  15  18
ATOM     18  O   UNL     1     -31.977 -18.567   3.256  1.00  0.00    -0.504 OA
ATOM     19  H   UNL     1     -32.436 -18.838   2.394  1.00  0.00     0.293 HD
ENDBRANCH  15  18
BRANCH  17  20
ATOM     20  O   UNL     1     -31.170 -16.985   1.061  1.00  0.00    -0.504 OA
ATOM     21  H   UNL     1     -31.280 -16.101   0.577  1.00  0.00     0.293 HD
ENDBRANCH  17  20
ENDBRANCH   1  12
BRANCH   6  22
ATOM     22  O   UNL     1     -22.045 -14.224   3.400  1.00  0.00    -0.507 OA
ATOM     23  H   UNL     1     -21.780 -14.420   2.447  1.00  0.00     0.293 HD
ENDBRANCH   6  22
BRANCH   8  24
ATOM     24  O   UNL     1     -24.625 -10.853   5.646  1.00  0.00    -0.508 OA
ATOM     25  H   UNL     1     -23.795 -10.437   6.053  1.00  0.00     0.293 HD
ENDBRANCH   8  24
TORSDOF 5
ENDMDL
MODEL 5
REMARK VINA RESULT:    -5.416     11.046     12.253
REMARK INTER + INTRA:          -6.646
REMARK INTER:                  -6.358
REMARK INTRA:                  -0.288
REMARK UNBOUND:                -0.280
REMARK SMILES O=c1cc(-c2ccc(O)c(O)c2)oc2cc(O)cc(O)c12
REMARK SMILES IDX 4 1 3 2 2 3 1 4 21 5 19 6 18 7 16 8 15 9 14 10 13 11 5 12
REMARK SMILES IDX 6 13 7 14 8 15 12 16 10 17 9 18 11 20 20 22 17 24
REMARK H PARENT 9 19 11 21 20 23 17 25
REMARK Flexibility Score: inf
ROOT
ATOM      1  C   UNL     1     -27.306 -15.530   3.468  1.00  0.00     0.138 A 
ATOM      2  C   UNL     1     -27.420 -16.926   3.410  1.00  0.00     0.100 A 
ATOM      3  C   UNL     1     -28.676 -17.508   3.232  1.00  0.00     0.197 A 
ATOM      4  O   UNL     1     -28.754 -18.764   3.247  1.00  0.00    -0.289 OA
ATOM      5  C   UNL     1     -29.818 -16.687   3.082  1.00  0.00     0.107 A 
ATOM      6  C   UNL     1     -31.142 -17.169   2.855  1.00  0.00     0.134 A 
ATOM      7  C   UNL     1     -32.211 -16.265   2.836  1.00  0.00     0.093 A 
ATOM      8  C   UNL     1     -31.997 -14.892   2.977  1.00  0.00     0.123 A 
ATOM      9  C   UNL     1     -30.702 -14.406   3.146  1.00  0.00     0.094 A 
ATOM     10  C   UNL     1     -29.618 -15.285   3.203  1.00  0.00     0.146 A 
ATOM     11  O   UNL     1     -28.401 -14.782   3.378  1.00  0.00    -0.456 OA
ENDROOT
BRANCH   1  12
ATOM     12  C   UNL     1     -25.994 -14.858   3.655  1.00  0.00     0.021 A 
ATOM     13  C   UNL     1     -25.943 -13.611   4.300  1.00  0.00     0.016 A 
ATOM     14  C   UNL     1     -24.723 -12.954   4.480  1.00  0.00     0.051 A 
ATOM     15  C   UNL     1     -23.536 -13.524   4.013  1.00  0.00     0.157 A 
ATOM     16  C   UNL     1     -24.798 -15.423   3.172  1.00  0.00     0.062 A 
ATOM     17  C   UNL     1     -23.573 -14.764   3.353  1.00  0.00     0.158 A 
BRANCH  15  18
ATOM     18  O   UNL     1     -22.334 -12.846   4.209  1.00  0.00    -0.504 OA
ATOM     19  H   UNL     1     -21.489 -13.323   4.501  1.00  0.00     0.293 HD
ENDBRANCH  15  18
BRANCH  17  20
ATOM     20  O   UNL     1     -22.394 -15.333   2.873  1.00  0.00    -0.504 OA
ATOM     21  H   UNL     1     -22.063 -15.156   1.932  1.00  0.00     0.293 HD
ENDBRANCH  17  20
ENDBRANCH   1  12
BRANCH   6  22
ATOM     22  O   UNL     1     -31.454 -18.511   2.618  1.00  0.00    -0.507 OA
ATOM     23  H   UNL     1     -30.928 -19.296   2.968  1.00  0.00     0.293 HD
ENDBRANCH   6  22
BRANCH   8  24
ATOM     24  O   UNL     1     -33.066 -13.999   2.944  1.00  0.00    -0.508 OA
ATOM     25  H   UNL     1     -34.022 -14.311   3.074  1.00  0.00     0.293 HD
ENDBRANCH   8  24
TORSDOF 5
ENDMDL
MODEL 6
REMARK VINA RESULT:    -5.371     12.314     14.217
REMARK INTER + INTRA:          -6.593
REMARK INTER:                  -6.322
REMARK INTRA:                  -0.270
REMARK UNBOUND:                -0.280
REMARK SMILES O=c1cc(-c2ccc(O)c(O)c2)oc2cc(O)cc(O)c12
REMARK SMILES IDX 4 1 3 2 2 3 1 4 21 5 19 6 18 7 16 8 15 9 14 10 13 11 5 12
REMARK SMILES IDX 6 13 7 14 8 15 12 16 10 17 9 18 11 20 20 22 17 24
REMARK H PARENT 9 19 11 21 20 23 17 25
REMARK Flexibility Score: inf
ROOT
ATOM      1  C   UNL     1     -29.041 -13.786   2.633  1.00  0.00     0.138 A 
ATOM      2  C   UNL     1     -29.328 -15.101   3.023  1.00  0.00     0.100 A 
ATOM      3  C   UNL     1     -28.422 -15.795   3.826  1.00  0.00     0.197 A 
ATOM      4  O   UNL     1     -28.678 -16.995   4.109  1.00  0.00    -0.289 OA
ATOM      5  C   UNL     1     -27.237 -15.159   4.263  1.00  0.00     0.107 A 
ATOM      6  C   UNL     1     -26.260 -15.755   5.116  1.00  0.00     0.134 A 
ATOM      7  C   UNL     1     -25.071 -15.069   5.388  1.00  0.00     0.093 A 
ATOM      8  C   UNL     1     -24.848 -13.784   4.887  1.00  0.00     0.123 A 
ATOM      9  C   UNL     1     -25.819 -13.171   4.097  1.00  0.00     0.094 A 
ATOM     10  C   UNL     1     -27.001 -13.843   3.779  1.00  0.00     0.146 A 
ATOM     11  O   UNL     1     -27.895 -13.229   3.012  1.00  0.00    -0.456 OA
ENDROOT
BRANCH   1  12
ATOM     12  C   UNL     1     -29.970 -13.001   1.780  1.00  0.00     0.021 A 
ATOM     13  C   UNL     1     -31.170 -12.517   2.330  1.00  0.00     0.016 A 
ATOM     14  C   UNL     1     -32.065 -11.784   1.548  1.00  0.00     0.051 A 
ATOM     15  C   UNL     1     -31.784 -11.528   0.203  1.00  0.00     0.157 A 
ATOM     16  C   UNL     1     -29.698 -12.754   0.421  1.00  0.00     0.062 A 
ATOM     17  C   UNL     1     -30.597 -12.017  -0.365  1.00  0.00     0.158 A 
BRANCH  15  18
ATOM     18  O   UNL     1     -32.696 -10.791  -0.553  1.00  0.00    -0.504 OA
ATOM     19  H   UNL     1     -33.482 -11.227  -1.021  1.00  0.00     0.293 HD
ENDBRANCH  15  18
BRANCH  17  20
ATOM     20  O   UNL     1     -30.316 -11.777  -1.709  1.00  0.00    -0.504 OA
ATOM     21  H   UNL     1     -30.102 -12.531  -2.351  1.00  0.00     0.293 HD
ENDBRANCH  17  20
ENDBRANCH   1  12
BRANCH   6  22
ATOM     22  O   UNL     1     -26.420 -16.997   5.737  1.00  0.00    -0.507 OA
ATOM     23  H   UNL     1     -25.939 -17.291   6.573  1.00  0.00     0.293 HD
ENDBRANCH   6  22
BRANCH   8  24
ATOM     24  O   UNL     1     -23.667 -13.102   5.175  1.00  0.00    -0.508 OA
ATOM     25  H   UNL     1     -23.654 -12.097   5.306  1.00  0.00     0.293 HD
ENDBRANCH   8  24
TORSDOF 5
ENDMDL
MODEL 7
REMARK VINA RESULT:    -5.320     10.906     12.021
REMARK INTER + INTRA:          -6.534
REMARK INTER:                  -6.261
REMARK INTRA:                  -0.273
REMARK UNBOUND:                -0.280
REMARK SMILES O=c1cc(-c2ccc(O)c(O)c2)oc2cc(O)cc(O)c12
REMARK SMILES IDX 4 1 3 2 2 3 1 4 21 5 19 6 18 7 16 8 15 9 14 10 13 11 5 12
REMARK SMILES IDX 6 13 7 14 8 15 12 16 10 17 9 18 11 20 20 22 17 24
REMARK H PARENT 9 19 11 21 20 23 17 25
REMARK Flexibility Score: inf
ROOT
ATOM      1  C   UNL     1     -26.930 -15.986   3.963  1.00  0.00     0.138 A 
ATOM      2  C   UNL     1     -27.396 -16.312   5.244  1.00  0.00     0.100 A 
ATOM      3  C   UNL     1     -28.666 -16.870   5.393  1.00  0.00     0.197 A 
ATOM      4  O   UNL     1     -29.081 -17.095   6.560  1.00  0.00    -0.289 OA
ATOM      5  C   UNL     1     -29.460 -17.130   4.252  1.00  0.00     0.107 A 
ATOM      6  C   UNL     1     -30.753 -17.733   4.281  1.00  0.00     0.134 A 
ATOM      7  C   UNL     1     -31.493 -17.835   3.096  1.00  0.00     0.093 A 
ATOM      8  C   UNL     1     -30.963 -17.410   1.876  1.00  0.00     0.123 A 
ATOM      9  C   UNL     1     -29.680 -16.869   1.829  1.00  0.00     0.094 A 
ATOM     10  C   UNL     1     -28.930 -16.722   2.998  1.00  0.00     0.146 A 
ATOM     11  O   UNL     1     -27.716 -16.189   2.911  1.00  0.00    -0.456 OA
ENDROOT
BRANCH   1  12
ATOM     12  C   UNL     1     -25.586 -15.390   3.746  1.00  0.00     0.021 A 
ATOM     13  C   UNL     1     -24.717 -15.971   2.807  1.00  0.00     0.016 A 
ATOM     14  C   UNL     1     -23.444 -15.435   2.591  1.00  0.00     0.051 A 
ATOM     15  C   UNL     1     -23.014 -14.319   3.313  1.00  0.00     0.157 A 
ATOM     16  C   UNL     1     -25.143 -14.275   4.483  1.00  0.00     0.062 A 
ATOM     17  C   UNL     1     -23.866 -13.737   4.266  1.00  0.00     0.158 A 
BRANCH  15  18
ATOM     18  O   UNL     1     -21.739 -13.806   3.074  1.00  0.00    -0.504 OA
ATOM     19  H   UNL     1     -21.137 -13.491   3.826  1.00  0.00     0.293 HD
ENDBRANCH  15  18
BRANCH  17  20
ATOM     20  O   UNL     1     -23.438 -12.631   5.000  1.00  0.00    -0.504 OA
ATOM     21  H   UNL     1     -24.066 -11.869   5.228  1.00  0.00     0.293 HD
ENDBRANCH  17  20
ENDBRANCH   1  12
BRANCH   6  22
ATOM     22  O   UNL     1     -31.340 -18.267   5.432  1.00  0.00    -0.507 OA
ATOM     23  H   UNL     1     -30.861 -18.419   6.306  1.00  0.00     0.293 HD
ENDBRANCH   6  22
BRANCH   8  24
ATOM     24  O   UNL     1     -31.702 -17.528   0.700  1.00  0.00    -0.508 OA
ATOM     25  H   UNL     1     -31.420 -17.057  -0.152  1.00  0.00     0.293 HD
ENDBRANCH   8  24
TORSDOF 5
ENDMDL
MODEL 8
REMARK VINA RESULT:    -5.270     10.735     12.117
REMARK INTER + INTRA:          -6.474
REMARK INTER:                  -6.160
REMARK INTRA:                  -0.314
REMARK UNBOUND:                -0.280
REMARK SMILES O=c1cc(-c2ccc(O)c(O)c2)oc2cc(O)cc(O)c12
REMARK SMILES IDX 4 1 3 2 2 3 1 4 21 5 19 6 18 7 16 8 15 9 14 10 13 11 5 12
REMARK SMILES IDX 6 13 7 14 8 15 12 16 10 17 9 18 11 20 20 22 17 24
REMARK H PARENT 9 19 11 21 20 23 17 25
REMARK Flexibility Score: inf
ROOT
ATOM      1  C   UNL     1     -26.884 -14.574   3.740  1.00  0.00     0.138 A 
ATOM      2  C   UNL     1     -28.080 -13.888   3.992  1.00  0.00     0.100 A 
ATOM      3  C   UNL     1     -29.301 -14.521   3.756  1.00  0.00     0.197 A 
ATOM      4  O   UNL     1     -30.357 -13.859   3.933  1.00  0.00    -0.289 OA
ATOM      5  C   UNL     1     -29.323 -15.858   3.294  1.00  0.00     0.107 A 
ATOM      6  C   UNL     1     -30.508 -16.617   3.057  1.00  0.00     0.134 A 
ATOM      7  C   UNL     1     -30.407 -17.894   2.489  1.00  0.00     0.093 A 
ATOM      8  C   UNL     1     -29.163 -18.461   2.206  1.00  0.00     0.123 A 
ATOM      9  C   UNL     1     -27.998 -17.749   2.483  1.00  0.00     0.094 A 
ATOM     10  C   UNL     1     -28.066 -16.460   3.017  1.00  0.00     0.146 A 
ATOM     11  O   UNL     1     -26.931 -15.810   3.255  1.00  0.00    -0.456 OA
ENDROOT
BRANCH   1  12
ATOM     12  C   UNL     1     -25.558 -13.948   3.975  1.00  0.00     0.021 A 
ATOM     13  C   UNL     1     -25.470 -12.794   4.773  1.00  0.00     0.016 A 
ATOM     14  C   UNL     1     -24.235 -12.181   5.001  1.00  0.00     0.051 A 
ATOM     15  C   UNL     1     -23.070 -12.702   4.432  1.00  0.00     0.157 A 
ATOM     16  C   UNL     1     -24.384 -14.461   3.391  1.00  0.00     0.062 A 
ATOM     17  C   UNL     1     -23.143 -13.846   3.620  1.00  0.00     0.158 A 
BRANCH  15  18
ATOM     18  O   UNL     1     -21.852 -12.069   4.680  1.00  0.00    -0.504 OA
ATOM     19  H   UNL     1     -21.571 -11.231   4.186  1.00  0.00     0.293 HD
ENDBRANCH  15  18
BRANCH  17  20
ATOM     20  O   UNL     1     -21.987 -14.364   3.039  1.00  0.00    -0.504 OA
ATOM     21  H   UNL     1     -21.541 -13.912   2.249  1.00  0.00     0.293 HD
ENDBRANCH  17  20
ENDBRANCH   1  12
BRANCH   6  22
ATOM     22  O   UNL     1     -31.795 -16.178   3.382  1.00  0.00    -0.507 OA
ATOM     23  H   UNL     1     -32.434 -15.740   2.738  1.00  0.00     0.293 HD
ENDBRANCH   6  22
BRANCH   8  24
ATOM     24  O   UNL     1     -29.072 -19.737   1.654  1.00  0.00    -0.508 OA
ATOM     25  H   UNL     1     -28.895 -19.876   0.665  1.00  0.00     0.293 HD
ENDBRANCH   8  24
TORSDOF 5
ENDMDL
MODEL 9
REMARK VINA RESULT:    -5.172      1.888      3.304
REMARK INTER + INTRA:          -6.359
REMARK INTER:                  -6.096
REMARK INTRA:                  -0.263
REMARK UNBOUND:                -0.280
REMARK SMILES O=c1cc(-c2ccc(O)c(O)c2)oc2cc(O)cc(O)c12
REMARK SMILES IDX 4 1 3 2 2 3 1 4 21 5 19 6 18 7 16 8 15 9 14 10 13 11 5 12
REMARK SMILES IDX 6 13 7 14 8 15 12 16 10 17 9 18 11 20 20 22 17 24
REMARK H PARENT 9 19 11 21 20 23 17 25
REMARK Flexibility Score: inf
ROOT
ATOM      1  C   UNL     1     -19.296 -19.679  -4.270  1.00  0.00     0.138 A 
ATOM      2  C   UNL     1     -20.385 -19.444  -5.120  1.00  0.00     0.100 A 
ATOM      3  C   UNL     1     -21.394 -20.402  -5.229  1.00  0.00     0.197 A 
ATOM      4  O   UNL     1     -22.327 -20.190  -6.047  1.00  0.00    -0.289 OA
ATOM      5  C   UNL     1     -21.326 -21.587  -4.460  1.00  0.00     0.107 A 
ATOM      6  C   UNL     1     -22.317 -22.614  -4.459  1.00  0.00     0.134 A 
ATOM      7  C   UNL     1     -22.085 -23.796  -3.744  1.00  0.00     0.093 A 
ATOM      8  C   UNL     1     -20.926 -23.962  -2.982  1.00  0.00     0.123 A 
ATOM      9  C   UNL     1     -19.978 -22.943  -2.933  1.00  0.00     0.094 A 
ATOM     10  C   UNL     1     -20.163 -21.766  -3.662  1.00  0.00     0.146 A 
ATOM     11  O   UNL     1     -19.228 -20.824  -3.599  1.00  0.00    -0.456 OA
ENDROOT
BRANCH   1  12
ATOM     12  C   UNL     1     -18.195 -18.694  -4.116  1.00  0.00     0.021 A 
ATOM     13  C   UNL     1     -18.236 -17.773  -3.054  1.00  0.00     0.016 A 
ATOM     14  C   UNL     1     -17.218 -16.830  -2.892  1.00  0.00     0.051 A 
ATOM     15  C   UNL     1     -16.147 -16.783  -3.789  1.00  0.00     0.157 A 
ATOM     16  C   UNL     1     -17.123 -18.634  -5.026  1.00  0.00     0.062 A 
ATOM     17  C   UNL     1     -16.100 -17.687  -4.863  1.00  0.00     0.158 A 
BRANCH  15  18
ATOM     18  O   UNL     1     -15.145 -15.833  -3.601  1.00  0.00    -0.504 OA
ATOM     19  H   UNL     1     -14.481 -15.599  -4.330  1.00  0.00     0.293 HD
ENDBRANCH  15  18
BRANCH  17  20
ATOM     20  O   UNL     1     -15.041 -17.638  -5.769  1.00  0.00    -0.504 OA
ATOM     21  H   UNL     1     -14.315 -16.935  -5.701  1.00  0.00     0.293 HD
ENDBRANCH  17  20
ENDBRANCH   1  12
BRANCH   6  22
ATOM     22  O   UNL     1     -23.545 -22.514  -5.118  1.00  0.00    -0.507 OA
ATOM     23  H   UNL     1     -23.839 -23.102  -5.884  1.00  0.00     0.293 HD
ENDBRANCH   6  22
BRANCH   8  24
ATOM     24  O   UNL     1     -20.711 -25.135  -2.262  1.00  0.00    -0.508 OA
ATOM     25  H   UNL     1     -21.156 -25.296  -1.365  1.00  0.00     0.293 HD
ENDBRANCH   8  24
TORSDOF 5
ENDMDL
