MODEL 1
REMARK VINA RESULT:     9.708      0.000      0.000
REMARK INTER + INTRA:          20.231
REMARK INTER:                  21.059
REMARK INTRA:                  -0.828
REMARK UNBOUND:                -0.828
REMARK SMILES CCCCCCCCCCCCCCCCCCCCCC(=O)[O-]
REMARK SMILES IDX 12 1 11 2 10 3 9 4 8 5 7 6 6 7 5 8 4 9 3 10 2 11 1 12 13 13
REMARK SMILES IDX 14 14 15 15 16 16 17 17 18 18 19 19 20 20 21 21 22 22 23 23
REMARK SMILES IDX 24 24
REMARK H PARENT
REMARK Flexibility Score: inf
ROOT
ATOM      1  C   UNL     1      10.465   1.863 -15.154  1.00  0.00     0.000 C 
ENDROOT
BRANCH   1   2
ATOM      2  C   UNL     1      10.287   1.084 -13.836  1.00  0.00     0.000 C 
BRANCH   2   3
ATOM      3  C   UNL     1       8.957   1.340 -13.104  1.00  0.00     0.000 C 
BRANCH   3   4
ATOM      4  C   UNL     1       7.751   1.370 -14.058  1.00  0.00    -0.000 C 
BRANCH   4   5
ATOM      5  C   UNL     1       6.415   1.527 -13.315  1.00  0.00    -0.000 C 
BRANCH   5   6
ATOM      6  C   UNL     1       5.203   1.423 -14.257  1.00  0.00    -0.000 C 
BRANCH   6   7
ATOM      7  C   UNL     1       3.914   1.030 -13.519  1.00  0.00    -0.000 C 
BRANCH   7   8
ATOM      8  C   UNL     1       2.849   0.434 -14.456  1.00  0.00    -0.000 C 
BRANCH   8   9
ATOM      9  C   UNL     1       1.424   0.574 -13.898  1.00  0.00    -0.000 C 
BRANCH   9  10
ATOM     10  C   UNL     1       0.347   0.156 -14.911  1.00  0.00    -0.000 C 
BRANCH  10  11
ATOM     11  C   UNL     1       0.980  -0.249 -16.248  1.00  0.00    -0.003 C 
ATOM     12  C   UNL     1       0.591  -1.673 -16.634  1.00  0.00     0.004 C 
ENDBRANCH  10  11
ENDBRANCH   9  10
ENDBRANCH   8   9
ENDBRANCH   7   8
ENDBRANCH   6   7
ENDBRANCH   5   6
ENDBRANCH   4   5
ENDBRANCH   3   4
ENDBRANCH   2   3
ENDBRANCH   1   2
BRANCH   1  13
ATOM     13  C   UNL     1      11.922   2.194 -15.525  1.00  0.00     0.000 C 
BRANCH  13  14
ATOM     14  C   UNL     1      12.647   1.021 -16.200  1.00  0.00     0.000 C 
BRANCH  14  15
ATOM     15  C   UNL     1      11.643   0.033 -16.816  1.00  0.00     0.000 C 
BRANCH  15  16
ATOM     16  C   UNL     1      12.019  -1.437 -16.533  1.00  0.00     0.000 C 
BRANCH  16  17
ATOM     17  C   UNL     1      10.821  -2.401 -16.581  1.00  0.00     0.000 C 
BRANCH  17  18
ATOM     18  C   UNL     1      11.229  -3.872 -16.400  1.00  0.00     0.000 C 
BRANCH  18  19
ATOM     19  C   UNL     1      11.379  -4.613 -17.739  1.00  0.00     0.000 C 
BRANCH  19  20
ATOM     20  C   UNL     1      12.262  -5.866 -17.624  1.00  0.00     0.006 C 
BRANCH  20  21
ATOM     21  C   UNL     1      12.986  -6.147 -18.944  1.00  0.00     0.053 C 
BRANCH  21  22
ATOM     22  C   UNL     1      14.406  -6.546 -18.687  1.00  0.00     0.041 C 
ATOM     23  O   UNL     1      15.326  -6.127 -19.436  1.00  0.00    -0.550 OA
ATOM     24  O   UNL     1      14.717  -7.340 -17.591  1.00  0.00    -0.550 OA
ENDBRANCH  21  22
ENDBRANCH  20  21
ENDBRANCH  19  20
ENDBRANCH  18  19
ENDBRANCH  17  18
ENDBRANCH  16  17
ENDBRANCH  15  16
ENDBRANCH  14  15
ENDBRANCH  13  14
ENDBRANCH   1  13
TORSDOF 20
ENDMDL
MODEL 2
REMARK VINA RESULT:     9.983      4.683     10.775
REMARK INTER + INTRA:          20.826
REMARK INTER:                  21.558
REMARK INTRA:                  -0.732
REMARK UNBOUND:                -0.828
REMARK SMILES CCCCCCCCCCCCCCCCCCCCCC(=O)[O-]
REMARK SMILES IDX 12 1 11 2 10 3 9 4 8 5 7 6 6 7 5 8 4 9 3 10 2 11 1 12 13 13
REMARK SMILES IDX 14 14 15 15 16 16 17 17 18 18 19 19 20 20 21 21 22 22 23 23
REMARK SMILES IDX 24 24
REMARK H PARENT
REMARK Flexibility Score: inf
ROOT
ATOM      1  C   UNL     1       9.894   0.761 -13.590  1.00  0.00     0.000 C 
ENDROOT
BRANCH   1   2
ATOM      2  C   UNL     1      10.721   1.888 -14.241  1.00  0.00     0.000 C 
BRANCH   2   3
ATOM      3  C   UNL     1      11.317   1.544 -15.618  1.00  0.00     0.000 C 
BRANCH   3   4
ATOM      4  C   UNL     1      12.095   0.216 -15.613  1.00  0.00    -0.000 C 
BRANCH   4   5
ATOM      5  C   UNL     1      11.623  -0.747 -16.714  1.00  0.00    -0.000 C 
BRANCH   5   6
ATOM      6  C   UNL     1      11.494  -2.195 -16.211  1.00  0.00    -0.000 C 
BRANCH   6   7
ATOM      7  C   UNL     1      10.719  -3.093 -17.188  1.00  0.00    -0.000 C 
BRANCH   7   8
ATOM      8  C   UNL     1      11.151  -4.568 -17.113  1.00  0.00    -0.000 C 
BRANCH   8   9
ATOM      9  C   UNL     1      12.387  -4.868 -17.974  1.00  0.00    -0.000 C 
BRANCH   9  10
ATOM     10  C   UNL     1      12.525  -6.360 -18.314  1.00  0.00    -0.000 C 
BRANCH  10  11
ATOM     11  C   UNL     1      13.951  -6.855 -18.044  1.00  0.00    -0.003 C 
ATOM     12  C   UNL     1      14.946  -6.229 -19.017  1.00  0.00     0.004 C 
ENDBRANCH  10  11
ENDBRANCH   9  10
ENDBRANCH   8   9
ENDBRANCH   7   8
ENDBRANCH   6   7
ENDBRANCH   5   6
ENDBRANCH   4   5
ENDBRANCH   3   4
ENDBRANCH   2   3
ENDBRANCH   1   2
BRANCH   1  13
ATOM     13  C   UNL     1       8.541   1.202 -13.002  1.00  0.00     0.000 C 
BRANCH  13  14
ATOM     14  C   UNL     1       7.383   1.066 -14.003  1.00  0.00     0.000 C 
BRANCH  14  15
ATOM     15  C   UNL     1       6.079   1.631 -13.418  1.00  0.00     0.000 C 
BRANCH  15  16
ATOM     16  C   UNL     1       4.830   1.114 -14.164  1.00  0.00     0.000 C 
BRANCH  16  17
ATOM     17  C   UNL     1       3.547   1.148 -13.316  1.00  0.00     0.000 C 
BRANCH  17  18
ATOM     18  C   UNL     1       2.394   0.348 -13.944  1.00  0.00     0.000 C 
BRANCH  18  19
ATOM     19  C   UNL     1       1.120   1.190 -14.127  1.00  0.00     0.000 C 
BRANCH  19  20
ATOM     20  C   UNL     1      -0.115   0.331 -14.437  1.00  0.00     0.006 C 
BRANCH  20  21
ATOM     21  C   UNL     1       0.266  -0.892 -15.278  1.00  0.00     0.053 C 
BRANCH  21  22
ATOM     22  C   UNL     1       0.371  -0.520 -16.724  1.00  0.00     0.041 C 
ATOM     23  O   UNL     1       0.868  -1.328 -17.551  1.00  0.00    -0.550 OA
ATOM     24  O   UNL     1      -0.124   0.701 -17.165  1.00  0.00    -0.550 OA
ENDBRANCH  21  22
ENDBRANCH  20  21
ENDBRANCH  19  20
ENDBRANCH  18  19
ENDBRANCH  17  18
ENDBRANCH  16  17
ENDBRANCH  15  16
ENDBRANCH  14  15
ENDBRANCH  13  14
ENDBRANCH   1  13
TORSDOF 20
ENDMDL
MODEL 3
REMARK VINA RESULT:    10.181      5.439     10.792
REMARK INTER + INTRA:          21.258
REMARK INTER:                  22.240
REMARK INTRA:                  -0.983
REMARK UNBOUND:                -0.828
REMARK SMILES CCCCCCCCCCCCCCCCCCCCCC(=O)[O-]
REMARK SMILES IDX 12 1 11 2 10 3 9 4 8 5 7 6 6 7 5 8 4 9 3 10 2 11 1 12 13 13
REMARK SMILES IDX 14 14 15 15 16 16 17 17 18 18 19 19 20 20 21 21 22 22 23 23
REMARK SMILES IDX 24 24
REMARK H PARENT
REMARK Flexibility Score: inf
ROOT
ATOM      1  C   UNL     1       6.029   1.413 -14.161  1.00  0.00     0.000 C 
ENDROOT
BRANCH   1   2
ATOM      2  C   UNL     1       7.254   1.707 -13.272  1.00  0.00     0.000 C 
BRANCH   2   3
ATOM      3  C   UNL     1       8.324   0.601 -13.254  1.00  0.00     0.000 C 
BRANCH   3   4
ATOM      4  C   UNL     1       9.699   1.111 -12.787  1.00  0.00    -0.000 C 
BRANCH   4   5
ATOM      5  C   UNL     1       9.955   2.571 -13.194  1.00  0.00    -0.000 C 
BRANCH   5   6
ATOM      6  C   UNL     1      11.128   2.708 -14.180  1.00  0.00    -0.000 C 
BRANCH   6   7
ATOM      7  C   UNL     1      10.855   2.010 -15.522  1.00  0.00    -0.000 C 
BRANCH   7   8
ATOM      8  C   UNL     1      12.074   1.229 -16.046  1.00  0.00    -0.000 C 
BRANCH   8   9
ATOM      9  C   UNL     1      12.350   1.492 -17.534  1.00  0.00    -0.000 C 
BRANCH   9  10
ATOM     10  C   UNL     1      13.340   0.484 -18.140  1.00  0.00    -0.000 C 
BRANCH  10  11
ATOM     11  C   UNL     1      14.558   1.201 -18.733  1.00  0.00    -0.003 C 
ATOM     12  C   UNL     1      15.856   0.505 -18.338  1.00  0.00     0.004 C 
ENDBRANCH  10  11
ENDBRANCH   9  10
ENDBRANCH   8   9
ENDBRANCH   7   8
ENDBRANCH   6   7
ENDBRANCH   5   6
ENDBRANCH   4   5
ENDBRANCH   3   4
ENDBRANCH   2   3
ENDBRANCH   1   2
BRANCH   1  13
ATOM     13  C   UNL     1       4.665   1.576 -13.466  1.00  0.00     0.000 C 
BRANCH  13  14
ATOM     14  C   UNL     1       3.572   0.690 -14.083  1.00  0.00     0.000 C 
BRANCH  14  15
ATOM     15  C   UNL     1       2.204   0.974 -13.442  1.00  0.00     0.000 C 
BRANCH  15  16
ATOM     16  C   UNL     1       1.164   1.460 -14.473  1.00  0.00     0.000 C 
BRANCH  16  17
ATOM     17  C   UNL     1      -0.062   0.538 -14.594  1.00  0.00     0.000 C 
BRANCH  17  18
ATOM     18  C   UNL     1      -0.125  -0.201 -15.941  1.00  0.00     0.000 C 
BRANCH  18  19
ATOM     19  C   UNL     1       1.119  -1.065 -16.201  1.00  0.00     0.000 C 
BRANCH  19  20
ATOM     20  C   UNL     1       0.911  -2.071 -17.343  1.00  0.00     0.006 C 
BRANCH  20  21
ATOM     21  C   UNL     1      -0.025  -1.498 -18.412  1.00  0.00     0.053 C 
BRANCH  21  22
ATOM     22  C   UNL     1      -0.033  -2.376 -19.624  1.00  0.00     0.041 C 
ATOM     23  O   UNL     1       0.086  -1.872 -20.771  1.00  0.00    -0.550 OA
ATOM     24  O   UNL     1      -0.125  -3.755 -19.484  1.00  0.00    -0.550 OA
ENDBRANCH  21  22
ENDBRANCH  20  21
ENDBRANCH  19  20
ENDBRANCH  18  19
ENDBRANCH  17  18
ENDBRANCH  16  17
ENDBRANCH  15  16
ENDBRANCH  14  15
ENDBRANCH  13  14
ENDBRANCH   1  13
TORSDOF 20
ENDMDL
MODEL 4
REMARK VINA RESULT:    10.289      0.653      1.463
REMARK INTER + INTRA:          21.492
REMARK INTER:                  22.421
REMARK INTRA:                  -0.929
REMARK UNBOUND:                -0.828
REMARK SMILES CCCCCCCCCCCCCCCCCCCCCC(=O)[O-]
REMARK SMILES IDX 12 1 11 2 10 3 9 4 8 5 7 6 6 7 5 8 4 9 3 10 2 11 1 12 13 13
REMARK SMILES IDX 14 14 15 15 16 16 17 17 18 18 19 19 20 20 21 21 22 22 23 23
REMARK SMILES IDX 24 24
REMARK H PARENT
REMARK Flexibility Score: inf
ROOT
ATOM      1  C   UNL     1      10.123   1.311 -13.581  1.00  0.00     0.000 C 
ENDROOT
BRANCH   1   2
ATOM      2  C   UNL     1       8.799   0.675 -13.112  1.00  0.00     0.000 C 
BRANCH   2   3
ATOM      3  C   UNL     1       7.599   1.638 -13.060  1.00  0.00     0.000 C 
BRANCH   3   4
ATOM      4  C   UNL     1       6.527   1.308 -14.114  1.00  0.00    -0.000 C 
BRANCH   4   5
ATOM      5  C   UNL     1       5.166   1.943 -13.789  1.00  0.00    -0.000 C 
BRANCH   5   6
ATOM      6  C   UNL     1       4.155   0.920 -13.245  1.00  0.00    -0.000 C 
BRANCH   6   7
ATOM      7  C   UNL     1       3.121   0.493 -14.298  1.00  0.00    -0.000 C 
BRANCH   7   8
ATOM      8  C   UNL     1       1.679   0.853 -13.899  1.00  0.00    -0.000 C 
BRANCH   8   9
ATOM      9  C   UNL     1       0.629   0.100 -14.730  1.00  0.00    -0.000 C 
BRANCH   9  10
ATOM     10  C   UNL     1       1.160  -0.327 -16.108  1.00  0.00    -0.000 C 
BRANCH  10  11
ATOM     11  C   UNL     1       0.545  -1.662 -16.543  1.00  0.00    -0.003 C 
ATOM     12  C   UNL     1       0.386  -1.729 -18.059  1.00  0.00     0.004 C 
ENDBRANCH  10  11
ENDBRANCH   9  10
ENDBRANCH   8   9
ENDBRANCH   7   8
ENDBRANCH   6   7
ENDBRANCH   5   6
ENDBRANCH   4   5
ENDBRANCH   3   4
ENDBRANCH   2   3
ENDBRANCH   1   2
BRANCH   1  13
ATOM     13  C   UNL     1      10.340   1.317 -15.105  1.00  0.00     0.000 C 
BRANCH  13  14
ATOM     14  C   UNL     1      11.757   1.754 -15.503  1.00  0.00     0.000 C 
BRANCH  14  15
ATOM     15  C   UNL     1      12.551   0.579 -16.095  1.00  0.00     0.000 C 
BRANCH  15  16
ATOM     16  C   UNL     1      11.638  -0.456 -16.787  1.00  0.00     0.000 C 
BRANCH  16  17
ATOM     17  C   UNL     1      11.849  -1.896 -16.289  1.00  0.00     0.000 C 
BRANCH  17  18
ATOM     18  C   UNL     1      10.758  -2.864 -16.778  1.00  0.00     0.000 C 
BRANCH  18  19
ATOM     19  C   UNL     1      11.240  -4.322 -16.827  1.00  0.00     0.000 C 
BRANCH  19  20
ATOM     20  C   UNL     1      12.063  -4.630 -18.088  1.00  0.00     0.006 C 
BRANCH  20  21
ATOM     21  C   UNL     1      12.282  -6.138 -18.243  1.00  0.00     0.053 C 
BRANCH  21  22
ATOM     22  C   UNL     1      13.739  -6.440 -18.402  1.00  0.00     0.041 C 
ATOM     23  O   UNL     1      14.379  -6.983 -17.464  1.00  0.00    -0.550 OA
ATOM     24  O   UNL     1      14.378  -6.168 -19.605  1.00  0.00    -0.550 OA
ENDBRANCH  21  22
ENDBRANCH  20  21
ENDBRANCH  19  20
ENDBRANCH  18  19
ENDBRANCH  17  18
ENDBRANCH  16  17
ENDBRANCH  15  16
ENDBRANCH  14  15
ENDBRANCH  13  14
ENDBRANCH   1  13
TORSDOF 20
ENDMDL
MODEL 5
REMARK VINA RESULT:    10.426      4.667     10.317
REMARK INTER + INTRA:          21.788
REMARK INTER:                  22.748
REMARK INTRA:                  -0.960
REMARK UNBOUND:                -0.828
REMARK SMILES CCCCCCCCCCCCCCCCCCCCCC(=O)[O-]
REMARK SMILES IDX 12 1 11 2 10 3 9 4 8 5 7 6 6 7 5 8 4 9 3 10 2 11 1 12 13 13
REMARK SMILES IDX 14 14 15 15 16 16 17 17 18 18 19 19 20 20 21 21 22 22 23 23
REMARK SMILES IDX 24 24
REMARK H PARENT
REMARK Flexibility Score: inf
ROOT
ATOM      1  C   UNL     1       9.582   0.810 -13.244  1.00  0.00     0.000 C 
ENDROOT
BRANCH   1   2
ATOM      2  C   UNL     1      10.348   1.910 -14.004  1.00  0.00     0.000 C 
BRANCH   2   3
ATOM      3  C   UNL     1      11.005   1.453 -15.319  1.00  0.00     0.000 C 
BRANCH   3   4
ATOM      4  C   UNL     1      11.924   2.526 -15.929  1.00  0.00    -0.000 C 
BRANCH   4   5
ATOM      5  C   UNL     1      12.513   2.098 -17.282  1.00  0.00    -0.000 C 
BRANCH   5   6
ATOM      6  C   UNL     1      13.991   1.684 -17.174  1.00  0.00    -0.000 C 
BRANCH   6   7
ATOM      7  C   UNL     1      14.213   0.199 -17.505  1.00  0.00    -0.000 C 
BRANCH   7   8
ATOM      8  C   UNL     1      12.897  -0.563 -17.739  1.00  0.00    -0.000 C 
BRANCH   8   9
ATOM      9  C   UNL     1      12.396  -1.282 -16.476  1.00  0.00    -0.000 C 
BRANCH   9  10
ATOM     10  C   UNL     1      10.990  -1.876 -16.651  1.00  0.00    -0.000 C 
BRANCH  10  11
ATOM     11  C   UNL     1      10.966  -3.356 -16.252  1.00  0.00    -0.003 C 
ATOM     12  C   UNL     1      11.352  -4.251 -17.425  1.00  0.00     0.004 C 
ENDBRANCH  10  11
ENDBRANCH   9  10
ENDBRANCH   8   9
ENDBRANCH   7   8
ENDBRANCH   6   7
ENDBRANCH   5   6
ENDBRANCH   4   5
ENDBRANCH   3   4
ENDBRANCH   2   3
ENDBRANCH   1   2
BRANCH   1  13
ATOM     13  C   UNL     1       8.205   1.233 -12.697  1.00  0.00     0.000 C 
BRANCH  13  14
ATOM     14  C   UNL     1       7.132   1.323 -13.791  1.00  0.00     0.000 C 
BRANCH  14  15
ATOM     15  C   UNL     1       5.860   2.006 -13.262  1.00  0.00     0.000 C 
BRANCH  15  16
ATOM     16  C   UNL     1       4.605   1.614 -14.070  1.00  0.00     0.000 C 
BRANCH  16  17
ATOM     17  C   UNL     1       3.666   0.651 -13.322  1.00  0.00     0.000 C 
BRANCH  17  18
ATOM     18  C   UNL     1       2.425   0.267 -14.144  1.00  0.00     0.000 C 
BRANCH  18  19
ATOM     19  C   UNL     1       1.314   1.327 -14.069  1.00  0.00     0.000 C 
BRANCH  19  20
ATOM     20  C   UNL     1       0.028   0.885 -14.783  1.00  0.00     0.006 C 
BRANCH  20  21
ATOM     21  C   UNL     1       0.107  -0.590 -15.189  1.00  0.00     0.053 C 
BRANCH  21  22
ATOM     22  C   UNL     1       0.246  -0.717 -16.673  1.00  0.00     0.041 C 
ATOM     23  O   UNL     1      -0.053   0.249 -17.422  1.00  0.00    -0.550 OA
ATOM     24  O   UNL     1       0.752  -1.886 -17.227  1.00  0.00    -0.550 OA
ENDBRANCH  21  22
ENDBRANCH  20  21
ENDBRANCH  19  20
ENDBRANCH  18  19
ENDBRANCH  17  18
ENDBRANCH  16  17
ENDBRANCH  15  16
ENDBRANCH  14  15
ENDBRANCH  13  14
ENDBRANCH   1  13
TORSDOF 20
ENDMDL
MODEL 6
REMARK VINA RESULT:    10.514      5.241     11.093
REMARK INTER + INTRA:          21.979
REMARK INTER:                  22.653
REMARK INTRA:                  -0.675
REMARK UNBOUND:                -0.828
REMARK SMILES CCCCCCCCCCCCCCCCCCCCCC(=O)[O-]
REMARK SMILES IDX 12 1 11 2 10 3 9 4 8 5 7 6 6 7 5 8 4 9 3 10 2 11 1 12 13 13
REMARK SMILES IDX 14 14 15 15 16 16 17 17 18 18 19 19 20 20 21 21 22 22 23 23
REMARK SMILES IDX 24 24
REMARK H PARENT
REMARK Flexibility Score: inf
ROOT
ATOM      1  C   UNL     1       7.690   1.348 -14.013  1.00  0.00     0.000 C 
ENDROOT
BRANCH   1   2
ATOM      2  C   UNL     1       8.869   0.751 -13.218  1.00  0.00     0.000 C 
BRANCH   2   3
ATOM      3  C   UNL     1      10.016   1.734 -12.922  1.00  0.00     0.000 C 
BRANCH   3   4
ATOM      4  C   UNL     1      10.281   2.706 -14.085  1.00  0.00    -0.000 C 
BRANCH   4   5
ATOM      5  C   UNL     1      11.537   2.336 -14.887  1.00  0.00    -0.000 C 
BRANCH   5   6
ATOM      6  C   UNL     1      11.467   0.912 -15.466  1.00  0.00    -0.000 C 
BRANCH   6   7
ATOM      7  C   UNL     1      12.402   0.717 -16.669  1.00  0.00    -0.000 C 
BRANCH   7   8
ATOM      8  C   UNL     1      12.742   2.038 -17.381  1.00  0.00    -0.000 C 
BRANCH   8   9
ATOM      9  C   UNL     1      13.967   1.917 -18.302  1.00  0.00    -0.000 C 
BRANCH   9  10
ATOM     10  C   UNL     1      14.293   0.459 -18.664  1.00  0.00    -0.000 C 
BRANCH  10  11
ATOM     11  C   UNL     1      15.788   0.171 -18.485  1.00  0.00    -0.003 C 
ATOM     12  C   UNL     1      16.603   0.749 -19.638  1.00  0.00     0.004 C 
ENDBRANCH  10  11
ENDBRANCH   9  10
ENDBRANCH   8   9
ENDBRANCH   7   8
ENDBRANCH   6   7
ENDBRANCH   5   6
ENDBRANCH   4   5
ENDBRANCH   3   4
ENDBRANCH   2   3
ENDBRANCH   1   2
BRANCH   1  13
ATOM     13  C   UNL     1       6.376   1.491 -13.223  1.00  0.00     0.000 C 
BRANCH  13  14
ATOM     14  C   UNL     1       5.130   1.294 -14.099  1.00  0.00     0.000 C 
BRANCH  14  15
ATOM     15  C   UNL     1       3.854   1.258 -13.243  1.00  0.00     0.000 C 
BRANCH  15  16
ATOM     16  C   UNL     1       2.634   0.739 -14.032  1.00  0.00     0.000 C 
BRANCH  16  17
ATOM     17  C   UNL     1       1.389   0.501 -13.159  1.00  0.00     0.000 C 
BRANCH  17  18
ATOM     18  C   UNL     1       0.147   1.247 -13.672  1.00  0.00     0.000 C 
BRANCH  18  19
ATOM     19  C   UNL     1      -0.018   1.143 -15.196  1.00  0.00     0.000 C 
BRANCH  19  20
ATOM     20  C   UNL     1       0.126  -0.298 -15.708  1.00  0.00     0.006 C 
BRANCH  20  21
ATOM     21  C   UNL     1       0.218  -0.328 -17.237  1.00  0.00     0.053 C 
BRANCH  21  22
ATOM     22  C   UNL     1       0.349  -1.737 -17.725  1.00  0.00     0.041 C 
ATOM     23  O   UNL     1       0.849  -2.621 -16.981  1.00  0.00    -0.550 OA
ATOM     24  O   UNL     1      -0.125  -2.084 -18.983  1.00  0.00    -0.550 OA
ENDBRANCH  21  22
ENDBRANCH  20  21
ENDBRANCH  19  20
ENDBRANCH  18  19
ENDBRANCH  17  18
ENDBRANCH  16  17
ENDBRANCH  15  16
ENDBRANCH  14  15
ENDBRANCH  13  14
ENDBRANCH   1  13
TORSDOF 20
ENDMDL
MODEL 7
REMARK VINA RESULT:    10.569      3.670      6.014
REMARK INTER + INTRA:          22.098
REMARK INTER:                  22.269
REMARK INTRA:                  -0.170
REMARK UNBOUND:                -0.828
REMARK SMILES CCCCCCCCCCCCCCCCCCCCCC(=O)[O-]
REMARK SMILES IDX 12 1 11 2 10 3 9 4 8 5 7 6 6 7 5 8 4 9 3 10 2 11 1 12 13 13
REMARK SMILES IDX 14 14 15 15 16 16 17 17 18 18 19 19 20 20 21 21 22 22 23 23
REMARK SMILES IDX 24 24
REMARK H PARENT
REMARK Flexibility Score: inf
ROOT
ATOM      1  C   UNL     1       4.811   1.614 -14.156  1.00  0.00     0.000 C 
ENDROOT
BRANCH   1   2
ATOM      2  C   UNL     1       3.766   0.976 -13.219  1.00  0.00     0.000 C 
BRANCH   2   3
ATOM      3  C   UNL     1       2.442   0.580 -13.898  1.00  0.00     0.000 C 
BRANCH   3   4
ATOM      4  C   UNL     1       1.475   1.767 -14.053  1.00  0.00    -0.000 C 
BRANCH   4   5
ATOM      5  C   UNL     1       0.038   1.320 -14.363  1.00  0.00    -0.000 C 
BRANCH   5   6
ATOM      6  C   UNL     1      -0.093  -0.210 -14.458  1.00  0.00    -0.000 C 
BRANCH   6   7
ATOM      7  C   UNL     1      -0.124  -0.711 -15.910  1.00  0.00    -0.000 C 
BRANCH   7   8
ATOM      8  C   UNL     1       1.155  -1.470 -16.306  1.00  0.00    -0.000 C 
BRANCH   8   9
ATOM      9  C   UNL     1       1.275  -1.674 -17.825  1.00  0.00    -0.000 C 
BRANCH   9  10
ATOM     10  C   UNL     1      -0.092  -1.790 -18.517  1.00  0.00    -0.000 C 
BRANCH  10  11
ATOM     11  C   UNL     1      -0.106  -2.957 -19.512  1.00  0.00    -0.003 C 
ATOM     12  C   UNL     1      -0.082  -2.454 -20.953  1.00  0.00     0.004 C 
ENDBRANCH  10  11
ENDBRANCH   9  10
ENDBRANCH   8   9
ENDBRANCH   7   8
ENDBRANCH   6   7
ENDBRANCH   5   6
ENDBRANCH   4   5
ENDBRANCH   3   4
ENDBRANCH   2   3
ENDBRANCH   1   2
BRANCH   1  13
ATOM     13  C   UNL     1       6.236   1.047 -14.026  1.00  0.00     0.000 C 
BRANCH  13  14
ATOM     14  C   UNL     1       7.148   1.919 -13.151  1.00  0.00     0.000 C 
BRANCH  14  15
ATOM     15  C   UNL     1       8.486   1.215 -12.875  1.00  0.00     0.000 C 
BRANCH  15  16
ATOM     16  C   UNL     1       9.689   2.175 -12.992  1.00  0.00     0.000 C 
BRANCH  16  17
ATOM     17  C   UNL     1      10.908   1.555 -13.696  1.00  0.00     0.000 C 
BRANCH  17  18
ATOM     18  C   UNL     1      11.002   1.942 -15.181  1.00  0.00     0.000 C 
BRANCH  18  19
ATOM     19  C   UNL     1      12.335   1.522 -15.819  1.00  0.00     0.000 C 
BRANCH  19  20
ATOM     20  C   UNL     1      12.153   0.486 -16.939  1.00  0.00     0.006 C 
BRANCH  20  21
ATOM     21  C   UNL     1      12.836   0.950 -18.230  1.00  0.00     0.053 C 
BRANCH  21  22
ATOM     22  C   UNL     1      14.281   1.245 -17.979  1.00  0.00     0.041 C 
ATOM     23  O   UNL     1      14.612   2.212 -17.245  1.00  0.00    -0.550 OA
ATOM     24  O   UNL     1      15.262   0.422 -18.518  1.00  0.00    -0.550 OA
ENDBRANCH  21  22
ENDBRANCH  20  21
ENDBRANCH  19  20
ENDBRANCH  18  19
ENDBRANCH  17  18
ENDBRANCH  16  17
ENDBRANCH  15  16
ENDBRANCH  14  15
ENDBRANCH  13  14
ENDBRANCH   1  13
TORSDOF 20
ENDMDL
MODEL 8
REMARK VINA RESULT:    10.618      3.722      5.389
REMARK INTER + INTRA:          22.204
REMARK INTER:                  23.277
REMARK INTRA:                  -1.073
REMARK UNBOUND:                -0.828
REMARK SMILES CCCCCCCCCCCCCCCCCCCCCC(=O)[O-]
REMARK SMILES IDX 12 1 11 2 10 3 9 4 8 5 7 6 6 7 5 8 4 9 3 10 2 11 1 12 13 13
REMARK SMILES IDX 14 14 15 15 16 16 17 17 18 18 19 19 20 20 21 21 22 22 23 23
REMARK SMILES IDX 24 24
REMARK H PARENT
REMARK Flexibility Score: inf
ROOT
ATOM      1  C   UNL     1       6.302   1.165 -13.928  1.00  0.00     0.000 C 
ENDROOT
BRANCH   1   2
ATOM      2  C   UNL     1       4.920   1.794 -13.661  1.00  0.00     0.000 C 
BRANCH   2   3
ATOM      3  C   UNL     1       3.809   0.792 -13.301  1.00  0.00     0.000 C 
BRANCH   3   4
ATOM      4  C   UNL     1       2.528   1.003 -14.126  1.00  0.00    -0.000 C 
BRANCH   4   5
ATOM      5  C   UNL     1       1.278   0.444 -13.429  1.00  0.00    -0.000 C 
BRANCH   5   6
ATOM      6  C   UNL     1      -0.026   0.899 -14.107  1.00  0.00    -0.000 C 
BRANCH   6   7
ATOM      7  C   UNL     1       0.221   1.879 -15.264  1.00  0.00    -0.000 C 
BRANCH   7   8
ATOM      8  C   UNL     1      -0.125   1.279 -16.638  1.00  0.00    -0.000 C 
BRANCH   8   9
ATOM      9  C   UNL     1       0.610  -0.043 -16.909  1.00  0.00    -0.000 C 
BRANCH   9  10
ATOM     10  C   UNL     1      -0.005  -0.834 -18.074  1.00  0.00    -0.000 C 
BRANCH  10  11
ATOM     11  C   UNL     1       0.092  -2.344 -17.824  1.00  0.00    -0.003 C 
ATOM     12  C   UNL     1       0.389  -2.643 -16.357  1.00  0.00     0.004 C 
ENDBRANCH  10  11
ENDBRANCH   9  10
ENDBRANCH   8   9
ENDBRANCH   7   8
ENDBRANCH   6   7
ENDBRANCH   5   6
ENDBRANCH   4   5
ENDBRANCH   3   4
ENDBRANCH   2   3
ENDBRANCH   1   2
BRANCH   1  13
ATOM     13  C   UNL     1       7.185   0.978 -12.680  1.00  0.00     0.000 C 
BRANCH  13  14
ATOM     14  C   UNL     1       8.608   1.523 -12.869  1.00  0.00     0.000 C 
BRANCH  14  15
ATOM     15  C   UNL     1       9.560   0.422 -13.362  1.00  0.00     0.000 C 
BRANCH  15  16
ATOM     16  C   UNL     1      10.875   0.997 -13.930  1.00  0.00     0.000 C 
BRANCH  16  17
ATOM     17  C   UNL     1      10.667   2.173 -14.899  1.00  0.00     0.000 C 
BRANCH  17  18
ATOM     18  C   UNL     1      11.489   2.037 -16.192  1.00  0.00     0.000 C 
BRANCH  18  19
ATOM     19  C   UNL     1      12.581   0.960 -16.087  1.00  0.00     0.000 C 
BRANCH  19  20
ATOM     20  C   UNL     1      13.798   1.266 -16.974  1.00  0.00     0.006 C 
BRANCH  20  21
ATOM     21  C   UNL     1      13.785   0.401 -18.238  1.00  0.00     0.053 C 
BRANCH  21  22
ATOM     22  C   UNL     1      14.690   0.982 -19.279  1.00  0.00     0.041 C 
ATOM     23  O   UNL     1      15.817   0.466 -19.497  1.00  0.00    -0.550 OA
ATOM     24  O   UNL     1      14.268   2.064 -20.040  1.00  0.00    -0.550 OA
ENDBRANCH  21  22
ENDBRANCH  20  21
ENDBRANCH  19  20
ENDBRANCH  18  19
ENDBRANCH  17  18
ENDBRANCH  16  17
ENDBRANCH  15  16
ENDBRANCH  14  15
ENDBRANCH  13  14
ENDBRANCH   1  13
TORSDOF 20
ENDMDL
