MODEL 1
REMARK VINA RESULT:    -3.789      0.000      0.000
REMARK INTER + INTRA:         -10.222
REMARK INTER:                  -7.333
REMARK INTRA:                  -2.889
REMARK UNBOUND:                -2.889
REMARK SMILES CCCCCCCCCCCCCCCCCC(=O)[O-]
REMARK SMILES IDX 10 1 11 2 12 3 13 4 14 5 15 6 16 7 17 8 18 9 19 10 20 11
REMARK SMILES IDX 9 12 8 13 7 14 6 15 5 16 4 17 3 18 2 19 1 20
REMARK H PARENT
REMARK Flexibility Score: inf
ROOT
ATOM      1  C   UNL     1      -7.826   3.186  51.340  1.00  0.00     0.000 C 
ENDROOT
BRANCH   1   2
ATOM      2  C   UNL     1      -7.691   2.801  52.823  1.00  0.00     0.000 C 
BRANCH   2   3
ATOM      3  C   UNL     1      -6.226   2.721  53.284  1.00  0.00     0.000 C 
BRANCH   3   4
ATOM      4  C   UNL     1      -5.866   3.797  54.320  1.00  0.00     0.000 C 
BRANCH   4   5
ATOM      5  C   UNL     1      -7.123   4.312  55.034  1.00  0.00     0.000 C 
BRANCH   5   6
ATOM      6  C   UNL     1      -6.953   5.778  55.458  1.00  0.00     0.000 C 
BRANCH   6   7
ATOM      7  C   UNL     1      -7.149   5.980  56.970  1.00  0.00     0.006 C 
BRANCH   7   8
ATOM      8  C   UNL     1      -6.740   4.748  57.787  1.00  0.00     0.053 C 
BRANCH   8   9
ATOM      9  C   UNL     1      -5.296   4.831  58.169  1.00  0.00     0.041 C 
ATOM     10  O   UNL     1      -4.545   3.829  58.029  1.00  0.00    -0.550 OA
ATOM     11  O   UNL     1      -4.792   5.998  58.730  1.00  0.00    -0.550 OA
ENDBRANCH   8   9
ENDBRANCH   7   8
ENDBRANCH   6   7
ENDBRANCH   5   6
ENDBRANCH   4   5
ENDBRANCH   3   4
ENDBRANCH   2   3
ENDBRANCH   1   2
BRANCH   1  12
ATOM     12  C   UNL     1      -7.292   4.598  51.037  1.00  0.00     0.000 C 
BRANCH  12  13
ATOM     13  C   UNL     1      -8.136   5.752  51.610  1.00  0.00    -0.000 C 
BRANCH  13  14
ATOM     14  C   UNL     1      -9.536   5.839  50.982  1.00  0.00    -0.000 C 
BRANCH  14  15
ATOM     15  C   UNL     1     -10.599   6.135  52.051  1.00  0.00    -0.000 C 
BRANCH  15  16
ATOM     16  C   UNL     1     -10.130   5.794  53.478  1.00  0.00    -0.000 C 
BRANCH  16  17
ATOM     17  C   UNL     1     -10.705   4.490  54.061  1.00  0.00    -0.000 C 
BRANCH  17  18
ATOM     18  C   UNL     1     -11.836   3.898  53.204  1.00  0.00    -0.000 C 
BRANCH  18  19
ATOM     19  C   UNL     1     -11.438   2.567  52.545  1.00  0.00    -0.003 C 
ATOM     20  C   UNL     1     -11.449   2.638  51.017  1.00  0.00     0.004 C 
ENDBRANCH  18  19
ENDBRANCH  17  18
ENDBRANCH  16  17
ENDBRANCH  15  16
ENDBRANCH  14  15
ENDBRANCH  13  14
ENDBRANCH  12  13
ENDBRANCH   1  12
TORSDOF 16
ENDMDL
MODEL 2
REMARK VINA RESULT:    -3.762      1.330      2.734
REMARK INTER + INTRA:         -10.170
REMARK INTER:                  -7.688
REMARK INTRA:                  -2.482
REMARK UNBOUND:                -2.889
REMARK SMILES CCCCCCCCCCCCCCCCCC(=O)[O-]
REMARK SMILES IDX 10 1 11 2 12 3 13 4 14 5 15 6 16 7 17 8 18 9 19 10 20 11
REMARK SMILES IDX 9 12 8 13 7 14 6 15 5 16 4 17 3 18 2 19 1 20
REMARK H PARENT
REMARK Flexibility Score: inf
ROOT
ATOM      1  C   UNL     1      -5.946   3.209  53.273  1.00  0.00     0.000 C 
ENDROOT
BRANCH   1   2
ATOM      2  C   UNL     1      -5.855   4.033  54.569  1.00  0.00     0.000 C 
BRANCH   2   3
ATOM      3  C   UNL     1      -7.236   4.378  55.150  1.00  0.00     0.000 C 
BRANCH   3   4
ATOM      4  C   UNL     1      -7.535   5.885  55.127  1.00  0.00     0.000 C 
BRANCH   4   5
ATOM      5  C   UNL     1      -7.195   6.532  56.475  1.00  0.00     0.000 C 
BRANCH   5   6
ATOM      6  C   UNL     1      -7.343   5.524  57.624  1.00  0.00     0.000 C 
BRANCH   6   7
ATOM      7  C   UNL     1      -6.377   5.808  58.786  1.00  0.00     0.006 C 
BRANCH   7   8
ATOM      8  C   UNL     1      -5.033   5.085  58.625  1.00  0.00     0.053 C 
BRANCH   8   9
ATOM      9  C   UNL     1      -4.923   3.965  59.610  1.00  0.00     0.041 C 
ATOM     10  O   UNL     1      -5.934   3.592  60.262  1.00  0.00    -0.550 OA
ATOM     11  O   UNL     1      -3.691   3.367  59.847  1.00  0.00    -0.550 OA
ENDBRANCH   8   9
ENDBRANCH   7   8
ENDBRANCH   6   7
ENDBRANCH   5   6
ENDBRANCH   4   5
ENDBRANCH   3   4
ENDBRANCH   2   3
ENDBRANCH   1   2
BRANCH   1  12
ATOM     12  C   UNL     1      -7.397   2.878  52.876  1.00  0.00     0.000 C 
BRANCH  12  13
ATOM     13  C   UNL     1      -7.769   3.221  51.422  1.00  0.00    -0.000 C 
BRANCH  13  14
ATOM     14  C   UNL     1      -7.136   4.533  50.935  1.00  0.00    -0.000 C 
BRANCH  14  15
ATOM     15  C   UNL     1      -7.863   5.748  51.531  1.00  0.00    -0.000 C 
BRANCH  15  16
ATOM     16  C   UNL     1      -9.383   5.722  51.280  1.00  0.00    -0.000 C 
BRANCH  16  17
ATOM     17  C   UNL     1     -10.256   5.971  52.524  1.00  0.00    -0.000 C 
BRANCH  17  18
ATOM     18  C   UNL     1     -10.721   4.669  53.199  1.00  0.00    -0.000 C 
BRANCH  18  19
ATOM     19  C   UNL     1     -11.086   4.873  54.679  1.00  0.00    -0.003 C 
ATOM     20  C   UNL     1     -11.250   6.347  55.049  1.00  0.00     0.004 C 
ENDBRANCH  18  19
ENDBRANCH  17  18
ENDBRANCH  16  17
ENDBRANCH  15  16
ENDBRANCH  14  15
ENDBRANCH  13  14
ENDBRANCH  12  13
ENDBRANCH   1  12
TORSDOF 16
ENDMDL
MODEL 3
REMARK VINA RESULT:    -3.761      3.166      6.933
REMARK INTER + INTRA:         -10.167
REMARK INTER:                  -7.387
REMARK INTRA:                  -2.781
REMARK UNBOUND:                -2.889
REMARK SMILES CCCCCCCCCCCCCCCCCC(=O)[O-]
REMARK SMILES IDX 10 1 11 2 12 3 13 4 14 5 15 6 16 7 17 8 18 9 19 10 20 11
REMARK SMILES IDX 9 12 8 13 7 14 6 15 5 16 4 17 3 18 2 19 1 20
REMARK H PARENT
REMARK Flexibility Score: inf
ROOT
ATOM      1  C   UNL     1      -8.281   5.321  55.979  1.00  0.00     0.000 C 
ENDROOT
BRANCH   1   2
ATOM      2  C   UNL     1      -6.750   5.462  55.935  1.00  0.00     0.000 C 
BRANCH   2   3
ATOM      3  C   UNL     1      -6.076   4.353  55.109  1.00  0.00     0.000 C 
BRANCH   3   4
ATOM      4  C   UNL     1      -7.038   3.213  54.742  1.00  0.00     0.000 C 
BRANCH   4   5
ATOM      5  C   UNL     1      -6.837   2.774  53.286  1.00  0.00     0.000 C 
BRANCH   5   6
ATOM      6  C   UNL     1      -6.213   3.901  52.451  1.00  0.00     0.000 C 
BRANCH   6   7
ATOM      7  C   UNL     1      -7.181   4.458  51.395  1.00  0.00     0.006 C 
BRANCH   7   8
ATOM      8  C   UNL     1      -7.976   5.667  51.904  1.00  0.00     0.053 C 
BRANCH   8   9
ATOM      9  C   UNL     1      -9.443   5.442  51.719  1.00  0.00     0.041 C 
ATOM     10  O   UNL     1     -10.066   4.660  52.485  1.00  0.00    -0.550 OA
ATOM     11  O   UNL     1     -10.112   6.055  50.667  1.00  0.00    -0.550 OA
ENDBRANCH   8   9
ENDBRANCH   7   8
ENDBRANCH   6   7
ENDBRANCH   5   6
ENDBRANCH   4   5
ENDBRANCH   3   4
ENDBRANCH   2   3
ENDBRANCH   1   2
BRANCH   1  12
ATOM     12  C   UNL     1      -8.858   5.507  57.395  1.00  0.00     0.000 C 
BRANCH  12  13
ATOM     13  C   UNL     1      -7.996   6.358  58.344  1.00  0.00    -0.000 C 
BRANCH  13  14
ATOM     14  C   UNL     1      -7.948   5.798  59.774  1.00  0.00    -0.000 C 
BRANCH  14  15
ATOM     15  C   UNL     1      -6.558   6.000  60.396  1.00  0.00    -0.000 C 
BRANCH  15  16
ATOM     16  C   UNL     1      -5.418   5.931  59.361  1.00  0.00    -0.000 C 
BRANCH  16  17
ATOM     17  C   UNL     1      -4.481   4.717  59.501  1.00  0.00    -0.000 C 
BRANCH  17  18
ATOM     18  C   UNL     1      -4.853   3.561  58.556  1.00  0.00    -0.000 C 
BRANCH  18  19
ATOM     19  C   UNL     1      -5.848   2.578  59.194  1.00  0.00    -0.003 C 
ATOM     20  C   UNL     1      -7.102   2.372  58.345  1.00  0.00     0.004 C 
ENDBRANCH  18  19
ENDBRANCH  17  18
ENDBRANCH  16  17
ENDBRANCH  15  16
ENDBRANCH  14  15
ENDBRANCH  13  14
ENDBRANCH  12  13
ENDBRANCH   1  12
TORSDOF 16
ENDMDL
MODEL 4
REMARK VINA RESULT:    -3.734      1.562      3.766
REMARK INTER + INTRA:         -10.115
REMARK INTER:                  -7.497
REMARK INTRA:                  -2.618
REMARK UNBOUND:                -2.889
REMARK SMILES CCCCCCCCCCCCCCCCCC(=O)[O-]
REMARK SMILES IDX 10 1 11 2 12 3 13 4 14 5 15 6 16 7 17 8 18 9 19 10 20 11
REMARK SMILES IDX 9 12 8 13 7 14 6 15 5 16 4 17 3 18 2 19 1 20
REMARK H PARENT
REMARK Flexibility Score: inf
ROOT
ATOM      1  C   UNL     1     -10.386   5.041  53.332  1.00  0.00     0.000 C 
ENDROOT
BRANCH   1   2
ATOM      2  C   UNL     1      -9.705   5.029  54.712  1.00  0.00     0.000 C 
BRANCH   2   3
ATOM      3  C   UNL     1      -8.453   5.920  54.763  1.00  0.00     0.000 C 
BRANCH   3   4
ATOM      4  C   UNL     1      -8.075   6.338  56.192  1.00  0.00     0.000 C 
BRANCH   4   5
ATOM      5  C   UNL     1      -6.609   6.000  56.493  1.00  0.00     0.000 C 
BRANCH   5   6
ATOM      6  C   UNL     1      -6.421   5.628  57.971  1.00  0.00     0.000 C 
BRANCH   6   7
ATOM      7  C   UNL     1      -4.971   5.815  58.445  1.00  0.00     0.006 C 
BRANCH   7   8
ATOM      8  C   UNL     1      -4.556   4.774  59.493  1.00  0.00     0.053 C 
BRANCH   8   9
ATOM      9  C   UNL     1      -4.707   3.391  58.944  1.00  0.00     0.041 C 
ATOM     10  O   UNL     1      -5.472   2.565  59.509  1.00  0.00    -0.550 OA
ATOM     11  O   UNL     1      -3.963   2.997  57.839  1.00  0.00    -0.550 OA
ENDBRANCH   8   9
ENDBRANCH   7   8
ENDBRANCH   6   7
ENDBRANCH   5   6
ENDBRANCH   4   5
ENDBRANCH   3   4
ENDBRANCH   2   3
ENDBRANCH   1   2
BRANCH   1  12
ATOM     12  C   UNL     1      -9.848   6.151  52.410  1.00  0.00     0.000 C 
BRANCH  12  13
ATOM     13  C   UNL     1      -9.234   5.660  51.087  1.00  0.00    -0.000 C 
BRANCH  13  14
ATOM     14  C   UNL     1      -7.718   5.427  51.181  1.00  0.00    -0.000 C 
BRANCH  14  15
ATOM     15  C   UNL     1      -7.383   3.934  51.047  1.00  0.00    -0.000 C 
BRANCH  15  16
ATOM     16  C   UNL     1      -7.239   3.224  52.407  1.00  0.00    -0.000 C 
BRANCH  16  17
ATOM     17  C   UNL     1      -6.002   3.630  53.229  1.00  0.00    -0.000 C 
BRANCH  17  18
ATOM     18  C   UNL     1      -5.943   2.940  54.602  1.00  0.00    -0.000 C 
BRANCH  18  19
ATOM     19  C   UNL     1      -7.318   2.426  55.060  1.00  0.00    -0.003 C 
ATOM     20  C   UNL     1      -7.377   2.158  56.565  1.00  0.00     0.004 C 
ENDBRANCH  18  19
ENDBRANCH  17  18
ENDBRANCH  16  17
ENDBRANCH  15  16
ENDBRANCH  14  15
ENDBRANCH  13  14
ENDBRANCH  12  13
ENDBRANCH   1  12
TORSDOF 16
ENDMDL
MODEL 5
REMARK VINA RESULT:    -3.713      1.666      3.712
REMARK INTER + INTRA:         -10.075
REMARK INTER:                  -7.730
REMARK INTRA:                  -2.345
REMARK UNBOUND:                -2.889
REMARK SMILES CCCCCCCCCCCCCCCCCC(=O)[O-]
REMARK SMILES IDX 10 1 11 2 12 3 13 4 14 5 15 6 16 7 17 8 18 9 19 10 20 11
REMARK SMILES IDX 9 12 8 13 7 14 6 15 5 16 4 17 3 18 2 19 1 20
REMARK H PARENT
REMARK Flexibility Score: inf
ROOT
ATOM      1  C   UNL     1      -7.138   4.238  55.304  1.00  0.00     0.000 C 
ENDROOT
BRANCH   1   2
ATOM      2  C   UNL     1      -7.435   5.740  55.150  1.00  0.00     0.000 C 
BRANCH   2   3
ATOM      3  C   UNL     1      -7.306   6.508  56.476  1.00  0.00     0.000 C 
BRANCH   3   4
ATOM      4  C   UNL     1      -7.837   5.715  57.680  1.00  0.00     0.000 C 
BRANCH   4   5
ATOM      5  C   UNL     1      -6.857   5.785  58.858  1.00  0.00     0.000 C 
BRANCH   5   6
ATOM      6  C   UNL     1      -5.403   5.705  58.371  1.00  0.00     0.000 C 
BRANCH   6   7
ATOM      7  C   UNL     1      -4.773   4.325  58.619  1.00  0.00     0.006 C 
BRANCH   7   8
ATOM      8  C   UNL     1      -5.485   3.544  59.732  1.00  0.00     0.053 C 
BRANCH   8   9
ATOM      9  C   UNL     1      -6.014   2.249  59.204  1.00  0.00     0.041 C 
ATOM     10  O   UNL     1      -7.233   2.136  58.908  1.00  0.00    -0.550 OA
ATOM     11  O   UNL     1      -5.172   1.150  59.088  1.00  0.00    -0.550 OA
ENDBRANCH   8   9
ENDBRANCH   7   8
ENDBRANCH   6   7
ENDBRANCH   5   6
ENDBRANCH   4   5
ENDBRANCH   3   4
ENDBRANCH   2   3
ENDBRANCH   1   2
BRANCH   1  12
ATOM     12  C   UNL     1      -5.867   3.800  54.552  1.00  0.00     0.000 C 
BRANCH  12  13
ATOM     13  C   UNL     1      -5.972   3.834  53.016  1.00  0.00    -0.000 C 
BRANCH  13  14
ATOM     14  C   UNL     1      -7.086   2.927  52.472  1.00  0.00    -0.000 C 
BRANCH  14  15
ATOM     15  C   UNL     1      -7.694   3.513  51.189  1.00  0.00    -0.000 C 
BRANCH  15  16
ATOM     16  C   UNL     1      -7.706   5.054  51.178  1.00  0.00    -0.000 C 
BRANCH  16  17
ATOM     17  C   UNL     1      -9.102   5.696  51.077  1.00  0.00    -0.000 C 
BRANCH  17  18
ATOM     18  C   UNL     1      -9.650   6.155  52.439  1.00  0.00    -0.000 C 
BRANCH  18  19
ATOM     19  C   UNL     1     -10.878   5.343  52.882  1.00  0.00    -0.003 C 
ATOM     20  C   UNL     1     -10.502   4.057  53.618  1.00  0.00     0.004 C 
ENDBRANCH  18  19
ENDBRANCH  17  18
ENDBRANCH  16  17
ENDBRANCH  15  16
ENDBRANCH  14  15
ENDBRANCH  13  14
ENDBRANCH  12  13
ENDBRANCH   1  12
TORSDOF 16
ENDMDL
MODEL 6
REMARK VINA RESULT:    -3.695      3.505      6.688
REMARK INTER + INTRA:         -10.041
REMARK INTER:                  -7.470
REMARK INTRA:                  -2.570
REMARK UNBOUND:                -2.889
REMARK SMILES CCCCCCCCCCCCCCCCCC(=O)[O-]
REMARK SMILES IDX 10 1 11 2 12 3 13 4 14 5 15 6 16 7 17 8 18 9 19 10 20 11
REMARK SMILES IDX 9 12 8 13 7 14 6 15 5 16 4 17 3 18 2 19 1 20
REMARK H PARENT
REMARK Flexibility Score: inf
ROOT
ATOM      1  C   UNL     1      -5.867   3.955  55.145  1.00  0.00     0.000 C 
ENDROOT
BRANCH   1   2
ATOM      2  C   UNL     1      -6.774   2.735  55.386  1.00  0.00     0.000 C 
BRANCH   2   3
ATOM      3  C   UNL     1      -7.295   2.117  54.078  1.00  0.00     0.000 C 
BRANCH   3   4
ATOM      4  C   UNL     1      -6.456   2.514  52.853  1.00  0.00     0.000 C 
BRANCH   4   5
ATOM      5  C   UNL     1      -7.316   3.238  51.810  1.00  0.00     0.000 C 
BRANCH   5   6
ATOM      6  C   UNL     1      -6.892   4.707  51.670  1.00  0.00     0.000 C 
BRANCH   6   7
ATOM      7  C   UNL     1      -8.018   5.684  52.046  1.00  0.00     0.006 C 
BRANCH   7   8
ATOM      8  C   UNL     1      -9.366   4.979  52.251  1.00  0.00     0.053 C 
BRANCH   8   9
ATOM      9  C   UNL     1     -10.205   5.090  51.018  1.00  0.00     0.041 C 
ATOM     10  O   UNL     1     -10.564   6.221  50.596  1.00  0.00    -0.550 OA
ATOM     11  O   UNL     1     -10.636   3.942  50.364  1.00  0.00    -0.550 OA
ENDBRANCH   8   9
ENDBRANCH   7   8
ENDBRANCH   6   7
ENDBRANCH   5   6
ENDBRANCH   4   5
ENDBRANCH   3   4
ENDBRANCH   2   3
ENDBRANCH   1   2
BRANCH   1  12
ATOM     12  C   UNL     1      -6.442   5.254  55.741  1.00  0.00     0.000 C 
BRANCH  12  13
ATOM     13  C   UNL     1      -7.936   5.197  56.111  1.00  0.00    -0.000 C 
BRANCH  13  14
ATOM     14  C   UNL     1      -8.367   6.344  57.038  1.00  0.00    -0.000 C 
BRANCH  14  15
ATOM     15  C   UNL     1      -8.700   5.818  58.442  1.00  0.00    -0.000 C 
BRANCH  15  16
ATOM     16  C   UNL     1      -7.829   6.450  59.545  1.00  0.00    -0.000 C 
BRANCH  16  17
ATOM     17  C   UNL     1      -6.698   5.552  60.081  1.00  0.00    -0.000 C 
BRANCH  17  18
ATOM     18  C   UNL     1      -5.359   5.783  59.361  1.00  0.00    -0.000 C 
BRANCH  18  19
ATOM     19  C   UNL     1      -4.719   4.470  58.879  1.00  0.00    -0.003 C 
ATOM     20  C   UNL     1      -5.683   3.285  58.939  1.00  0.00     0.004 C 
ENDBRANCH  18  19
ENDBRANCH  17  18
ENDBRANCH  16  17
ENDBRANCH  15  16
ENDBRANCH  14  15
ENDBRANCH  13  14
ENDBRANCH  12  13
ENDBRANCH   1  12
TORSDOF 16
ENDMDL
MODEL 7
REMARK VINA RESULT:    -3.637      2.959      5.946
REMARK INTER + INTRA:          -9.928
REMARK INTER:                  -7.169
REMARK INTRA:                  -2.759
REMARK UNBOUND:                -2.889
REMARK SMILES CCCCCCCCCCCCCCCCCC(=O)[O-]
REMARK SMILES IDX 10 1 11 2 12 3 13 4 14 5 15 6 16 7 17 8 18 9 19 10 20 11
REMARK SMILES IDX 9 12 8 13 7 14 6 15 5 16 4 17 3 18 2 19 1 20
REMARK H PARENT
REMARK Flexibility Score: inf
ROOT
ATOM      1  C   UNL     1      -7.337   2.694  52.755  1.00  0.00     0.000 C 
ENDROOT
BRANCH   1   2
ATOM      2  C   UNL     1      -7.774   3.235  51.383  1.00  0.00     0.000 C 
BRANCH   2   3
ATOM      3  C   UNL     1      -7.080   4.559  51.019  1.00  0.00     0.000 C 
BRANCH   3   4
ATOM      4  C   UNL     1      -7.787   5.787  51.612  1.00  0.00     0.000 C 
BRANCH   4   5
ATOM      5  C   UNL     1      -9.299   5.723  51.361  1.00  0.00     0.000 C 
BRANCH   5   6
ATOM      6  C   UNL     1     -10.084   6.050  52.639  1.00  0.00     0.000 C 
BRANCH   6   7
ATOM      7  C   UNL     1     -11.231   5.058  52.897  1.00  0.00     0.006 C 
BRANCH   7   8
ATOM      8  C   UNL     1     -10.755   3.774  53.588  1.00  0.00     0.053 C 
BRANCH   8   9
ATOM      9  C   UNL     1     -11.067   2.580  52.744  1.00  0.00     0.041 C 
ATOM     10  O   UNL     1     -10.989   1.421  53.231  1.00  0.00    -0.550 OA
ATOM     11  O   UNL     1     -11.392   2.743  51.403  1.00  0.00    -0.550 OA
ENDBRANCH   8   9
ENDBRANCH   7   8
ENDBRANCH   6   7
ENDBRANCH   5   6
ENDBRANCH   4   5
ENDBRANCH   3   4
ENDBRANCH   2   3
ENDBRANCH   1   2
BRANCH   1  12
ATOM     12  C   UNL     1      -5.954   3.216  53.190  1.00  0.00     0.000 C 
BRANCH  12  13
ATOM     13  C   UNL     1      -5.921   3.908  54.566  1.00  0.00    -0.000 C 
BRANCH  13  14
ATOM     14  C   UNL     1      -7.307   4.383  55.030  1.00  0.00    -0.000 C 
BRANCH  14  15
ATOM     15  C   UNL     1      -7.349   5.913  55.155  1.00  0.00    -0.000 C 
BRANCH  15  16
ATOM     16  C   UNL     1      -8.189   6.396  56.353  1.00  0.00    -0.000 C 
BRANCH  16  17
ATOM     17  C   UNL     1      -8.454   5.335  57.437  1.00  0.00    -0.000 C 
BRANCH  17  18
ATOM     18  C   UNL     1      -7.585   5.529  58.691  1.00  0.00    -0.000 C 
BRANCH  18  19
ATOM     19  C   UNL     1      -6.214   4.844  58.567  1.00  0.00    -0.003 C 
ATOM     20  C   UNL     1      -5.059   5.843  58.500  1.00  0.00     0.004 C 
ENDBRANCH  18  19
ENDBRANCH  17  18
ENDBRANCH  16  17
ENDBRANCH  15  16
ENDBRANCH  14  15
ENDBRANCH  13  14
ENDBRANCH  12  13
ENDBRANCH   1  12
TORSDOF 16
ENDMDL
MODEL 8
REMARK VINA RESULT:    -3.612      9.612     12.017
REMARK INTER + INTRA:          -9.880
REMARK INTER:                  -6.689
REMARK INTRA:                  -3.191
REMARK UNBOUND:                -2.889
REMARK SMILES CCCCCCCCCCCCCCCCCC(=O)[O-]
REMARK SMILES IDX 10 1 11 2 12 3 13 4 14 5 15 6 16 7 17 8 18 9 19 10 20 11
REMARK SMILES IDX 9 12 8 13 7 14 6 15 5 16 4 17 3 18 2 19 1 20
REMARK H PARENT
REMARK Flexibility Score: inf
ROOT
ATOM      1  C   UNL     1       1.451   1.209  57.037  1.00  0.00     0.000 C 
ENDROOT
BRANCH   1   2
ATOM      2  C   UNL     1      -0.019   1.097  56.597  1.00  0.00     0.000 C 
BRANCH   2   3
ATOM      3  C   UNL     1      -0.442  -0.353  56.309  1.00  0.00     0.000 C 
BRANCH   3   4
ATOM      4  C   UNL     1      -1.336  -0.945  57.410  1.00  0.00     0.000 C 
BRANCH   4   5
ATOM      5  C   UNL     1      -0.706  -2.210  58.006  1.00  0.00     0.000 C 
BRANCH   5   6
ATOM      6  C   UNL     1      -0.428  -2.033  59.506  1.00  0.00     0.000 C 
BRANCH   6   7
ATOM      7  C   UNL     1      -0.878  -0.660  60.031  1.00  0.00     0.006 C 
BRANCH   7   8
ATOM      8  C   UNL     1       0.250   0.098  60.741  1.00  0.00     0.053 C 
BRANCH   8   9
ATOM      9  C   UNL     1       0.085   1.573  60.557  1.00  0.00     0.041 C 
ATOM     10  O   UNL     1       0.875   2.375  61.123  1.00  0.00    -0.550 OA
ATOM     11  O   UNL     1      -0.972   2.065  59.802  1.00  0.00    -0.550 OA
ENDBRANCH   8   9
ENDBRANCH   7   8
ENDBRANCH   6   7
ENDBRANCH   5   6
ENDBRANCH   4   5
ENDBRANCH   3   4
ENDBRANCH   2   3
ENDBRANCH   1   2
BRANCH   1  12
ATOM     12  C   UNL     1       2.221  -0.117  56.892  1.00  0.00     0.000 C 
BRANCH  12  13
ATOM     13  C   UNL     1       2.749  -0.713  58.210  1.00  0.00    -0.000 C 
BRANCH  13  14
ATOM     14  C   UNL     1       3.406  -2.089  58.024  1.00  0.00    -0.000 C 
BRANCH  14  15
ATOM     15  C   UNL     1       2.759  -2.852  56.858  1.00  0.00    -0.000 C 
BRANCH  15  16
ATOM     16  C   UNL     1       3.773  -3.273  55.777  1.00  0.00    -0.000 C 
BRANCH  16  17
ATOM     17  C   UNL     1       3.502  -2.707  54.371  1.00  0.00    -0.000 C 
BRANCH  17  18
ATOM     18  C   UNL     1       2.008  -2.697  54.007  1.00  0.00    -0.000 C 
BRANCH  18  19
ATOM     19  C   UNL     1       1.555  -1.349  53.423  1.00  0.00    -0.003 C 
ATOM     20  C   UNL     1       2.709  -0.359  53.256  1.00  0.00     0.004 C 
ENDBRANCH  18  19
ENDBRANCH  17  18
ENDBRANCH  16  17
ENDBRANCH  15  16
ENDBRANCH  14  15
ENDBRANCH  13  14
ENDBRANCH  12  13
ENDBRANCH   1  12
TORSDOF 16
ENDMDL
MODEL 9
REMARK VINA RESULT:    -3.612      1.344      3.508
REMARK INTER + INTRA:          -9.879
REMARK INTER:                  -6.927
REMARK INTRA:                  -2.951
REMARK UNBOUND:                -2.889
REMARK SMILES CCCCCCCCCCCCCCCCCC(=O)[O-]
REMARK SMILES IDX 10 1 11 2 12 3 13 4 14 5 15 6 16 7 17 8 18 9 19 10 20 11
REMARK SMILES IDX 9 12 8 13 7 14 6 15 5 16 4 17 3 18 2 19 1 20
REMARK H PARENT
REMARK Flexibility Score: inf
ROOT
ATOM      1  C   UNL     1     -10.353   3.972  54.330  1.00  0.00     0.000 C 
ENDROOT
BRANCH   1   2
ATOM      2  C   UNL     1      -9.531   4.607  55.465  1.00  0.00     0.000 C 
BRANCH   2   3
ATOM      3  C   UNL     1      -8.549   5.677  54.959  1.00  0.00     0.000 C 
BRANCH   3   4
ATOM      4  C   UNL     1      -7.497   6.066  56.008  1.00  0.00     0.000 C 
BRANCH   4   5
ATOM      5  C   UNL     1      -6.203   5.266  55.810  1.00  0.00     0.000 C 
BRANCH   5   6
ATOM      6  C   UNL     1      -6.122   4.095  56.800  1.00  0.00     0.000 C 
BRANCH   6   7
ATOM      7  C   UNL     1      -6.873   4.378  58.111  1.00  0.00     0.006 C 
BRANCH   7   8
ATOM      8  C   UNL     1      -6.226   3.691  59.320  1.00  0.00     0.053 C 
BRANCH   8   9
ATOM      9  C   UNL     1      -4.856   4.242  59.561  1.00  0.00     0.041 C 
ATOM     10  O   UNL     1      -4.663   5.486  59.555  1.00  0.00    -0.550 OA
ATOM     11  O   UNL     1      -3.782   3.379  59.741  1.00  0.00    -0.550 OA
ENDBRANCH   8   9
ENDBRANCH   7   8
ENDBRANCH   6   7
ENDBRANCH   5   6
ENDBRANCH   4   5
ENDBRANCH   3   4
ENDBRANCH   2   3
ENDBRANCH   1   2
BRANCH   1  12
ATOM     12  C   UNL     1     -10.045   2.476  54.133  1.00  0.00     0.000 C 
BRANCH  12  13
ATOM     13  C   UNL     1      -8.574   2.078  54.354  1.00  0.00    -0.000 C 
BRANCH  13  14
ATOM     14  C   UNL     1      -7.768   2.016  53.048  1.00  0.00    -0.000 C 
BRANCH  14  15
ATOM     15  C   UNL     1      -6.517   2.904  53.133  1.00  0.00    -0.000 C 
BRANCH  15  16
ATOM     16  C   UNL     1      -6.615   4.168  52.256  1.00  0.00    -0.000 C 
BRANCH  16  17
ATOM     17  C   UNL     1      -7.762   4.163  51.229  1.00  0.00    -0.000 C 
BRANCH  17  18
ATOM     18  C   UNL     1      -8.588   5.461  51.248  1.00  0.00    -0.000 C 
BRANCH  18  19
ATOM     19  C   UNL     1     -10.080   5.211  50.973  1.00  0.00    -0.003 C 
ATOM     20  C   UNL     1     -10.377   3.760  50.596  1.00  0.00     0.004 C 
ENDBRANCH  18  19
ENDBRANCH  17  18
ENDBRANCH  16  17
ENDBRANCH  15  16
ENDBRANCH  14  15
ENDBRANCH  13  14
ENDBRANCH  12  13
ENDBRANCH   1  12
TORSDOF 16
ENDMDL
