MODEL 1
REMARK VINA RESULT:    -6.643      0.000      0.000
REMARK INTER + INTRA:          -6.837
REMARK INTER:                  -6.837
REMARK INTRA:                   0.000
REMARK UNBOUND:                 0.000
REMARK SMILES O=c1ccc2ccc(O)cc2o1
REMARK SMILES IDX 6 1 7 2 8 3 10 4 11 5 5 6 4 7 3 8 2 9 1 10 12 11 9 12
REMARK H PARENT 9 13
REMARK Flexibility Score: inf
ROOT
ATOM      1  C   UNL     1      41.756  59.831  48.364  1.00  0.00     0.016 A 
ATOM      2  C   UNL     1      41.967  61.072  48.973  1.00  0.00     0.047 A 
ATOM      3  C   UNL     1      43.229  61.410  49.474  1.00  0.00     0.119 A 
ATOM      4  C   UNL     1      44.292  60.500  49.365  1.00  0.00     0.094 A 
ATOM      5  C   UNL     1      44.091  59.256  48.758  1.00  0.00     0.142 A 
ATOM      6  C   UNL     1      42.815  58.919  48.254  1.00  0.00     0.018 A 
ATOM      7  C   UNL     1      42.645  57.668  47.652  1.00  0.00     0.019 A 
ATOM      8  C   UNL     1      43.730  56.796  47.567  1.00  0.00     0.094 A 
ATOM      9  C   UNL     1      44.965  57.198  48.088  1.00  0.00     0.336 A 
ATOM     10  O   UNL     1      45.957  56.425  48.020  1.00  0.00    -0.246 OA
ATOM     11  O   UNL     1      45.100  58.395  48.656  1.00  0.00    -0.423 OA
ENDROOT
BRANCH   3  12
ATOM     12  O   UNL     1      43.418  62.652  50.076  1.00  0.00    -0.508 OA
ATOM     13  H   UNL     1      43.508  62.745  51.082  1.00  0.00     0.293 HD
ENDBRANCH   3  12
TORSDOF 1
ENDMDL
MODEL 2
REMARK VINA RESULT:    -6.612      2.279      3.806
REMARK INTER + INTRA:          -6.805
REMARK INTER:                  -6.805
REMARK INTRA:                   0.000
REMARK UNBOUND:                 0.000
REMARK SMILES O=c1ccc2ccc(O)cc2o1
REMARK SMILES IDX 6 1 7 2 8 3 10 4 11 5 5 6 4 7 3 8 2 9 1 10 12 11 9 12
REMARK H PARENT 9 13
REMARK Flexibility Score: inf
ROOT
ATOM      1  C   UNL     1      43.624  59.407  49.366  1.00  0.00     0.016 A 
ATOM      2  C   UNL     1      44.988  59.102  49.295  1.00  0.00     0.047 A 
ATOM      3  C   UNL     1      45.424  57.972  48.594  1.00  0.00     0.119 A 
ATOM      4  C   UNL     1      44.491  57.139  47.958  1.00  0.00     0.094 A 
ATOM      5  C   UNL     1      43.126  57.436  48.024  1.00  0.00     0.142 A 
ATOM      6  C   UNL     1      42.689  58.578  48.732  1.00  0.00     0.018 A 
ATOM      7  C   UNL     1      41.318  58.848  48.780  1.00  0.00     0.019 A 
ATOM      8  C   UNL     1      40.428  57.991  48.134  1.00  0.00     0.094 A 
ATOM      9  C   UNL     1      40.933  56.879  47.451  1.00  0.00     0.336 A 
ATOM     10  O   UNL     1      40.146  56.094  46.861  1.00  0.00    -0.246 OA
ATOM     11  O   UNL     1      42.243  56.644  47.421  1.00  0.00    -0.423 OA
ENDROOT
BRANCH   3  12
ATOM     12  O   UNL     1      46.786  57.686  48.535  1.00  0.00    -0.508 OA
ATOM     13  H   UNL     1      47.375  58.060  47.799  1.00  0.00     0.293 HD
ENDBRANCH   3  12
TORSDOF 1
ENDMDL
MODEL 3
REMARK VINA RESULT:    -6.603      2.385      3.550
REMARK INTER + INTRA:          -6.797
REMARK INTER:                  -6.797
REMARK INTRA:                   0.000
REMARK UNBOUND:                 0.000
REMARK SMILES O=c1ccc2ccc(O)cc2o1
REMARK SMILES IDX 6 1 7 2 8 3 10 4 11 5 5 6 4 7 3 8 2 9 1 10 12 11 9 12
REMARK H PARENT 9 13
REMARK Flexibility Score: inf
ROOT
ATOM      1  C   UNL     1      42.052  57.248  46.537  1.00  0.00     0.016 A 
ATOM      2  C   UNL     1      40.679  57.313  46.795  1.00  0.00     0.047 A 
ATOM      3  C   UNL     1      40.212  57.762  48.036  1.00  0.00     0.119 A 
ATOM      4  C   UNL     1      41.125  58.151  49.027  1.00  0.00     0.094 A 
ATOM      5  C   UNL     1      42.500  58.089  48.779  1.00  0.00     0.142 A 
ATOM      6  C   UNL     1      42.967  57.635  47.525  1.00  0.00     0.018 A 
ATOM      7  C   UNL     1      44.348  57.585  47.306  1.00  0.00     0.019 A 
ATOM      8  C   UNL     1      45.216  57.980  48.322  1.00  0.00     0.094 A 
ATOM      9  C   UNL     1      44.683  58.420  49.538  1.00  0.00     0.336 A 
ATOM     10  O   UNL     1      45.451  58.782  50.467  1.00  0.00    -0.246 OA
ATOM     11  O   UNL     1      43.364  58.459  49.722  1.00  0.00    -0.423 OA
ENDROOT
BRANCH   3  12
ATOM     12  O   UNL     1      38.841  57.820  48.273  1.00  0.00    -0.508 OA
ATOM     13  H   UNL     1      38.464  58.280  49.094  1.00  0.00     0.293 HD
ENDBRANCH   3  12
TORSDOF 1
ENDMDL
MODEL 4
REMARK VINA RESULT:    -6.577      2.272      2.956
REMARK INTER + INTRA:          -6.769
REMARK INTER:                  -6.769
REMARK INTRA:                   0.000
REMARK UNBOUND:                 0.000
REMARK SMILES O=c1ccc2ccc(O)cc2o1
REMARK SMILES IDX 6 1 7 2 8 3 10 4 11 5 5 6 4 7 3 8 2 9 1 10 12 11 9 12
REMARK H PARENT 9 13
REMARK Flexibility Score: inf
ROOT
ATOM      1  C   UNL     1      44.733  59.061  48.595  1.00  0.00     0.016 A 
ATOM      2  C   UNL     1      44.485  60.058  49.544  1.00  0.00     0.047 A 
ATOM      3  C   UNL     1      43.241  60.698  49.590  1.00  0.00     0.119 A 
ATOM      4  C   UNL     1      42.235  60.338  48.681  1.00  0.00     0.094 A 
ATOM      5  C   UNL     1      42.473  59.342  47.728  1.00  0.00     0.142 A 
ATOM      6  C   UNL     1      43.730  58.698  47.685  1.00  0.00     0.018 A 
ATOM      7  C   UNL     1      43.939  57.706  46.722  1.00  0.00     0.019 A 
ATOM      8  C   UNL     1      42.909  57.383  45.839  1.00  0.00     0.094 A 
ATOM      9  C   UNL     1      41.690  58.061  45.940  1.00  0.00     0.336 A 
ATOM     10  O   UNL     1      40.748  57.783  45.153  1.00  0.00    -0.246 OA
ATOM     11  O   UNL     1      41.517  59.002  46.867  1.00  0.00    -0.423 OA
ENDROOT
BRANCH   3  12
ATOM     12  O   UNL     1      43.014  61.688  50.543  1.00  0.00    -0.508 OA
ATOM     13  H   UNL     1      42.082  61.886  50.890  1.00  0.00     0.293 HD
ENDBRANCH   3  12
TORSDOF 1
ENDMDL
MODEL 5
REMARK VINA RESULT:    -6.542      2.168      4.292
REMARK INTER + INTRA:          -6.734
REMARK INTER:                  -6.734
REMARK INTRA:                   0.000
REMARK UNBOUND:                 0.000
REMARK SMILES O=c1ccc2ccc(O)cc2o1
REMARK SMILES IDX 6 1 7 2 8 3 10 4 11 5 5 6 4 7 3 8 2 9 1 10 12 11 9 12
REMARK H PARENT 9 13
REMARK Flexibility Score: inf
ROOT
ATOM      1  C   UNL     1      40.971  58.014  47.156  1.00  0.00     0.016 A 
ATOM      2  C   UNL     1      41.214  57.237  46.018  1.00  0.00     0.047 A 
ATOM      3  C   UNL     1      42.466  57.272  45.392  1.00  0.00     0.119 A 
ATOM      4  C   UNL     1      43.483  58.089  45.907  1.00  0.00     0.094 A 
ATOM      5  C   UNL     1      43.248  58.870  47.044  1.00  0.00     0.142 A 
ATOM      6  C   UNL     1      41.984  58.832  47.673  1.00  0.00     0.018 A 
ATOM      7  C   UNL     1      41.780  59.623  48.808  1.00  0.00     0.019 A 
ATOM      8  C   UNL     1      42.821  60.420  49.282  1.00  0.00     0.094 A 
ATOM      9  C   UNL     1      44.047  60.407  48.609  1.00  0.00     0.336 A 
ATOM     10  O   UNL     1      44.999  61.120  49.022  1.00  0.00    -0.246 OA
ATOM     11  O   UNL     1      44.215  59.645  47.530  1.00  0.00    -0.423 OA
ENDROOT
BRANCH   3  12
ATOM     12  O   UNL     1      42.689  56.490  44.261  1.00  0.00    -0.508 OA
ATOM     13  H   UNL     1      43.055  56.890  43.404  1.00  0.00     0.293 HD
ENDBRANCH   3  12
TORSDOF 1
ENDMDL
MODEL 6
REMARK VINA RESULT:    -6.508      1.357      4.113
REMARK INTER + INTRA:          -6.698
REMARK INTER:                  -6.698
REMARK INTRA:                   0.000
REMARK UNBOUND:                 0.000
REMARK SMILES O=c1ccc2ccc(O)cc2o1
REMARK SMILES IDX 6 1 7 2 8 3 10 4 11 5 5 6 4 7 3 8 2 9 1 10 12 11 9 12
REMARK H PARENT 9 13
REMARK Flexibility Score: inf
ROOT
ATOM      1  C   UNL     1      44.052  57.165  47.450  1.00  0.00     0.016 A 
ATOM      2  C   UNL     1      45.288  56.809  48.000  1.00  0.00     0.047 A 
ATOM      3  C   UNL     1      45.894  57.622  48.964  1.00  0.00     0.119 A 
ATOM      4  C   UNL     1      45.261  58.802  49.382  1.00  0.00     0.094 A 
ATOM      5  C   UNL     1      44.025  59.166  48.838  1.00  0.00     0.142 A 
ATOM      6  C   UNL     1      43.416  58.342  47.865  1.00  0.00     0.018 A 
ATOM      7  C   UNL     1      42.180  58.733  47.339  1.00  0.00     0.019 A 
ATOM      8  C   UNL     1      41.590  59.914  47.786  1.00  0.00     0.094 A 
ATOM      9  C   UNL     1      42.250  60.680  48.752  1.00  0.00     0.336 A 
ATOM     10  O   UNL     1      41.733  61.750  49.168  1.00  0.00    -0.246 OA
ATOM     11  O   UNL     1      43.426  60.286  49.237  1.00  0.00    -0.423 OA
ENDROOT
BRANCH   3  12
ATOM     12  O   UNL     1      47.125  57.250  49.500  1.00  0.00    -0.508 OA
ATOM     13  H   UNL     1      47.571  57.794  50.230  1.00  0.00     0.293 HD
ENDBRANCH   3  12
TORSDOF 1
ENDMDL
MODEL 7
REMARK VINA RESULT:    -6.471      3.213      4.113
REMARK INTER + INTRA:          -6.660
REMARK INTER:                  -6.660
REMARK INTRA:                   0.000
REMARK UNBOUND:                 0.000
REMARK SMILES O=c1ccc2ccc(O)cc2o1
REMARK SMILES IDX 6 1 7 2 8 3 10 4 11 5 5 6 4 7 3 8 2 9 1 10 12 11 9 12
REMARK H PARENT 9 13
REMARK Flexibility Score: inf
ROOT
ATOM      1  C   UNL     1      41.712  58.528  49.119  1.00  0.00     0.016 A 
ATOM      2  C   UNL     1      40.420  58.053  49.367  1.00  0.00     0.047 A 
ATOM      3  C   UNL     1      39.736  57.321  48.390  1.00  0.00     0.119 A 
ATOM      4  C   UNL     1      40.347  57.060  47.155  1.00  0.00     0.094 A 
ATOM      5  C   UNL     1      41.639  57.531  46.898  1.00  0.00     0.142 A 
ATOM      6  C   UNL     1      42.326  58.270  47.886  1.00  0.00     0.018 A 
ATOM      7  C   UNL     1      43.616  58.728  47.600  1.00  0.00     0.019 A 
ATOM      8  C   UNL     1      44.183  58.445  46.358  1.00  0.00     0.094 A 
ATOM      9  C   UNL     1      43.443  57.707  45.427  1.00  0.00     0.336 A 
ATOM     10  O   UNL     1      43.938  57.441  44.300  1.00  0.00    -0.246 OA
ATOM     11  O   UNL     1      42.217  57.283  45.724  1.00  0.00    -0.423 OA
ENDROOT
BRANCH   3  12
ATOM     12  O   UNL     1      38.450  56.856  48.657  1.00  0.00    -0.508 OA
ATOM     13  H   UNL     1      37.634  57.435  48.497  1.00  0.00     0.293 HD
ENDBRANCH   3  12
TORSDOF 1
ENDMDL
MODEL 8
REMARK VINA RESULT:    -6.421      3.216      5.015
REMARK INTER + INTRA:          -6.609
REMARK INTER:                  -6.609
REMARK INTRA:                   0.000
REMARK UNBOUND:                 0.000
REMARK SMILES O=c1ccc2ccc(O)cc2o1
REMARK SMILES IDX 6 1 7 2 8 3 10 4 11 5 5 6 4 7 3 8 2 9 1 10 12 11 9 12
REMARK H PARENT 9 13
REMARK Flexibility Score: inf
ROOT
ATOM      1  C   UNL     1      44.053  58.018  46.469  1.00  0.00     0.016 A 
ATOM      2  C   UNL     1      43.863  57.705  45.120  1.00  0.00     0.047 A 
ATOM      3  C   UNL     1      42.585  57.403  44.636  1.00  0.00     0.119 A 
ATOM      4  C   UNL     1      41.486  57.415  45.508  1.00  0.00     0.094 A 
ATOM      5  C   UNL     1      41.666  57.727  46.859  1.00  0.00     0.142 A 
ATOM      6  C   UNL     1      42.958  58.031  47.344  1.00  0.00     0.018 A 
ATOM      7  C   UNL     1      43.105  58.339  48.700  1.00  0.00     0.019 A 
ATOM      8  C   UNL     1      41.984  58.337  49.528  1.00  0.00     0.094 A 
ATOM      9  C   UNL     1      40.735  58.027  48.979  1.00  0.00     0.336 A 
ATOM     10  O   UNL     1      39.711  58.021  49.711  1.00  0.00    -0.246 OA
ATOM     11  O   UNL     1      40.621  57.737  47.685  1.00  0.00    -0.423 OA
ENDROOT
BRANCH   3  12
ATOM     12  O   UNL     1      42.417  57.094  43.288  1.00  0.00    -0.508 OA
ATOM     13  H   UNL     1      43.160  57.241  42.614  1.00  0.00     0.293 HD
ENDBRANCH   3  12
TORSDOF 1
ENDMDL
MODEL 9
REMARK VINA RESULT:    -6.229      2.094      3.827
REMARK INTER + INTRA:          -6.411
REMARK INTER:                  -6.411
REMARK INTRA:                   0.000
REMARK UNBOUND:                 0.000
REMARK SMILES O=c1ccc2ccc(O)cc2o1
REMARK SMILES IDX 6 1 7 2 8 3 10 4 11 5 5 6 4 7 3 8 2 9 1 10 12 11 9 12
REMARK H PARENT 9 13
REMARK Flexibility Score: inf
ROOT
ATOM      1  C   UNL     1      42.341  59.445  46.564  1.00  0.00     0.016 A 
ATOM      2  C   UNL     1      41.513  58.396  46.151  1.00  0.00     0.047 A 
ATOM      3  C   UNL     1      41.525  57.175  46.834  1.00  0.00     0.119 A 
ATOM      4  C   UNL     1      42.370  56.999  47.939  1.00  0.00     0.094 A 
ATOM      5  C   UNL     1      43.202  58.042  48.359  1.00  0.00     0.142 A 
ATOM      6  C   UNL     1      43.187  59.274  47.667  1.00  0.00     0.018 A 
ATOM      7  C   UNL     1      44.030  60.298  48.112  1.00  0.00     0.019 A 
ATOM      8  C   UNL     1      44.853  60.077  49.214  1.00  0.00     0.094 A 
ATOM      9  C   UNL     1      44.814  58.831  49.851  1.00  0.00     0.336 A 
ATOM     10  O   UNL     1      45.550  58.613  50.849  1.00  0.00    -0.246 OA
ATOM     11  O   UNL     1      44.003  57.873  49.409  1.00  0.00    -0.423 OA
ENDROOT
BRANCH   3  12
ATOM     12  O   UNL     1      40.692  56.143  46.407  1.00  0.00    -0.508 OA
ATOM     13  H   UNL     1      40.038  55.694  47.038  1.00  0.00     0.293 HD
ENDBRANCH   3  12
TORSDOF 1
ENDMDL
