MODEL 1
REMARK VINA RESULT:    -4.911      0.000      0.000
REMARK INTER + INTRA:         -12.114
REMARK INTER:                  -9.504
REMARK INTRA:                  -2.610
REMARK UNBOUND:                -2.610
REMARK SMILES CCCCCCCCCCCCCCCCCC(=O)[O-]
REMARK SMILES IDX 10 1 11 2 12 3 13 4 14 5 15 6 16 7 17 8 18 9 19 10 20 11
REMARK SMILES IDX 9 12 8 13 7 14 6 15 5 16 4 17 3 18 2 19 1 20
REMARK H PARENT
REMARK Flexibility Score: inf
ROOT
ATOM      1  C   UNL     1     120.407 178.176 127.923  1.00  0.00     0.000 C 
ENDROOT
BRANCH   1   2
ATOM      2  C   UNL     1     121.111 179.144 126.955  1.00  0.00     0.000 C 
BRANCH   2   3
ATOM      3  C   UNL     1     120.148 179.770 125.930  1.00  0.00     0.000 C 
BRANCH   3   4
ATOM      4  C   UNL     1     120.237 179.183 124.509  1.00  0.00     0.000 C 
BRANCH   4   5
ATOM      5  C   UNL     1     118.970 178.412 124.099  1.00  0.00     0.000 C 
BRANCH   5   6
ATOM      6  C   UNL     1     117.713 178.912 124.827  1.00  0.00     0.000 C 
BRANCH   6   7
ATOM      7  C   UNL     1     116.899 177.772 125.458  1.00  0.00     0.006 C 
BRANCH   7   8
ATOM      8  C   UNL     1     115.946 178.308 126.532  1.00  0.00     0.053 C 
BRANCH   8   9
ATOM      9  C   UNL     1     115.072 179.383 125.968  1.00  0.00     0.041 C 
ATOM     10  O   UNL     1     114.313 179.136 124.995  1.00  0.00    -0.550 OA
ATOM     11  O   UNL     1     115.130 180.670 126.487  1.00  0.00    -0.550 OA
ENDBRANCH   8   9
ENDBRANCH   7   8
ENDBRANCH   6   7
ENDBRANCH   5   6
ENDBRANCH   4   5
ENDBRANCH   3   4
ENDBRANCH   2   3
ENDBRANCH   1   2
BRANCH   1  12
ATOM     12  C   UNL     1     120.778 176.707 127.664  1.00  0.00     0.000 C 
BRANCH  12  13
ATOM     13  C   UNL     1     119.613 175.900 127.072  1.00  0.00    -0.000 C 
BRANCH  13  14
ATOM     14  C   UNL     1     119.993 175.309 125.709  1.00  0.00    -0.000 C 
BRANCH  14  15
ATOM     15  C   UNL     1     121.440 175.667 125.339  1.00  0.00    -0.000 C 
BRANCH  15  16
ATOM     16  C   UNL     1     121.639 175.864 123.825  1.00  0.00    -0.000 C 
BRANCH  16  17
ATOM     17  C   UNL     1     122.648 176.964 123.440  1.00  0.00    -0.000 C 
BRANCH  17  18
ATOM     18  C   UNL     1     123.869 177.091 124.373  1.00  0.00    -0.000 C 
BRANCH  18  19
ATOM     19  C   UNL     1     125.088 176.245 123.962  1.00  0.00    -0.003 C 
ATOM     20  C   UNL     1     125.712 176.702 122.645  1.00  0.00     0.004 C 
ENDBRANCH  18  19
ENDBRANCH  17  18
ENDBRANCH  16  17
ENDBRANCH  15  16
ENDBRANCH  14  15
ENDBRANCH  13  14
ENDBRANCH  12  13
ENDBRANCH   1  12
TORSDOF 16
ENDMDL
MODEL 2
REMARK VINA RESULT:    -4.868      3.455      6.319
REMARK INTER + INTRA:         -12.032
REMARK INTER:                  -9.081
REMARK INTRA:                  -2.951
REMARK UNBOUND:                -2.610
REMARK SMILES CCCCCCCCCCCCCCCCCC(=O)[O-]
REMARK SMILES IDX 10 1 11 2 12 3 13 4 14 5 15 6 16 7 17 8 18 9 19 10 20 11
REMARK SMILES IDX 9 12 8 13 7 14 6 15 5 16 4 17 3 18 2 19 1 20
REMARK H PARENT
REMARK Flexibility Score: inf
ROOT
ATOM      1  C   UNL     1     120.339 178.808 124.164  1.00  0.00     0.000 C 
ENDROOT
BRANCH   1   2
ATOM      2  C   UNL     1     121.687 178.086 123.991  1.00  0.00     0.000 C 
BRANCH   2   3
ATOM      3  C   UNL     1     121.538 176.560 123.863  1.00  0.00     0.000 C 
BRANCH   3   4
ATOM      4  C   UNL     1     122.032 175.752 125.077  1.00  0.00     0.000 C 
BRANCH   4   5
ATOM      5  C   UNL     1     121.246 174.447 125.289  1.00  0.00     0.000 C 
BRANCH   5   6
ATOM      6  C   UNL     1     121.303 173.953 126.743  1.00  0.00     0.000 C 
BRANCH   6   7
ATOM      7  C   UNL     1     120.063 173.138 127.142  1.00  0.00     0.006 C 
BRANCH   7   8
ATOM      8  C   UNL     1     119.059 173.067 125.987  1.00  0.00     0.053 C 
BRANCH   8   9
ATOM      9  C   UNL     1     118.826 171.647 125.581  1.00  0.00     0.041 C 
ATOM     10  O   UNL     1     118.032 170.923 126.237  1.00  0.00    -0.550 OA
ATOM     11  O   UNL     1     119.523 171.108 124.507  1.00  0.00    -0.550 OA
ENDBRANCH   8   9
ENDBRANCH   7   8
ENDBRANCH   6   7
ENDBRANCH   5   6
ENDBRANCH   4   5
ENDBRANCH   3   4
ENDBRANCH   2   3
ENDBRANCH   1   2
BRANCH   1  12
ATOM     12  C   UNL     1     120.330 179.765 125.365  1.00  0.00     0.000 C 
BRANCH  12  13
ATOM     13  C   UNL     1     121.233 179.282 126.511  1.00  0.00    -0.000 C 
BRANCH  13  14
ATOM     14  C   UNL     1     120.399 178.882 127.734  1.00  0.00    -0.000 C 
BRANCH  14  15
ATOM     15  C   UNL     1     120.427 177.361 127.944  1.00  0.00    -0.000 C 
BRANCH  15  16
ATOM     16  C   UNL     1     119.025 176.726 127.906  1.00  0.00    -0.000 C 
BRANCH  16  17
ATOM     17  C   UNL     1     118.349 176.725 126.521  1.00  0.00    -0.000 C 
BRANCH  17  18
ATOM     18  C   UNL     1     117.055 177.558 126.422  1.00  0.00    -0.000 C 
BRANCH  18  19
ATOM     19  C   UNL     1     116.784 178.171 125.036  1.00  0.00    -0.003 C 
ATOM     20  C   UNL     1     116.413 179.650 125.102  1.00  0.00     0.004 C 
ENDBRANCH  18  19
ENDBRANCH  17  18
ENDBRANCH  16  17
ENDBRANCH  15  16
ENDBRANCH  14  15
ENDBRANCH  13  14
ENDBRANCH  12  13
ENDBRANCH   1  12
TORSDOF 16
ENDMDL
MODEL 3
REMARK VINA RESULT:    -4.856      3.808      7.102
REMARK INTER + INTRA:         -12.009
REMARK INTER:                  -9.382
REMARK INTRA:                  -2.627
REMARK UNBOUND:                -2.610
REMARK SMILES CCCCCCCCCCCCCCCCCC(=O)[O-]
REMARK SMILES IDX 10 1 11 2 12 3 13 4 14 5 15 6 16 7 17 8 18 9 19 10 20 11
REMARK SMILES IDX 9 12 8 13 7 14 6 15 5 16 4 17 3 18 2 19 1 20
REMARK H PARENT
REMARK Flexibility Score: inf
ROOT
ATOM      1  C   UNL     1     119.417 176.035 127.252  1.00  0.00     0.000 C 
ENDROOT
BRANCH   1   2
ATOM      2  C   UNL     1     119.608 175.427 125.851  1.00  0.00     0.000 C 
BRANCH   2   3
ATOM      3  C   UNL     1     121.075 175.077 125.545  1.00  0.00     0.000 C 
BRANCH   3   4
ATOM      4  C   UNL     1     121.646 175.723 124.269  1.00  0.00     0.000 C 
BRANCH   4   5
ATOM      5  C   UNL     1     123.003 176.410 124.500  1.00  0.00     0.000 C 
BRANCH   5   6
ATOM      6  C   UNL     1     123.442 177.269 123.304  1.00  0.00     0.000 C 
BRANCH   6   7
ATOM      7  C   UNL     1     124.706 176.730 122.618  1.00  0.00     0.006 C 
BRANCH   7   8
ATOM      8  C   UNL     1     125.190 177.690 121.527  1.00  0.00     0.053 C 
BRANCH   8   9
ATOM      9  C   UNL     1     124.715 177.239 120.183  1.00  0.00     0.041 C 
ATOM     10  O   UNL     1     125.511 176.677 119.386  1.00  0.00    -0.550 OA
ATOM     11  O   UNL     1     123.404 177.481 119.791  1.00  0.00    -0.550 OA
ENDBRANCH   8   9
ENDBRANCH   7   8
ENDBRANCH   6   7
ENDBRANCH   5   6
ENDBRANCH   4   5
ENDBRANCH   3   4
ENDBRANCH   2   3
ENDBRANCH   1   2
BRANCH   1  12
ATOM     12  C   UNL     1     120.683 176.736 127.769  1.00  0.00     0.000 C 
BRANCH  12  13
ATOM     13  C   UNL     1     120.538 178.265 127.806  1.00  0.00    -0.000 C 
BRANCH  13  14
ATOM     14  C   UNL     1     121.427 178.926 126.746  1.00  0.00    -0.000 C 
BRANCH  14  15
ATOM     15  C   UNL     1     120.585 179.739 125.752  1.00  0.00    -0.000 C 
BRANCH  15  16
ATOM     16  C   UNL     1     120.454 179.055 124.379  1.00  0.00    -0.000 C 
BRANCH  16  17
ATOM     17  C   UNL     1     119.048 178.510 124.056  1.00  0.00    -0.000 C 
BRANCH  17  18
ATOM     18  C   UNL     1     117.943 178.915 125.051  1.00  0.00    -0.000 C 
BRANCH  18  19
ATOM     19  C   UNL     1     116.856 177.849 125.280  1.00  0.00    -0.003 C 
ATOM     20  C   UNL     1     115.919 178.194 126.436  1.00  0.00     0.004 C 
ENDBRANCH  18  19
ENDBRANCH  17  18
ENDBRANCH  16  17
ENDBRANCH  15  16
ENDBRANCH  14  15
ENDBRANCH  13  14
ENDBRANCH  12  13
ENDBRANCH   1  12
TORSDOF 16
ENDMDL
MODEL 4
REMARK VINA RESULT:    -4.813      4.187      7.351
REMARK INTER + INTRA:         -11.925
REMARK INTER:                  -9.019
REMARK INTRA:                  -2.906
REMARK UNBOUND:                -2.610
REMARK SMILES CCCCCCCCCCCCCCCCCC(=O)[O-]
REMARK SMILES IDX 10 1 11 2 12 3 13 4 14 5 15 6 16 7 17 8 18 9 19 10 20 11
REMARK SMILES IDX 9 12 8 13 7 14 6 15 5 16 4 17 3 18 2 19 1 20
REMARK H PARENT
REMARK Flexibility Score: inf
ROOT
ATOM      1  C   UNL     1     120.158 178.578 124.288  1.00  0.00     0.000 C 
ENDROOT
BRANCH   1   2
ATOM      2  C   UNL     1     121.494 178.037 123.749  1.00  0.00     0.000 C 
BRANCH   2   3
ATOM      3  C   UNL     1     121.705 176.545 124.060  1.00  0.00     0.000 C 
BRANCH   3   4
ATOM      4  C   UNL     1     123.072 176.195 124.679  1.00  0.00     0.000 C 
BRANCH   4   5
ATOM      5  C   UNL     1     124.035 177.393 124.722  1.00  0.00     0.000 C 
BRANCH   5   6
ATOM      6  C   UNL     1     125.331 177.139 123.937  1.00  0.00     0.000 C 
BRANCH   6   7
ATOM      7  C   UNL     1     125.071 176.588 122.526  1.00  0.00     0.006 C 
BRANCH   7   8
ATOM      8  C   UNL     1     124.550 177.688 121.596  1.00  0.00     0.053 C 
BRANCH   8   9
ATOM      9  C   UNL     1     125.480 177.882 120.440  1.00  0.00     0.041 C 
ATOM     10  O   UNL     1     126.709 177.644 120.570  1.00  0.00    -0.550 OA
ATOM     11  O   UNL     1     124.996 178.370 119.233  1.00  0.00    -0.550 OA
ENDBRANCH   8   9
ENDBRANCH   7   8
ENDBRANCH   6   7
ENDBRANCH   5   6
ENDBRANCH   4   5
ENDBRANCH   3   4
ENDBRANCH   2   3
ENDBRANCH   1   2
BRANCH   1  12
ATOM     12  C   UNL     1     120.339 179.808 125.191  1.00  0.00     0.000 C 
BRANCH  12  13
ATOM     13  C   UNL     1     120.437 179.438 126.679  1.00  0.00    -0.000 C 
BRANCH  13  14
ATOM     14  C   UNL     1     121.899 179.248 127.101  1.00  0.00    -0.000 C 
BRANCH  14  15
ATOM     15  C   UNL     1     122.091 177.906 127.824  1.00  0.00    -0.000 C 
BRANCH  15  16
ATOM     16  C   UNL     1     120.761 177.264 128.258  1.00  0.00    -0.000 C 
BRANCH  16  17
ATOM     17  C   UNL     1     120.404 175.952 127.531  1.00  0.00    -0.000 C 
BRANCH  17  18
ATOM     18  C   UNL     1     119.090 175.985 126.725  1.00  0.00    -0.000 C 
BRANCH  18  19
ATOM     19  C   UNL     1     117.990 176.884 127.319  1.00  0.00    -0.003 C 
ATOM     20  C   UNL     1     117.156 177.587 126.250  1.00  0.00     0.004 C 
ENDBRANCH  18  19
ENDBRANCH  17  18
ENDBRANCH  16  17
ENDBRANCH  15  16
ENDBRANCH  14  15
ENDBRANCH  13  14
ENDBRANCH  12  13
ENDBRANCH   1  12
TORSDOF 16
ENDMDL
MODEL 5
REMARK VINA RESULT:    -4.806      1.040      1.765
REMARK INTER + INTRA:         -11.910
REMARK INTER:                  -9.148
REMARK INTRA:                  -2.762
REMARK UNBOUND:                -2.610
REMARK SMILES CCCCCCCCCCCCCCCCCC(=O)[O-]
REMARK SMILES IDX 10 1 11 2 12 3 13 4 14 5 15 6 16 7 17 8 18 9 19 10 20 11
REMARK SMILES IDX 9 12 8 13 7 14 6 15 5 16 4 17 3 18 2 19 1 20
REMARK H PARENT
REMARK Flexibility Score: inf
ROOT
ATOM      1  C   UNL     1     119.500 176.662 128.027  1.00  0.00     0.000 C 
ENDROOT
BRANCH   1   2
ATOM      2  C   UNL     1     120.370 177.914 128.242  1.00  0.00     0.000 C 
BRANCH   2   3
ATOM      3  C   UNL     1     121.309 178.201 127.057  1.00  0.00     0.000 C 
BRANCH   3   4
ATOM      4  C   UNL     1     121.213 179.625 126.479  1.00  0.00     0.000 C 
BRANCH   4   5
ATOM      5  C   UNL     1     119.895 179.880 125.728  1.00  0.00     0.000 C 
BRANCH   5   6
ATOM      6  C   UNL     1     119.711 178.943 124.524  1.00  0.00     0.000 C 
BRANCH   6   7
ATOM      7  C   UNL     1     118.441 178.085 124.628  1.00  0.00     0.006 C 
BRANCH   7   8
ATOM      8  C   UNL     1     117.333 178.834 125.375  1.00  0.00     0.053 C 
BRANCH   8   9
ATOM      9  C   UNL     1     116.135 179.010 124.497  1.00  0.00     0.041 C 
ATOM     10  O   UNL     1     115.006 179.237 125.006  1.00  0.00    -0.550 OA
ATOM     11  O   UNL     1     116.256 178.875 123.120  1.00  0.00    -0.550 OA
ENDBRANCH   8   9
ENDBRANCH   7   8
ENDBRANCH   6   7
ENDBRANCH   5   6
ENDBRANCH   4   5
ENDBRANCH   3   4
ENDBRANCH   2   3
ENDBRANCH   1   2
BRANCH   1  12
ATOM     12  C   UNL     1     120.307 175.466 127.498  1.00  0.00     0.000 C 
BRANCH  12  13
ATOM     13  C   UNL     1     119.816 174.984 126.125  1.00  0.00    -0.000 C 
BRANCH  13  14
ATOM     14  C   UNL     1     120.934 174.258 125.367  1.00  0.00    -0.000 C 
BRANCH  14  15
ATOM     15  C   UNL     1     122.099 175.212 125.062  1.00  0.00    -0.000 C 
BRANCH  15  16
ATOM     16  C   UNL     1     121.809 176.151 123.877  1.00  0.00    -0.000 C 
BRANCH  16  17
ATOM     17  C   UNL     1     122.878 177.234 123.629  1.00  0.00    -0.000 C 
BRANCH  17  18
ATOM     18  C   UNL     1     123.939 177.374 124.738  1.00  0.00    -0.000 C 
BRANCH  18  19
ATOM     19  C   UNL     1     125.398 177.311 124.250  1.00  0.00    -0.003 C 
ATOM     20  C   UNL     1     125.684 176.083 123.389  1.00  0.00     0.004 C 
ENDBRANCH  18  19
ENDBRANCH  17  18
ENDBRANCH  16  17
ENDBRANCH  15  16
ENDBRANCH  14  15
ENDBRANCH  13  14
ENDBRANCH  12  13
ENDBRANCH   1  12
TORSDOF 16
ENDMDL
MODEL 6
REMARK VINA RESULT:    -4.805      2.195      4.368
REMARK INTER + INTRA:         -11.910
REMARK INTER:                  -8.627
REMARK INTRA:                  -3.282
REMARK UNBOUND:                -2.610
REMARK SMILES CCCCCCCCCCCCCCCCCC(=O)[O-]
REMARK SMILES IDX 10 1 11 2 12 3 13 4 14 5 15 6 16 7 17 8 18 9 19 10 20 11
REMARK SMILES IDX 9 12 8 13 7 14 6 15 5 16 4 17 3 18 2 19 1 20
REMARK H PARENT
REMARK Flexibility Score: inf
ROOT
ATOM      1  C   UNL     1     123.485 179.051 126.909  1.00  0.00     0.000 C 
ENDROOT
BRANCH   1   2
ATOM      2  C   UNL     1     122.573 178.852 128.133  1.00  0.00     0.000 C 
BRANCH   2   3
ATOM      3  C   UNL     1     122.509 177.387 128.600  1.00  0.00     0.000 C 
BRANCH   3   4
ATOM      4  C   UNL     1     121.104 176.757 128.580  1.00  0.00     0.000 C 
BRANCH   4   5
ATOM      5  C   UNL     1     120.072 177.618 127.831  1.00  0.00     0.000 C 
BRANCH   5   6
ATOM      6  C   UNL     1     118.684 176.961 127.776  1.00  0.00     0.000 C 
BRANCH   6   7
ATOM      7  C   UNL     1     117.987 177.159 126.422  1.00  0.00     0.006 C 
BRANCH   7   8
ATOM      8  C   UNL     1     118.452 178.455 125.750  1.00  0.00     0.053 C 
BRANCH   8   9
ATOM      9  C   UNL     1     118.131 178.433 124.289  1.00  0.00     0.041 C 
ATOM     10  O   UNL     1     119.058 178.454 123.438  1.00  0.00    -0.550 OA
ATOM     11  O   UNL     1     116.808 178.437 123.868  1.00  0.00    -0.550 OA
ENDBRANCH   8   9
ENDBRANCH   7   8
ENDBRANCH   6   7
ENDBRANCH   5   6
ENDBRANCH   4   5
ENDBRANCH   3   4
ENDBRANCH   2   3
ENDBRANCH   1   2
BRANCH   1  12
ATOM     12  C   UNL     1     123.432 177.864 125.934  1.00  0.00     0.000 C 
BRANCH  12  13
ATOM     13  C   UNL     1     122.249 177.954 124.958  1.00  0.00    -0.000 C 
BRANCH  13  14
ATOM     14  C   UNL     1     121.718 176.559 124.610  1.00  0.00    -0.000 C 
BRANCH  14  15
ATOM     15  C   UNL     1     122.610 175.465 125.215  1.00  0.00    -0.000 C 
BRANCH  15  16
ATOM     16  C   UNL     1     121.803 174.338 125.887  1.00  0.00    -0.000 C 
BRANCH  16  17
ATOM     17  C   UNL     1     120.286 174.376 125.618  1.00  0.00    -0.000 C 
BRANCH  17  18
ATOM     18  C   UNL     1     119.431 173.506 126.561  1.00  0.00    -0.000 C 
BRANCH  18  19
ATOM     19  C   UNL     1     120.186 172.934 127.775  1.00  0.00    -0.003 C 
ATOM     20  C   UNL     1     119.671 173.478 129.106  1.00  0.00     0.004 C 
ENDBRANCH  18  19
ENDBRANCH  17  18
ENDBRANCH  16  17
ENDBRANCH  15  16
ENDBRANCH  14  15
ENDBRANCH  13  14
ENDBRANCH  12  13
ENDBRANCH   1  12
TORSDOF 16
ENDMDL
MODEL 7
REMARK VINA RESULT:    -4.803      1.901      3.689
REMARK INTER + INTRA:         -11.905
REMARK INTER:                  -9.348
REMARK INTRA:                  -2.557
REMARK UNBOUND:                -2.610
REMARK SMILES CCCCCCCCCCCCCCCCCC(=O)[O-]
REMARK SMILES IDX 10 1 11 2 12 3 13 4 14 5 15 6 16 7 17 8 18 9 19 10 20 11
REMARK SMILES IDX 9 12 8 13 7 14 6 15 5 16 4 17 3 18 2 19 1 20
REMARK H PARENT
REMARK Flexibility Score: inf
ROOT
ATOM      1  C   UNL     1     123.074 179.256 127.296  1.00  0.00     0.000 C 
ENDROOT
BRANCH   1   2
ATOM      2  C   UNL     1     123.742 178.321 126.272  1.00  0.00     0.000 C 
BRANCH   2   3
ATOM      3  C   UNL     1     122.749 177.344 125.617  1.00  0.00     0.000 C 
BRANCH   3   4
ATOM      4  C   UNL     1     122.078 177.861 124.331  1.00  0.00     0.000 C 
BRANCH   4   5
ATOM      5  C   UNL     1     120.770 178.625 124.604  1.00  0.00     0.000 C 
BRANCH   5   6
ATOM      6  C   UNL     1     119.546 177.698 124.659  1.00  0.00     0.000 C 
BRANCH   6   7
ATOM      7  C   UNL     1     118.623 178.005 125.849  1.00  0.00     0.006 C 
BRANCH   7   8
ATOM      8  C   UNL     1     117.160 177.722 125.494  1.00  0.00     0.053 C 
BRANCH   8   9
ATOM      9  C   UNL     1     116.643 178.752 124.540  1.00  0.00     0.041 C 
ATOM     10  O   UNL     1     116.146 179.824 124.974  1.00  0.00    -0.550 OA
ATOM     11  O   UNL     1     116.667 178.506 123.173  1.00  0.00    -0.550 OA
ENDBRANCH   8   9
ENDBRANCH   7   8
ENDBRANCH   6   7
ENDBRANCH   5   6
ENDBRANCH   4   5
ENDBRANCH   3   4
ENDBRANCH   2   3
ENDBRANCH   1   2
BRANCH   1  12
ATOM     12  C   UNL     1     122.594 178.511 128.551  1.00  0.00     0.000 C 
BRANCH  12  13
ATOM     13  C   UNL     1     121.062 178.483 128.671  1.00  0.00    -0.000 C 
BRANCH  13  14
ATOM     14  C   UNL     1     120.552 177.048 128.843  1.00  0.00    -0.000 C 
BRANCH  14  15
ATOM     15  C   UNL     1     121.722 176.057 128.943  1.00  0.00    -0.000 C 
BRANCH  15  16
ATOM     16  C   UNL     1     121.503 174.786 128.103  1.00  0.00    -0.000 C 
BRANCH  16  17
ATOM     17  C   UNL     1     120.430 174.910 127.002  1.00  0.00    -0.000 C 
BRANCH  17  18
ATOM     18  C   UNL     1     120.790 174.246 125.658  1.00  0.00    -0.000 C 
BRANCH  18  19
ATOM     19  C   UNL     1     120.301 172.795 125.503  1.00  0.00    -0.003 C 
ATOM     20  C   UNL     1     121.373 171.765 125.854  1.00  0.00     0.004 C 
ENDBRANCH  18  19
ENDBRANCH  17  18
ENDBRANCH  16  17
ENDBRANCH  15  16
ENDBRANCH  14  15
ENDBRANCH  13  14
ENDBRANCH  12  13
ENDBRANCH   1  12
TORSDOF 16
ENDMDL
MODEL 8
REMARK VINA RESULT:    -4.769      1.636      3.917
REMARK INTER + INTRA:         -11.840
REMARK INTER:                  -9.425
REMARK INTRA:                  -2.415
REMARK UNBOUND:                -2.610
REMARK SMILES CCCCCCCCCCCCCCCCCC(=O)[O-]
REMARK SMILES IDX 10 1 11 2 12 3 13 4 14 5 15 6 16 7 17 8 18 9 19 10 20 11
REMARK SMILES IDX 9 12 8 13 7 14 6 15 5 16 4 17 3 18 2 19 1 20
REMARK H PARENT
REMARK Flexibility Score: inf
ROOT
ATOM      1  C   UNL     1     121.663 175.659 125.281  1.00  0.00     0.000 C 
ENDROOT
BRANCH   1   2
ATOM      2  C   UNL     1     120.303 175.441 125.969  1.00  0.00     0.000 C 
BRANCH   2   3
ATOM      3  C   UNL     1     120.120 176.315 127.223  1.00  0.00     0.000 C 
BRANCH   3   4
ATOM      4  C   UNL     1     121.307 177.239 127.553  1.00  0.00     0.000 C 
BRANCH   4   5
ATOM      5  C   UNL     1     120.919 178.727 127.583  1.00  0.00     0.000 C 
BRANCH   5   6
ATOM      6  C   UNL     1     121.053 179.400 126.208  1.00  0.00     0.000 C 
BRANCH   6   7
ATOM      7  C   UNL     1     119.698 179.811 125.613  1.00  0.00     0.006 C 
BRANCH   7   8
ATOM      8  C   UNL     1     119.283 178.860 124.485  1.00  0.00     0.053 C 
BRANCH   8   9
ATOM      9  C   UNL     1     117.850 178.462 124.634  1.00  0.00     0.041 C 
ATOM     10  O   UNL     1     117.422 178.040 125.741  1.00  0.00    -0.550 OA
ATOM     11  O   UNL     1     116.997 178.512 123.539  1.00  0.00    -0.550 OA
ENDBRANCH   8   9
ENDBRANCH   7   8
ENDBRANCH   6   7
ENDBRANCH   5   6
ENDBRANCH   4   5
ENDBRANCH   3   4
ENDBRANCH   2   3
ENDBRANCH   1   2
BRANCH   1  12
ATOM     12  C   UNL     1     121.522 176.226 123.860  1.00  0.00     0.000 C 
BRANCH  12  13
ATOM     13  C   UNL     1     122.648 177.207 123.501  1.00  0.00    -0.000 C 
BRANCH  13  14
ATOM     14  C   UNL     1     123.644 177.345 124.659  1.00  0.00    -0.000 C 
BRANCH  14  15
ATOM     15  C   UNL     1     125.025 176.799 124.263  1.00  0.00    -0.000 C 
BRANCH  15  16
ATOM     16  C   UNL     1     125.509 177.327 122.901  1.00  0.00    -0.000 C 
BRANCH  16  17
ATOM     17  C   UNL     1     126.052 176.250 121.941  1.00  0.00    -0.000 C 
BRANCH  17  18
ATOM     18  C   UNL     1     125.517 176.329 120.497  1.00  0.00    -0.000 C 
BRANCH  18  19
ATOM     19  C   UNL     1     124.484 177.443 120.250  1.00  0.00    -0.003 C 
ATOM     20  C   UNL     1     125.058 178.625 119.472  1.00  0.00     0.004 C 
ENDBRANCH  18  19
ENDBRANCH  17  18
ENDBRANCH  16  17
ENDBRANCH  15  16
ENDBRANCH  14  15
ENDBRANCH  13  14
ENDBRANCH  12  13
ENDBRANCH   1  12
TORSDOF 16
ENDMDL
MODEL 9
REMARK VINA RESULT:    -4.767      4.142      7.185
REMARK INTER + INTRA:         -11.835
REMARK INTER:                  -8.981
REMARK INTRA:                  -2.854
REMARK UNBOUND:                -2.610
REMARK SMILES CCCCCCCCCCCCCCCCCC(=O)[O-]
REMARK SMILES IDX 10 1 11 2 12 3 13 4 14 5 15 6 16 7 17 8 18 9 19 10 20 11
REMARK SMILES IDX 9 12 8 13 7 14 6 15 5 16 4 17 3 18 2 19 1 20
REMARK H PARENT
REMARK Flexibility Score: inf
ROOT
ATOM      1  C   UNL     1     121.485 175.704 127.661  1.00  0.00     0.000 C 
ENDROOT
BRANCH   1   2
ATOM      2  C   UNL     1     120.271 175.151 126.893  1.00  0.00     0.000 C 
BRANCH   2   3
ATOM      3  C   UNL     1     120.639 174.615 125.498  1.00  0.00     0.000 C 
BRANCH   3   4
ATOM      4  C   UNL     1     121.900 175.239 124.872  1.00  0.00     0.000 C 
BRANCH   4   5
ATOM      5  C   UNL     1     121.582 176.404 123.919  1.00  0.00     0.000 C 
BRANCH   5   6
ATOM      6  C   UNL     1     122.820 177.254 123.593  1.00  0.00     0.000 C 
BRANCH   6   7
ATOM      7  C   UNL     1     124.129 176.603 124.066  1.00  0.00     0.006 C 
BRANCH   7   8
ATOM      8  C   UNL     1     125.093 177.654 124.625  1.00  0.00     0.053 C 
BRANCH   8   9
ATOM      9  C   UNL     1     126.469 177.449 124.076  1.00  0.00     0.041 C 
ATOM     10  O   UNL     1     127.054 176.345 124.230  1.00  0.00    -0.550 OA
ATOM     11  O   UNL     1     127.124 178.492 123.434  1.00  0.00    -0.550 OA
ENDBRANCH   8   9
ENDBRANCH   7   8
ENDBRANCH   6   7
ENDBRANCH   5   6
ENDBRANCH   4   5
ENDBRANCH   3   4
ENDBRANCH   2   3
ENDBRANCH   1   2
BRANCH   1  12
ATOM     12  C   UNL     1     121.353 177.203 127.973  1.00  0.00     0.000 C 
BRANCH  12  13
ATOM     13  C   UNL     1     122.474 178.039 127.337  1.00  0.00    -0.000 C 
BRANCH  13  14
ATOM     14  C   UNL     1     121.901 179.255 126.601  1.00  0.00    -0.000 C 
BRANCH  14  15
ATOM     15  C   UNL     1     120.365 179.229 126.610  1.00  0.00    -0.000 C 
BRANCH  15  16
ATOM     16  C   UNL     1     119.754 179.469 125.218  1.00  0.00    -0.000 C 
BRANCH  16  17
ATOM     17  C   UNL     1     118.767 178.383 124.745  1.00  0.00    -0.000 C 
BRANCH  17  18
ATOM     18  C   UNL     1     117.993 177.666 125.869  1.00  0.00    -0.000 C 
BRANCH  18  19
ATOM     19  C   UNL     1     116.460 177.752 125.756  1.00  0.00    -0.003 C 
ATOM     20  C   UNL     1     115.961 179.173 125.507  1.00  0.00     0.004 C 
ENDBRANCH  18  19
ENDBRANCH  17  18
ENDBRANCH  16  17
ENDBRANCH  15  16
ENDBRANCH  14  15
ENDBRANCH  13  14
ENDBRANCH  12  13
ENDBRANCH   1  12
TORSDOF 16
ENDMDL
