MODEL 1
REMARK VINA RESULT:    -3.882      0.000      0.000
REMARK INTER + INTRA:         -12.270
REMARK INTER:                  -8.874
REMARK INTRA:                  -3.397
REMARK UNBOUND:                -3.397
REMARK SMILES CCCCCCCCCCCCCCCCCCCCCCCC(=O)[O-]
REMARK SMILES IDX 13 1 14 2 15 3 16 4 17 5 18 6 19 7 20 8 21 9 22 10 23 11
REMARK SMILES IDX 24 12 25 13 26 14 12 15 11 16 10 17 9 18 8 19 7 20 6 21 5 22
REMARK SMILES IDX 4 23 3 24 2 25 1 26
REMARK H PARENT
REMARK Flexibility Score: inf
ROOT
ATOM      1  C   UNL     1      97.667 -67.603   3.904  1.00  0.00     0.000 C 
ENDROOT
BRANCH   1   2
ATOM      2  C   UNL     1      98.008 -66.226   3.307  1.00  0.00     0.000 C 
BRANCH   2   3
ATOM      3  C   UNL     1      98.941 -65.352   4.170  1.00  0.00     0.000 C 
BRANCH   3   4
ATOM      4  C   UNL     1     100.402 -65.281   3.689  1.00  0.00     0.000 C 
BRANCH   4   5
ATOM      5  C   UNL     1     100.560 -65.635   2.202  1.00  0.00     0.000 C 
BRANCH   5   6
ATOM      6  C   UNL     1     101.536 -66.803   2.019  1.00  0.00     0.000 C 
BRANCH   6   7
ATOM      7  C   UNL     1     101.304 -67.508   0.676  1.00  0.00     0.000 C 
BRANCH   7   8
ATOM      8  C   UNL     1      99.839 -67.385   0.234  1.00  0.00     0.000 C 
BRANCH   8   9
ATOM      9  C   UNL     1      99.166 -68.762   0.045  1.00  0.00     0.000 C 
BRANCH   9  10
ATOM     10  C   UNL     1      98.472 -68.926  -1.319  1.00  0.00     0.006 C 
BRANCH  10  11
ATOM     11  C   UNL     1      98.863 -67.859  -2.351  1.00  0.00     0.053 C 
BRANCH  11  12
ATOM     12  C   UNL     1      97.737 -66.913  -2.636  1.00  0.00     0.041 C 
ATOM     13  O   UNL     1      97.583 -65.879  -1.933  1.00  0.00    -0.550 OA
ATOM     14  O   UNL     1      96.853 -67.172  -3.677  1.00  0.00    -0.550 OA
ENDBRANCH  11  12
ENDBRANCH  10  11
ENDBRANCH   9  10
ENDBRANCH   8   9
ENDBRANCH   7   8
ENDBRANCH   6   7
ENDBRANCH   5   6
ENDBRANCH   4   5
ENDBRANCH   3   4
ENDBRANCH   2   3
ENDBRANCH   1   2
BRANCH   1  15
ATOM     15  C   UNL     1      98.773 -68.644   3.675  1.00  0.00     0.000 C 
BRANCH  15  16
ATOM     16  C   UNL     1      99.479 -68.987   4.995  1.00  0.00     0.000 C 
BRANCH  16  17
ATOM     17  C   UNL     1     100.991 -69.201   4.822  1.00  0.00     0.000 C 
BRANCH  17  18
ATOM     18  C   UNL     1     101.826 -68.101   5.495  1.00  0.00    -0.000 C 
BRANCH  18  19
ATOM     19  C   UNL     1     101.375 -67.874   6.943  1.00  0.00    -0.000 C 
BRANCH  19  20
ATOM     20  C   UNL     1     101.018 -66.400   7.181  1.00  0.00    -0.000 C 
BRANCH  20  21
ATOM     21  C   UNL     1     102.094 -65.656   7.990  1.00  0.00    -0.000 C 
BRANCH  21  22
ATOM     22  C   UNL     1     101.665 -65.398   9.444  1.00  0.00    -0.000 C 
BRANCH  22  23
ATOM     23  C   UNL     1     100.259 -65.939   9.756  1.00  0.00    -0.000 C 
BRANCH  23  24
ATOM     24  C   UNL     1     100.036 -66.366  11.222  1.00  0.00    -0.000 C 
BRANCH  24  25
ATOM     25  C   UNL     1     100.442 -67.815  11.543  1.00  0.00    -0.003 C 
ATOM     26  C   UNL     1     100.425 -68.725  10.316  1.00  0.00     0.004 C 
ENDBRANCH  24  25
ENDBRANCH  23  24
ENDBRANCH  22  23
ENDBRANCH  21  22
ENDBRANCH  20  21
ENDBRANCH  19  20
ENDBRANCH  18  19
ENDBRANCH  17  18
ENDBRANCH  16  17
ENDBRANCH  15  16
ENDBRANCH   1  15
TORSDOF 22
ENDMDL
MODEL 2
REMARK VINA RESULT:    -3.697      1.657      2.754
REMARK INTER + INTRA:         -11.849
REMARK INTER:                  -8.492
REMARK INTRA:                  -3.357
REMARK UNBOUND:                -3.397
REMARK SMILES CCCCCCCCCCCCCCCCCCCCCCCC(=O)[O-]
REMARK SMILES IDX 13 1 14 2 15 3 16 4 17 5 18 6 19 7 20 8 21 9 22 10 23 11
REMARK SMILES IDX 24 12 25 13 26 14 12 15 11 16 10 17 9 18 8 19 7 20 6 21 5 22
REMARK SMILES IDX 4 23 3 24 2 25 1 26
REMARK H PARENT
REMARK Flexibility Score: inf
ROOT
ATOM      1  C   UNL     1      99.249 -65.400   4.415  1.00  0.00     0.000 C 
ENDROOT
BRANCH   1   2
ATOM      2  C   UNL     1     100.696 -65.125   3.971  1.00  0.00     0.000 C 
BRANCH   2   3
ATOM      3  C   UNL     1     101.247 -66.091   2.902  1.00  0.00     0.000 C 
BRANCH   3   4
ATOM      4  C   UNL     1     101.536 -65.454   1.530  1.00  0.00     0.000 C 
BRANCH   4   5
ATOM      5  C   UNL     1     100.998 -66.288   0.358  1.00  0.00     0.000 C 
BRANCH   5   6
ATOM      6  C   UNL     1     100.817 -67.754   0.766  1.00  0.00     0.000 C 
BRANCH   6   7
ATOM      7  C   UNL     1      99.489 -68.312   0.241  1.00  0.00     0.000 C 
BRANCH   7   8
ATOM      8  C   UNL     1      98.792 -67.302  -0.681  1.00  0.00     0.000 C 
BRANCH   8   9
ATOM      9  C   UNL     1      98.208 -67.968  -1.946  1.00  0.00     0.000 C 
BRANCH   9  10
ATOM     10  C   UNL     1      98.655 -67.296  -3.258  1.00  0.00     0.006 C 
BRANCH  10  11
ATOM     11  C   UNL     1     100.093 -66.760  -3.227  1.00  0.00     0.053 C 
BRANCH  11  12
ATOM     12  C   UNL     1     101.099 -67.829  -3.529  1.00  0.00     0.041 C 
ATOM     13  O   UNL     1     101.162 -68.334  -4.681  1.00  0.00    -0.550 OA
ATOM     14  O   UNL     1     101.966 -68.272  -2.538  1.00  0.00    -0.550 OA
ENDBRANCH  11  12
ENDBRANCH  10  11
ENDBRANCH   9  10
ENDBRANCH   8   9
ENDBRANCH   7   8
ENDBRANCH   6   7
ENDBRANCH   5   6
ENDBRANCH   4   5
ENDBRANCH   3   4
ENDBRANCH   2   3
ENDBRANCH   1   2
BRANCH   1  15
ATOM     15  C   UNL     1      98.427 -66.142   3.350  1.00  0.00     0.000 C 
BRANCH  15  16
ATOM     16  C   UNL     1      97.861 -67.453   3.917  1.00  0.00     0.000 C 
BRANCH  16  17
ATOM     17  C   UNL     1      98.839 -68.631   3.780  1.00  0.00     0.000 C 
BRANCH  17  18
ATOM     18  C   UNL     1      99.487 -69.020   5.117  1.00  0.00    -0.000 C 
BRANCH  18  19
ATOM     19  C   UNL     1     101.010 -69.146   4.976  1.00  0.00    -0.000 C 
BRANCH  19  20
ATOM     20  C   UNL     1     101.717 -68.722   6.271  1.00  0.00    -0.000 C 
BRANCH  20  21
ATOM     21  C   UNL     1     101.040 -67.516   6.944  1.00  0.00    -0.000 C 
BRANCH  21  22
ATOM     22  C   UNL     1     101.320 -67.451   8.456  1.00  0.00    -0.000 C 
BRANCH  22  23
ATOM     23  C   UNL     1     100.903 -68.734   9.196  1.00  0.00    -0.000 C 
BRANCH  23  24
ATOM     24  C   UNL     1     100.287 -68.508  10.592  1.00  0.00    -0.000 C 
BRANCH  24  25
ATOM     25  C   UNL     1     100.767 -67.238  11.315  1.00  0.00    -0.003 C 
ATOM     26  C   UNL     1      99.768 -66.085  11.220  1.00  0.00     0.004 C 
ENDBRANCH  24  25
ENDBRANCH  23  24
ENDBRANCH  22  23
ENDBRANCH  21  22
ENDBRANCH  20  21
ENDBRANCH  19  20
ENDBRANCH  18  19
ENDBRANCH  17  18
ENDBRANCH  16  17
ENDBRANCH  15  16
ENDBRANCH   1  15
TORSDOF 22
ENDMDL
MODEL 3
REMARK VINA RESULT:    -3.559      1.159      1.975
REMARK INTER + INTRA:         -11.533
REMARK INTER:                  -9.042
REMARK INTRA:                  -2.491
REMARK UNBOUND:                -3.397
REMARK SMILES CCCCCCCCCCCCCCCCCCCCCCCC(=O)[O-]
REMARK SMILES IDX 13 1 14 2 15 3 16 4 17 5 18 6 19 7 20 8 21 9 22 10 23 11
REMARK SMILES IDX 24 12 25 13 26 14 12 15 11 16 10 17 9 18 8 19 7 20 6 21 5 22
REMARK SMILES IDX 4 23 3 24 2 25 1 26
REMARK H PARENT
REMARK Flexibility Score: inf
ROOT
ATOM      1  C   UNL     1      97.257 -67.486   3.669  1.00  0.00     0.000 C 
ENDROOT
BRANCH   1   2
ATOM      2  C   UNL     1      97.580 -66.045   4.101  1.00  0.00     0.000 C 
BRANCH   2   3
ATOM      3  C   UNL     1      97.260 -64.960   3.052  1.00  0.00     0.000 C 
BRANCH   3   4
ATOM      4  C   UNL     1      97.966 -65.133   1.695  1.00  0.00     0.000 C 
BRANCH   4   5
ATOM      5  C   UNL     1      99.496 -65.190   1.820  1.00  0.00     0.000 C 
BRANCH   5   6
ATOM      6  C   UNL     1     100.126 -65.777   0.551  1.00  0.00     0.000 C 
BRANCH   6   7
ATOM      7  C   UNL     1     100.621 -67.208   0.794  1.00  0.00     0.000 C 
BRANCH   7   8
ATOM      8  C   UNL     1     100.873 -67.937  -0.534  1.00  0.00     0.000 C 
BRANCH   8   9
ATOM      9  C   UNL     1     100.903 -66.969  -1.737  1.00  0.00     0.000 C 
BRANCH   9  10
ATOM     10  C   UNL     1     100.228 -67.535  -2.999  1.00  0.00     0.006 C 
BRANCH  10  11
ATOM     11  C   UNL     1      98.870 -68.201  -2.737  1.00  0.00     0.053 C 
BRANCH  11  12
ATOM     12  C   UNL     1      97.755 -67.202  -2.677  1.00  0.00     0.041 C 
ATOM     13  O   UNL     1      97.574 -66.516  -1.637  1.00  0.00    -0.550 OA
ATOM     14  O   UNL     1      96.913 -67.030  -3.769  1.00  0.00    -0.550 OA
ENDBRANCH  11  12
ENDBRANCH  10  11
ENDBRANCH   9  10
ENDBRANCH   8   9
ENDBRANCH   7   8
ENDBRANCH   6   7
ENDBRANCH   5   6
ENDBRANCH   4   5
ENDBRANCH   3   4
ENDBRANCH   2   3
ENDBRANCH   1   2
BRANCH   1  15
ATOM     15  C   UNL     1      98.513 -68.318   3.372  1.00  0.00     0.000 C 
BRANCH  15  16
ATOM     16  C   UNL     1      99.141 -68.838   4.674  1.00  0.00     0.000 C 
BRANCH  16  17
ATOM     17  C   UNL     1     100.586 -68.354   4.873  1.00  0.00     0.000 C 
BRANCH  17  18
ATOM     18  C   UNL     1     100.661 -66.991   5.578  1.00  0.00    -0.000 C 
BRANCH  18  19
ATOM     19  C   UNL     1     101.135 -67.145   7.028  1.00  0.00    -0.000 C 
BRANCH  19  20
ATOM     20  C   UNL     1     102.125 -68.311   7.161  1.00  0.00    -0.000 C 
BRANCH  20  21
ATOM     21  C   UNL     1     102.064 -68.981   8.544  1.00  0.00    -0.000 C 
BRANCH  21  22
ATOM     22  C   UNL     1     100.749 -68.684   9.285  1.00  0.00    -0.000 C 
BRANCH  22  23
ATOM     23  C   UNL     1     100.912 -68.696  10.815  1.00  0.00    -0.000 C 
BRANCH  23  24
ATOM     24  C   UNL     1     100.895 -67.305  11.482  1.00  0.00    -0.000 C 
BRANCH  24  25
ATOM     25  C   UNL     1      99.769 -66.370  11.005  1.00  0.00    -0.003 C 
ATOM     26  C   UNL     1     100.286 -65.170  10.213  1.00  0.00     0.004 C 
ENDBRANCH  24  25
ENDBRANCH  23  24
ENDBRANCH  22  23
ENDBRANCH  21  22
ENDBRANCH  20  21
ENDBRANCH  19  20
ENDBRANCH  18  19
ENDBRANCH  17  18
ENDBRANCH  16  17
ENDBRANCH  15  16
ENDBRANCH   1  15
TORSDOF 22
ENDMDL
MODEL 4
REMARK VINA RESULT:    -3.509      4.187     10.185
REMARK INTER + INTRA:         -11.419
REMARK INTER:                  -9.019
REMARK INTRA:                  -2.399
REMARK UNBOUND:                -3.397
REMARK SMILES CCCCCCCCCCCCCCCCCCCCCCCC(=O)[O-]
REMARK SMILES IDX 13 1 14 2 15 3 16 4 17 5 18 6 19 7 20 8 21 9 22 10 23 11
REMARK SMILES IDX 24 12 25 13 26 14 12 15 11 16 10 17 9 18 8 19 7 20 6 21 5 22
REMARK SMILES IDX 4 23 3 24 2 25 1 26
REMARK H PARENT
REMARK Flexibility Score: inf
ROOT
ATOM      1  C   UNL     1      98.464 -68.095   2.999  1.00  0.00     0.000 C 
ENDROOT
BRANCH   1   2
ATOM      2  C   UNL     1      98.887 -68.393   4.448  1.00  0.00     0.000 C 
BRANCH   2   3
ATOM      3  C   UNL     1     100.337 -68.893   4.616  1.00  0.00     0.000 C 
BRANCH   3   4
ATOM      4  C   UNL     1     100.580 -69.798   5.837  1.00  0.00     0.000 C 
BRANCH   4   5
ATOM      5  C   UNL     1     100.666 -69.014   7.155  1.00  0.00     0.000 C 
BRANCH   5   6
ATOM      6  C   UNL     1     101.641 -67.838   7.029  1.00  0.00     0.000 C 
BRANCH   6   7
ATOM      7  C   UNL     1     100.973 -66.521   7.446  1.00  0.00     0.000 C 
BRANCH   7   8
ATOM      8  C   UNL     1     101.380 -66.124   8.872  1.00  0.00     0.000 C 
BRANCH   8   9
ATOM      9  C   UNL     1     100.169 -65.692   9.728  1.00  0.00     0.000 C 
BRANCH   9  10
ATOM     10  C   UNL     1     100.041 -66.471  11.050  1.00  0.00     0.006 C 
BRANCH  10  11
ATOM     11  C   UNL     1     101.238 -67.381  11.357  1.00  0.00     0.053 C 
BRANCH  11  12
ATOM     12  C   UNL     1     100.864 -68.832  11.330  1.00  0.00     0.041 C 
ATOM     13  O   UNL     1      99.861 -69.216  10.671  1.00  0.00    -0.550 OA
ATOM     14  O   UNL     1     101.619 -69.761  12.034  1.00  0.00    -0.550 OA
ENDBRANCH  11  12
ENDBRANCH  10  11
ENDBRANCH   9  10
ENDBRANCH   8   9
ENDBRANCH   7   8
ENDBRANCH   6   7
ENDBRANCH   5   6
ENDBRANCH   4   5
ENDBRANCH   3   4
ENDBRANCH   2   3
ENDBRANCH   1   2
BRANCH   1  15
ATOM     15  C   UNL     1      99.621 -68.228   1.997  1.00  0.00     0.000 C 
BRANCH  15  16
ATOM     16  C   UNL     1     100.159 -66.844   1.602  1.00  0.00     0.000 C 
BRANCH  16  17
ATOM     17  C   UNL     1     101.321 -66.923   0.599  1.00  0.00     0.000 C 
BRANCH  17  18
ATOM     18  C   UNL     1     101.163 -65.937  -0.567  1.00  0.00    -0.000 C 
BRANCH  18  19
ATOM     19  C   UNL     1     102.032 -66.351  -1.762  1.00  0.00    -0.000 C 
BRANCH  19  20
ATOM     20  C   UNL     1     101.926 -67.861  -2.019  1.00  0.00    -0.000 C 
BRANCH  20  21
ATOM     21  C   UNL     1     101.377 -68.183  -3.419  1.00  0.00    -0.000 C 
BRANCH  21  22
ATOM     22  C   UNL     1     100.388 -67.118  -3.924  1.00  0.00    -0.000 C 
BRANCH  22  23
ATOM     23  C   UNL     1      99.098 -67.728  -4.501  1.00  0.00    -0.000 C 
BRANCH  23  24
ATOM     24  C   UNL     1      97.838 -67.526  -3.634  1.00  0.00    -0.000 C 
BRANCH  24  25
ATOM     25  C   UNL     1      98.100 -67.432  -2.120  1.00  0.00    -0.003 C 
ATOM     26  C   UNL     1      98.302 -68.797  -1.465  1.00  0.00     0.004 C 
ENDBRANCH  24  25
ENDBRANCH  23  24
ENDBRANCH  22  23
ENDBRANCH  21  22
ENDBRANCH  20  21
ENDBRANCH  19  20
ENDBRANCH  18  19
ENDBRANCH  17  18
ENDBRANCH  16  17
ENDBRANCH  15  16
ENDBRANCH   1  15
TORSDOF 22
ENDMDL
MODEL 5
REMARK VINA RESULT:    -3.466      3.852      9.439
REMARK INTER + INTRA:         -11.320
REMARK INTER:                  -8.069
REMARK INTRA:                  -3.252
REMARK UNBOUND:                -3.397
REMARK SMILES CCCCCCCCCCCCCCCCCCCCCCCC(=O)[O-]
REMARK SMILES IDX 13 1 14 2 15 3 16 4 17 5 18 6 19 7 20 8 21 9 22 10 23 11
REMARK SMILES IDX 24 12 25 13 26 14 12 15 11 16 10 17 9 18 8 19 7 20 6 21 5 22
REMARK SMILES IDX 4 23 3 24 2 25 1 26
REMARK H PARENT
REMARK Flexibility Score: inf
ROOT
ATOM      1  C   UNL     1      98.088 -65.902   1.904  1.00  0.00     0.000 C 
ENDROOT
BRANCH   1   2
ATOM      2  C   UNL     1      98.671 -65.034   3.033  1.00  0.00     0.000 C 
BRANCH   2   3
ATOM      3  C   UNL     1      98.834 -65.749   4.390  1.00  0.00     0.000 C 
BRANCH   3   4
ATOM      4  C   UNL     1     100.251 -66.271   4.690  1.00  0.00     0.000 C 
BRANCH   4   5
ATOM      5  C   UNL     1     100.577 -67.576   3.949  1.00  0.00     0.000 C 
BRANCH   5   6
ATOM      6  C   UNL     1      99.528 -68.652   4.248  1.00  0.00     0.000 C 
BRANCH   6   7
ATOM      7  C   UNL     1      99.905 -69.456   5.499  1.00  0.00     0.000 C 
BRANCH   7   8
ATOM      8  C   UNL     1     101.423 -69.670   5.581  1.00  0.00     0.000 C 
BRANCH   8   9
ATOM      9  C   UNL     1     102.008 -69.205   6.932  1.00  0.00     0.000 C 
BRANCH   9  10
ATOM     10  C   UNL     1     101.048 -68.319   7.747  1.00  0.00     0.006 C 
BRANCH  10  11
ATOM     11  C   UNL     1     100.963 -68.692   9.234  1.00  0.00     0.053 C 
BRANCH  11  12
ATOM     12  C   UNL     1     100.415 -67.571  10.064  1.00  0.00     0.041 C 
ATOM     13  O   UNL     1     100.054 -67.781  11.252  1.00  0.00    -0.550 OA
ATOM     14  O   UNL     1     100.301 -66.295   9.527  1.00  0.00    -0.550 OA
ENDBRANCH  11  12
ENDBRANCH  10  11
ENDBRANCH   9  10
ENDBRANCH   8   9
ENDBRANCH   7   8
ENDBRANCH   6   7
ENDBRANCH   5   6
ENDBRANCH   4   5
ENDBRANCH   3   4
ENDBRANCH   2   3
ENDBRANCH   1   2
BRANCH   1  15
ATOM     15  C   UNL     1      98.761 -65.650   0.546  1.00  0.00     0.000 C 
BRANCH  15  16
ATOM     16  C   UNL     1     100.184 -66.231   0.529  1.00  0.00     0.000 C 
BRANCH  16  17
ATOM     17  C   UNL     1     100.798 -66.256  -0.880  1.00  0.00     0.000 C 
BRANCH  17  18
ATOM     18  C   UNL     1     101.598 -67.538  -1.153  1.00  0.00    -0.000 C 
BRANCH  18  19
ATOM     19  C   UNL     1     101.663 -67.839  -2.656  1.00  0.00    -0.000 C 
BRANCH  19  20
ATOM     20  C   UNL     1     101.079 -66.678  -3.473  1.00  0.00    -0.000 C 
BRANCH  20  21
ATOM     21  C   UNL     1     100.373 -67.156  -4.753  1.00  0.00    -0.000 C 
BRANCH  21  22
ATOM     22  C   UNL     1      99.052 -67.888  -4.459  1.00  0.00    -0.000 C 
BRANCH  22  23
ATOM     23  C   UNL     1      98.089 -67.056  -3.593  1.00  0.00    -0.000 C 
BRANCH  23  24
ATOM     24  C   UNL     1      97.674 -67.719  -2.263  1.00  0.00    -0.000 C 
BRANCH  24  25
ATOM     25  C   UNL     1      98.385 -69.047  -1.950  1.00  0.00    -0.003 C 
ATOM     26  C   UNL     1      98.143 -69.530  -0.520  1.00  0.00     0.004 C 
ENDBRANCH  24  25
ENDBRANCH  23  24
ENDBRANCH  22  23
ENDBRANCH  21  22
ENDBRANCH  20  21
ENDBRANCH  19  20
ENDBRANCH  18  19
ENDBRANCH  17  18
ENDBRANCH  16  17
ENDBRANCH  15  16
ENDBRANCH   1  15
TORSDOF 22
ENDMDL
MODEL 6
REMARK VINA RESULT:    -3.256      2.184      4.052
REMARK INTER + INTRA:         -10.840
REMARK INTER:                  -8.606
REMARK INTRA:                  -2.234
REMARK UNBOUND:                -3.397
REMARK SMILES CCCCCCCCCCCCCCCCCCCCCCCC(=O)[O-]
REMARK SMILES IDX 13 1 14 2 15 3 16 4 17 5 18 6 19 7 20 8 21 9 22 10 23 11
REMARK SMILES IDX 24 12 25 13 26 14 12 15 11 16 10 17 9 18 8 19 7 20 6 21 5 22
REMARK SMILES IDX 4 23 3 24 2 25 1 26
REMARK H PARENT
REMARK Flexibility Score: inf
ROOT
ATOM      1  C   UNL     1      98.470 -65.728   0.900  1.00  0.00     0.000 C 
ENDROOT
BRANCH   1   2
ATOM      2  C   UNL     1      99.121 -64.879  -0.206  1.00  0.00     0.000 C 
BRANCH   2   3
ATOM      3  C   UNL     1     100.656 -65.001  -0.307  1.00  0.00     0.000 C 
BRANCH   3   4
ATOM      4  C   UNL     1     101.165 -66.240  -1.066  1.00  0.00     0.000 C 
BRANCH   4   5
ATOM      5  C   UNL     1     101.717 -65.903  -2.459  1.00  0.00     0.000 C 
BRANCH   5   6
ATOM      6  C   UNL     1     101.102 -66.816  -3.526  1.00  0.00     0.000 C 
BRANCH   6   7
ATOM      7  C   UNL     1      99.718 -66.310  -3.952  1.00  0.00     0.000 C 
BRANCH   7   8
ATOM      8  C   UNL     1      98.756 -67.481  -4.203  1.00  0.00     0.000 C 
BRANCH   8   9
ATOM      9  C   UNL     1      97.586 -67.504  -3.196  1.00  0.00     0.000 C 
BRANCH   9  10
ATOM     10  C   UNL     1      98.015 -67.861  -1.761  1.00  0.00     0.006 C 
BRANCH  10  11
ATOM     11  C   UNL     1      98.221 -69.364  -1.526  1.00  0.00     0.053 C 
BRANCH  11  12
ATOM     12  C   UNL     1      98.635 -69.662  -0.117  1.00  0.00     0.041 C 
ATOM     13  O   UNL     1      98.021 -70.534   0.553  1.00  0.00    -0.550 OA
ATOM     14  O   UNL     1      99.696 -68.976   0.459  1.00  0.00    -0.550 OA
ENDBRANCH  11  12
ENDBRANCH  10  11
ENDBRANCH   9  10
ENDBRANCH   8   9
ENDBRANCH   7   8
ENDBRANCH   6   7
ENDBRANCH   5   6
ENDBRANCH   4   5
ENDBRANCH   3   4
ENDBRANCH   2   3
ENDBRANCH   1   2
BRANCH   1  15
ATOM     15  C   UNL     1      98.286 -64.957   2.216  1.00  0.00     0.000 C 
BRANCH  15  16
ATOM     16  C   UNL     1      99.544 -65.068   3.091  1.00  0.00     0.000 C 
BRANCH  16  17
ATOM     17  C   UNL     1      99.244 -64.885   4.587  1.00  0.00     0.000 C 
BRANCH  17  18
ATOM     18  C   UNL     1      99.835 -66.009   5.451  1.00  0.00    -0.000 C 
BRANCH  18  19
ATOM     19  C   UNL     1     100.329 -67.172   4.582  1.00  0.00    -0.000 C 
BRANCH  19  20
ATOM     20  C   UNL     1      99.392 -68.383   4.704  1.00  0.00    -0.000 C 
BRANCH  20  21
ATOM     21  C   UNL     1     100.018 -69.532   5.511  1.00  0.00    -0.000 C 
BRANCH  21  22
ATOM     22  C   UNL     1     101.214 -69.071   6.363  1.00  0.00    -0.000 C 
BRANCH  22  23
ATOM     23  C   UNL     1     100.858 -68.913   7.852  1.00  0.00    -0.000 C 
BRANCH  23  24
ATOM     24  C   UNL     1     101.174 -67.527   8.453  1.00  0.00    -0.000 C 
BRANCH  24  25
ATOM     25  C   UNL     1     100.528 -67.251   9.822  1.00  0.00    -0.003 C 
ATOM     26  C   UNL     1     100.303 -68.521  10.641  1.00  0.00     0.004 C 
ENDBRANCH  24  25
ENDBRANCH  23  24
ENDBRANCH  22  23
ENDBRANCH  21  22
ENDBRANCH  20  21
ENDBRANCH  19  20
ENDBRANCH  18  19
ENDBRANCH  17  18
ENDBRANCH  16  17
ENDBRANCH  15  16
ENDBRANCH   1  15
TORSDOF 22
ENDMDL
MODEL 7
REMARK VINA RESULT:    -3.205      4.475      9.344
REMARK INTER + INTRA:         -10.724
REMARK INTER:                  -7.980
REMARK INTRA:                  -2.745
REMARK UNBOUND:                -3.397
REMARK SMILES CCCCCCCCCCCCCCCCCCCCCCCC(=O)[O-]
REMARK SMILES IDX 13 1 14 2 15 3 16 4 17 5 18 6 19 7 20 8 21 9 22 10 23 11
REMARK SMILES IDX 24 12 25 13 26 14 12 15 11 16 10 17 9 18 8 19 7 20 6 21 5 22
REMARK SMILES IDX 4 23 3 24 2 25 1 26
REMARK H PARENT
REMARK Flexibility Score: inf
ROOT
ATOM      1  C   UNL     1      97.257 -67.208   3.873  1.00  0.00     0.000 C 
ENDROOT
BRANCH   1   2
ATOM      2  C   UNL     1      98.040 -68.071   2.869  1.00  0.00     0.000 C 
BRANCH   2   3
ATOM      3  C   UNL     1      99.151 -68.946   3.486  1.00  0.00     0.000 C 
BRANCH   3   4
ATOM      4  C   UNL     1      99.296 -68.838   5.014  1.00  0.00     0.000 C 
BRANCH   4   5
ATOM      5  C   UNL     1     100.376 -69.772   5.581  1.00  0.00     0.000 C 
BRANCH   5   6
ATOM      6  C   UNL     1     101.086 -69.126   6.776  1.00  0.00     0.000 C 
BRANCH   6   7
ATOM      7  C   UNL     1     101.490 -67.680   6.461  1.00  0.00     0.000 C 
BRANCH   7   8
ATOM      8  C   UNL     1     100.729 -66.688   7.352  1.00  0.00     0.000 C 
BRANCH   8   9
ATOM      9  C   UNL     1     101.409 -66.493   8.725  1.00  0.00     0.000 C 
BRANCH   9  10
ATOM     10  C   UNL     1     100.521 -66.899   9.915  1.00  0.00     0.006 C 
BRANCH  10  11
ATOM     11  C   UNL     1     100.573 -68.397  10.250  1.00  0.00     0.053 C 
BRANCH  11  12
ATOM     12  C   UNL     1     101.172 -68.651  11.599  1.00  0.00     0.041 C 
ATOM     13  O   UNL     1     101.296 -69.830  12.026  1.00  0.00    -0.550 OA
ATOM     14  O   UNL     1     101.592 -67.588  12.388  1.00  0.00    -0.550 OA
ENDBRANCH  11  12
ENDBRANCH  10  11
ENDBRANCH   9  10
ENDBRANCH   8   9
ENDBRANCH   7   8
ENDBRANCH   6   7
ENDBRANCH   5   6
ENDBRANCH   4   5
ENDBRANCH   3   4
ENDBRANCH   2   3
ENDBRANCH   1   2
BRANCH   1  15
ATOM     15  C   UNL     1      97.436 -65.701   3.635  1.00  0.00     0.000 C 
BRANCH  15  16
ATOM     16  C   UNL     1      98.739 -65.200   4.275  1.00  0.00     0.000 C 
BRANCH  16  17
ATOM     17  C   UNL     1      99.856 -64.966   3.245  1.00  0.00     0.000 C 
BRANCH  17  18
ATOM     18  C   UNL     1     101.127 -65.770   3.558  1.00  0.00    -0.000 C 
BRANCH  18  19
ATOM     19  C   UNL     1     101.997 -65.938   2.306  1.00  0.00    -0.000 C 
BRANCH  19  20
ATOM     20  C   UNL     1     101.134 -65.945   1.036  1.00  0.00    -0.000 C 
BRANCH  20  21
ATOM     21  C   UNL     1     100.747 -67.366   0.595  1.00  0.00    -0.000 C 
BRANCH  21  22
ATOM     22  C   UNL     1     101.330 -67.735  -0.780  1.00  0.00    -0.000 C 
BRANCH  22  23
ATOM     23  C   UNL     1     100.242 -67.997  -1.838  1.00  0.00    -0.000 C 
BRANCH  23  24
ATOM     24  C   UNL     1      98.797 -67.753  -1.358  1.00  0.00    -0.000 C 
BRANCH  24  25
ATOM     25  C   UNL     1      97.982 -66.774  -2.221  1.00  0.00    -0.003 C 
ATOM     26  C   UNL     1      97.594 -67.359  -3.579  1.00  0.00     0.004 C 
ENDBRANCH  24  25
ENDBRANCH  23  24
ENDBRANCH  22  23
ENDBRANCH  21  22
ENDBRANCH  20  21
ENDBRANCH  19  20
ENDBRANCH  18  19
ENDBRANCH  17  18
ENDBRANCH  16  17
ENDBRANCH  15  16
ENDBRANCH   1  15
TORSDOF 22
ENDMDL
MODEL 8
REMARK VINA RESULT:    -3.186      1.756      2.860
REMARK INTER + INTRA:         -10.680
REMARK INTER:                  -8.466
REMARK INTRA:                  -2.214
REMARK UNBOUND:                -3.397
REMARK SMILES CCCCCCCCCCCCCCCCCCCCCCCC(=O)[O-]
REMARK SMILES IDX 13 1 14 2 15 3 16 4 17 5 18 6 19 7 20 8 21 9 22 10 23 11
REMARK SMILES IDX 24 12 25 13 26 14 12 15 11 16 10 17 9 18 8 19 7 20 6 21 5 22
REMARK SMILES IDX 4 23 3 24 2 25 1 26
REMARK H PARENT
REMARK Flexibility Score: inf
ROOT
ATOM      1  C   UNL     1      98.803 -68.405   2.018  1.00  0.00     0.000 C 
ENDROOT
BRANCH   1   2
ATOM      2  C   UNL     1      99.279 -67.206   1.180  1.00  0.00     0.000 C 
BRANCH   2   3
ATOM      3  C   UNL     1     100.747 -67.279   0.710  1.00  0.00     0.000 C 
BRANCH   3   4
ATOM      4  C   UNL     1     100.958 -67.890  -0.687  1.00  0.00     0.000 C 
BRANCH   4   5
ATOM      5  C   UNL     1     101.946 -67.090  -1.548  1.00  0.00     0.000 C 
BRANCH   5   6
ATOM      6  C   UNL     1     101.552 -65.609  -1.600  1.00  0.00     0.000 C 
BRANCH   6   7
ATOM      7  C   UNL     1     101.741 -65.038  -3.011  1.00  0.00     0.000 C 
BRANCH   7   8
ATOM      8  C   UNL     1     101.549 -66.127  -4.076  1.00  0.00     0.000 C 
BRANCH   8   9
ATOM      9  C   UNL     1     100.183 -66.015  -4.789  1.00  0.00     0.000 C 
BRANCH   9  10
ATOM     10  C   UNL     1      99.466 -67.367  -4.961  1.00  0.00     0.006 C 
BRANCH  10  11
ATOM     11  C   UNL     1      98.832 -67.907  -3.671  1.00  0.00     0.053 C 
BRANCH  11  12
ATOM     12  C   UNL     1      97.718 -67.033  -3.184  1.00  0.00     0.041 C 
ATOM     13  O   UNL     1      96.599 -67.049  -3.762  1.00  0.00    -0.550 OA
ATOM     14  O   UNL     1      97.913 -66.196  -2.092  1.00  0.00    -0.550 OA
ENDBRANCH  11  12
ENDBRANCH  10  11
ENDBRANCH   9  10
ENDBRANCH   8   9
ENDBRANCH   7   8
ENDBRANCH   6   7
ENDBRANCH   5   6
ENDBRANCH   4   5
ENDBRANCH   3   4
ENDBRANCH   2   3
ENDBRANCH   1   2
BRANCH   1  15
ATOM     15  C   UNL     1      98.065 -67.985   3.299  1.00  0.00     0.000 C 
BRANCH  15  16
ATOM     16  C   UNL     1      98.924 -68.273   4.540  1.00  0.00     0.000 C 
BRANCH  16  17
ATOM     17  C   UNL     1     100.388 -68.583   4.190  1.00  0.00     0.000 C 
BRANCH  17  18
ATOM     18  C   UNL     1     101.083 -69.440   5.259  1.00  0.00    -0.000 C 
BRANCH  18  19
ATOM     19  C   UNL     1     100.559 -69.105   6.662  1.00  0.00    -0.000 C 
BRANCH  19  20
ATOM     20  C   UNL     1     101.423 -68.024   7.327  1.00  0.00    -0.000 C 
BRANCH  20  21
ATOM     21  C   UNL     1     100.884 -66.605   7.080  1.00  0.00    -0.000 C 
BRANCH  21  22
ATOM     22  C   UNL     1     101.383 -65.595   8.128  1.00  0.00    -0.000 C 
BRANCH  22  23
ATOM     23  C   UNL     1     100.434 -65.469   9.333  1.00  0.00    -0.000 C 
BRANCH  23  24
ATOM     24  C   UNL     1     100.905 -66.196  10.610  1.00  0.00    -0.000 C 
BRANCH  24  25
ATOM     25  C   UNL     1      99.979 -67.326  11.092  1.00  0.00    -0.003 C 
ATOM     26  C   UNL     1     100.522 -68.718  10.772  1.00  0.00     0.004 C 
ENDBRANCH  24  25
ENDBRANCH  23  24
ENDBRANCH  22  23
ENDBRANCH  21  22
ENDBRANCH  20  21
ENDBRANCH  19  20
ENDBRANCH  18  19
ENDBRANCH  17  18
ENDBRANCH  16  17
ENDBRANCH  15  16
ENDBRANCH   1  15
TORSDOF 22
ENDMDL
MODEL 9
REMARK VINA RESULT:    -3.105      1.708      3.529
REMARK INTER + INTRA:         -10.494
REMARK INTER:                  -7.849
REMARK INTRA:                  -2.645
REMARK UNBOUND:                -3.397
REMARK SMILES CCCCCCCCCCCCCCCCCCCCCCCC(=O)[O-]
REMARK SMILES IDX 13 1 14 2 15 3 16 4 17 5 18 6 19 7 20 8 21 9 22 10 23 11
REMARK SMILES IDX 24 12 25 13 26 14 12 15 11 16 10 17 9 18 8 19 7 20 6 21 5 22
REMARK SMILES IDX 4 23 3 24 2 25 1 26
REMARK H PARENT
REMARK Flexibility Score: inf
ROOT
ATOM      1  C   UNL     1      98.057 -65.692   0.871  1.00  0.00     0.000 C 
ENDROOT
BRANCH   1   2
ATOM      2  C   UNL     1      99.324 -64.916   0.469  1.00  0.00     0.000 C 
BRANCH   2   3
ATOM      3  C   UNL     1     100.654 -65.573   0.891  1.00  0.00     0.000 C 
BRANCH   3   4
ATOM      4  C   UNL     1     100.604 -67.102   1.062  1.00  0.00     0.000 C 
BRANCH   4   5
ATOM      5  C   UNL     1     101.559 -67.842   0.113  1.00  0.00     0.000 C 
BRANCH   5   6
ATOM      6  C   UNL     1     101.050 -67.783  -1.332  1.00  0.00     0.000 C 
BRANCH   6   7
ATOM      7  C   UNL     1     102.047 -67.050  -2.238  1.00  0.00     0.000 C 
BRANCH   7   8
ATOM      8  C   UNL     1     101.936 -67.539  -3.689  1.00  0.00     0.000 C 
BRANCH   8   9
ATOM      9  C   UNL     1     100.499 -67.971  -4.054  1.00  0.00     0.000 C 
BRANCH   9  10
ATOM     10  C   UNL     1      99.663 -66.848  -4.695  1.00  0.00     0.006 C 
BRANCH  10  11
ATOM     11  C   UNL     1      98.146 -67.060  -4.589  1.00  0.00     0.053 C 
BRANCH  11  12
ATOM     12  C   UNL     1      97.621 -66.696  -3.233  1.00  0.00     0.041 C 
ATOM     13  O   UNL     1      97.727 -65.516  -2.808  1.00  0.00    -0.550 OA
ATOM     14  O   UNL     1      97.017 -67.661  -2.437  1.00  0.00    -0.550 OA
ENDBRANCH  11  12
ENDBRANCH  10  11
ENDBRANCH   9  10
ENDBRANCH   8   9
ENDBRANCH   7   8
ENDBRANCH   6   7
ENDBRANCH   5   6
ENDBRANCH   4   5
ENDBRANCH   3   4
ENDBRANCH   2   3
ENDBRANCH   1   2
BRANCH   1  15
ATOM     15  C   UNL     1      97.152 -64.905   1.831  1.00  0.00     0.000 C 
BRANCH  15  16
ATOM     16  C   UNL     1      97.211 -65.503   3.246  1.00  0.00     0.000 C 
BRANCH  16  17
ATOM     17  C   UNL     1      98.516 -65.160   3.981  1.00  0.00     0.000 C 
BRANCH  17  18
ATOM     18  C   UNL     1      99.074 -66.348   4.780  1.00  0.00    -0.000 C 
BRANCH  18  19
ATOM     19  C   UNL     1      98.561 -67.680   4.219  1.00  0.00    -0.000 C 
BRANCH  19  20
ATOM     20  C   UNL     1      99.465 -68.842   4.655  1.00  0.00    -0.000 C 
BRANCH  20  21
ATOM     21  C   UNL     1     100.658 -68.374   5.505  1.00  0.00    -0.000 C 
BRANCH  21  22
ATOM     22  C   UNL     1     100.935 -69.306   6.697  1.00  0.00    -0.000 C 
BRANCH  22  23
ATOM     23  C   UNL     1     100.924 -68.566   8.047  1.00  0.00    -0.000 C 
BRANCH  23  24
ATOM     24  C   UNL     1     101.199 -67.050   7.960  1.00  0.00    -0.000 C 
BRANCH  24  25
ATOM     25  C   UNL     1     100.597 -66.215   9.103  1.00  0.00    -0.003 C 
ATOM     26  C   UNL     1     100.208 -67.059  10.316  1.00  0.00     0.004 C 
ENDBRANCH  24  25
ENDBRANCH  23  24
ENDBRANCH  22  23
ENDBRANCH  21  22
ENDBRANCH  20  21
ENDBRANCH  19  20
ENDBRANCH  18  19
ENDBRANCH  17  18
ENDBRANCH  16  17
ENDBRANCH  15  16
ENDBRANCH   1  15
TORSDOF 22
ENDMDL
