MODEL 1
REMARK VINA RESULT:    -4.530      0.000      0.000
REMARK INTER + INTRA:         -10.248
REMARK INTER:                  -8.237
REMARK INTRA:                  -2.011
REMARK UNBOUND:                -2.011
REMARK SMILES CCCCCCCCCCCCCCCC(=O)[O-]
REMARK SMILES IDX 9 1 10 2 11 3 12 4 13 5 14 6 15 7 16 8 17 9 18 10 8 11 7 12
REMARK SMILES IDX 6 13 5 14 4 15 3 16 2 17 1 18
REMARK H PARENT
REMARK Flexibility Score: inf
ROOT
ATOM      1  C   UNL     1      16.517 -35.015  19.525  1.00  0.00     0.000 C 
ENDROOT
BRANCH   1   2
ATOM      2  C   UNL     1      15.199 -34.383  20.008  1.00  0.00     0.000 C 
BRANCH   2   3
ATOM      3  C   UNL     1      15.115 -34.276  21.538  1.00  0.00     0.000 C 
BRANCH   3   4
ATOM      4  C   UNL     1      14.599 -32.906  22.016  1.00  0.00     0.000 C 
BRANCH   4   5
ATOM      5  C   UNL     1      13.779 -32.113  20.977  1.00  0.00     0.000 C 
BRANCH   5   6
ATOM      6  C   UNL     1      12.851 -31.029  21.560  1.00  0.00     0.006 C 
BRANCH   6   7
ATOM      7  C   UNL     1      13.098 -30.717  23.044  1.00  0.00     0.053 C 
BRANCH   7   8
ATOM      8  C   UNL     1      12.948 -29.257  23.342  1.00  0.00     0.041 C 
ATOM      9  O   UNL     1      13.961 -28.510  23.379  1.00  0.00    -0.550 OA
ATOM     10  O   UNL     1      11.692 -28.728  23.610  1.00  0.00    -0.550 OA
ENDBRANCH   7   8
ENDBRANCH   6   7
ENDBRANCH   5   6
ENDBRANCH   4   5
ENDBRANCH   3   4
ENDBRANCH   2   3
ENDBRANCH   1   2
BRANCH   1  11
ATOM     11  C   UNL     1      17.557 -33.981  19.042  1.00  0.00     0.000 C 
BRANCH  11  12
ATOM     12  C   UNL     1      18.481 -33.515  20.182  1.00  0.00    -0.000 C 
BRANCH  12  13
ATOM     13  C   UNL     1      18.081 -32.144  20.750  1.00  0.00    -0.000 C 
BRANCH  13  14
ATOM     14  C   UNL     1      18.168 -32.092  22.285  1.00  0.00    -0.000 C 
BRANCH  14  15
ATOM     15  C   UNL     1      17.500 -30.839  22.880  1.00  0.00    -0.000 C 
BRANCH  15  16
ATOM     16  C   UNL     1      16.807 -29.915  21.858  1.00  0.00    -0.000 C 
BRANCH  16  17
ATOM     17  C   UNL     1      17.327 -28.466  21.833  1.00  0.00    -0.003 C 
ATOM     18  C   UNL     1      18.691 -28.335  21.157  1.00  0.00     0.004 C 
ENDBRANCH  16  17
ENDBRANCH  15  16
ENDBRANCH  14  15
ENDBRANCH  13  14
ENDBRANCH  12  13
ENDBRANCH  11  12
ENDBRANCH   1  11
TORSDOF 14
ENDMDL
MODEL 2
REMARK VINA RESULT:    -4.477      2.352      4.599
REMARK INTER + INTRA:         -10.152
REMARK INTER:                  -7.982
REMARK INTRA:                  -2.170
REMARK UNBOUND:                -2.011
REMARK SMILES CCCCCCCCCCCCCCCC(=O)[O-]
REMARK SMILES IDX 9 1 10 2 11 3 12 4 13 5 14 6 15 7 16 8 17 9 18 10 8 11 7 12
REMARK SMILES IDX 6 13 5 14 4 15 3 16 2 17 1 18
REMARK H PARENT
REMARK Flexibility Score: inf
ROOT
ATOM      1  C   UNL     1      16.001 -34.735  21.175  1.00  0.00     0.000 C 
ENDROOT
BRANCH   1   2
ATOM      2  C   UNL     1      16.202 -34.408  19.685  1.00  0.00     0.000 C 
BRANCH   2   3
ATOM      3  C   UNL     1      17.674 -34.164  19.320  1.00  0.00     0.000 C 
BRANCH   3   4
ATOM      4  C   UNL     1      18.414 -33.304  20.361  1.00  0.00     0.000 C 
BRANCH   4   5
ATOM      5  C   UNL     1      17.864 -31.875  20.545  1.00  0.00     0.000 C 
BRANCH   5   6
ATOM      6  C   UNL     1      17.925 -31.327  21.986  1.00  0.00     0.006 C 
BRANCH   6   7
ATOM      7  C   UNL     1      18.228 -32.389  23.054  1.00  0.00     0.053 C 
BRANCH   7   8
ATOM      8  C   UNL     1      17.536 -32.094  24.348  1.00  0.00     0.041 C 
ATOM      9  O   UNL     1      17.775 -31.022  24.965  1.00  0.00    -0.550 OA
ATOM     10  O   UNL     1      16.653 -33.018  24.891  1.00  0.00    -0.550 OA
ENDBRANCH   7   8
ENDBRANCH   6   7
ENDBRANCH   5   6
ENDBRANCH   4   5
ENDBRANCH   3   4
ENDBRANCH   2   3
ENDBRANCH   1   2
BRANCH   1  11
ATOM     11  C   UNL     1      14.961 -33.831  21.872  1.00  0.00     0.000 C 
BRANCH  11  12
ATOM     12  C   UNL     1      14.229 -32.916  20.872  1.00  0.00    -0.000 C 
BRANCH  12  13
ATOM     13  C   UNL     1      14.109 -31.467  21.369  1.00  0.00    -0.000 C 
BRANCH  13  14
ATOM     14  C   UNL     1      14.088 -31.368  22.905  1.00  0.00    -0.000 C 
BRANCH  14  15
ATOM     15  C   UNL     1      14.683 -30.048  23.427  1.00  0.00    -0.000 C 
BRANCH  15  16
ATOM     16  C   UNL     1      13.784 -28.806  23.253  1.00  0.00    -0.000 C 
BRANCH  16  17
ATOM     17  C   UNL     1      12.472 -28.836  24.057  1.00  0.00    -0.003 C 
ATOM     18  C   UNL     1      11.238 -28.580  23.193  1.00  0.00     0.004 C 
ENDBRANCH  16  17
ENDBRANCH  15  16
ENDBRANCH  14  15
ENDBRANCH  13  14
ENDBRANCH  12  13
ENDBRANCH  11  12
ENDBRANCH   1  11
TORSDOF 14
ENDMDL
MODEL 3
REMARK VINA RESULT:    -4.460      3.334      5.665
REMARK INTER + INTRA:         -10.121
REMARK INTER:                  -8.305
REMARK INTRA:                  -1.816
REMARK UNBOUND:                -2.011
REMARK SMILES CCCCCCCCCCCCCCCC(=O)[O-]
REMARK SMILES IDX 9 1 10 2 11 3 12 4 13 5 14 6 15 7 16 8 17 9 18 10 8 11 7 12
REMARK SMILES IDX 6 13 5 14 4 15 3 16 2 17 1 18
REMARK H PARENT
REMARK Flexibility Score: inf
ROOT
ATOM      1  C   UNL     1      13.392 -31.062  23.335  1.00  0.00     0.000 C 
ENDROOT
BRANCH   1   2
ATOM      2  C   UNL     1      13.159 -31.184  21.818  1.00  0.00     0.000 C 
BRANCH   2   3
ATOM      3  C   UNL     1      14.008 -32.288  21.171  1.00  0.00     0.000 C 
BRANCH   3   4
ATOM      4  C   UNL     1      14.697 -33.198  22.204  1.00  0.00     0.000 C 
BRANCH   4   5
ATOM      5  C   UNL     1      15.626 -34.279  21.613  1.00  0.00     0.000 C 
BRANCH   5   6
ATOM      6  C   UNL     1      15.364 -34.635  20.136  1.00  0.00     0.006 C 
BRANCH   6   7
ATOM      7  C   UNL     1      16.634 -34.918  19.319  1.00  0.00     0.053 C 
BRANCH   7   8
ATOM      8  C   UNL     1      17.502 -35.949  19.973  1.00  0.00     0.041 C 
ATOM      9  O   UNL     1      17.153 -37.159  19.980  1.00  0.00    -0.550 OA
ATOM     10  O   UNL     1      18.678 -35.567  20.605  1.00  0.00    -0.550 OA
ENDBRANCH   7   8
ENDBRANCH   6   7
ENDBRANCH   5   6
ENDBRANCH   4   5
ENDBRANCH   3   4
ENDBRANCH   2   3
ENDBRANCH   1   2
BRANCH   1  11
ATOM     11  C   UNL     1      13.795 -29.641  23.786  1.00  0.00     0.000 C 
BRANCH  11  12
ATOM     12  C   UNL     1      14.709 -28.946  22.761  1.00  0.00    -0.000 C 
BRANCH  12  13
ATOM     13  C   UNL     1      16.202 -29.117  23.083  1.00  0.00    -0.000 C 
BRANCH  13  14
ATOM     14  C   UNL     1      17.113 -28.491  22.012  1.00  0.00    -0.000 C 
BRANCH  14  15
ATOM     15  C   UNL     1      18.061 -29.514  21.362  1.00  0.00    -0.000 C 
BRANCH  15  16
ATOM     16  C   UNL     1      17.473 -30.927  21.166  1.00  0.00    -0.000 C 
BRANCH  16  17
ATOM     17  C   UNL     1      18.513 -32.043  20.967  1.00  0.00    -0.003 C 
ATOM     18  C   UNL     1      19.952 -31.539  21.065  1.00  0.00     0.004 C 
ENDBRANCH  16  17
ENDBRANCH  15  16
ENDBRANCH  14  15
ENDBRANCH  13  14
ENDBRANCH  12  13
ENDBRANCH  11  12
ENDBRANCH   1  11
TORSDOF 14
ENDMDL
MODEL 4
REMARK VINA RESULT:    -4.451      1.542      3.904
REMARK INTER + INTRA:         -10.106
REMARK INTER:                  -7.975
REMARK INTRA:                  -2.131
REMARK UNBOUND:                -2.011
REMARK SMILES CCCCCCCCCCCCCCCC(=O)[O-]
REMARK SMILES IDX 9 1 10 2 11 3 12 4 13 5 14 6 15 7 16 8 17 9 18 10 8 11 7 12
REMARK SMILES IDX 6 13 5 14 4 15 3 16 2 17 1 18
REMARK H PARENT
REMARK Flexibility Score: inf
ROOT
ATOM      1  C   UNL     1      17.552 -31.422  24.510  1.00  0.00     0.000 C 
ENDROOT
BRANCH   1   2
ATOM      2  C   UNL     1      17.427 -32.912  24.144  1.00  0.00     0.000 C 
BRANCH   2   3
ATOM      3  C   UNL     1      16.271 -33.611  24.875  1.00  0.00     0.000 C 
BRANCH   3   4
ATOM      4  C   UNL     1      14.966 -33.625  24.059  1.00  0.00     0.000 C 
BRANCH   4   5
ATOM      5  C   UNL     1      13.935 -32.545  24.449  1.00  0.00     0.000 C 
BRANCH   5   6
ATOM      6  C   UNL     1      13.538 -31.575  23.317  1.00  0.00     0.006 C 
BRANCH   6   7
ATOM      7  C   UNL     1      13.582 -30.091  23.712  1.00  0.00     0.053 C 
BRANCH   7   8
ATOM      8  C   UNL     1      12.372 -29.349  23.234  1.00  0.00     0.041 C 
ATOM      9  O   UNL     1      11.608 -29.868  22.378  1.00  0.00    -0.550 OA
ATOM     10  O   UNL     1      12.108 -28.072  23.709  1.00  0.00    -0.550 OA
ENDBRANCH   7   8
ENDBRANCH   6   7
ENDBRANCH   5   6
ENDBRANCH   4   5
ENDBRANCH   3   4
ENDBRANCH   2   3
ENDBRANCH   1   2
BRANCH   1  11
ATOM     11  C   UNL     1      17.436 -30.475  23.297  1.00  0.00     0.000 C 
BRANCH  11  12
ATOM     12  C   UNL     1      16.935 -31.207  22.038  1.00  0.00    -0.000 C 
BRANCH  12  13
ATOM     13  C   UNL     1      17.940 -31.149  20.876  1.00  0.00    -0.000 C 
BRANCH  13  14
ATOM     14  C   UNL     1      18.841 -32.394  20.811  1.00  0.00    -0.000 C 
BRANCH  14  15
ATOM     15  C   UNL     1      18.224 -33.536  19.983  1.00  0.00    -0.000 C 
BRANCH  15  16
ATOM     16  C   UNL     1      17.033 -34.260  20.644  1.00  0.00    -0.000 C 
BRANCH  16  17
ATOM     17  C   UNL     1      15.752 -34.316  19.793  1.00  0.00    -0.003 C 
ATOM     18  C   UNL     1      14.597 -33.524  20.404  1.00  0.00     0.004 C 
ENDBRANCH  16  17
ENDBRANCH  15  16
ENDBRANCH  14  15
ENDBRANCH  13  14
ENDBRANCH  12  13
ENDBRANCH  11  12
ENDBRANCH   1  11
TORSDOF 14
ENDMDL
MODEL 5
REMARK VINA RESULT:    -4.432      3.290      5.437
REMARK INTER + INTRA:         -10.071
REMARK INTER:                  -8.645
REMARK INTRA:                  -1.425
REMARK UNBOUND:                -2.011
REMARK SMILES CCCCCCCCCCCCCCCC(=O)[O-]
REMARK SMILES IDX 9 1 10 2 11 3 12 4 13 5 14 6 15 7 16 8 17 9 18 10 8 11 7 12
REMARK SMILES IDX 6 13 5 14 4 15 3 16 2 17 1 18
REMARK H PARENT
REMARK Flexibility Score: inf
ROOT
ATOM      1  C   UNL     1      15.259 -34.655  20.169  1.00  0.00     0.000 C 
ENDROOT
BRANCH   1   2
ATOM      2  C   UNL     1      16.474 -34.252  19.314  1.00  0.00     0.000 C 
BRANCH   2   3
ATOM      3  C   UNL     1      17.597 -35.302  19.341  1.00  0.00     0.000 C 
BRANCH   3   4
ATOM      4  C   UNL     1      17.139 -36.654  19.916  1.00  0.00     0.000 C 
BRANCH   4   5
ATOM      5  C   UNL     1      18.001 -37.203  21.072  1.00  0.00     0.000 C 
BRANCH   5   6
ATOM      6  C   UNL     1      18.622 -36.134  21.994  1.00  0.00     0.006 C 
BRANCH   6   7
ATOM      7  C   UNL     1      17.619 -35.451  22.936  1.00  0.00     0.053 C 
BRANCH   7   8
ATOM      8  C   UNL     1      17.990 -34.027  23.212  1.00  0.00     0.041 C 
ATOM      9  O   UNL     1      18.174 -33.224  22.260  1.00  0.00    -0.550 OA
ATOM     10  O   UNL     1      18.167 -33.595  24.520  1.00  0.00    -0.550 OA
ENDBRANCH   7   8
ENDBRANCH   6   7
ENDBRANCH   5   6
ENDBRANCH   4   5
ENDBRANCH   3   4
ENDBRANCH   2   3
ENDBRANCH   1   2
BRANCH   1  11
ATOM     11  C   UNL     1      14.826 -33.570  21.177  1.00  0.00     0.000 C 
BRANCH  11  12
ATOM     12  C   UNL     1      13.911 -32.513  20.532  1.00  0.00    -0.000 C 
BRANCH  12  13
ATOM     13  C   UNL     1      13.348 -31.509  21.551  1.00  0.00    -0.000 C 
BRANCH  13  14
ATOM     14  C   UNL     1      13.938 -31.703  22.958  1.00  0.00    -0.000 C 
BRANCH  14  15
ATOM     15  C   UNL     1      14.368 -30.377  23.613  1.00  0.00    -0.000 C 
BRANCH  15  16
ATOM     16  C   UNL     1      13.603 -29.127  23.134  1.00  0.00    -0.000 C 
BRANCH  16  17
ATOM     17  C   UNL     1      12.418 -28.710  24.022  1.00  0.00    -0.003 C 
ATOM     18  C   UNL     1      11.176 -28.329  23.218  1.00  0.00     0.004 C 
ENDBRANCH  16  17
ENDBRANCH  15  16
ENDBRANCH  14  15
ENDBRANCH  13  14
ENDBRANCH  12  13
ENDBRANCH  11  12
ENDBRANCH   1  11
TORSDOF 14
ENDMDL
MODEL 6
REMARK VINA RESULT:    -4.406      1.415      3.640
REMARK INTER + INTRA:         -10.024
REMARK INTER:                  -7.577
REMARK INTRA:                  -2.447
REMARK UNBOUND:                -2.011
REMARK SMILES CCCCCCCCCCCCCCCC(=O)[O-]
REMARK SMILES IDX 9 1 10 2 11 3 12 4 13 5 14 6 15 7 16 8 17 9 18 10 8 11 7 12
REMARK SMILES IDX 6 13 5 14 4 15 3 16 2 17 1 18
REMARK H PARENT
REMARK Flexibility Score: inf
ROOT
ATOM      1  C   UNL     1      18.897 -31.881  22.072  1.00  0.00     0.000 C 
ENDROOT
BRANCH   1   2
ATOM      2  C   UNL     1      17.985 -30.713  22.488  1.00  0.00     0.000 C 
BRANCH   2   3
ATOM      3  C   UNL     1      16.941 -30.361  21.417  1.00  0.00     0.000 C 
BRANCH   3   4
ATOM      4  C   UNL     1      15.621 -29.843  22.015  1.00  0.00     0.000 C 
BRANCH   4   5
ATOM      5  C   UNL     1      15.367 -30.231  23.486  1.00  0.00     0.000 C 
BRANCH   5   6
ATOM      6  C   UNL     1      13.924 -30.666  23.813  1.00  0.00     0.006 C 
BRANCH   6   7
ATOM      7  C   UNL     1      12.850 -29.997  22.941  1.00  0.00     0.053 C 
BRANCH   7   8
ATOM      8  C   UNL     1      12.215 -28.830  23.633  1.00  0.00     0.041 C 
ATOM      9  O   UNL     1      12.689 -28.402  24.718  1.00  0.00    -0.550 OA
ATOM     10  O   UNL     1      11.078 -28.239  23.097  1.00  0.00    -0.550 OA
ENDBRANCH   7   8
ENDBRANCH   6   7
ENDBRANCH   5   6
ENDBRANCH   4   5
ENDBRANCH   3   4
ENDBRANCH   2   3
ENDBRANCH   1   2
BRANCH   1  11
ATOM     11  C   UNL     1      18.655 -32.371  20.628  1.00  0.00     0.000 C 
BRANCH  11  12
ATOM     12  C   UNL     1      18.724 -33.905  20.518  1.00  0.00    -0.000 C 
BRANCH  12  13
ATOM     13  C   UNL     1      18.866 -34.594  21.885  1.00  0.00    -0.000 C 
BRANCH  13  14
ATOM     14  C   UNL     1      17.630 -35.430  22.256  1.00  0.00    -0.000 C 
BRANCH  14  15
ATOM     15  C   UNL     1      16.751 -34.755  23.325  1.00  0.00    -0.000 C 
BRANCH  15  16
ATOM     16  C   UNL     1      15.717 -33.746  22.786  1.00  0.00    -0.000 C 
BRANCH  16  17
ATOM     17  C   UNL     1      15.216 -34.029  21.359  1.00  0.00    -0.003 C 
ATOM     18  C   UNL     1      14.251 -32.961  20.844  1.00  0.00     0.004 C 
ENDBRANCH  16  17
ENDBRANCH  15  16
ENDBRANCH  14  15
ENDBRANCH  13  14
ENDBRANCH  12  13
ENDBRANCH  11  12
ENDBRANCH   1  11
TORSDOF 14
ENDMDL
MODEL 7
REMARK VINA RESULT:    -4.399      1.700      2.616
REMARK INTER + INTRA:         -10.011
REMARK INTER:                  -7.732
REMARK INTRA:                  -2.278
REMARK UNBOUND:                -2.011
REMARK SMILES CCCCCCCCCCCCCCCC(=O)[O-]
REMARK SMILES IDX 9 1 10 2 11 3 12 4 13 5 14 6 15 7 16 8 17 9 18 10 8 11 7 12
REMARK SMILES IDX 6 13 5 14 4 15 3 16 2 17 1 18
REMARK H PARENT
REMARK Flexibility Score: inf
ROOT
ATOM      1  C   UNL     1      16.387 -34.471  19.666  1.00  0.00     0.000 C 
ENDROOT
BRANCH   1   2
ATOM      2  C   UNL     1      15.003 -34.192  20.279  1.00  0.00     0.000 C 
BRANCH   2   3
ATOM      3  C   UNL     1      14.990 -32.949  21.182  1.00  0.00     0.000 C 
BRANCH   3   4
ATOM      4  C   UNL     1      14.944 -33.296  22.680  1.00  0.00     0.000 C 
BRANCH   4   5
ATOM      5  C   UNL     1      15.599 -32.260  23.617  1.00  0.00     0.000 C 
BRANCH   5   6
ATOM      6  C   UNL     1      15.048 -30.825  23.497  1.00  0.00     0.006 C 
BRANCH   6   7
ATOM      7  C   UNL     1      13.613 -30.652  24.019  1.00  0.00     0.053 C 
BRANCH   7   8
ATOM      8  C   UNL     1      12.715 -30.035  22.992  1.00  0.00     0.041 C 
ATOM      9  O   UNL     1      12.270 -28.869  23.157  1.00  0.00    -0.550 OA
ATOM     10  O   UNL     1      12.343 -30.761  21.868  1.00  0.00    -0.550 OA
ENDBRANCH   7   8
ENDBRANCH   6   7
ENDBRANCH   5   6
ENDBRANCH   4   5
ENDBRANCH   3   4
ENDBRANCH   2   3
ENDBRANCH   1   2
BRANCH   1  11
ATOM     11  C   UNL     1      16.751 -35.970  19.617  1.00  0.00     0.000 C 
BRANCH  11  12
ATOM     12  C   UNL     1      17.921 -36.312  20.558  1.00  0.00    -0.000 C 
BRANCH  12  13
ATOM     13  C   UNL     1      17.651 -35.904  22.015  1.00  0.00    -0.000 C 
BRANCH  13  14
ATOM     14  C   UNL     1      18.898 -35.325  22.706  1.00  0.00    -0.000 C 
BRANCH  14  15
ATOM     15  C   UNL     1      19.498 -34.126  21.949  1.00  0.00    -0.000 C 
BRANCH  15  16
ATOM     16  C   UNL     1      18.739 -32.794  22.118  1.00  0.00    -0.000 C 
BRANCH  16  17
ATOM     17  C   UNL     1      18.740 -31.884  20.877  1.00  0.00    -0.003 C 
ATOM     18  C   UNL     1      17.900 -30.621  21.064  1.00  0.00     0.004 C 
ENDBRANCH  16  17
ENDBRANCH  15  16
ENDBRANCH  14  15
ENDBRANCH  13  14
ENDBRANCH  12  13
ENDBRANCH  11  12
ENDBRANCH   1  11
TORSDOF 14
ENDMDL
MODEL 8
REMARK VINA RESULT:    -4.376      1.378      3.829
REMARK INTER + INTRA:          -9.969
REMARK INTER:                  -7.889
REMARK INTRA:                  -2.080
REMARK UNBOUND:                -2.011
REMARK SMILES CCCCCCCCCCCCCCCC(=O)[O-]
REMARK SMILES IDX 9 1 10 2 11 3 12 4 13 5 14 6 15 7 16 8 17 9 18 10 8 11 7 12
REMARK SMILES IDX 6 13 5 14 4 15 3 16 2 17 1 18
REMARK H PARENT
REMARK Flexibility Score: inf
ROOT
ATOM      1  C   UNL     1      18.115 -32.264  20.552  1.00  0.00     0.000 C 
ENDROOT
BRANCH   1   2
ATOM      2  C   UNL     1      18.510 -32.097  22.030  1.00  0.00     0.000 C 
BRANCH   2   3
ATOM      3  C   UNL     1      18.285 -30.669  22.550  1.00  0.00     0.000 C 
BRANCH   3   4
ATOM      4  C   UNL     1      16.877 -30.459  23.135  1.00  0.00     0.000 C 
BRANCH   4   5
ATOM      5  C   UNL     1      15.948 -29.550  22.305  1.00  0.00     0.000 C 
BRANCH   5   6
ATOM      6  C   UNL     1      14.744 -28.964  23.072  1.00  0.00     0.006 C 
BRANCH   6   7
ATOM      7  C   UNL     1      13.729 -30.012  23.552  1.00  0.00     0.053 C 
BRANCH   7   8
ATOM      8  C   UNL     1      12.400 -29.853  22.880  1.00  0.00     0.041 C 
ATOM      9  O   UNL     1      11.627 -28.919  23.219  1.00  0.00    -0.550 OA
ATOM     10  O   UNL     1      12.003 -30.756  21.903  1.00  0.00    -0.550 OA
ENDBRANCH   7   8
ENDBRANCH   6   7
ENDBRANCH   5   6
ENDBRANCH   4   5
ENDBRANCH   3   4
ENDBRANCH   2   3
ENDBRANCH   1   2
BRANCH   1  11
ATOM     11  C   UNL     1      18.313 -33.699  20.017  1.00  0.00     0.000 C 
BRANCH  11  12
ATOM     12  C   UNL     1      17.161 -34.135  19.093  1.00  0.00    -0.000 C 
BRANCH  12  13
ATOM     13  C   UNL     1      16.000 -34.792  19.858  1.00  0.00    -0.000 C 
BRANCH  13  14
ATOM     14  C   UNL     1      14.775 -33.870  19.977  1.00  0.00    -0.000 C 
BRANCH  14  15
ATOM     15  C   UNL     1      14.626 -33.252  21.379  1.00  0.00    -0.000 C 
BRANCH  15  16
ATOM     16  C   UNL     1      15.402 -33.971  22.501  1.00  0.00    -0.000 C 
BRANCH  16  17
ATOM     17  C   UNL     1      15.055 -33.513  23.929  1.00  0.00    -0.003 C 
ATOM     18  C   UNL     1      16.164 -33.812  24.936  1.00  0.00     0.004 C 
ENDBRANCH  16  17
ENDBRANCH  15  16
ENDBRANCH  14  15
ENDBRANCH  13  14
ENDBRANCH  12  13
ENDBRANCH  11  12
ENDBRANCH   1  11
TORSDOF 14
ENDMDL
MODEL 9
REMARK VINA RESULT:    -4.372      3.044      6.035
REMARK INTER + INTRA:          -9.961
REMARK INTER:                  -7.841
REMARK INTRA:                  -2.120
REMARK UNBOUND:                -2.011
REMARK SMILES CCCCCCCCCCCCCCCC(=O)[O-]
REMARK SMILES IDX 9 1 10 2 11 3 12 4 13 5 14 6 15 7 16 8 17 9 18 10 8 11 7 12
REMARK SMILES IDX 6 13 5 14 4 15 3 16 2 17 1 18
REMARK H PARENT
REMARK Flexibility Score: inf
ROOT
ATOM      1  C   UNL     1      16.976 -30.115  23.190  1.00  0.00     0.000 C 
ENDROOT
BRANCH   1   2
ATOM      2  C   UNL     1      18.081 -29.718  22.195  1.00  0.00     0.000 C 
BRANCH   2   3
ATOM      3  C   UNL     1      18.017 -30.515  20.883  1.00  0.00     0.000 C 
BRANCH   3   4
ATOM      4  C   UNL     1      17.652 -31.995  21.098  1.00  0.00     0.000 C 
BRANCH   4   5
ATOM      5  C   UNL     1      18.806 -32.995  20.879  1.00  0.00     0.000 C 
BRANCH   5   6
ATOM      6  C   UNL     1      18.463 -34.213  19.997  1.00  0.00     0.006 C 
BRANCH   6   7
ATOM      7  C   UNL     1      17.157 -34.068  19.201  1.00  0.00     0.053 C 
BRANCH   7   8
ATOM      8  C   UNL     1      16.087 -34.986  19.709  1.00  0.00     0.041 C 
ATOM      9  O   UNL     1      15.020 -34.514  20.183  1.00  0.00    -0.550 OA
ATOM     10  O   UNL     1      16.284 -36.360  19.689  1.00  0.00    -0.550 OA
ENDBRANCH   7   8
ENDBRANCH   6   7
ENDBRANCH   5   6
ENDBRANCH   4   5
ENDBRANCH   3   4
ENDBRANCH   2   3
ENDBRANCH   1   2
BRANCH   1  11
ATOM     11  C   UNL     1      15.742 -29.188  23.147  1.00  0.00     0.000 C 
BRANCH  11  12
ATOM     12  C   UNL     1      14.810 -29.521  21.967  1.00  0.00    -0.000 C 
BRANCH  12  13
ATOM     13  C   UNL     1      14.113 -30.881  22.125  1.00  0.00    -0.000 C 
BRANCH  13  14
ATOM     14  C   UNL     1      13.441 -31.045  23.499  1.00  0.00    -0.000 C 
BRANCH  14  15
ATOM     15  C   UNL     1      13.883 -32.326  24.231  1.00  0.00    -0.000 C 
BRANCH  15  16
ATOM     16  C   UNL     1      14.832 -33.245  23.435  1.00  0.00    -0.000 C 
BRANCH  16  17
ATOM     17  C   UNL     1      16.121 -33.645  24.174  1.00  0.00    -0.003 C 
ATOM     18  C   UNL     1      16.874 -34.783  23.484  1.00  0.00     0.004 C 
ENDBRANCH  16  17
ENDBRANCH  15  16
ENDBRANCH  14  15
ENDBRANCH  13  14
ENDBRANCH  12  13
ENDBRANCH  11  12
ENDBRANCH   1  11
TORSDOF 14
ENDMDL
