MODEL 1
REMARK VINA RESULT:    -3.937      0.000      0.000
REMARK INTER + INTRA:          -8.759
REMARK INTER:                  -7.160
REMARK INTRA:                  -1.600
REMARK UNBOUND:                -1.600
REMARK SMILES CCCCCCCCCCCCCCCC(=O)[O-]
REMARK SMILES IDX 9 1 10 2 11 3 12 4 13 5 14 6 15 7 16 8 17 9 18 10 8 11 7 12
REMARK SMILES IDX 6 13 5 14 4 15 3 16 2 17 1 18
REMARK H PARENT
REMARK Flexibility Score: inf
ROOT
ATOM      1  C   UNL     1     126.768 120.784 117.750  1.00  0.00     0.000 C 
ENDROOT
BRANCH   1   2
ATOM      2  C   UNL     1     127.966 120.477 118.666  1.00  0.00     0.000 C 
BRANCH   2   3
ATOM      3  C   UNL     1     129.306 120.956 118.079  1.00  0.00     0.000 C 
BRANCH   3   4
ATOM      4  C   UNL     1     130.342 119.824 117.976  1.00  0.00     0.000 C 
BRANCH   4   5
ATOM      5  C   UNL     1     131.655 120.156 118.701  1.00  0.00     0.000 C 
BRANCH   5   6
ATOM      6  C   UNL     1     131.409 120.391 120.199  1.00  0.00     0.006 C 
BRANCH   6   7
ATOM      7  C   UNL     1     132.386 121.413 120.796  1.00  0.00     0.053 C 
BRANCH   7   8
ATOM      8  C   UNL     1     131.832 122.804 120.752  1.00  0.00     0.041 C 
ATOM      9  O   UNL     1     132.603 123.787 120.595  1.00  0.00    -0.550 OA
ATOM     10  O   UNL     1     130.469 123.018 120.918  1.00  0.00    -0.550 OA
ENDBRANCH   7   8
ENDBRANCH   6   7
ENDBRANCH   5   6
ENDBRANCH   4   5
ENDBRANCH   3   4
ENDBRANCH   2   3
ENDBRANCH   1   2
BRANCH   1  11
ATOM     11  C   UNL     1     125.671 119.704 117.728  1.00  0.00     0.000 C 
BRANCH  11  12
ATOM     12  C   UNL     1     124.280 120.272 117.394  1.00  0.00    -0.000 C 
BRANCH  12  13
ATOM     13  C   UNL     1     124.332 121.752 116.983  1.00  0.00    -0.000 C 
BRANCH  13  14
ATOM     14  C   UNL     1     123.418 122.636 117.850  1.00  0.00    -0.000 C 
BRANCH  14  15
ATOM     15  C   UNL     1     122.798 121.868 119.028  1.00  0.00    -0.000 C 
BRANCH  15  16
ATOM     16  C   UNL     1     123.258 122.406 120.392  1.00  0.00    -0.000 C 
BRANCH  16  17
ATOM     17  C   UNL     1     124.699 121.978 120.692  1.00  0.00    -0.003 C 
ATOM     18  C   UNL     1     124.750 120.541 121.204  1.00  0.00     0.004 C 
ENDBRANCH  16  17
ENDBRANCH  15  16
ENDBRANCH  14  15
ENDBRANCH  13  14
ENDBRANCH  12  13
ENDBRANCH  11  12
ENDBRANCH   1  11
TORSDOF 14
ENDMDL
MODEL 2
REMARK VINA RESULT:    -3.856      3.272      7.356
REMARK INTER + INTRA:          -8.611
REMARK INTER:                  -6.778
REMARK INTRA:                  -1.833
REMARK UNBOUND:                -1.600
REMARK SMILES CCCCCCCCCCCCCCCC(=O)[O-]
REMARK SMILES IDX 9 1 10 2 11 3 12 4 13 5 14 6 15 7 16 8 17 9 18 10 8 11 7 12
REMARK SMILES IDX 6 13 5 14 4 15 3 16 2 17 1 18
REMARK H PARENT
REMARK Flexibility Score: inf
ROOT
ATOM      1  C   UNL     1     128.570 120.126 120.813  1.00  0.00     0.000 C 
ENDROOT
BRANCH   1   2
ATOM      2  C   UNL     1     128.503 119.325 119.500  1.00  0.00     0.000 C 
BRANCH   2   3
ATOM      3  C   UNL     1     128.118 120.193 118.288  1.00  0.00     0.000 C 
BRANCH   3   4
ATOM      4  C   UNL     1     126.743 119.819 117.709  1.00  0.00     0.000 C 
BRANCH   4   5
ATOM      5  C   UNL     1     125.697 120.926 117.908  1.00  0.00     0.000 C 
BRANCH   5   6
ATOM      6  C   UNL     1     124.941 120.733 119.231  1.00  0.00     0.006 C 
BRANCH   6   7
ATOM      7  C   UNL     1     124.189 121.999 119.663  1.00  0.00     0.053 C 
BRANCH   7   8
ATOM      8  C   UNL     1     123.004 122.269 118.786  1.00  0.00     0.041 C 
ATOM      9  O   UNL     1     122.134 121.378 118.605  1.00  0.00    -0.550 OA
ATOM     10  O   UNL     1     122.879 123.494 118.142  1.00  0.00    -0.550 OA
ENDBRANCH   7   8
ENDBRANCH   6   7
ENDBRANCH   5   6
ENDBRANCH   4   5
ENDBRANCH   3   4
ENDBRANCH   2   3
ENDBRANCH   1   2
BRANCH   1  11
ATOM     11  C   UNL     1     128.229 121.622 120.682  1.00  0.00     0.000 C 
BRANCH  11  12
ATOM     12  C   UNL     1     129.407 122.538 121.059  1.00  0.00    -0.000 C 
BRANCH  12  13
ATOM     13  C   UNL     1     130.622 122.342 120.138  1.00  0.00    -0.000 C 
BRANCH  13  14
ATOM     14  C   UNL     1     131.957 122.441 120.897  1.00  0.00    -0.000 C 
BRANCH  14  15
ATOM     15  C   UNL     1     132.890 121.255 120.608  1.00  0.00    -0.000 C 
BRANCH  15  16
ATOM     16  C   UNL     1     132.180 119.899 120.733  1.00  0.00    -0.000 C 
BRANCH  16  17
ATOM     17  C   UNL     1     132.803 118.865 119.789  1.00  0.00    -0.003 C 
ATOM     18  C   UNL     1     132.155 118.918 118.407  1.00  0.00     0.004 C 
ENDBRANCH  16  17
ENDBRANCH  15  16
ENDBRANCH  14  15
ENDBRANCH  13  14
ENDBRANCH  12  13
ENDBRANCH  11  12
ENDBRANCH   1  11
TORSDOF 14
ENDMDL
MODEL 3
REMARK VINA RESULT:    -3.825      2.005      2.703
REMARK INTER + INTRA:          -8.556
REMARK INTER:                  -7.117
REMARK INTRA:                  -1.438
REMARK UNBOUND:                -1.600
REMARK SMILES CCCCCCCCCCCCCCCC(=O)[O-]
REMARK SMILES IDX 9 1 10 2 11 3 12 4 13 5 14 6 15 7 16 8 17 9 18 10 8 11 7 12
REMARK SMILES IDX 6 13 5 14 4 15 3 16 2 17 1 18
REMARK H PARENT
REMARK Flexibility Score: inf
ROOT
ATOM      1  C   UNL     1     127.721 120.165 118.240  1.00  0.00     0.000 C 
ENDROOT
BRANCH   1   2
ATOM      2  C   UNL     1     128.870 121.040 118.772  1.00  0.00     0.000 C 
BRANCH   2   3
ATOM      3  C   UNL     1     128.703 121.409 120.257  1.00  0.00     0.000 C 
BRANCH   3   4
ATOM      4  C   UNL     1     129.830 122.321 120.768  1.00  0.00     0.000 C 
BRANCH   4   5
ATOM      5  C   UNL     1     131.130 122.163 119.964  1.00  0.00     0.000 C 
BRANCH   5   6
ATOM      6  C   UNL     1     132.159 121.333 120.745  1.00  0.00     0.006 C 
BRANCH   6   7
ATOM      7  C   UNL     1     132.623 120.095 119.964  1.00  0.00     0.053 C 
BRANCH   7   8
ATOM      8  C   UNL     1     132.088 118.829 120.560  1.00  0.00     0.041 C 
ATOM      9  O   UNL     1     130.998 118.836 121.189  1.00  0.00    -0.550 OA
ATOM     10  O   UNL     1     132.811 117.647 120.450  1.00  0.00    -0.550 OA
ENDBRANCH   7   8
ENDBRANCH   6   7
ENDBRANCH   5   6
ENDBRANCH   4   5
ENDBRANCH   3   4
ENDBRANCH   2   3
ENDBRANCH   1   2
BRANCH   1  11
ATOM     11  C   UNL     1     126.310 120.742 118.451  1.00  0.00     0.000 C 
BRANCH  11  12
ATOM     12  C   UNL     1     125.198 119.788 117.982  1.00  0.00    -0.000 C 
BRANCH  12  13
ATOM     13  C   UNL     1     124.270 120.432 116.939  1.00  0.00    -0.000 C 
BRANCH  13  14
ATOM     14  C   UNL     1     124.388 121.966 116.914  1.00  0.00    -0.000 C 
BRANCH  14  15
ATOM     15  C   UNL     1     123.118 122.665 117.423  1.00  0.00    -0.000 C 
BRANCH  15  16
ATOM     16  C   UNL     1     123.230 123.098 118.893  1.00  0.00    -0.000 C 
BRANCH  16  17
ATOM     17  C   UNL     1     122.633 122.036 119.824  1.00  0.00    -0.003 C 
ATOM     18  C   UNL     1     123.607 121.675 120.943  1.00  0.00     0.004 C 
ENDBRANCH  16  17
ENDBRANCH  15  16
ENDBRANCH  14  15
ENDBRANCH  13  14
ENDBRANCH  12  13
ENDBRANCH  11  12
ENDBRANCH   1  11
TORSDOF 14
ENDMDL
MODEL 4
REMARK VINA RESULT:    -3.792      1.524      2.503
REMARK INTER + INTRA:          -8.495
REMARK INTER:                  -6.588
REMARK INTRA:                  -1.907
REMARK UNBOUND:                -1.600
REMARK SMILES CCCCCCCCCCCCCCCC(=O)[O-]
REMARK SMILES IDX 9 1 10 2 11 3 12 4 13 5 14 6 15 7 16 8 17 9 18 10 8 11 7 12
REMARK SMILES IDX 6 13 5 14 4 15 3 16 2 17 1 18
REMARK H PARENT
REMARK Flexibility Score: inf
ROOT
ATOM      1  C   UNL     1     124.393 120.009 117.381  1.00  0.00     0.000 C 
ENDROOT
BRANCH   1   2
ATOM      2  C   UNL     1     125.674 120.840 117.574  1.00  0.00     0.000 C 
BRANCH   2   3
ATOM      3  C   UNL     1     126.873 119.994 118.035  1.00  0.00     0.000 C 
BRANCH   3   4
ATOM      4  C   UNL     1     128.172 120.813 118.130  1.00  0.00     0.000 C 
BRANCH   4   5
ATOM      5  C   UNL     1     128.627 121.034 119.580  1.00  0.00     0.000 C 
BRANCH   5   6
ATOM      6  C   UNL     1     130.057 121.593 119.626  1.00  0.00     0.006 C 
BRANCH   6   7
ATOM      7  C   UNL     1     131.108 120.534 119.262  1.00  0.00     0.053 C 
BRANCH   7   8
ATOM      8  C   UNL     1     131.969 120.179 120.436  1.00  0.00     0.041 C 
ATOM      9  O   UNL     1     132.842 120.987 120.847  1.00  0.00    -0.550 OA
ATOM     10  O   UNL     1     131.830 118.942 121.052  1.00  0.00    -0.550 OA
ENDBRANCH   7   8
ENDBRANCH   6   7
ENDBRANCH   5   6
ENDBRANCH   4   5
ENDBRANCH   3   4
ENDBRANCH   2   3
ENDBRANCH   1   2
BRANCH   1  11
ATOM     11  C   UNL     1     123.077 120.778 117.597  1.00  0.00     0.000 C 
BRANCH  11  12
ATOM     12  C   UNL     1     123.251 122.303 117.484  1.00  0.00    -0.000 C 
BRANCH  12  13
ATOM     13  C   UNL     1     123.086 123.015 118.835  1.00  0.00    -0.000 C 
BRANCH  13  14
ATOM     14  C   UNL     1     122.264 122.189 119.840  1.00  0.00    -0.000 C 
BRANCH  14  15
ATOM     15  C   UNL     1     123.067 121.819 121.097  1.00  0.00    -0.000 C 
BRANCH  15  16
ATOM     16  C   UNL     1     124.571 122.092 120.940  1.00  0.00    -0.000 C 
BRANCH  16  17
ATOM     17  C   UNL     1     125.395 120.861 121.334  1.00  0.00    -0.003 C 
ATOM     18  C   UNL     1     124.606 119.574 121.103  1.00  0.00     0.004 C 
ENDBRANCH  16  17
ENDBRANCH  15  16
ENDBRANCH  14  15
ENDBRANCH  13  14
ENDBRANCH  12  13
ENDBRANCH  11  12
ENDBRANCH   1  11
TORSDOF 14
ENDMDL
MODEL 5
REMARK VINA RESULT:    -3.788      3.426      7.512
REMARK INTER + INTRA:          -8.489
REMARK INTER:                  -7.229
REMARK INTRA:                  -1.260
REMARK UNBOUND:                -1.600
REMARK SMILES CCCCCCCCCCCCCCCC(=O)[O-]
REMARK SMILES IDX 9 1 10 2 11 3 12 4 13 5 14 6 15 7 16 8 17 9 18 10 8 11 7 12
REMARK SMILES IDX 6 13 5 14 4 15 3 16 2 17 1 18
REMARK H PARENT
REMARK Flexibility Score: inf
ROOT
ATOM      1  C   UNL     1     125.952 119.742 117.950  1.00  0.00     0.000 C 
ENDROOT
BRANCH   1   2
ATOM      2  C   UNL     1     124.565 119.986 117.330  1.00  0.00     0.000 C 
BRANCH   2   3
ATOM      3  C   UNL     1     124.300 121.470 117.022  1.00  0.00     0.000 C 
BRANCH   3   4
ATOM      4  C   UNL     1     122.919 121.937 117.514  1.00  0.00     0.000 C 
BRANCH   4   5
ATOM      5  C   UNL     1     123.011 123.072 118.545  1.00  0.00     0.000 C 
BRANCH   5   6
ATOM      6  C   UNL     1     123.369 122.521 119.934  1.00  0.00     0.006 C 
BRANCH   6   7
ATOM      7  C   UNL     1     122.381 121.447 120.408  1.00  0.00     0.053 C 
BRANCH   7   8
ATOM      8  C   UNL     1     121.568 121.915 121.577  1.00  0.00     0.041 C 
ATOM      9  O   UNL     1     122.116 122.097 122.696  1.00  0.00    -0.550 OA
ATOM     10  O   UNL     1     120.201 122.118 121.438  1.00  0.00    -0.550 OA
ENDBRANCH   7   8
ENDBRANCH   6   7
ENDBRANCH   5   6
ENDBRANCH   4   5
ENDBRANCH   3   4
ENDBRANCH   2   3
ENDBRANCH   1   2
BRANCH   1  11
ATOM     11  C   UNL     1     126.237 120.528 119.243  1.00  0.00     0.000 C 
BRANCH  11  12
ATOM     12  C   UNL     1     127.726 120.876 119.415  1.00  0.00    -0.000 C 
BRANCH  12  13
ATOM     13  C   UNL     1     128.507 120.789 118.094  1.00  0.00    -0.000 C 
BRANCH  13  14
ATOM     14  C   UNL     1     130.029 120.726 118.314  1.00  0.00    -0.000 C 
BRANCH  14  15
ATOM     15  C   UNL     1     130.420 120.886 119.791  1.00  0.00    -0.000 C 
BRANCH  15  16
ATOM     16  C   UNL     1     131.938 121.007 119.991  1.00  0.00    -0.000 C 
BRANCH  16  17
ATOM     17  C   UNL     1     132.278 122.191 120.903  1.00  0.00    -0.003 C 
ATOM     18  C   UNL     1     131.206 123.274 120.822  1.00  0.00     0.004 C 
ENDBRANCH  16  17
ENDBRANCH  15  16
ENDBRANCH  14  15
ENDBRANCH  13  14
ENDBRANCH  12  13
ENDBRANCH  11  12
ENDBRANCH   1  11
TORSDOF 14
ENDMDL
MODEL 6
REMARK VINA RESULT:    -3.745      9.709     11.806
REMARK INTER + INTRA:          -8.409
REMARK INTER:                  -6.365
REMARK INTRA:                  -2.044
REMARK UNBOUND:                -1.600
REMARK SMILES CCCCCCCCCCCCCCCC(=O)[O-]
REMARK SMILES IDX 9 1 10 2 11 3 12 4 13 5 14 6 15 7 16 8 17 9 18 10 8 11 7 12
REMARK SMILES IDX 6 13 5 14 4 15 3 16 2 17 1 18
REMARK H PARENT
REMARK Flexibility Score: inf
ROOT
ATOM      1  C   UNL     1     124.230 127.406 125.122  1.00  0.00     0.000 C 
ENDROOT
BRANCH   1   2
ATOM      2  C   UNL     1     123.301 127.929 126.232  1.00  0.00     0.000 C 
BRANCH   2   3
ATOM      3  C   UNL     1     122.036 128.611 125.681  1.00  0.00     0.000 C 
BRANCH   3   4
ATOM      4  C   UNL     1     122.243 129.189 124.271  1.00  0.00     0.000 C 
BRANCH   4   5
ATOM      5  C   UNL     1     122.724 130.648 124.293  1.00  0.00     0.000 C 
BRANCH   5   6
ATOM      6  C   UNL     1     123.641 130.940 123.096  1.00  0.00     0.006 C 
BRANCH   6   7
ATOM      7  C   UNL     1     123.435 129.945 121.947  1.00  0.00     0.053 C 
BRANCH   7   8
ATOM      8  C   UNL     1     123.688 130.576 120.612  1.00  0.00     0.041 C 
ATOM      9  O   UNL     1     124.464 130.024 119.788  1.00  0.00    -0.550 OA
ATOM     10  O   UNL     1     123.094 131.790 120.291  1.00  0.00    -0.550 OA
ENDBRANCH   7   8
ENDBRANCH   6   7
ENDBRANCH   5   6
ENDBRANCH   4   5
ENDBRANCH   3   4
ENDBRANCH   2   3
ENDBRANCH   1   2
BRANCH   1  11
ATOM     11  C   UNL     1     125.613 128.079 125.058  1.00  0.00     0.000 C 
BRANCH  11  12
ATOM     12  C   UNL     1     126.026 128.724 126.393  1.00  0.00    -0.000 C 
BRANCH  12  13
ATOM     13  C   UNL     1     127.364 128.181 126.920  1.00  0.00    -0.000 C 
BRANCH  13  14
ATOM     14  C   UNL     1     127.265 126.714 127.375  1.00  0.00    -0.000 C 
BRANCH  14  15
ATOM     15  C   UNL     1     126.528 126.560 128.714  1.00  0.00    -0.000 C 
BRANCH  15  16
ATOM     16  C   UNL     1     125.185 125.827 128.569  1.00  0.00    -0.000 C 
BRANCH  16  17
ATOM     17  C   UNL     1     124.146 126.390 129.545  1.00  0.00    -0.003 C 
ATOM     18  C   UNL     1     124.329 127.893 129.738  1.00  0.00     0.004 C 
ENDBRANCH  16  17
ENDBRANCH  15  16
ENDBRANCH  14  15
ENDBRANCH  13  14
ENDBRANCH  12  13
ENDBRANCH  11  12
ENDBRANCH   1  11
TORSDOF 14
ENDMDL
MODEL 7
REMARK VINA RESULT:    -3.738      3.531      6.504
REMARK INTER + INTRA:          -8.397
REMARK INTER:                  -5.604
REMARK INTRA:                  -2.793
REMARK UNBOUND:                -1.600
REMARK SMILES CCCCCCCCCCCCCCCC(=O)[O-]
REMARK SMILES IDX 9 1 10 2 11 3 12 4 13 5 14 6 15 7 16 8 17 9 18 10 8 11 7 12
REMARK SMILES IDX 6 13 5 14 4 15 3 16 2 17 1 18
REMARK H PARENT
REMARK Flexibility Score: inf
ROOT
ATOM      1  C   UNL     1     129.558 121.410 119.731  1.00  0.00     0.000 C 
ENDROOT
BRANCH   1   2
ATOM      2  C   UNL     1     128.283 121.719 120.535  1.00  0.00     0.000 C 
BRANCH   2   3
ATOM      3  C   UNL     1     127.917 120.604 121.530  1.00  0.00     0.000 C 
BRANCH   3   4
ATOM      4  C   UNL     1     126.438 120.191 121.436  1.00  0.00     0.000 C 
BRANCH   4   5
ATOM      5  C   UNL     1     125.542 121.321 120.907  1.00  0.00     0.000 C 
BRANCH   5   6
ATOM      6  C   UNL     1     124.475 120.769 119.949  1.00  0.00     0.006 C 
BRANCH   6   7
ATOM      7  C   UNL     1     124.269 121.671 118.725  1.00  0.00     0.053 C 
BRANCH   7   8
ATOM      8  C   UNL     1     122.998 122.458 118.820  1.00  0.00     0.041 C 
ATOM      9  O   UNL     1     122.195 122.251 119.768  1.00  0.00    -0.550 OA
ATOM     10  O   UNL     1     122.683 123.396 117.844  1.00  0.00    -0.550 OA
ENDBRANCH   7   8
ENDBRANCH   6   7
ENDBRANCH   5   6
ENDBRANCH   4   5
ENDBRANCH   3   4
ENDBRANCH   2   3
ENDBRANCH   1   2
BRANCH   1  11
ATOM     11  C   UNL     1     129.318 120.811 118.333  1.00  0.00     0.000 C 
BRANCH  11  12
ATOM     12  C   UNL     1     127.833 120.813 117.929  1.00  0.00    -0.000 C 
BRANCH  12  13
ATOM     13  C   UNL     1     127.262 119.394 117.777  1.00  0.00    -0.000 C 
BRANCH  13  14
ATOM     14  C   UNL     1     128.248 118.310 118.244  1.00  0.00    -0.000 C 
BRANCH  14  15
ATOM     15  C   UNL     1     127.689 117.458 119.394  1.00  0.00    -0.000 C 
BRANCH  15  16
ATOM     16  C   UNL     1     128.732 117.181 120.486  1.00  0.00    -0.000 C 
BRANCH  16  17
ATOM     17  C   UNL     1     130.132 117.604 120.027  1.00  0.00    -0.003 C 
ATOM     18  C   UNL     1     130.869 118.358 121.131  1.00  0.00     0.004 C 
ENDBRANCH  16  17
ENDBRANCH  15  16
ENDBRANCH  14  15
ENDBRANCH  13  14
ENDBRANCH  12  13
ENDBRANCH  11  12
ENDBRANCH   1  11
TORSDOF 14
ENDMDL
MODEL 8
REMARK VINA RESULT:    -3.736      3.028      7.136
REMARK INTER + INTRA:          -8.393
REMARK INTER:                  -6.969
REMARK INTRA:                  -1.424
REMARK UNBOUND:                -1.600
REMARK SMILES CCCCCCCCCCCCCCCC(=O)[O-]
REMARK SMILES IDX 9 1 10 2 11 3 12 4 13 5 14 6 15 7 16 8 17 9 18 10 8 11 7 12
REMARK SMILES IDX 6 13 5 14 4 15 3 16 2 17 1 18
REMARK H PARENT
REMARK Flexibility Score: inf
ROOT
ATOM      1  C   UNL     1     125.453 119.702 117.753  1.00  0.00     0.000 C 
ENDROOT
BRANCH   1   2
ATOM      2  C   UNL     1     124.170 120.399 117.266  1.00  0.00     0.000 C 
BRANCH   2   3
ATOM      3  C   UNL     1     124.386 121.886 116.935  1.00  0.00     0.000 C 
BRANCH   3   4
ATOM      4  C   UNL     1     123.384 122.802 117.657  1.00  0.00     0.000 C 
BRANCH   4   5
ATOM      5  C   UNL     1     122.795 122.156 118.920  1.00  0.00     0.000 C 
BRANCH   5   6
ATOM      6  C   UNL     1     123.605 122.547 120.165  1.00  0.00     0.006 C 
BRANCH   6   7
ATOM      7  C   UNL     1     123.569 121.461 121.248  1.00  0.00     0.053 C 
BRANCH   7   8
ATOM      8  C   UNL     1     122.849 121.924 122.478  1.00  0.00     0.041 C 
ATOM      9  O   UNL     1     121.802 121.336 122.857  1.00  0.00    -0.550 OA
ATOM     10  O   UNL     1     123.314 123.027 123.184  1.00  0.00    -0.550 OA
ENDBRANCH   7   8
ENDBRANCH   6   7
ENDBRANCH   5   6
ENDBRANCH   4   5
ENDBRANCH   3   4
ENDBRANCH   2   3
ENDBRANCH   1   2
BRANCH   1  11
ATOM     11  C   UNL     1     126.667 120.629 117.944  1.00  0.00     0.000 C 
BRANCH  11  12
ATOM     12  C   UNL     1     127.119 120.727 119.412  1.00  0.00    -0.000 C 
BRANCH  12  13
ATOM     13  C   UNL     1     128.595 121.133 119.547  1.00  0.00    -0.000 C 
BRANCH  13  14
ATOM     14  C   UNL     1     129.422 120.770 118.302  1.00  0.00    -0.000 C 
BRANCH  14  15
ATOM     15  C   UNL     1     130.936 120.845 118.556  1.00  0.00    -0.000 C 
BRANCH  15  16
ATOM     16  C   UNL     1     131.277 121.042 120.041  1.00  0.00    -0.000 C 
BRANCH  16  17
ATOM     17  C   UNL     1     132.151 119.894 120.559  1.00  0.00    -0.003 C 
ATOM     18  C   UNL     1     131.295 118.750 121.097  1.00  0.00     0.004 C 
ENDBRANCH  16  17
ENDBRANCH  15  16
ENDBRANCH  14  15
ENDBRANCH  13  14
ENDBRANCH  12  13
ENDBRANCH  11  12
ENDBRANCH   1  11
TORSDOF 14
ENDMDL
MODEL 9
REMARK VINA RESULT:    -3.718      3.110      6.875
REMARK INTER + INTRA:          -8.361
REMARK INTER:                  -6.829
REMARK INTRA:                  -1.532
REMARK UNBOUND:                -1.600
REMARK SMILES CCCCCCCCCCCCCCCC(=O)[O-]
REMARK SMILES IDX 9 1 10 2 11 3 12 4 13 5 14 6 15 7 16 8 17 9 18 10 8 11 7 12
REMARK SMILES IDX 6 13 5 14 4 15 3 16 2 17 1 18
REMARK H PARENT
REMARK Flexibility Score: inf
ROOT
ATOM      1  C   UNL     1     127.156 118.568 117.402  1.00  0.00     0.000 C 
ENDROOT
BRANCH   1   2
ATOM      2  C   UNL     1     126.017 119.515 117.823  1.00  0.00     0.000 C 
BRANCH   2   3
ATOM      3  C   UNL     1     126.521 120.764 118.566  1.00  0.00     0.000 C 
BRANCH   3   4
ATOM      4  C   UNL     1     126.171 120.740 120.064  1.00  0.00     0.000 C 
BRANCH   4   5
ATOM      5  C   UNL     1     124.658 120.797 120.319  1.00  0.00     0.000 C 
BRANCH   5   6
ATOM      6  C   UNL     1     124.129 122.231 120.161  1.00  0.00     0.006 C 
BRANCH   6   7
ATOM      7  C   UNL     1     122.772 122.277 119.446  1.00  0.00     0.053 C 
BRANCH   7   8
ATOM      8  C   UNL     1     122.881 121.835 118.018  1.00  0.00     0.041 C 
ATOM      9  O   UNL     1     122.210 120.851 117.608  1.00  0.00    -0.550 OA
ATOM     10  O   UNL     1     123.747 122.487 117.150  1.00  0.00    -0.550 OA
ENDBRANCH   7   8
ENDBRANCH   6   7
ENDBRANCH   5   6
ENDBRANCH   4   5
ENDBRANCH   3   4
ENDBRANCH   2   3
ENDBRANCH   1   2
BRANCH   1  11
ATOM     11  C   UNL     1     128.456 118.711 118.215  1.00  0.00     0.000 C 
BRANCH  11  12
ATOM     12  C   UNL     1     129.719 118.491 117.364  1.00  0.00    -0.000 C 
BRANCH  12  13
ATOM     13  C   UNL     1     130.716 119.655 117.478  1.00  0.00    -0.000 C 
BRANCH  13  14
ATOM     14  C   UNL     1     130.098 120.896 118.147  1.00  0.00    -0.000 C 
BRANCH  14  15
ATOM     15  C   UNL     1     130.666 121.154 119.551  1.00  0.00    -0.000 C 
BRANCH  15  16
ATOM     16  C   UNL     1     129.718 121.986 120.428  1.00  0.00    -0.000 C 
BRANCH  16  17
ATOM     17  C   UNL     1     130.412 123.255 120.936  1.00  0.00    -0.003 C 
ATOM     18  C   UNL     1     131.922 123.179 120.720  1.00  0.00     0.004 C 
ENDBRANCH  16  17
ENDBRANCH  15  16
ENDBRANCH  14  15
ENDBRANCH  13  14
ENDBRANCH  12  13
ENDBRANCH  11  12
ENDBRANCH   1  11
TORSDOF 14
ENDMDL
