MODEL 1
REMARK VINA RESULT:     3.935      0.000      0.000
REMARK INTER + INTRA:           3.334
REMARK INTER:                   5.200
REMARK INTRA:                  -1.867
REMARK UNBOUND:                -1.867
REMARK SMILES CC[C@@H](C=C[C@@H](C)[C@H]1CC[C@H]2[C@H]3CC=C4C[C@@H](O)CC[C@]4(C)[C@H]3CC[C@@]12C)C(C)C
REMARK SMILES IDX 6 1 7 2 5 3 4 4 3 5 2 6 1 7 28 8 29 9 30 10 8 11 9 12 26 13
REMARK SMILES IDX 10 14 11 15 25 16 27 17 12 18 24 19 23 20 13 21 21 22 14 23
REMARK SMILES IDX 15 24 20 25 22 26 16 27 19 28 17 29 18 30
REMARK H PARENT 18 31
REMARK Flexibility Score: inf
ROOT
ATOM      1  C   UNL     1      26.705  26.278  31.024  1.00  0.00     0.012 C 
ATOM      2  C   UNL     1      26.349  26.352  32.526  1.00  0.00     0.012 C 
ENDROOT
BRANCH   1   3
ATOM      3  C   UNL     1      27.583  25.054  30.783  1.00  0.00    -0.028 C 
ATOM      4  C   UNL     1      27.723  24.402  29.617  1.00  0.00    -0.027 C 
BRANCH   4   5
ATOM      5  C   UNL     1      26.873  24.612  28.373  1.00  0.00     0.014 C 
BRANCH   5   6
ATOM      6  C   UNL     1      25.507  23.885  28.551  1.00  0.00     0.004 C 
ATOM      7  C   UNL     1      24.330  24.704  28.007  1.00  0.00     0.004 C 
ENDBRANCH   5   6
BRANCH   5   8
ATOM      8  C   UNL     1      27.647  24.178  27.082  1.00  0.00    -0.011 C 
ATOM      9  C   UNL     1      29.110  24.680  27.105  1.00  0.00     0.008 C 
ATOM     10  C   UNL     1      26.941  24.595  25.780  1.00  0.00     0.008 C 
ENDBRANCH   5   8
ENDBRANCH   4   5
ENDBRANCH   1   3
BRANCH   1  11
ATOM     11  C   UNL     1      27.352  27.632  30.547  1.00  0.00     0.002 C 
ATOM     12  C   UNL     1      28.854  27.596  30.270  1.00  0.00     0.005 C 
ATOM     13  C   UNL     1      26.718  28.398  29.331  1.00  0.00    -0.026 C 
ATOM     14  C   UNL     1      29.125  28.970  29.699  1.00  0.00     0.005 C 
ATOM     15  C   UNL     1      27.890  29.316  28.837  1.00  0.00    -0.001 C 
ATOM     16  C   UNL     1      26.231  27.447  28.215  1.00  0.00     0.007 C 
ATOM     17  C   UNL     1      25.511  29.250  29.810  1.00  0.00     0.012 C 
ATOM     18  C   UNL     1      28.159  29.321  27.291  1.00  0.00     0.000 C 
ATOM     19  C   UNL     1      25.930  28.116  26.868  1.00  0.00     0.005 C 
ATOM     20  C   UNL     1      26.815  29.355  26.518  1.00  0.00     0.003 C 
ATOM     21  C   UNL     1      29.083  28.201  26.752  1.00  0.00     0.031 C 
ATOM     22  C   UNL     1      27.033  29.550  24.962  1.00  0.00    -0.008 C 
ATOM     23  C   UNL     1      29.108  28.134  25.250  1.00  0.00    -0.027 C 
ATOM     24  C   UNL     1      28.165  28.661  24.442  1.00  0.00    -0.065 C 
ATOM     25  C   UNL     1      27.443  31.023  24.627  1.00  0.00     0.014 C 
ATOM     26  C   UNL     1      25.700  29.241  24.213  1.00  0.00     0.016 C 
ATOM     27  C   UNL     1      28.478  28.773  22.971  1.00  0.00     0.063 C 
ATOM     28  C   UNL     1      27.860  31.233  23.152  1.00  0.00     0.033 C 
ATOM     29  C   UNL     1      28.921  30.214  22.671  1.00  0.00     0.118 C 
BRANCH  29  30
ATOM     30  O   UNL     1      29.125  30.333  21.295  1.00  0.00    -0.393 OA
ATOM     31  H   UNL     1      29.330  31.287  21.126  1.00  0.00     0.210 HD
ENDBRANCH  29  30
ENDBRANCH   1  11
TORSDOF 6
ENDMDL
MODEL 2
REMARK VINA RESULT:     4.391      3.133      8.261
REMARK INTER + INTRA:           3.936
REMARK INTER:                   4.041
REMARK INTRA:                  -0.105
REMARK UNBOUND:                -1.867
REMARK SMILES CC[C@@H](C=C[C@@H](C)[C@H]1CC[C@H]2[C@H]3CC=C4C[C@@H](O)CC[C@]4(C)[C@H]3CC[C@@]12C)C(C)C
REMARK SMILES IDX 6 1 7 2 5 3 4 4 3 5 2 6 1 7 28 8 29 9 30 10 8 11 9 12 26 13
REMARK SMILES IDX 10 14 11 15 25 16 27 17 12 18 24 19 23 20 13 21 21 22 14 23
REMARK SMILES IDX 15 24 20 25 22 26 16 27 19 28 17 29 18 30
REMARK H PARENT 18 31
REMARK Flexibility Score: inf
ROOT
ATOM      1  C   UNL     1      27.820  31.311  23.067  1.00  0.00     0.012 C 
ATOM      2  C   UNL     1      28.802  31.717  21.946  1.00  0.00     0.012 C 
ENDROOT
BRANCH   1   3
ATOM      3  C   UNL     1      28.202  32.044  24.350  1.00  0.00    -0.028 C 
ATOM      4  C   UNL     1      28.098  33.366  24.563  1.00  0.00    -0.027 C 
BRANCH   4   5
ATOM      5  C   UNL     1      27.794  34.416  23.505  1.00  0.00     0.014 C 
BRANCH   5   6
ATOM      6  C   UNL     1      29.114  34.821  22.785  1.00  0.00     0.004 C 
ATOM      7  C   UNL     1      28.898  35.919  21.736  1.00  0.00     0.004 C 
ENDBRANCH   5   6
BRANCH   5   8
ATOM      8  C   UNL     1      27.023  35.631  24.124  1.00  0.00    -0.011 C 
ATOM      9  C   UNL     1      27.414  35.854  25.604  1.00  0.00     0.008 C 
ATOM     10  C   UNL     1      25.496  35.526  23.965  1.00  0.00     0.008 C 
ENDBRANCH   5   8
ENDBRANCH   4   5
ENDBRANCH   1   3
BRANCH   1  11
ATOM     11  C   UNL     1      27.775  29.744  23.216  1.00  0.00     0.002 C 
ATOM     12  C   UNL     1      29.123  29.049  23.393  1.00  0.00     0.005 C 
ATOM     13  C   UNL     1      26.826  29.103  24.291  1.00  0.00    -0.026 C 
ATOM     14  C   UNL     1      28.730  27.612  23.656  1.00  0.00     0.005 C 
ATOM     15  C   UNL     1      27.444  27.679  24.510  1.00  0.00    -0.001 C 
ATOM     16  C   UNL     1      26.781  29.913  25.607  1.00  0.00     0.007 C 
ATOM     17  C   UNL     1      25.380  29.000  23.731  1.00  0.00     0.012 C 
ATOM     18  C   UNL     1      27.633  27.229  26.001  1.00  0.00     0.000 C 
ATOM     19  C   UNL     1      26.169  29.181  26.807  1.00  0.00     0.005 C 
ATOM     20  C   UNL     1      26.392  27.634  26.839  1.00  0.00     0.003 C 
ATOM     21  C   UNL     1      28.943  27.678  26.693  1.00  0.00     0.031 C 
ATOM     22  C   UNL     1      26.448  27.040  28.305  1.00  0.00    -0.008 C 
ATOM     23  C   UNL     1      28.946  27.409  28.172  1.00  0.00    -0.027 C 
ATOM     24  C   UNL     1      27.842  27.200  28.918  1.00  0.00    -0.065 C 
ATOM     25  C   UNL     1      26.143  25.505  28.306  1.00  0.00     0.014 C 
ATOM     26  C   UNL     1      25.373  27.744  29.188  1.00  0.00     0.016 C 
ATOM     27  C   UNL     1      28.024  26.653  30.311  1.00  0.00     0.063 C 
ATOM     28  C   UNL     1      26.373  24.826  29.677  1.00  0.00     0.033 C 
ATOM     29  C   UNL     1      27.763  25.139  30.283  1.00  0.00     0.118 C 
BRANCH  29  30
ATOM     30  O   UNL     1      27.847  24.654  31.590  1.00  0.00    -0.393 OA
ATOM     31  H   UNL     1      27.948  25.447  32.175  1.00  0.00     0.210 HD
ENDBRANCH  29  30
ENDBRANCH   1  11
TORSDOF 6
ENDMDL
MODEL 3
REMARK VINA RESULT:     4.913      9.476     14.655
REMARK INTER + INTRA:           4.626
REMARK INTER:                   5.767
REMARK INTRA:                  -1.141
REMARK UNBOUND:                -1.867
REMARK SMILES CC[C@@H](C=C[C@@H](C)[C@H]1CC[C@H]2[C@H]3CC=C4C[C@@H](O)CC[C@]4(C)[C@H]3CC[C@@]12C)C(C)C
REMARK SMILES IDX 6 1 7 2 5 3 4 4 3 5 2 6 1 7 28 8 29 9 30 10 8 11 9 12 26 13
REMARK SMILES IDX 10 14 11 15 25 16 27 17 12 18 24 19 23 20 13 21 21 22 14 23
REMARK SMILES IDX 15 24 20 25 22 26 16 27 19 28 17 29 18 30
REMARK H PARENT 18 31
REMARK Flexibility Score: inf
ROOT
ATOM      1  C   UNL     1      26.477  42.990  21.347  1.00  0.00     0.012 C 
ATOM      2  C   UNL     1      25.379  43.745  20.567  1.00  0.00     0.012 C 
ENDROOT
BRANCH   1   3
ATOM      3  C   UNL     1      27.383  44.006  22.037  1.00  0.00    -0.028 C 
ATOM      4  C   UNL     1      27.652  44.057  23.352  1.00  0.00    -0.027 C 
BRANCH   4   5
ATOM      5  C   UNL     1      26.941  43.262  24.436  1.00  0.00     0.014 C 
BRANCH   5   6
ATOM      6  C   UNL     1      25.671  44.036  24.896  1.00  0.00     0.004 C 
ATOM      7  C   UNL     1      25.535  44.090  26.423  1.00  0.00     0.004 C 
ENDBRANCH   5   6
BRANCH   5   8
ATOM      8  C   UNL     1      27.918  42.912  25.610  1.00  0.00    -0.011 C 
ATOM      9  C   UNL     1      28.812  44.119  25.979  1.00  0.00     0.008 C 
ATOM     10  C   UNL     1      28.766  41.657  25.341  1.00  0.00     0.008 C 
ENDBRANCH   5   8
ENDBRANCH   4   5
ENDBRANCH   1   3
BRANCH   1  11
ATOM     11  C   UNL     1      27.242  41.997  20.394  1.00  0.00     0.002 C 
ATOM     12  C   UNL     1      28.729  41.803  20.682  1.00  0.00     0.005 C 
ATOM     13  C   UNL     1      26.666  40.554  20.168  1.00  0.00    -0.026 C 
ATOM     14  C   UNL     1      29.121  40.707  19.716  1.00  0.00     0.005 C 
ATOM     15  C   UNL     1      27.911  39.747  19.661  1.00  0.00    -0.001 C 
ATOM     16  C   UNL     1      26.074  39.939  21.456  1.00  0.00     0.007 C 
ATOM     17  C   UNL     1      25.551  40.589  19.086  1.00  0.00     0.012 C 
ATOM     18  C   UNL     1      28.157  38.355  20.343  1.00  0.00     0.000 C 
ATOM     19  C   UNL     1      25.818  38.428  21.404  1.00  0.00     0.005 C 
ATOM     20  C   UNL     1      26.811  37.606  20.521  1.00  0.00     0.003 C 
ATOM     21  C   UNL     1      28.963  38.371  21.665  1.00  0.00     0.031 C 
ATOM     22  C   UNL     1      27.022  36.122  21.031  1.00  0.00    -0.008 C 
ATOM     23  C   UNL     1      28.959  37.044  22.371  1.00  0.00    -0.027 C 
ATOM     24  C   UNL     1      28.059  36.063  22.157  1.00  0.00    -0.065 C 
ATOM     25  C   UNL     1      27.565  35.201  19.888  1.00  0.00     0.014 C 
ATOM     26  C   UNL     1      25.656  35.542  21.508  1.00  0.00     0.016 C 
ATOM     27  C   UNL     1      28.359  34.695  22.715  1.00  0.00     0.063 C 
ATOM     28  C   UNL     1      27.978  33.790  20.369  1.00  0.00     0.033 C 
ATOM     29  C   UNL     1      28.930  33.820  21.588  1.00  0.00     0.118 C 
BRANCH  29  30
ATOM     30  O   UNL     1      29.125  32.531  22.089  1.00  0.00    -0.393 OA
ATOM     31  H   UNL     1      28.511  32.436  22.860  1.00  0.00     0.210 HD
ENDBRANCH  29  30
ENDBRANCH   1  11
TORSDOF 6
ENDMDL
