MODEL 1
REMARK VINA RESULT:    -6.073      0.000      0.000
REMARK INTER + INTRA:          -6.428
REMARK INTER:                  -6.428
REMARK INTRA:                   0.000
REMARK UNBOUND:                 0.000
REMARK SMILES O=c1ccc2cc(O)c(O)cc2o1
REMARK SMILES IDX 4 1 3 2 2 3 1 4 13 5 12 6 11 7 9 8 7 9 6 10 5 11 8 12 10 14
REMARK H PARENT 8 13 10 15
REMARK Flexibility Score: inf
ROOT
ATOM      1  C   UNL     1      10.382  38.751  24.595  1.00  0.00     0.019 A 
ATOM      2  C   UNL     1      11.432  38.472  25.471  1.00  0.00     0.094 A 
ATOM      3  C   UNL     1      12.719  38.300  24.952  1.00  0.00     0.336 A 
ATOM      4  O   UNL     1      13.680  38.047  25.726  1.00  0.00    -0.246 OA
ATOM      5  O   UNL     1      12.937  38.403  23.643  1.00  0.00    -0.423 OA
ATOM      6  C   UNL     1      11.965  38.669  22.775  1.00  0.00     0.142 A 
ATOM      7  C   UNL     1      12.254  38.765  21.410  1.00  0.00     0.098 A 
ATOM      8  C   UNL     1      11.233  39.044  20.489  1.00  0.00     0.161 A 
ATOM      9  C   UNL     1       9.913  39.228  20.939  1.00  0.00     0.158 A 
ATOM     10  C   UNL     1       9.621  39.133  22.305  1.00  0.00     0.062 A 
ATOM     11  C   UNL     1      10.641  38.853  23.225  1.00  0.00     0.022 A 
ENDROOT
BRANCH   9  12
ATOM     12  O   UNL     1       8.880  39.507  20.045  1.00  0.00    -0.504 OA
ATOM     13  H   UNL     1       9.039  40.002  19.176  1.00  0.00     0.293 HD
ENDBRANCH   9  12
BRANCH   8  14
ATOM     14  O   UNL     1      11.525  39.139  19.129  1.00  0.00    -0.504 OA
ATOM     15  H   UNL     1      12.445  39.411  18.802  1.00  0.00     0.293 HD
ENDBRANCH   8  14
TORSDOF 2
ENDMDL
MODEL 2
REMARK VINA RESULT:    -6.057      2.260      5.522
REMARK INTER + INTRA:          -6.411
REMARK INTER:                  -6.411
REMARK INTRA:                   0.000
REMARK UNBOUND:                 0.000
REMARK SMILES O=c1ccc2cc(O)c(O)cc2o1
REMARK SMILES IDX 4 1 3 2 2 3 1 4 13 5 12 6 11 7 9 8 7 9 6 10 5 11 8 12 10 14
REMARK H PARENT 8 13 10 15
REMARK Flexibility Score: inf
ROOT
ATOM      1  C   UNL     1      11.792  40.402  18.343  1.00  0.00     0.019 A 
ATOM      2  C   UNL     1      10.909  41.387  17.901  1.00  0.00     0.094 A 
ATOM      3  C   UNL     1       9.821  41.734  18.709  1.00  0.00     0.336 A 
ATOM      4  O   UNL     1       9.013  42.621  18.327  1.00  0.00    -0.246 OA
ATOM      5  O   UNL     1       9.634  41.133  19.881  1.00  0.00    -0.423 OA
ATOM      6  C   UNL     1      10.452  40.189  20.340  1.00  0.00     0.142 A 
ATOM      7  C   UNL     1      10.205  39.592  21.580  1.00  0.00     0.098 A 
ATOM      8  C   UNL     1      11.063  38.596  22.069  1.00  0.00     0.161 A 
ATOM      9  C   UNL     1      12.178  38.196  21.310  1.00  0.00     0.158 A 
ATOM     10  C   UNL     1      12.429  38.792  20.068  1.00  0.00     0.062 A 
ATOM     11  C   UNL     1      11.570  39.787  19.579  1.00  0.00     0.022 A 
ENDROOT
BRANCH   9  12
ATOM     12  O   UNL     1      13.047  37.208  21.773  1.00  0.00    -0.504 OA
ATOM     13  H   UNL     1      13.158  37.009  22.760  1.00  0.00     0.293 HD
ENDBRANCH   9  12
BRANCH   8  14
ATOM     14  O   UNL     1      10.813  38.003  23.306  1.00  0.00    -0.504 OA
ATOM     15  H   UNL     1      11.563  37.634  23.879  1.00  0.00     0.293 HD
ENDBRANCH   8  14
TORSDOF 2
ENDMDL
MODEL 3
REMARK VINA RESULT:    -5.878      5.199      6.533
REMARK INTER + INTRA:          -6.221
REMARK INTER:                  -6.221
REMARK INTRA:                   0.000
REMARK UNBOUND:                 0.000
REMARK SMILES O=c1ccc2cc(O)c(O)cc2o1
REMARK SMILES IDX 4 1 3 2 2 3 1 4 13 5 12 6 11 7 9 8 7 9 6 10 5 11 8 12 10 14
REMARK H PARENT 8 13 10 15
REMARK Flexibility Score: inf
ROOT
ATOM      1  C   UNL     1      12.825  41.375  19.238  1.00  0.00     0.019 A 
ATOM      2  C   UNL     1      12.238  40.487  18.336  1.00  0.00     0.094 A 
ATOM      3  C   UNL     1      10.886  40.644  18.013  1.00  0.00     0.336 A 
ATOM      4  O   UNL     1      10.338  39.853  17.201  1.00  0.00    -0.246 OA
ATOM      5  O   UNL     1      10.172  41.626  18.560  1.00  0.00    -0.423 OA
ATOM      6  C   UNL     1      10.693  42.493  19.423  1.00  0.00     0.142 A 
ATOM      7  C   UNL     1       9.895  43.505  19.965  1.00  0.00     0.098 A 
ATOM      8  C   UNL     1      10.437  44.423  20.877  1.00  0.00     0.161 A 
ATOM      9  C   UNL     1      11.791  44.326  21.248  1.00  0.00     0.158 A 
ATOM     10  C   UNL     1      12.594  43.314  20.707  1.00  0.00     0.062 A 
ATOM     11  C   UNL     1      12.051  42.396  19.796  1.00  0.00     0.022 A 
ENDROOT
BRANCH   9  12
ATOM     12  O   UNL     1      12.356  45.225  22.152  1.00  0.00    -0.504 OA
ATOM     13  H   UNL     1      12.454  45.008  23.137  1.00  0.00     0.293 HD
ENDBRANCH   9  12
BRANCH   8  14
ATOM     14  O   UNL     1       9.638  45.431  21.415  1.00  0.00    -0.504 OA
ATOM     15  H   UNL     1       8.796  45.217  21.938  1.00  0.00     0.293 HD
ENDBRANCH   8  14
TORSDOF 2
ENDMDL
MODEL 4
REMARK VINA RESULT:    -5.836      1.458      2.417
REMARK INTER + INTRA:          -6.178
REMARK INTER:                  -6.178
REMARK INTRA:                   0.000
REMARK UNBOUND:                 0.000
REMARK SMILES O=c1ccc2cc(O)c(O)cc2o1
REMARK SMILES IDX 4 1 3 2 2 3 1 4 13 5 12 6 11 7 9 8 7 9 6 10 5 11 8 12 10 14
REMARK H PARENT 8 13 10 15
REMARK Flexibility Score: inf
ROOT
ATOM      1  C   UNL     1      12.700  38.389  24.442  1.00  0.00     0.019 A 
ATOM      2  C   UNL     1      12.191  38.405  25.741  1.00  0.00     0.094 A 
ATOM      3  C   UNL     1      10.825  38.637  25.931  1.00  0.00     0.336 A 
ATOM      4  O   UNL     1      10.346  38.655  27.096  1.00  0.00    -0.246 OA
ATOM      5  O   UNL     1      10.024  38.840  24.887  1.00  0.00    -0.423 OA
ATOM      6  C   UNL     1      10.469  38.834  23.633  1.00  0.00     0.142 A 
ATOM      7  C   UNL     1       9.581  39.053  22.576  1.00  0.00     0.098 A 
ATOM      8  C   UNL     1      10.043  39.048  21.251  1.00  0.00     0.161 A 
ATOM      9  C   UNL     1      11.406  38.821  20.985  1.00  0.00     0.158 A 
ATOM     10  C   UNL     1      12.298  38.600  22.042  1.00  0.00     0.062 A 
ATOM     11  C   UNL     1      11.836  38.606  23.365  1.00  0.00     0.022 A 
ENDROOT
BRANCH   9  12
ATOM     12  O   UNL     1      11.892  38.811  19.678  1.00  0.00    -0.504 OA
ATOM     13  H   UNL     1      11.302  39.025  18.883  1.00  0.00     0.293 HD
ENDBRANCH   9  12
BRANCH   8  14
ATOM     14  O   UNL     1       9.154  39.268  20.199  1.00  0.00    -0.504 OA
ATOM     15  H   UNL     1       8.155  39.333  20.355  1.00  0.00     0.293 HD
ENDBRANCH   8  14
TORSDOF 2
ENDMDL
MODEL 5
REMARK VINA RESULT:    -5.812      4.786      6.610
REMARK INTER + INTRA:          -6.152
REMARK INTER:                  -6.152
REMARK INTRA:                   0.000
REMARK UNBOUND:                 0.000
REMARK SMILES O=c1ccc2cc(O)c(O)cc2o1
REMARK SMILES IDX 4 1 3 2 2 3 1 4 13 5 12 6 11 7 9 8 7 9 6 10 5 11 8 12 10 14
REMARK H PARENT 8 13 10 15
REMARK Flexibility Score: inf
ROOT
ATOM      1  C   UNL     1      13.186  40.844  19.822  1.00  0.00     0.019 A 
ATOM      2  C   UNL     1      12.259  40.362  18.897  1.00  0.00     0.094 A 
ATOM      3  C   UNL     1      11.203  41.190  18.501  1.00  0.00     0.336 A 
ATOM      4  O   UNL     1      10.357  40.773  17.668  1.00  0.00    -0.246 OA
ATOM      5  O   UNL     1      11.087  42.418  19.001  1.00  0.00    -0.423 OA
ATOM      6  C   UNL     1      11.949  42.916  19.883  1.00  0.00     0.142 A 
ATOM      7  C   UNL     1      11.776  44.214  20.374  1.00  0.00     0.098 A 
ATOM      8  C   UNL     1      12.681  44.745  21.305  1.00  0.00     0.161 A 
ATOM      9  C   UNL     1      13.767  43.969  21.749  1.00  0.00     0.158 A 
ATOM     10  C   UNL     1      13.943  42.669  21.259  1.00  0.00     0.062 A 
ATOM     11  C   UNL     1      13.039  42.138  20.329  1.00  0.00     0.022 A 
ENDROOT
BRANCH   9  12
ATOM     12  O   UNL     1      14.681  44.472  22.674  1.00  0.00    -0.504 OA
ATOM     13  H   UNL     1      15.585  44.834  22.395  1.00  0.00     0.293 HD
ENDBRANCH   9  12
BRANCH   8  14
ATOM     14  O   UNL     1      12.504  46.040  21.791  1.00  0.00    -0.504 OA
ATOM     15  H   UNL     1      11.974  46.221  22.636  1.00  0.00     0.293 HD
ENDBRANCH   8  14
TORSDOF 2
ENDMDL
MODEL 6
REMARK VINA RESULT:    -5.789      1.894      3.207
REMARK INTER + INTRA:          -6.128
REMARK INTER:                  -6.128
REMARK INTRA:                   0.000
REMARK UNBOUND:                 0.000
REMARK SMILES O=c1ccc2cc(O)c(O)cc2o1
REMARK SMILES IDX 4 1 3 2 2 3 1 4 13 5 12 6 11 7 9 8 7 9 6 10 5 11 8 12 10 14
REMARK H PARENT 8 13 10 15
REMARK Flexibility Score: inf
ROOT
ATOM      1  C   UNL     1      12.338  38.232  21.004  1.00  0.00     0.019 A 
ATOM      2  C   UNL     1      12.243  37.954  22.367  1.00  0.00     0.094 A 
ATOM      3  C   UNL     1      11.294  38.637  23.134  1.00  0.00     0.336 A 
ATOM      4  O   UNL     1      11.193  38.401  24.367  1.00  0.00    -0.246 OA
ATOM      5  O   UNL     1      10.494  39.539  22.569  1.00  0.00    -0.423 OA
ATOM      6  C   UNL     1      10.551  39.834  21.273  1.00  0.00     0.142 A 
ATOM      7  C   UNL     1       9.685  40.790  20.735  1.00  0.00     0.098 A 
ATOM      8  C   UNL     1       9.741  41.106  19.369  1.00  0.00     0.161 A 
ATOM      9  C   UNL     1      10.671  40.458  18.536  1.00  0.00     0.158 A 
ATOM     10  C   UNL     1      11.540  39.499  19.072  1.00  0.00     0.062 A 
ATOM     11  C   UNL     1      11.485  39.184  20.438  1.00  0.00     0.022 A 
ENDROOT
BRANCH   9  12
ATOM     12  O   UNL     1      10.747  40.753  17.176  1.00  0.00    -0.504 OA
ATOM     13  H   UNL     1      10.676  41.701  16.826  1.00  0.00     0.293 HD
ENDBRANCH   9  12
BRANCH   8  14
ATOM     14  O   UNL     1       8.875  42.061  18.836  1.00  0.00    -0.504 OA
ATOM     15  H   UNL     1       8.821  42.998  19.217  1.00  0.00     0.293 HD
ENDBRANCH   8  14
TORSDOF 2
ENDMDL
MODEL 7
REMARK VINA RESULT:    -5.772      4.510      5.008
REMARK INTER + INTRA:          -6.110
REMARK INTER:                  -6.110
REMARK INTRA:                   0.000
REMARK UNBOUND:                 0.000
REMARK SMILES O=c1ccc2cc(O)c(O)cc2o1
REMARK SMILES IDX 4 1 3 2 2 3 1 4 13 5 12 6 11 7 9 8 7 9 6 10 5 11 8 12 10 14
REMARK H PARENT 8 13 10 15
REMARK Flexibility Score: inf
ROOT
ATOM      1  C   UNL     1      14.150  41.311  20.802  1.00  0.00     0.019 A 
ATOM      2  C   UNL     1      14.581  42.461  21.464  1.00  0.00     0.094 A 
ATOM      3  C   UNL     1      13.770  43.600  21.441  1.00  0.00     0.336 A 
ATOM      4  O   UNL     1      14.141  44.648  22.032  1.00  0.00    -0.246 OA
ATOM      5  O   UNL     1      12.605  43.585  20.797  1.00  0.00    -0.423 OA
ATOM      6  C   UNL     1      12.157  42.510  20.155  1.00  0.00     0.142 A 
ATOM      7  C   UNL     1      10.924  42.552  19.496  1.00  0.00     0.098 A 
ATOM      8  C   UNL     1      10.446  41.422  18.816  1.00  0.00     0.161 A 
ATOM      9  C   UNL     1      11.209  40.240  18.796  1.00  0.00     0.158 A 
ATOM     10  C   UNL     1      12.444  40.194  19.456  1.00  0.00     0.062 A 
ATOM     11  C   UNL     1      12.922  41.324  20.135  1.00  0.00     0.022 A 
ENDROOT
BRANCH   9  12
ATOM     12  O   UNL     1      10.758  39.103  18.128  1.00  0.00    -0.504 OA
ATOM     13  H   UNL     1      10.219  39.160  17.272  1.00  0.00     0.293 HD
ENDBRANCH   9  12
BRANCH   8  14
ATOM     14  O   UNL     1       9.217  41.469  18.160  1.00  0.00    -0.504 OA
ATOM     15  H   UNL     1       8.782  40.632  17.788  1.00  0.00     0.293 HD
ENDBRANCH   8  14
TORSDOF 2
ENDMDL
MODEL 8
REMARK VINA RESULT:    -5.771      4.832      6.216
REMARK INTER + INTRA:          -6.109
REMARK INTER:                  -6.109
REMARK INTRA:                   0.000
REMARK UNBOUND:                 0.000
REMARK SMILES O=c1ccc2cc(O)c(O)cc2o1
REMARK SMILES IDX 4 1 3 2 2 3 1 4 13 5 12 6 11 7 9 8 7 9 6 10 5 11 8 12 10 14
REMARK H PARENT 8 13 10 15
REMARK Flexibility Score: inf
ROOT
ATOM      1  C   UNL     1      10.013  42.470  18.905  1.00  0.00     0.019 A 
ATOM      2  C   UNL     1       9.952  41.354  18.070  1.00  0.00     0.094 A 
ATOM      3  C   UNL     1      11.051  40.491  18.011  1.00  0.00     0.336 A 
ATOM      4  O   UNL     1      11.016  39.478  17.264  1.00  0.00    -0.246 OA
ATOM      5  O   UNL     1      12.138  40.734  18.740  1.00  0.00    -0.423 OA
ATOM      6  C   UNL     1      12.237  41.786  19.549  1.00  0.00     0.142 A 
ATOM      7  C   UNL     1      13.404  41.989  20.292  1.00  0.00     0.098 A 
ATOM      8  C   UNL     1      13.515  43.097  21.145  1.00  0.00     0.161 A 
ATOM      9  C   UNL     1      12.448  44.008  21.255  1.00  0.00     0.158 A 
ATOM     10  C   UNL     1      11.277  43.806  20.513  1.00  0.00     0.062 A 
ATOM     11  C   UNL     1      11.167  42.700  19.659  1.00  0.00     0.022 A 
ENDROOT
BRANCH   9  12
ATOM     12  O   UNL     1      12.532  45.117  22.096  1.00  0.00    -0.504 OA
ATOM     13  H   UNL     1      12.203  45.092  23.054  1.00  0.00     0.293 HD
ENDBRANCH   9  12
BRANCH   8  14
ATOM     14  O   UNL     1      14.680  43.297  21.884  1.00  0.00    -0.504 OA
ATOM     15  H   UNL     1      15.522  43.667  21.458  1.00  0.00     0.293 HD
ENDBRANCH   8  14
TORSDOF 2
ENDMDL
MODEL 9
REMARK VINA RESULT:    -5.753      4.046      4.714
REMARK INTER + INTRA:          -6.089
REMARK INTER:                  -6.089
REMARK INTRA:                   0.000
REMARK UNBOUND:                 0.000
REMARK SMILES O=c1ccc2cc(O)c(O)cc2o1
REMARK SMILES IDX 4 1 3 2 2 3 1 4 13 5 12 6 11 7 9 8 7 9 6 10 5 11 8 12 10 14
REMARK H PARENT 8 13 10 15
REMARK Flexibility Score: inf
ROOT
ATOM      1  C   UNL     1      11.767  44.071  20.686  1.00  0.00     0.019 A 
ATOM      2  C   UNL     1      12.997  44.396  21.259  1.00  0.00     0.094 A 
ATOM      3  C   UNL     1      13.976  43.404  21.371  1.00  0.00     0.336 A 
ATOM      4  O   UNL     1      15.093  43.677  21.885  1.00  0.00    -0.246 OA
ATOM      5  O   UNL     1      13.737  42.168  20.937  1.00  0.00    -0.423 OA
ATOM      6  C   UNL     1      12.578  41.817  20.384  1.00  0.00     0.142 A 
ATOM      7  C   UNL     1      12.383  40.504  19.946  1.00  0.00     0.098 A 
ATOM      8  C   UNL     1      11.164  40.126  19.363  1.00  0.00     0.161 A 
ATOM      9  C   UNL     1      10.133  41.072  19.218  1.00  0.00     0.158 A 
ATOM     10  C   UNL     1      10.326  42.389  19.655  1.00  0.00     0.062 A 
ATOM     11  C   UNL     1      11.544  42.765  20.239  1.00  0.00     0.022 A 
ENDROOT
BRANCH   9  12
ATOM     12  O   UNL     1       8.912  40.724  18.642  1.00  0.00    -0.504 OA
ATOM     13  H   UNL     1       8.838  40.424  17.678  1.00  0.00     0.293 HD
ENDBRANCH   9  12
BRANCH   8  14
ATOM     14  O   UNL     1      10.973  38.815  18.927  1.00  0.00    -0.504 OA
ATOM     15  H   UNL     1      10.210  38.568  18.308  1.00  0.00     0.293 HD
ENDBRANCH   8  14
TORSDOF 2
ENDMDL
