MODEL 1
REMARK VINA RESULT:    -4.470      0.000      0.000
REMARK INTER + INTRA:          -5.256
REMARK INTER:                  -5.123
REMARK INTRA:                  -0.133
REMARK UNBOUND:                -0.133
REMARK SMILES O=C([O-])C=Cc1ccc(O)cc1
REMARK SMILES IDX 6 1 7 2 12 3 8 4 11 5 9 6 5 7 4 8 2 9 1 10 3 11 10 12
REMARK H PARENT 10 13
REMARK Flexibility Score: inf
ROOT
ATOM      1  C   UNL     1     -18.479  20.943  41.955  1.00  0.00    -0.025 A 
ATOM      2  C   UNL     1     -18.296  21.426  43.263  1.00  0.00     0.012 A 
ATOM      3  C   UNL     1     -18.110  19.614  41.665  1.00  0.00     0.012 A 
ATOM      4  C   UNL     1     -17.783  20.595  44.263  1.00  0.00     0.047 A 
ATOM      5  C   UNL     1     -17.597  18.786  42.668  1.00  0.00     0.047 A 
ATOM      6  C   UNL     1     -17.434  19.272  43.968  1.00  0.00     0.115 A 
ENDROOT
BRANCH   1   7
ATOM      7  C   UNL     1     -19.018  21.867  40.927  1.00  0.00     0.010 C 
ATOM      8  C   UNL     1     -20.298  21.875  40.531  1.00  0.00     0.025 C 
BRANCH   8   9
ATOM      9  C   UNL     1     -20.791  22.818  39.514  1.00  0.00     0.064 C 
ATOM     10  O   UNL     1     -21.232  22.377  38.420  1.00  0.00    -0.545 OA
ATOM     11  O   UNL     1     -20.776  24.189  39.740  1.00  0.00    -0.545 OA
ENDBRANCH   8   9
ENDBRANCH   1   7
BRANCH   6  12
ATOM     12  O   UNL     1     -16.922  18.435  44.957  1.00  0.00    -0.508 OA
ATOM     13  H   UNL     1     -17.431  17.618  45.276  1.00  0.00     0.293 HD
ENDBRANCH   6  12
TORSDOF 3
ENDMDL
MODEL 2
REMARK VINA RESULT:    -4.387      1.975      5.624
REMARK INTER + INTRA:          -5.161
REMARK INTER:                  -5.026
REMARK INTRA:                  -0.135
REMARK UNBOUND:                -0.133
REMARK SMILES O=C([O-])C=Cc1ccc(O)cc1
REMARK SMILES IDX 6 1 7 2 12 3 8 4 11 5 9 6 5 7 4 8 2 9 1 10 3 11 10 12
REMARK H PARENT 10 13
REMARK Flexibility Score: inf
ROOT
ATOM      1  C   UNL     1     -18.630  20.291  41.757  1.00  0.00    -0.025 A 
ATOM      2  C   UNL     1     -20.011  20.176  41.989  1.00  0.00     0.012 A 
ATOM      3  C   UNL     1     -18.138  21.469  41.160  1.00  0.00     0.012 A 
ATOM      4  C   UNL     1     -20.878  21.221  41.658  1.00  0.00     0.047 A 
ATOM      5  C   UNL     1     -19.008  22.512  40.830  1.00  0.00     0.047 A 
ATOM      6  C   UNL     1     -20.378  22.394  41.079  1.00  0.00     0.115 A 
ENDROOT
BRANCH   1   7
ATOM      7  C   UNL     1     -17.753  19.149  42.118  1.00  0.00     0.010 C 
ATOM      8  C   UNL     1     -17.433  18.160  41.272  1.00  0.00     0.025 C 
BRANCH   8   9
ATOM      9  C   UNL     1     -16.550  17.052  41.669  1.00  0.00     0.064 C 
ATOM     10  O   UNL     1     -15.748  16.566  40.830  1.00  0.00    -0.545 OA
ATOM     11  O   UNL     1     -16.589  16.530  42.957  1.00  0.00    -0.545 OA
ENDBRANCH   8   9
ENDBRANCH   1   7
BRANCH   6  12
ATOM     12  O   UNL     1     -21.232  23.443  40.745  1.00  0.00    -0.508 OA
ATOM     13  H   UNL     1     -21.655  24.029  41.455  1.00  0.00     0.293 HD
ENDBRANCH   6  12
TORSDOF 3
ENDMDL
MODEL 3
REMARK VINA RESULT:    -4.350     15.235     16.315
REMARK INTER + INTRA:          -5.118
REMARK INTER:                  -4.965
REMARK INTRA:                  -0.154
REMARK UNBOUND:                -0.133
REMARK SMILES O=C([O-])C=Cc1ccc(O)cc1
REMARK SMILES IDX 6 1 7 2 12 3 8 4 11 5 9 6 5 7 4 8 2 9 1 10 3 11 10 12
REMARK H PARENT 10 13
REMARK Flexibility Score: inf
ROOT
ATOM      1  C   UNL     1      -6.903  29.548  46.473  1.00  0.00    -0.025 A 
ATOM      2  C   UNL     1      -5.694  28.915  46.806  1.00  0.00     0.012 A 
ATOM      3  C   UNL     1      -7.839  28.852  45.681  1.00  0.00     0.012 A 
ATOM      4  C   UNL     1      -5.434  27.609  46.383  1.00  0.00     0.047 A 
ATOM      5  C   UNL     1      -7.575  27.545  45.259  1.00  0.00     0.047 A 
ATOM      6  C   UNL     1      -6.376  26.919  45.609  1.00  0.00     0.115 A 
ENDROOT
BRANCH   1   7
ATOM      7  C   UNL     1      -7.127  30.939  46.939  1.00  0.00     0.010 C 
ATOM      8  C   UNL     1      -6.231  31.641  47.646  1.00  0.00     0.025 C 
BRANCH   8   9
ATOM      9  C   UNL     1      -6.491  33.023  48.078  1.00  0.00     0.064 C 
ATOM     10  O   UNL     1      -7.147  33.795  47.331  1.00  0.00    -0.545 OA
ATOM     11  O   UNL     1      -6.022  33.494  49.299  1.00  0.00    -0.545 OA
ENDBRANCH   8   9
ENDBRANCH   1   7
BRANCH   6  12
ATOM     12  O   UNL     1      -6.128  25.617  45.181  1.00  0.00    -0.508 OA
ATOM     13  H   UNL     1      -6.385  24.815  45.746  1.00  0.00     0.293 HD
ENDBRANCH   6  12
TORSDOF 3
ENDMDL
MODEL 4
REMARK VINA RESULT:    -4.209     12.542     13.322
REMARK INTER + INTRA:          -4.957
REMARK INTER:                  -4.813
REMARK INTRA:                  -0.143
REMARK UNBOUND:                -0.133
REMARK SMILES O=C([O-])C=Cc1ccc(O)cc1
REMARK SMILES IDX 6 1 7 2 12 3 8 4 11 5 9 6 5 7 4 8 2 9 1 10 3 11 10 12
REMARK H PARENT 10 13
REMARK Flexibility Score: inf
ROOT
ATOM      1  C   UNL     1      -8.328  28.599  45.019  1.00  0.00    -0.025 A 
ATOM      2  C   UNL     1      -8.779  29.835  45.511  1.00  0.00     0.012 A 
ATOM      3  C   UNL     1      -7.122  28.067  45.520  1.00  0.00     0.012 A 
ATOM      4  C   UNL     1      -8.058  30.514  46.497  1.00  0.00     0.047 A 
ATOM      5  C   UNL     1      -6.404  28.750  46.506  1.00  0.00     0.047 A 
ATOM      6  C   UNL     1      -6.869  29.972  46.999  1.00  0.00     0.115 A 
ENDROOT
BRANCH   1   7
ATOM      7  C   UNL     1      -9.124  27.922  43.965  1.00  0.00     0.010 C 
ATOM      8  C   UNL     1     -10.418  27.601  44.100  1.00  0.00     0.025 C 
BRANCH   8   9
ATOM      9  C   UNL     1     -11.172  26.939  43.024  1.00  0.00     0.064 C 
ATOM     10  O   UNL     1     -10.557  26.485  42.023  1.00  0.00    -0.545 OA
ATOM     11  O   UNL     1     -12.554  26.810  43.089  1.00  0.00    -0.545 OA
ENDBRANCH   8   9
ENDBRANCH   1   7
BRANCH   6  12
ATOM     12  O   UNL     1      -6.142  30.639  47.983  1.00  0.00    -0.508 OA
ATOM     13  H   UNL     1      -5.303  31.163  47.758  1.00  0.00     0.293 HD
ENDBRANCH   6  12
TORSDOF 3
ENDMDL
MODEL 5
REMARK VINA RESULT:    -4.202      5.648      7.530
REMARK INTER + INTRA:          -4.949
REMARK INTER:                  -4.797
REMARK INTRA:                  -0.151
REMARK UNBOUND:                -0.133
REMARK SMILES O=C([O-])C=Cc1ccc(O)cc1
REMARK SMILES IDX 6 1 7 2 12 3 8 4 11 5 9 6 5 7 4 8 2 9 1 10 3 11 10 12
REMARK H PARENT 10 13
REMARK Flexibility Score: inf
ROOT
ATOM      1  C   UNL     1     -21.303  22.172  35.491  1.00  0.00    -0.025 A 
ATOM      2  C   UNL     1     -20.757  22.839  36.602  1.00  0.00     0.012 A 
ATOM      3  C   UNL     1     -22.317  21.216  35.703  1.00  0.00     0.012 A 
ATOM      4  C   UNL     1     -21.229  22.578  37.891  1.00  0.00     0.047 A 
ATOM      5  C   UNL     1     -22.786  20.958  36.995  1.00  0.00     0.047 A 
ATOM      6  C   UNL     1     -22.247  21.637  38.090  1.00  0.00     0.115 A 
ENDROOT
BRANCH   1   7
ATOM      7  C   UNL     1     -20.760  22.478  34.144  1.00  0.00     0.010 C 
ATOM      8  C   UNL     1     -19.679  23.241  33.932  1.00  0.00     0.025 C 
BRANCH   8   9
ATOM      9  C   UNL     1     -19.169  23.509  32.578  1.00  0.00     0.064 C 
ATOM     10  O   UNL     1     -19.713  24.401  31.875  1.00  0.00    -0.545 OA
ATOM     11  O   UNL     1     -18.098  22.792  32.059  1.00  0.00    -0.545 OA
ENDBRANCH   8   9
ENDBRANCH   1   7
BRANCH   6  12
ATOM     12  O   UNL     1     -22.726  21.368  39.371  1.00  0.00    -0.508 OA
ATOM     13  H   UNL     1     -22.236  20.742  39.999  1.00  0.00     0.293 HD
ENDBRANCH   6  12
TORSDOF 3
ENDMDL
MODEL 6
REMARK VINA RESULT:    -4.136     15.716     16.949
REMARK INTER + INTRA:          -4.873
REMARK INTER:                  -4.722
REMARK INTRA:                  -0.152
REMARK UNBOUND:                -0.133
REMARK SMILES O=C([O-])C=Cc1ccc(O)cc1
REMARK SMILES IDX 6 1 7 2 12 3 8 4 11 5 9 6 5 7 4 8 2 9 1 10 3 11 10 12
REMARK H PARENT 10 13
REMARK Flexibility Score: inf
ROOT
ATOM      1  C   UNL     1      -6.720  30.362  46.781  1.00  0.00    -0.025 A 
ATOM      2  C   UNL     1      -7.964  30.815  46.309  1.00  0.00     0.012 A 
ATOM      3  C   UNL     1      -6.303  29.056  46.450  1.00  0.00     0.012 A 
ATOM      4  C   UNL     1      -8.761  29.996  45.505  1.00  0.00     0.047 A 
ATOM      5  C   UNL     1      -7.103  28.240  45.645  1.00  0.00     0.047 A 
ATOM      6  C   UNL     1      -8.332  28.706  45.168  1.00  0.00     0.115 A 
ENDROOT
BRANCH   1   7
ATOM      7  C   UNL     1      -5.916  31.266  47.640  1.00  0.00     0.010 C 
ATOM      8  C   UNL     1      -6.291  32.510  47.968  1.00  0.00     0.025 C 
BRANCH   8   9
ATOM      9  C   UNL     1      -5.465  33.368  48.832  1.00  0.00     0.064 C 
ATOM     10  O   UNL     1      -4.437  33.921  48.360  1.00  0.00    -0.545 OA
ATOM     11  O   UNL     1      -5.799  33.578  50.165  1.00  0.00    -0.545 OA
ENDBRANCH   8   9
ENDBRANCH   1   7
BRANCH   6  12
ATOM     12  O   UNL     1      -9.118  27.881  44.367  1.00  0.00    -0.508 OA
ATOM     13  H   UNL     1      -9.075  27.927  43.356  1.00  0.00     0.293 HD
ENDBRANCH   6  12
TORSDOF 3
ENDMDL
MODEL 7
REMARK VINA RESULT:    -4.126      3.350      6.843
REMARK INTER + INTRA:          -4.861
REMARK INTER:                  -4.720
REMARK INTRA:                  -0.142
REMARK UNBOUND:                -0.133
REMARK SMILES O=C([O-])C=Cc1ccc(O)cc1
REMARK SMILES IDX 6 1 7 2 12 3 8 4 11 5 9 6 5 7 4 8 2 9 1 10 3 11 10 12
REMARK H PARENT 10 13
REMARK Flexibility Score: inf
ROOT
ATOM      1  C   UNL     1     -22.203  21.781  38.672  1.00  0.00    -0.025 A 
ATOM      2  C   UNL     1     -23.474  21.184  38.619  1.00  0.00     0.012 A 
ATOM      3  C   UNL     1     -21.504  22.000  37.468  1.00  0.00     0.012 A 
ATOM      4  C   UNL     1     -24.047  20.838  37.392  1.00  0.00     0.047 A 
ATOM      5  C   UNL     1     -22.080  21.651  36.243  1.00  0.00     0.047 A 
ATOM      6  C   UNL     1     -23.351  21.072  36.200  1.00  0.00     0.115 A 
ENDROOT
BRANCH   1   7
ATOM      7  C   UNL     1     -21.635  22.122  40.001  1.00  0.00     0.010 C 
ATOM      8  C   UNL     1     -20.337  22.381  40.211  1.00  0.00     0.025 C 
BRANCH   8   9
ATOM      9  C   UNL     1     -19.819  22.726  41.544  1.00  0.00     0.064 C 
ATOM     10  O   UNL     1     -20.039  23.871  42.019  1.00  0.00    -0.545 OA
ATOM     11  O   UNL     1     -19.087  21.808  42.289  1.00  0.00    -0.545 OA
ENDBRANCH   8   9
ENDBRANCH   1   7
BRANCH   6  12
ATOM     12  O   UNL     1     -23.912  20.731  34.971  1.00  0.00    -0.508 OA
ATOM     13  H   UNL     1     -24.322  21.430  34.363  1.00  0.00     0.293 HD
ENDBRANCH   6  12
TORSDOF 3
ENDMDL
MODEL 8
REMARK VINA RESULT:    -4.057     15.810     17.293
REMARK INTER + INTRA:          -4.783
REMARK INTER:                  -4.643
REMARK INTRA:                  -0.139
REMARK UNBOUND:                -0.133
REMARK SMILES O=C([O-])C=Cc1ccc(O)cc1
REMARK SMILES IDX 6 1 7 2 12 3 8 4 11 5 9 6 5 7 4 8 2 9 1 10 3 11 10 12
REMARK H PARENT 10 13
REMARK Flexibility Score: inf
ROOT
ATOM      1  C   UNL     1      -5.846  30.050  46.886  1.00  0.00    -0.025 A 
ATOM      2  C   UNL     1      -6.852  30.959  47.253  1.00  0.00     0.012 A 
ATOM      3  C   UNL     1      -4.506  30.488  46.872  1.00  0.00     0.012 A 
ATOM      4  C   UNL     1      -6.529  32.267  47.623  1.00  0.00     0.047 A 
ATOM      5  C   UNL     1      -4.187  31.798  47.243  1.00  0.00     0.047 A 
ATOM      6  C   UNL     1      -5.194  32.690  47.621  1.00  0.00     0.115 A 
ENDROOT
BRANCH   1   7
ATOM      7  C   UNL     1      -6.242  28.675  46.492  1.00  0.00     0.010 C 
ATOM      8  C   UNL     1      -5.388  27.644  46.427  1.00  0.00     0.025 C 
BRANCH   8   9
ATOM      9  C   UNL     1      -5.828  26.294  46.041  1.00  0.00     0.064 C 
ATOM     10  O   UNL     1      -6.496  25.602  46.854  1.00  0.00    -0.545 OA
ATOM     11  O   UNL     1      -5.514  25.765  44.795  1.00  0.00    -0.545 OA
ENDBRANCH   8   9
ENDBRANCH   1   7
BRANCH   6  12
ATOM     12  O   UNL     1      -4.859  33.992  47.988  1.00  0.00    -0.508 OA
ATOM     13  H   UNL     1      -5.476  34.772  47.796  1.00  0.00     0.293 HD
ENDBRANCH   6  12
TORSDOF 3
ENDMDL
MODEL 9
REMARK VINA RESULT:    -4.031      1.980      5.811
REMARK INTER + INTRA:          -4.753
REMARK INTER:                  -4.611
REMARK INTRA:                  -0.142
REMARK UNBOUND:                -0.133
REMARK SMILES O=C([O-])C=Cc1ccc(O)cc1
REMARK SMILES IDX 6 1 7 2 12 3 8 4 11 5 9 6 5 7 4 8 2 9 1 10 3 11 10 12
REMARK H PARENT 10 13
REMARK Flexibility Score: inf
ROOT
ATOM      1  C   UNL     1     -20.523  21.787  41.257  1.00  0.00    -0.025 A 
ATOM      2  C   UNL     1     -21.807  21.722  40.691  1.00  0.00     0.012 A 
ATOM      3  C   UNL     1     -19.991  23.049  41.591  1.00  0.00     0.012 A 
ATOM      4  C   UNL     1     -22.555  22.885  40.486  1.00  0.00     0.047 A 
ATOM      5  C   UNL     1     -20.742  24.210  41.384  1.00  0.00     0.047 A 
ATOM      6  C   UNL     1     -22.024  24.133  40.835  1.00  0.00     0.115 A 
ENDROOT
BRANCH   1   7
ATOM      7  C   UNL     1     -19.766  20.525  41.446  1.00  0.00     0.010 C 
ATOM      8  C   UNL     1     -18.509  20.472  41.908  1.00  0.00     0.025 C 
BRANCH   8   9
ATOM      9  C   UNL     1     -17.800  19.195  42.089  1.00  0.00     0.064 C 
ATOM     10  O   UNL     1     -17.697  18.399  41.119  1.00  0.00    -0.545 OA
ATOM     11  O   UNL     1     -17.244  18.851  43.315  1.00  0.00    -0.545 OA
ENDBRANCH   8   9
ENDBRANCH   1   7
BRANCH   6  12
ATOM     12  O   UNL     1     -22.760  25.299  40.635  1.00  0.00    -0.508 OA
ATOM     13  H   UNL     1     -23.509  25.567  41.262  1.00  0.00     0.293 HD
ENDBRANCH   6  12
TORSDOF 3
ENDMDL
