MODEL 1
REMARK VINA RESULT:    -5.423      0.000      0.000
REMARK INTER + INTRA:          -5.740
REMARK INTER:                  -5.740
REMARK INTRA:                   0.000
REMARK UNBOUND:                 0.000
REMARK SMILES O=c1ccc2cc(O)c(O)cc2o1
REMARK SMILES IDX 4 1 3 2 2 3 1 4 13 5 12 6 11 7 9 8 7 9 6 10 5 11 8 12 10 14
REMARK H PARENT 8 13 10 15
REMARK Flexibility Score: inf
ROOT
ATOM      1  C   UNL     1       2.960   9.417   5.320  1.00  0.00     0.019 A 
ATOM      2  C   UNL     1       2.550  10.252   6.358  1.00  0.00     0.094 A 
ATOM      3  C   UNL     1       3.177  11.491   6.518  1.00  0.00     0.336 A 
ATOM      4  O   UNL     1       2.820  12.260   7.450  1.00  0.00    -0.246 OA
ATOM      5  O   UNL     1       4.150  11.866   5.692  1.00  0.00    -0.423 OA
ATOM      6  C   UNL     1       4.573  11.100   4.690  1.00  0.00     0.142 A 
ATOM      7  C   UNL     1       5.600  11.547   3.853  1.00  0.00     0.098 A 
ATOM      8  C   UNL     1       6.049  10.748   2.796  1.00  0.00     0.161 A 
ATOM      9  C   UNL     1       5.466   9.486   2.571  1.00  0.00     0.158 A 
ATOM     10  C   UNL     1       4.435   9.034   3.409  1.00  0.00     0.062 A 
ATOM     11  C   UNL     1       3.987   9.836   4.466  1.00  0.00     0.022 A 
ENDROOT
BRANCH   9  12
ATOM     12  O   UNL     1       5.913   8.689   1.519  1.00  0.00    -0.504 OA
ATOM     13  H   UNL     1       6.723   8.087   1.615  1.00  0.00     0.293 HD
ENDBRANCH   9  12
BRANCH   8  14
ATOM     14  O   UNL     1       7.075  11.221   1.978  1.00  0.00    -0.504 OA
ATOM     15  H   UNL     1       7.528  10.634   1.289  1.00  0.00     0.293 HD
ENDBRANCH   8  14
TORSDOF 2
ENDMDL
MODEL 2
REMARK VINA RESULT:    -5.372      1.536      2.137
REMARK INTER + INTRA:          -5.686
REMARK INTER:                  -5.686
REMARK INTRA:                   0.000
REMARK UNBOUND:                 0.000
REMARK SMILES O=c1ccc2cc(O)c(O)cc2o1
REMARK SMILES IDX 4 1 3 2 2 3 1 4 13 5 12 6 11 7 9 8 7 9 6 10 5 11 8 12 10 14
REMARK H PARENT 8 13 10 15
REMARK Flexibility Score: inf
ROOT
ATOM      1  C   UNL     1       3.082   9.671   5.063  1.00  0.00     0.019 A 
ATOM      2  C   UNL     1       2.112   9.784   6.057  1.00  0.00     0.094 A 
ATOM      3  C   UNL     1       1.963  11.005   6.724  1.00  0.00     0.336 A 
ATOM      4  O   UNL     1       1.091  11.127   7.625  1.00  0.00    -0.246 OA
ATOM      5  O   UNL     1       2.737  12.041   6.412  1.00  0.00    -0.423 OA
ATOM      6  C   UNL     1       3.675  11.976   5.470  1.00  0.00     0.142 A 
ATOM      7  C   UNL     1       4.458  13.099   5.185  1.00  0.00     0.098 A 
ATOM      8  C   UNL     1       5.447  13.039   4.196  1.00  0.00     0.161 A 
ATOM      9  C   UNL     1       5.655  11.843   3.483  1.00  0.00     0.158 A 
ATOM     10  C   UNL     1       4.871  10.714   3.766  1.00  0.00     0.062 A 
ATOM     11  C   UNL     1       3.883  10.777   4.756  1.00  0.00     0.022 A 
ENDROOT
BRANCH   9  12
ATOM     12  O   UNL     1       6.640  11.782   2.498  1.00  0.00    -0.504 OA
ATOM     13  H   UNL     1       7.184  10.941   2.342  1.00  0.00     0.293 HD
ENDBRANCH   9  12
BRANCH   8  14
ATOM     14  O   UNL     1       6.212  14.175   3.935  1.00  0.00    -0.504 OA
ATOM     15  H   UNL     1       6.261  14.952   4.583  1.00  0.00     0.293 HD
ENDBRANCH   8  14
TORSDOF 2
ENDMDL
MODEL 3
REMARK VINA RESULT:    -5.309      1.067      2.261
REMARK INTER + INTRA:          -5.619
REMARK INTER:                  -5.619
REMARK INTRA:                   0.000
REMARK UNBOUND:                 0.000
REMARK SMILES O=c1ccc2cc(O)c(O)cc2o1
REMARK SMILES IDX 4 1 3 2 2 3 1 4 13 5 12 6 11 7 9 8 7 9 6 10 5 11 8 12 10 14
REMARK H PARENT 8 13 10 15
REMARK Flexibility Score: inf
ROOT
ATOM      1  C   UNL     1       4.000  12.571   5.636  1.00  0.00     0.019 A 
ATOM      2  C   UNL     1       2.967  12.188   6.490  1.00  0.00     0.094 A 
ATOM      3  C   UNL     1       2.449  10.893   6.390  1.00  0.00     0.336 A 
ATOM      4  O   UNL     1       1.516  10.528   7.153  1.00  0.00    -0.246 OA
ATOM      5  O   UNL     1       2.935  10.041   5.491  1.00  0.00    -0.423 OA
ATOM      6  C   UNL     1       3.919  10.365   4.656  1.00  0.00     0.142 A 
ATOM      7  C   UNL     1       4.391   9.427   3.732  1.00  0.00     0.098 A 
ATOM      8  C   UNL     1       5.425   9.761   2.851  1.00  0.00     0.161 A 
ATOM      9  C   UNL     1       5.997  11.046   2.893  1.00  0.00     0.158 A 
ATOM     10  C   UNL     1       5.528  11.991   3.819  1.00  0.00     0.062 A 
ATOM     11  C   UNL     1       4.491  11.654   4.700  1.00  0.00     0.022 A 
ENDROOT
BRANCH   9  12
ATOM     12  O   UNL     1       7.028  11.379   2.016  1.00  0.00    -0.504 OA
ATOM     13  H   UNL     1       7.480  12.286   2.047  1.00  0.00     0.293 HD
ENDBRANCH   9  12
BRANCH   8  14
ATOM     14  O   UNL     1       5.874   8.804   1.941  1.00  0.00    -0.504 OA
ATOM     15  H   UNL     1       6.703   8.248   2.109  1.00  0.00     0.293 HD
ENDBRANCH   8  14
TORSDOF 2
ENDMDL
MODEL 4
REMARK VINA RESULT:    -5.309      1.567      4.118
REMARK INTER + INTRA:          -5.619
REMARK INTER:                  -5.619
REMARK INTRA:                   0.000
REMARK UNBOUND:                 0.000
REMARK SMILES O=c1ccc2cc(O)c(O)cc2o1
REMARK SMILES IDX 4 1 3 2 2 3 1 4 13 5 12 6 11 7 9 8 7 9 6 10 5 11 8 12 10 14
REMARK H PARENT 8 13 10 15
REMARK Flexibility Score: inf
ROOT
ATOM      1  C   UNL     1       3.552   8.478   4.246  1.00  0.00     0.019 A 
ATOM      2  C   UNL     1       4.055   7.392   3.531  1.00  0.00     0.094 A 
ATOM      3  C   UNL     1       5.119   7.597   2.647  1.00  0.00     0.336 A 
ATOM      4  O   UNL     1       5.588   6.629   1.992  1.00  0.00    -0.246 OA
ATOM      5  O   UNL     1       5.641   8.811   2.492  1.00  0.00    -0.423 OA
ATOM      6  C   UNL     1       5.191   9.874   3.154  1.00  0.00     0.142 A 
ATOM      7  C   UNL     1       5.780  11.126   2.951  1.00  0.00     0.098 A 
ATOM      8  C   UNL     1       5.313  12.248   3.643  1.00  0.00     0.161 A 
ATOM      9  C   UNL     1       4.245  12.119   4.551  1.00  0.00     0.158 A 
ATOM     10  C   UNL     1       3.651  10.865   4.758  1.00  0.00     0.062 A 
ATOM     11  C   UNL     1       4.120   9.743   4.063  1.00  0.00     0.022 A 
ENDROOT
BRANCH   9  12
ATOM     12  O   UNL     1       3.778  13.237   5.241  1.00  0.00    -0.504 OA
ATOM     13  H   UNL     1       3.339  13.154   6.151  1.00  0.00     0.293 HD
ENDBRANCH   9  12
BRANCH   8  14
ATOM     14  O   UNL     1       5.921  13.483   3.419  1.00  0.00    -0.504 OA
ATOM     15  H   UNL     1       6.305  13.738   2.517  1.00  0.00     0.293 HD
ENDBRANCH   8  14
TORSDOF 2
ENDMDL
MODEL 5
REMARK VINA RESULT:    -5.033      1.846      4.407
REMARK INTER + INTRA:          -5.327
REMARK INTER:                  -5.327
REMARK INTRA:                   0.000
REMARK UNBOUND:                 0.000
REMARK SMILES O=c1ccc2cc(O)c(O)cc2o1
REMARK SMILES IDX 4 1 3 2 2 3 1 4 13 5 12 6 11 7 9 8 7 9 6 10 5 11 8 12 10 14
REMARK H PARENT 8 13 10 15
REMARK Flexibility Score: inf
ROOT
ATOM      1  C   UNL     1       6.388   8.998   2.055  1.00  0.00     0.019 A 
ATOM      2  C   UNL     1       5.928   7.686   2.156  1.00  0.00     0.094 A 
ATOM      3  C   UNL     1       4.849   7.409   3.001  1.00  0.00     0.336 A 
ATOM      4  O   UNL     1       4.419   6.229   3.106  1.00  0.00    -0.246 OA
ATOM      5  O   UNL     1       4.272   8.384   3.699  1.00  0.00    -0.423 OA
ATOM      6  C   UNL     1       4.679   9.649   3.633  1.00  0.00     0.142 A 
ATOM      7  C   UNL     1       4.034  10.632   4.389  1.00  0.00     0.098 A 
ATOM      8  C   UNL     1       4.456  11.965   4.324  1.00  0.00     0.161 A 
ATOM      9  C   UNL     1       5.536  12.320   3.494  1.00  0.00     0.158 A 
ATOM     10  C   UNL     1       6.187  11.337   2.734  1.00  0.00     0.062 A 
ATOM     11  C   UNL     1       5.762  10.004   2.800  1.00  0.00     0.022 A 
ENDROOT
BRANCH   9  12
ATOM     12  O   UNL     1       5.957  13.648   3.430  1.00  0.00    -0.504 OA
ATOM     13  H   UNL     1       5.370  14.372   3.032  1.00  0.00     0.293 HD
ENDBRANCH   9  12
BRANCH   8  14
ATOM     14  O   UNL     1       3.792  12.922   5.090  1.00  0.00    -0.504 OA
ATOM     15  H   UNL     1       2.830  12.805   5.383  1.00  0.00     0.293 HD
ENDBRANCH   8  14
TORSDOF 2
ENDMDL
MODEL 6
REMARK VINA RESULT:    -5.007      6.790      8.866
REMARK INTER + INTRA:          -5.299
REMARK INTER:                  -5.299
REMARK INTRA:                   0.000
REMARK UNBOUND:                 0.000
REMARK SMILES O=c1ccc2cc(O)c(O)cc2o1
REMARK SMILES IDX 4 1 3 2 2 3 1 4 13 5 12 6 11 7 9 8 7 9 6 10 5 11 8 12 10 14
REMARK H PARENT 8 13 10 15
REMARK Flexibility Score: inf
ROOT
ATOM      1  C   UNL     1       3.508   5.743  -0.580  1.00  0.00     0.019 A 
ATOM      2  C   UNL     1       4.257   6.366   0.417  1.00  0.00     0.094 A 
ATOM      3  C   UNL     1       5.094   5.587   1.222  1.00  0.00     0.336 A 
ATOM      4  O   UNL     1       5.781   6.131   2.128  1.00  0.00    -0.246 OA
ATOM      5  O   UNL     1       5.172   4.272   1.039  1.00  0.00    -0.423 OA
ATOM      6  C   UNL     1       4.473   3.637   0.100  1.00  0.00     0.142 A 
ATOM      7  C   UNL     1       4.596   2.252  -0.046  1.00  0.00     0.098 A 
ATOM      8  C   UNL     1       3.865   1.578  -1.031  1.00  0.00     0.161 A 
ATOM      9  C   UNL     1       3.002   2.295  -1.880  1.00  0.00     0.158 A 
ATOM     10  C   UNL     1       2.876   3.685  -1.736  1.00  0.00     0.062 A 
ATOM     11  C   UNL     1       3.608   4.358  -0.750  1.00  0.00     0.022 A 
ENDROOT
BRANCH   9  12
ATOM     12  O   UNL     1       2.273   1.624  -2.861  1.00  0.00    -0.504 OA
ATOM     13  H   UNL     1       2.073   0.633  -2.789  1.00  0.00     0.293 HD
ENDBRANCH   9  12
BRANCH   8  14
ATOM     14  O   UNL     1       4.008   0.196  -1.152  1.00  0.00    -0.504 OA
ATOM     15  H   UNL     1       4.057  -0.263  -2.053  1.00  0.00     0.293 HD
ENDBRANCH   8  14
TORSDOF 2
ENDMDL
MODEL 7
REMARK VINA RESULT:    -4.963      5.445      7.073
REMARK INTER + INTRA:          -5.253
REMARK INTER:                  -5.253
REMARK INTRA:                   0.000
REMARK UNBOUND:                 0.000
REMARK SMILES O=c1ccc2cc(O)c(O)cc2o1
REMARK SMILES IDX 4 1 3 2 2 3 1 4 13 5 12 6 11 7 9 8 7 9 6 10 5 11 8 12 10 14
REMARK H PARENT 8 13 10 15
REMARK Flexibility Score: inf
ROOT
ATOM      1  C   UNL     1       5.907   5.688   2.265  1.00  0.00     0.019 A 
ATOM      2  C   UNL     1       6.732   6.781   2.005  1.00  0.00     0.094 A 
ATOM      3  C   UNL     1       6.478   7.568   0.877  1.00  0.00     0.336 A 
ATOM      4  O   UNL     1       7.211   8.561   0.625  1.00  0.00    -0.246 OA
ATOM      5  O   UNL     1       5.464   7.277   0.067  1.00  0.00    -0.423 OA
ATOM      6  C   UNL     1       4.653   6.243   0.278  1.00  0.00     0.142 A 
ATOM      7  C   UNL     1       3.602   5.985  -0.608  1.00  0.00     0.098 A 
ATOM      8  C   UNL     1       2.745   4.901  -0.392  1.00  0.00     0.161 A 
ATOM      9  C   UNL     1       2.939   4.063   0.723  1.00  0.00     0.158 A 
ATOM     10  C   UNL     1       3.992   4.317   1.614  1.00  0.00     0.062 A 
ATOM     11  C   UNL     1       4.849   5.404   1.396  1.00  0.00     0.022 A 
ENDROOT
BRANCH   9  12
ATOM     12  O   UNL     1       2.085   2.982   0.938  1.00  0.00    -0.504 OA
ATOM     13  H   UNL     1       2.115   2.444   1.797  1.00  0.00     0.293 HD
ENDBRANCH   9  12
BRANCH   8  14
ATOM     14  O   UNL     1       1.706   4.669  -1.294  1.00  0.00    -0.504 OA
ATOM     15  H   UNL     1       1.108   5.414  -1.627  1.00  0.00     0.293 HD
ENDBRANCH   8  14
TORSDOF 2
ENDMDL
MODEL 8
REMARK VINA RESULT:    -4.955      5.825      7.714
REMARK INTER + INTRA:          -5.245
REMARK INTER:                  -5.245
REMARK INTRA:                   0.000
REMARK UNBOUND:                 0.000
REMARK SMILES O=c1ccc2cc(O)c(O)cc2o1
REMARK SMILES IDX 4 1 3 2 2 3 1 4 13 5 12 6 11 7 9 8 7 9 6 10 5 11 8 12 10 14
REMARK H PARENT 8 13 10 15
REMARK Flexibility Score: inf
ROOT
ATOM      1  C   UNL     1       4.658   6.962  -0.200  1.00  0.00     0.019 A 
ATOM      2  C   UNL     1       5.827   7.265   0.496  1.00  0.00     0.094 A 
ATOM      3  C   UNL     1       6.315   6.348   1.433  1.00  0.00     0.336 A 
ATOM      4  O   UNL     1       7.369   6.604   2.073  1.00  0.00    -0.246 OA
ATOM      5  O   UNL     1       5.672   5.205   1.654  1.00  0.00    -0.423 OA
ATOM      6  C   UNL     1       4.554   4.876   1.012  1.00  0.00     0.142 A 
ATOM      7  C   UNL     1       3.922   3.660   1.285  1.00  0.00     0.098 A 
ATOM      8  C   UNL     1       2.746   3.307   0.614  1.00  0.00     0.161 A 
ATOM      9  C   UNL     1       2.194   4.179  -0.344  1.00  0.00     0.158 A 
ATOM     10  C   UNL     1       2.825   5.401  -0.621  1.00  0.00     0.062 A 
ATOM     11  C   UNL     1       4.003   5.752   0.052  1.00  0.00     0.022 A 
ENDROOT
BRANCH   9  12
ATOM     12  O   UNL     1       1.023   3.829  -1.013  1.00  0.00    -0.504 OA
ATOM     13  H   UNL     1       0.709   4.334  -1.834  1.00  0.00     0.293 HD
ENDBRANCH   9  12
BRANCH   8  14
ATOM     14  O   UNL     1       2.138   2.086   0.909  1.00  0.00    -0.504 OA
ATOM     15  H   UNL     1       1.146   2.010   1.092  1.00  0.00     0.293 HD
ENDBRANCH   8  14
TORSDOF 2
ENDMDL
MODEL 9
REMARK VINA RESULT:    -4.955      2.066      5.184
REMARK INTER + INTRA:          -5.245
REMARK INTER:                  -5.245
REMARK INTRA:                   0.000
REMARK UNBOUND:                 0.000
REMARK SMILES O=c1ccc2cc(O)c(O)cc2o1
REMARK SMILES IDX 4 1 3 2 2 3 1 4 13 5 12 6 11 7 9 8 7 9 6 10 5 11 8 12 10 14
REMARK H PARENT 8 13 10 15
REMARK Flexibility Score: inf
ROOT
ATOM      1  C   UNL     1       5.109   6.663   1.789  1.00  0.00     0.019 A 
ATOM      2  C   UNL     1       6.181   6.777   0.905  1.00  0.00     0.094 A 
ATOM      3  C   UNL     1       6.897   7.977   0.860  1.00  0.00     0.336 A 
ATOM      4  O   UNL     1       7.869   8.100   0.068  1.00  0.00    -0.246 OA
ATOM      5  O   UNL     1       6.559   8.993   1.649  1.00  0.00    -0.423 OA
ATOM      6  C   UNL     1       5.543   8.927   2.506  1.00  0.00     0.142 A 
ATOM      7  C   UNL     1       5.235  10.027   3.312  1.00  0.00     0.098 A 
ATOM      8  C   UNL     1       4.169   9.965   4.216  1.00  0.00     0.161 A 
ATOM      9  C   UNL     1       3.401   8.789   4.318  1.00  0.00     0.158 A 
ATOM     10  C   UNL     1       3.708   7.682   3.511  1.00  0.00     0.062 A 
ATOM     11  C   UNL     1       4.775   7.747   2.607  1.00  0.00     0.022 A 
ENDROOT
BRANCH   9  12
ATOM     12  O   UNL     1       2.339   8.726   5.218  1.00  0.00    -0.504 OA
ATOM     13  H   UNL     1       1.694   9.499   5.333  1.00  0.00     0.293 HD
ENDBRANCH   9  12
BRANCH   8  14
ATOM     14  O   UNL     1       3.885  11.079   5.006  1.00  0.00    -0.504 OA
ATOM     15  H   UNL     1       2.936  11.377   5.195  1.00  0.00     0.293 HD
ENDBRANCH   8  14
TORSDOF 2
ENDMDL
