MODEL 1
REMARK VINA RESULT:    -4.371      0.000      0.000
REMARK INTER + INTRA:         -17.505
REMARK INTER:                 -11.527
REMARK INTRA:                  -5.979
REMARK UNBOUND:                -5.979
REMARK SMILES CCCCCCCCCCCCCCCCCCCCCCCCCCCCCC(=O)[O-]
REMARK SMILES IDX 16 1 17 2 18 3 19 4 20 5 21 6 22 7 23 8 24 9 25 10 26 11
REMARK SMILES IDX 27 12 28 13 29 14 30 15 31 16 32 17 15 18 14 19 13 20 12 21
REMARK SMILES IDX 11 22 10 23 9 24 8 25 7 26 6 27 5 28 4 29 3 30 2 31 1 32
REMARK H PARENT
REMARK Flexibility Score: inf
ROOT
ATOM      1  C   UNL     1      43.742  63.948  11.424  1.00  0.00     0.000 C 
ENDROOT
BRANCH   1   2
ATOM      2  C   UNL     1      42.225  63.727  11.523  1.00  0.00     0.000 C 
BRANCH   2   3
ATOM      3  C   UNL     1      41.727  63.654  12.980  1.00  0.00     0.000 C 
BRANCH   3   4
ATOM      4  C   UNL     1      40.437  62.822  13.135  1.00  0.00     0.000 C 
BRANCH   4   5
ATOM      5  C   UNL     1      39.303  63.232  12.175  1.00  0.00     0.000 C 
BRANCH   5   6
ATOM      6  C   UNL     1      38.804  62.117  11.237  1.00  0.00     0.000 C 
BRANCH   6   7
ATOM      7  C   UNL     1      38.490  62.560   9.794  1.00  0.00     0.000 C 
BRANCH   7   8
ATOM      8  C   UNL     1      39.490  63.556   9.178  1.00  0.00     0.000 C 
BRANCH   8   9
ATOM      9  C   UNL     1      38.954  64.244   7.912  1.00  0.00     0.000 C 
BRANCH   9  10
ATOM     10  C   UNL     1      38.725  65.751   8.114  1.00  0.00     0.000 C 
BRANCH  10  11
ATOM     11  C   UNL     1      38.925  66.565   6.827  1.00  0.00     0.000 C 
BRANCH  11  12
ATOM     12  C   UNL     1      39.831  67.780   7.079  1.00  0.00     0.000 C 
BRANCH  12  13
ATOM     13  C   UNL     1      40.382  68.388   5.772  1.00  0.00     0.006 C 
BRANCH  13  14
ATOM     14  C   UNL     1      41.596  69.308   5.982  1.00  0.00     0.053 C 
BRANCH  14  15
ATOM     15  C   UNL     1      41.227  70.759   5.952  1.00  0.00     0.041 C 
ATOM     16  O   UNL     1      42.064  71.634   6.299  1.00  0.00    -0.550 OA
ATOM     17  O   UNL     1      39.948  71.144   5.565  1.00  0.00    -0.550 OA
ENDBRANCH  14  15
ENDBRANCH  13  14
ENDBRANCH  12  13
ENDBRANCH  11  12
ENDBRANCH  10  11
ENDBRANCH   9  10
ENDBRANCH   8   9
ENDBRANCH   7   8
ENDBRANCH   6   7
ENDBRANCH   5   6
ENDBRANCH   4   5
ENDBRANCH   3   4
ENDBRANCH   2   3
ENDBRANCH   1   2
BRANCH   1  18
ATOM     18  C   UNL     1      44.512  63.382  12.627  1.00  0.00     0.000 C 
BRANCH  18  19
ATOM     19  C   UNL     1      44.879  61.899  12.454  1.00  0.00     0.000 C 
BRANCH  19  20
ATOM     20  C   UNL     1      44.251  60.965  13.513  1.00  0.00     0.000 C 
BRANCH  20  21
ATOM     21  C   UNL     1      43.009  60.228  12.978  1.00  0.00     0.000 C 
BRANCH  21  22
ATOM     22  C   UNL     1      43.137  59.865  11.490  1.00  0.00     0.000 C 
BRANCH  22  23
ATOM     23  C   UNL     1      41.825  60.104  10.722  1.00  0.00     0.000 C 
BRANCH  23  24
ATOM     24  C   UNL     1      42.045  60.860   9.402  1.00  0.00    -0.000 C 
BRANCH  24  25
ATOM     25  C   UNL     1      43.535  61.112   9.111  1.00  0.00    -0.000 C 
BRANCH  25  26
ATOM     26  C   UNL     1      43.745  61.746   7.727  1.00  0.00    -0.000 C 
BRANCH  26  27
ATOM     27  C   UNL     1      42.513  62.541   7.254  1.00  0.00    -0.000 C 
BRANCH  27  28
ATOM     28  C   UNL     1      42.816  63.393   6.009  1.00  0.00    -0.000 C 
BRANCH  28  29
ATOM     29  C   UNL     1      42.142  64.774   6.084  1.00  0.00    -0.000 C 
BRANCH  29  30
ATOM     30  C   UNL     1      43.186  65.902   6.070  1.00  0.00    -0.000 C 
BRANCH  30  31
ATOM     31  C   UNL     1      43.505  66.428   7.480  1.00  0.00    -0.003 C 
ATOM     32  C   UNL     1      42.473  65.996   8.522  1.00  0.00     0.004 C 
ENDBRANCH  30  31
ENDBRANCH  29  30
ENDBRANCH  28  29
ENDBRANCH  27  28
ENDBRANCH  26  27
ENDBRANCH  25  26
ENDBRANCH  24  25
ENDBRANCH  23  24
ENDBRANCH  22  23
ENDBRANCH  21  22
ENDBRANCH  20  21
ENDBRANCH  19  20
ENDBRANCH  18  19
ENDBRANCH   1  18
TORSDOF 28
ENDMDL
MODEL 2
REMARK VINA RESULT:    -4.279      1.579      5.507
REMARK INTER + INTRA:         -17.261
REMARK INTER:                 -11.619
REMARK INTRA:                  -5.643
REMARK UNBOUND:                -5.979
REMARK SMILES CCCCCCCCCCCCCCCCCCCCCCCCCCCCCC(=O)[O-]
REMARK SMILES IDX 16 1 17 2 18 3 19 4 20 5 21 6 22 7 23 8 24 9 25 10 26 11
REMARK SMILES IDX 27 12 28 13 29 14 30 15 31 16 32 17 15 18 14 19 13 20 12 21
REMARK SMILES IDX 11 22 10 23 9 24 8 25 7 26 6 27 5 28 4 29 3 30 2 31 1 32
REMARK H PARENT
REMARK Flexibility Score: inf
ROOT
ATOM      1  C   UNL     1      42.454  66.302   8.343  1.00  0.00     0.000 C 
ENDROOT
BRANCH   1   2
ATOM      2  C   UNL     1      43.571  66.553   7.317  1.00  0.00     0.000 C 
BRANCH   2   3
ATOM      3  C   UNL     1      43.272  65.920   5.945  1.00  0.00     0.000 C 
BRANCH   3   4
ATOM      4  C   UNL     1      43.534  66.881   4.768  1.00  0.00     0.000 C 
BRANCH   4   5
ATOM      5  C   UNL     1      43.145  66.311   3.389  1.00  0.00     0.000 C 
BRANCH   5   6
ATOM      6  C   UNL     1      43.348  64.792   3.229  1.00  0.00     0.000 C 
BRANCH   6   7
ATOM      7  C   UNL     1      42.059  63.972   3.020  1.00  0.00     0.000 C 
BRANCH   7   8
ATOM      8  C   UNL     1      41.623  63.113   4.222  1.00  0.00     0.000 C 
BRANCH   8   9
ATOM      9  C   UNL     1      40.350  63.636   4.907  1.00  0.00     0.000 C 
BRANCH   9  10
ATOM     10  C   UNL     1      39.911  65.007   4.365  1.00  0.00     0.000 C 
BRANCH  10  11
ATOM     11  C   UNL     1      39.524  65.994   5.476  1.00  0.00     0.000 C 
BRANCH  11  12
ATOM     12  C   UNL     1      39.942  67.427   5.109  1.00  0.00     0.000 C 
BRANCH  12  13
ATOM     13  C   UNL     1      39.914  68.379   6.324  1.00  0.00     0.006 C 
BRANCH  13  14
ATOM     14  C   UNL     1      41.214  69.178   6.512  1.00  0.00     0.053 C 
BRANCH  14  15
ATOM     15  C   UNL     1      41.100  70.584   6.010  1.00  0.00     0.041 C 
ATOM     16  O   UNL     1      40.064  70.958   5.398  1.00  0.00    -0.550 OA
ATOM     17  O   UNL     1      42.151  71.475   6.193  1.00  0.00    -0.550 OA
ENDBRANCH  14  15
ENDBRANCH  13  14
ENDBRANCH  12  13
ENDBRANCH  11  12
ENDBRANCH  10  11
ENDBRANCH   9  10
ENDBRANCH   8   9
ENDBRANCH   7   8
ENDBRANCH   6   7
ENDBRANCH   5   6
ENDBRANCH   4   5
ENDBRANCH   3   4
ENDBRANCH   2   3
ENDBRANCH   1   2
BRANCH   1  18
ATOM     18  C   UNL     1      41.655  65.021   8.060  1.00  0.00     0.000 C 
BRANCH  18  19
ATOM     19  C   UNL     1      42.234  63.788   8.775  1.00  0.00     0.000 C 
BRANCH  19  20
ATOM     20  C   UNL     1      42.812  62.720   7.821  1.00  0.00     0.000 C 
BRANCH  20  21
ATOM     21  C   UNL     1      41.993  61.415   7.840  1.00  0.00     0.000 C 
BRANCH  21  22
ATOM     22  C   UNL     1      42.824  60.206   8.297  1.00  0.00     0.000 C 
BRANCH  22  23
ATOM     23  C   UNL     1      44.275  60.595   8.630  1.00  0.00     0.000 C 
BRANCH  23  24
ATOM     24  C   UNL     1      44.733  60.049   9.992  1.00  0.00    -0.000 C 
BRANCH  24  25
ATOM     25  C   UNL     1      45.437  61.118  10.847  1.00  0.00    -0.000 C 
BRANCH  25  26
ATOM     26  C   UNL     1      44.990  61.058  12.316  1.00  0.00    -0.000 C 
BRANCH  26  27
ATOM     27  C   UNL     1      44.639  62.449  12.877  1.00  0.00    -0.000 C 
BRANCH  27  28
ATOM     28  C   UNL     1      43.808  63.281  11.885  1.00  0.00    -0.000 C 
BRANCH  28  29
ATOM     29  C   UNL     1      42.440  63.670  12.471  1.00  0.00    -0.000 C 
BRANCH  29  30
ATOM     30  C   UNL     1      41.585  62.423  12.753  1.00  0.00    -0.000 C 
BRANCH  30  31
ATOM     31  C   UNL     1      41.304  61.601  11.484  1.00  0.00    -0.003 C 
ATOM     32  C   UNL     1      41.489  60.098  11.697  1.00  0.00     0.004 C 
ENDBRANCH  30  31
ENDBRANCH  29  30
ENDBRANCH  28  29
ENDBRANCH  27  28
ENDBRANCH  26  27
ENDBRANCH  25  26
ENDBRANCH  24  25
ENDBRANCH  23  24
ENDBRANCH  22  23
ENDBRANCH  21  22
ENDBRANCH  20  21
ENDBRANCH  19  20
ENDBRANCH  18  19
ENDBRANCH   1  18
TORSDOF 28
ENDMDL
MODEL 3
REMARK VINA RESULT:    -4.262      1.520      4.825
REMARK INTER + INTRA:         -17.218
REMARK INTER:                 -11.330
REMARK INTRA:                  -5.888
REMARK UNBOUND:                -5.979
REMARK SMILES CCCCCCCCCCCCCCCCCCCCCCCCCCCCCC(=O)[O-]
REMARK SMILES IDX 16 1 17 2 18 3 19 4 20 5 21 6 22 7 23 8 24 9 25 10 26 11
REMARK SMILES IDX 27 12 28 13 29 14 30 15 31 16 32 17 15 18 14 19 13 20 12 21
REMARK SMILES IDX 11 22 10 23 9 24 8 25 7 26 6 27 5 28 4 29 3 30 2 31 1 32
REMARK H PARENT
REMARK Flexibility Score: inf
ROOT
ATOM      1  C   UNL     1      43.360  65.197   5.595  1.00  0.00     0.000 C 
ENDROOT
BRANCH   1   2
ATOM      2  C   UNL     1      42.966  66.358   6.521  1.00  0.00     0.000 C 
BRANCH   2   3
ATOM      3  C   UNL     1      43.531  66.203   7.945  1.00  0.00     0.000 C 
BRANCH   3   4
ATOM      4  C   UNL     1      42.481  65.708   8.961  1.00  0.00     0.000 C 
BRANCH   4   5
ATOM      5  C   UNL     1      41.022  65.989   8.546  1.00  0.00     0.000 C 
BRANCH   5   6
ATOM      6  C   UNL     1      40.079  64.773   8.610  1.00  0.00     0.000 C 
BRANCH   6   7
ATOM      7  C   UNL     1      39.202  64.552   7.361  1.00  0.00     0.000 C 
BRANCH   7   8
ATOM      8  C   UNL     1      39.505  65.480   6.170  1.00  0.00     0.000 C 
BRANCH   8   9
ATOM      9  C   UNL     1      39.614  64.730   4.833  1.00  0.00     0.000 C 
BRANCH   9  10
ATOM     10  C   UNL     1      39.956  65.665   3.660  1.00  0.00     0.000 C 
BRANCH  10  11
ATOM     11  C   UNL     1      40.323  67.085   4.114  1.00  0.00     0.000 C 
BRANCH  11  12
ATOM     12  C   UNL     1      41.570  67.595   3.374  1.00  0.00     0.000 C 
BRANCH  12  13
ATOM     13  C   UNL     1      42.071  68.948   3.925  1.00  0.00     0.006 C 
BRANCH  13  14
ATOM     14  C   UNL     1      40.993  69.747   4.673  1.00  0.00     0.053 C 
BRANCH  14  15
ATOM     15  C   UNL     1      41.391  70.067   6.081  1.00  0.00     0.041 C 
ATOM     16  O   UNL     1      41.127  69.263   7.014  1.00  0.00    -0.550 OA
ATOM     17  O   UNL     1      42.031  71.267   6.368  1.00  0.00    -0.550 OA
ENDBRANCH  14  15
ENDBRANCH  13  14
ENDBRANCH  12  13
ENDBRANCH  11  12
ENDBRANCH  10  11
ENDBRANCH   9  10
ENDBRANCH   8   9
ENDBRANCH   7   8
ENDBRANCH   6   7
ENDBRANCH   5   6
ENDBRANCH   4   5
ENDBRANCH   3   4
ENDBRANCH   2   3
ENDBRANCH   1   2
BRANCH   1  18
ATOM     18  C   UNL     1      43.598  63.880   6.350  1.00  0.00     0.000 C 
BRANCH  18  19
ATOM     19  C   UNL     1      42.388  62.933   6.290  1.00  0.00     0.000 C 
BRANCH  19  20
ATOM     20  C   UNL     1      42.393  61.834   7.376  1.00  0.00     0.000 C 
BRANCH  20  21
ATOM     21  C   UNL     1      43.466  62.083   8.453  1.00  0.00     0.000 C 
BRANCH  21  22
ATOM     22  C   UNL     1      44.459  60.917   8.572  1.00  0.00     0.000 C 
BRANCH  22  23
ATOM     23  C   UNL     1      44.326  60.179   9.915  1.00  0.00     0.000 C 
BRANCH  23  24
ATOM     24  C   UNL     1      45.209  60.791  11.014  1.00  0.00    -0.000 C 
BRANCH  24  25
ATOM     25  C   UNL     1      44.569  60.686  12.409  1.00  0.00    -0.000 C 
BRANCH  25  26
ATOM     26  C   UNL     1      44.406  62.065  13.067  1.00  0.00    -0.000 C 
BRANCH  26  27
ATOM     27  C   UNL     1      44.235  63.191  12.029  1.00  0.00    -0.000 C 
BRANCH  27  28
ATOM     28  C   UNL     1      42.889  63.922  12.184  1.00  0.00    -0.000 C 
BRANCH  28  29
ATOM     29  C   UNL     1      41.863  63.072  12.952  1.00  0.00    -0.000 C 
BRANCH  29  30
ATOM     30  C   UNL     1      40.590  62.854  12.119  1.00  0.00    -0.000 C 
BRANCH  30  31
ATOM     31  C   UNL     1      40.835  61.961  10.890  1.00  0.00    -0.003 C 
ATOM     32  C   UNL     1      40.995  60.484  11.253  1.00  0.00     0.004 C 
ENDBRANCH  30  31
ENDBRANCH  29  30
ENDBRANCH  28  29
ENDBRANCH  27  28
ENDBRANCH  26  27
ENDBRANCH  25  26
ENDBRANCH  24  25
ENDBRANCH  23  24
ENDBRANCH  22  23
ENDBRANCH  21  22
ENDBRANCH  20  21
ENDBRANCH  19  20
ENDBRANCH  18  19
ENDBRANCH   1  18
TORSDOF 28
ENDMDL
MODEL 4
REMARK VINA RESULT:    -4.233      1.259      4.935
REMARK INTER + INTRA:         -17.139
REMARK INTER:                 -11.140
REMARK INTRA:                  -5.999
REMARK UNBOUND:                -5.979
REMARK SMILES CCCCCCCCCCCCCCCCCCCCCCCCCCCCCC(=O)[O-]
REMARK SMILES IDX 16 1 17 2 18 3 19 4 20 5 21 6 22 7 23 8 24 9 25 10 26 11
REMARK SMILES IDX 27 12 28 13 29 14 30 15 31 16 32 17 15 18 14 19 13 20 12 21
REMARK SMILES IDX 11 22 10 23 9 24 8 25 7 26 6 27 5 28 4 29 3 30 2 31 1 32
REMARK H PARENT
REMARK Flexibility Score: inf
ROOT
ATOM      1  C   UNL     1      42.669  62.166   8.731  1.00  0.00     0.000 C 
ENDROOT
BRANCH   1   2
ATOM      2  C   UNL     1      41.607  62.184   7.621  1.00  0.00     0.000 C 
BRANCH   2   3
ATOM      3  C   UNL     1      42.221  62.168   6.208  1.00  0.00     0.000 C 
BRANCH   3   4
ATOM      4  C   UNL     1      41.578  63.201   5.260  1.00  0.00     0.000 C 
BRANCH   4   5
ATOM      5  C   UNL     1      42.540  64.310   4.791  1.00  0.00     0.000 C 
BRANCH   5   6
ATOM      6  C   UNL     1      43.526  64.816   5.861  1.00  0.00     0.000 C 
BRANCH   6   7
ATOM      7  C   UNL     1      43.456  66.326   6.163  1.00  0.00     0.000 C 
BRANCH   7   8
ATOM      8  C   UNL     1      43.380  66.697   7.656  1.00  0.00     0.000 C 
BRANCH   8   9
ATOM      9  C   UNL     1      42.507  65.730   8.473  1.00  0.00     0.000 C 
BRANCH   9  10
ATOM     10  C   UNL     1      41.075  66.255   8.672  1.00  0.00     0.000 C 
BRANCH  10  11
ATOM     11  C   UNL     1      40.030  65.454   7.882  1.00  0.00     0.000 C 
BRANCH  11  12
ATOM     12  C   UNL     1      39.757  66.102   6.515  1.00  0.00     0.000 C 
BRANCH  12  13
ATOM     13  C   UNL     1      39.311  67.575   6.638  1.00  0.00     0.006 C 
BRANCH  13  14
ATOM     14  C   UNL     1      39.778  68.461   5.472  1.00  0.00     0.053 C 
BRANCH  14  15
ATOM     15  C   UNL     1      41.065  69.166   5.769  1.00  0.00     0.041 C 
ATOM     16  O   UNL     1      41.359  69.481   6.953  1.00  0.00    -0.550 OA
ATOM     17  O   UNL     1      41.930  69.500   4.733  1.00  0.00    -0.550 OA
ENDBRANCH  14  15
ENDBRANCH  13  14
ENDBRANCH  12  13
ENDBRANCH  11  12
ENDBRANCH  10  11
ENDBRANCH   9  10
ENDBRANCH   8   9
ENDBRANCH   7   8
ENDBRANCH   6   7
ENDBRANCH   5   6
ENDBRANCH   4   5
ENDBRANCH   3   4
ENDBRANCH   2   3
ENDBRANCH   1   2
BRANCH   1  18
ATOM     18  C   UNL     1      43.930  61.379   8.343  1.00  0.00     0.000 C 
BRANCH  18  19
ATOM     19  C   UNL     1      44.081  60.068   9.132  1.00  0.00     0.000 C 
BRANCH  19  20
ATOM     20  C   UNL     1      42.739  59.414   9.531  1.00  0.00     0.000 C 
BRANCH  20  21
ATOM     21  C   UNL     1      42.561  59.331  11.058  1.00  0.00     0.000 C 
BRANCH  21  22
ATOM     22  C   UNL     1      41.084  59.377  11.481  1.00  0.00     0.000 C 
BRANCH  22  23
ATOM     23  C   UNL     1      40.163  59.786  10.319  1.00  0.00     0.000 C 
BRANCH  23  24
ATOM     24  C   UNL     1      39.108  60.821  10.741  1.00  0.00    -0.000 C 
BRANCH  24  25
ATOM     25  C   UNL     1      39.682  62.247  10.821  1.00  0.00    -0.000 C 
BRANCH  25  26
ATOM     26  C   UNL     1      39.388  62.904  12.178  1.00  0.00    -0.000 C 
BRANCH  26  27
ATOM     27  C   UNL     1      40.668  63.145  13.002  1.00  0.00    -0.000 C 
BRANCH  27  28
ATOM     28  C   UNL     1      41.940  62.787  12.212  1.00  0.00    -0.000 C 
BRANCH  28  29
ATOM     29  C   UNL     1      42.791  64.031  11.907  1.00  0.00    -0.000 C 
BRANCH  29  30
ATOM     30  C   UNL     1      44.277  63.771  12.201  1.00  0.00    -0.000 C 
BRANCH  30  31
ATOM     31  C   UNL     1      44.651  62.284  12.078  1.00  0.00    -0.003 C 
ATOM     32  C   UNL     1      45.055  61.660  13.414  1.00  0.00     0.004 C 
ENDBRANCH  30  31
ENDBRANCH  29  30
ENDBRANCH  28  29
ENDBRANCH  27  28
ENDBRANCH  26  27
ENDBRANCH  25  26
ENDBRANCH  24  25
ENDBRANCH  23  24
ENDBRANCH  22  23
ENDBRANCH  21  22
ENDBRANCH  20  21
ENDBRANCH  19  20
ENDBRANCH  18  19
ENDBRANCH   1  18
TORSDOF 28
ENDMDL
MODEL 5
REMARK VINA RESULT:    -4.173      1.614      5.509
REMARK INTER + INTRA:         -16.982
REMARK INTER:                 -11.157
REMARK INTRA:                  -5.825
REMARK UNBOUND:                -5.979
REMARK SMILES CCCCCCCCCCCCCCCCCCCCCCCCCCCCCC(=O)[O-]
REMARK SMILES IDX 16 1 17 2 18 3 19 4 20 5 21 6 22 7 23 8 24 9 25 10 26 11
REMARK SMILES IDX 27 12 28 13 29 14 30 15 31 16 32 17 15 18 14 19 13 20 12 21
REMARK SMILES IDX 11 22 10 23 9 24 8 25 7 26 6 27 5 28 4 29 3 30 2 31 1 32
REMARK H PARENT
REMARK Flexibility Score: inf
ROOT
ATOM      1  C   UNL     1      42.480  65.650   8.356  1.00  0.00     0.000 C 
ENDROOT
BRANCH   1   2
ATOM      2  C   UNL     1      43.437  66.397   7.413  1.00  0.00     0.000 C 
BRANCH   2   3
ATOM      3  C   UNL     1      43.410  65.843   5.975  1.00  0.00     0.000 C 
BRANCH   3   4
ATOM      4  C   UNL     1      43.217  66.942   4.910  1.00  0.00     0.000 C 
BRANCH   4   5
ATOM      5  C   UNL     1      43.138  66.411   3.464  1.00  0.00     0.000 C 
BRANCH   5   6
ATOM      6  C   UNL     1      43.560  64.941   3.283  1.00  0.00     0.000 C 
BRANCH   6   7
ATOM      7  C   UNL     1      42.422  63.968   2.912  1.00  0.00     0.000 C 
BRANCH   7   8
ATOM      8  C   UNL     1      42.082  62.914   3.982  1.00  0.00     0.000 C 
BRANCH   8   9
ATOM      9  C   UNL     1      40.897  63.319   4.873  1.00  0.00     0.000 C 
BRANCH   9  10
ATOM     10  C   UNL     1      40.034  64.423   4.238  1.00  0.00     0.000 C 
BRANCH  10  11
ATOM     11  C   UNL     1      39.719  65.570   5.210  1.00  0.00     0.000 C 
BRANCH  11  12
ATOM     12  C   UNL     1      39.586  66.905   4.461  1.00  0.00     0.000 C 
BRANCH  12  13
ATOM     13  C   UNL     1      39.630  68.122   5.410  1.00  0.00     0.006 C 
BRANCH  13  14
ATOM     14  C   UNL     1      40.379  69.332   4.829  1.00  0.00     0.053 C 
BRANCH  14  15
ATOM     15  C   UNL     1      41.140  70.090   5.872  1.00  0.00     0.041 C 
ATOM     16  O   UNL     1      41.386  71.315   5.713  1.00  0.00    -0.550 OA
ATOM     17  O   UNL     1      41.602  69.437   7.009  1.00  0.00    -0.550 OA
ENDBRANCH  14  15
ENDBRANCH  13  14
ENDBRANCH  12  13
ENDBRANCH  11  12
ENDBRANCH  10  11
ENDBRANCH   9  10
ENDBRANCH   8   9
ENDBRANCH   7   8
ENDBRANCH   6   7
ENDBRANCH   5   6
ENDBRANCH   4   5
ENDBRANCH   3   4
ENDBRANCH   2   3
ENDBRANCH   1   2
BRANCH   1  18
ATOM     18  C   UNL     1      41.097  66.312   8.455  1.00  0.00     0.000 C 
BRANCH  18  19
ATOM     19  C   UNL     1      39.980  65.309   8.786  1.00  0.00     0.000 C 
BRANCH  19  20
ATOM     20  C   UNL     1      40.385  63.830   8.602  1.00  0.00     0.000 C 
BRANCH  20  21
ATOM     21  C   UNL     1      39.801  62.923   9.702  1.00  0.00     0.000 C 
BRANCH  21  22
ATOM     22  C   UNL     1      40.871  62.437  10.692  1.00  0.00     0.000 C 
BRANCH  22  23
ATOM     23  C   UNL     1      40.616  62.953  12.119  1.00  0.00     0.000 C 
BRANCH  23  24
ATOM     24  C   UNL     1      41.916  63.316  12.855  1.00  0.00    -0.000 C 
BRANCH  24  25
ATOM     25  C   UNL     1      43.071  63.626  11.887  1.00  0.00    -0.000 C 
BRANCH  25  26
ATOM     26  C   UNL     1      44.397  63.016  12.369  1.00  0.00    -0.000 C 
BRANCH  26  27
ATOM     27  C   UNL     1      44.869  61.857  11.470  1.00  0.00    -0.000 C 
BRANCH  27  28
ATOM     28  C   UNL     1      44.020  60.589  11.669  1.00  0.00    -0.000 C 
BRANCH  28  29
ATOM     29  C   UNL     1      43.684  59.912  10.329  1.00  0.00    -0.000 C 
BRANCH  29  30
ATOM     30  C   UNL     1      44.230  60.727   9.145  1.00  0.00    -0.000 C 
BRANCH  30  31
ATOM     31  C   UNL     1      43.120  61.184   8.183  1.00  0.00    -0.003 C 
ATOM     32  C   UNL     1      43.538  62.372   7.316  1.00  0.00     0.004 C 
ENDBRANCH  30  31
ENDBRANCH  29  30
ENDBRANCH  28  29
ENDBRANCH  27  28
ENDBRANCH  26  27
ENDBRANCH  25  26
ENDBRANCH  24  25
ENDBRANCH  23  24
ENDBRANCH  22  23
ENDBRANCH  21  22
ENDBRANCH  20  21
ENDBRANCH  19  20
ENDBRANCH  18  19
ENDBRANCH   1  18
TORSDOF 28
ENDMDL
MODEL 6
REMARK VINA RESULT:    -4.165      3.514      6.502
REMARK INTER + INTRA:         -16.960
REMARK INTER:                 -10.781
REMARK INTRA:                  -6.179
REMARK UNBOUND:                -5.979
REMARK SMILES CCCCCCCCCCCCCCCCCCCCCCCCCCCCCC(=O)[O-]
REMARK SMILES IDX 16 1 17 2 18 3 19 4 20 5 21 6 22 7 23 8 24 9 25 10 26 11
REMARK SMILES IDX 27 12 28 13 29 14 30 15 31 16 32 17 15 18 14 19 13 20 12 21
REMARK SMILES IDX 11 22 10 23 9 24 8 25 7 26 6 27 5 28 4 29 3 30 2 31 1 32
REMARK H PARENT
REMARK Flexibility Score: inf
ROOT
ATOM      1  C   UNL     1      43.083  64.495  11.145  1.00  0.00     0.000 C 
ENDROOT
BRANCH   1   2
ATOM      2  C   UNL     1      42.226  63.300  11.593  1.00  0.00     0.000 C 
BRANCH   2   3
ATOM      3  C   UNL     1      41.635  63.486  13.003  1.00  0.00     0.000 C 
BRANCH   3   4
ATOM      4  C   UNL     1      40.189  62.962  13.124  1.00  0.00     0.000 C 
BRANCH   4   5
ATOM      5  C   UNL     1      39.381  63.032  11.813  1.00  0.00     0.000 C 
BRANCH   5   6
ATOM      6  C   UNL     1      38.927  61.671  11.251  1.00  0.00     0.000 C 
BRANCH   6   7
ATOM      7  C   UNL     1      39.872  61.039  10.209  1.00  0.00     0.000 C 
BRANCH   7   8
ATOM      8  C   UNL     1      40.856  59.991  10.763  1.00  0.00     0.000 C 
BRANCH   8   9
ATOM      9  C   UNL     1      41.976  59.633   9.772  1.00  0.00     0.000 C 
BRANCH   9  10
ATOM     10  C   UNL     1      42.278  60.777   8.789  1.00  0.00     0.000 C 
BRANCH  10  11
ATOM     11  C   UNL     1      43.750  61.216   8.817  1.00  0.00     0.000 C 
BRANCH  11  12
ATOM     12  C   UNL     1      44.674  60.024   9.114  1.00  0.00     0.000 C 
BRANCH  12  13
ATOM     13  C   UNL     1      45.525  60.239  10.384  1.00  0.00     0.006 C 
BRANCH  13  14
ATOM     14  C   UNL     1      45.058  61.423  11.247  1.00  0.00     0.053 C 
BRANCH  14  15
ATOM     15  C   UNL     1      44.688  61.008  12.637  1.00  0.00     0.041 C 
ATOM     16  O   UNL     1      44.003  59.967  12.828  1.00  0.00    -0.550 OA
ATOM     17  O   UNL     1      45.075  61.786  13.722  1.00  0.00    -0.550 OA
ENDBRANCH  14  15
ENDBRANCH  13  14
ENDBRANCH  12  13
ENDBRANCH  11  12
ENDBRANCH  10  11
ENDBRANCH   9  10
ENDBRANCH   8   9
ENDBRANCH   7   8
ENDBRANCH   6   7
ENDBRANCH   5   6
ENDBRANCH   4   5
ENDBRANCH   3   4
ENDBRANCH   2   3
ENDBRANCH   1   2
BRANCH   1  18
ATOM     18  C   UNL     1      42.673  65.045   9.770  1.00  0.00     0.000 C 
BRANCH  18  19
ATOM     19  C   UNL     1      41.541  64.235   9.117  1.00  0.00     0.000 C 
BRANCH  19  20
ATOM     20  C   UNL     1      40.263  65.054   8.830  1.00  0.00     0.000 C 
BRANCH  20  21
ATOM     21  C   UNL     1      39.478  64.507   7.623  1.00  0.00     0.000 C 
BRANCH  21  22
ATOM     22  C   UNL     1      40.097  63.221   7.054  1.00  0.00     0.000 C 
BRANCH  22  23
ATOM     23  C   UNL     1      40.584  63.406   5.606  1.00  0.00     0.000 C 
BRANCH  23  24
ATOM     24  C   UNL     1      42.013  62.880   5.395  1.00  0.00    -0.000 C 
BRANCH  24  25
ATOM     25  C   UNL     1      43.079  63.831   5.967  1.00  0.00    -0.000 C 
BRANCH  25  26
ATOM     26  C   UNL     1      43.494  64.903   4.947  1.00  0.00    -0.000 C 
BRANCH  26  27
ATOM     27  C   UNL     1      42.855  66.273   5.246  1.00  0.00    -0.000 C 
BRANCH  27  28
ATOM     28  C   UNL     1      43.094  66.717   6.700  1.00  0.00    -0.000 C 
BRANCH  28  29
ATOM     29  C   UNL     1      42.047  67.746   7.162  1.00  0.00    -0.000 C 
BRANCH  29  30
ATOM     30  C   UNL     1      41.119  68.150   6.003  1.00  0.00    -0.000 C 
BRANCH  30  31
ATOM     31  C   UNL     1      39.642  67.835   6.295  1.00  0.00    -0.003 C 
ATOM     32  C   UNL     1      38.891  67.320   5.066  1.00  0.00     0.004 C 
ENDBRANCH  30  31
ENDBRANCH  29  30
ENDBRANCH  28  29
ENDBRANCH  27  28
ENDBRANCH  26  27
ENDBRANCH  25  26
ENDBRANCH  24  25
ENDBRANCH  23  24
ENDBRANCH  22  23
ENDBRANCH  21  22
ENDBRANCH  20  21
ENDBRANCH  19  20
ENDBRANCH  18  19
ENDBRANCH   1  18
TORSDOF 28
ENDMDL
MODEL 7
REMARK VINA RESULT:    -4.133      1.382      4.949
REMARK INTER + INTRA:         -16.877
REMARK INTER:                 -11.026
REMARK INTRA:                  -5.851
REMARK UNBOUND:                -5.979
REMARK SMILES CCCCCCCCCCCCCCCCCCCCCCCCCCCCCC(=O)[O-]
REMARK SMILES IDX 16 1 17 2 18 3 19 4 20 5 21 6 22 7 23 8 24 9 25 10 26 11
REMARK SMILES IDX 27 12 28 13 29 14 30 15 31 16 32 17 15 18 14 19 13 20 12 21
REMARK SMILES IDX 11 22 10 23 9 24 8 25 7 26 6 27 5 28 4 29 3 30 2 31 1 32
REMARK H PARENT
REMARK Flexibility Score: inf
ROOT
ATOM      1  C   UNL     1      42.369  64.099   8.652  1.00  0.00     0.000 C 
ENDROOT
BRANCH   1   2
ATOM      2  C   UNL     1      41.085  64.942   8.616  1.00  0.00     0.000 C 
BRANCH   2   3
ATOM      3  C   UNL     1      40.001  64.338   7.703  1.00  0.00     0.000 C 
BRANCH   3   4
ATOM      4  C   UNL     1      39.339  65.382   6.781  1.00  0.00     0.000 C 
BRANCH   4   5
ATOM      5  C   UNL     1      39.376  65.016   5.284  1.00  0.00     0.000 C 
BRANCH   5   6
ATOM      6  C   UNL     1      40.143  63.724   4.946  1.00  0.00     0.000 C 
BRANCH   6   7
ATOM      7  C   UNL     1      41.358  63.903   4.013  1.00  0.00     0.000 C 
BRANCH   7   8
ATOM      8  C   UNL     1      42.734  63.739   4.686  1.00  0.00     0.000 C 
BRANCH   8   9
ATOM      9  C   UNL     1      43.299  65.061   5.233  1.00  0.00     0.000 C 
BRANCH   9  10
ATOM     10  C   UNL     1      43.173  66.216   4.225  1.00  0.00     0.000 C 
BRANCH  10  11
ATOM     11  C   UNL     1      42.352  67.395   4.765  1.00  0.00     0.000 C 
BRANCH  11  12
ATOM     12  C   UNL     1      42.329  67.392   6.302  1.00  0.00     0.000 C 
BRANCH  12  13
ATOM     13  C   UNL     1      41.414  68.492   6.882  1.00  0.00     0.006 C 
BRANCH  13  14
ATOM     14  C   UNL     1      40.688  69.319   5.809  1.00  0.00     0.053 C 
BRANCH  14  15
ATOM     15  C   UNL     1      41.248  70.701   5.675  1.00  0.00     0.041 C 
ATOM     16  O   UNL     1      42.032  71.157   6.551  1.00  0.00    -0.550 OA
ATOM     17  O   UNL     1      40.883  71.499   4.596  1.00  0.00    -0.550 OA
ENDBRANCH  14  15
ENDBRANCH  13  14
ENDBRANCH  12  13
ENDBRANCH  11  12
ENDBRANCH  10  11
ENDBRANCH   9  10
ENDBRANCH   8   9
ENDBRANCH   7   8
ENDBRANCH   6   7
ENDBRANCH   5   6
ENDBRANCH   4   5
ENDBRANCH   3   4
ENDBRANCH   2   3
ENDBRANCH   1   2
BRANCH   1  18
ATOM     18  C   UNL     1      42.146  62.645   8.205  1.00  0.00     0.000 C 
BRANCH  18  19
ATOM     19  C   UNL     1      43.439  61.965   7.725  1.00  0.00     0.000 C 
BRANCH  19  20
ATOM     20  C   UNL     1      44.157  61.136   8.813  1.00  0.00     0.000 C 
BRANCH  20  21
ATOM     21  C   UNL     1      43.569  59.720   8.951  1.00  0.00     0.000 C 
BRANCH  21  22
ATOM     22  C   UNL     1      42.793  59.531  10.264  1.00  0.00     0.000 C 
BRANCH  22  23
ATOM     23  C   UNL     1      41.270  59.554  10.044  1.00  0.00     0.000 C 
BRANCH  23  24
ATOM     24  C   UNL     1      40.519  60.239  11.198  1.00  0.00    -0.000 C 
BRANCH  24  25
ATOM     25  C   UNL     1      39.683  61.440  10.722  1.00  0.00    -0.000 C 
BRANCH  25  26
ATOM     26  C   UNL     1      40.100  62.740  11.429  1.00  0.00    -0.000 C 
BRANCH  26  27
ATOM     27  C   UNL     1      41.061  62.483  12.606  1.00  0.00    -0.000 C 
BRANCH  27  28
ATOM     28  C   UNL     1      42.248  63.462  12.607  1.00  0.00    -0.000 C 
BRANCH  28  29
ATOM     29  C   UNL     1      43.440  62.915  11.801  1.00  0.00    -0.000 C 
BRANCH  29  30
ATOM     30  C   UNL     1      44.755  63.076  12.581  1.00  0.00    -0.000 C 
BRANCH  30  31
ATOM     31  C   UNL     1      44.935  61.996  13.662  1.00  0.00    -0.003 C 
ATOM     32  C   UNL     1      44.560  60.597  13.171  1.00  0.00     0.004 C 
ENDBRANCH  30  31
ENDBRANCH  29  30
ENDBRANCH  28  29
ENDBRANCH  27  28
ENDBRANCH  26  27
ENDBRANCH  25  26
ENDBRANCH  24  25
ENDBRANCH  23  24
ENDBRANCH  22  23
ENDBRANCH  21  22
ENDBRANCH  20  21
ENDBRANCH  19  20
ENDBRANCH  18  19
ENDBRANCH   1  18
TORSDOF 28
ENDMDL
MODEL 8
REMARK VINA RESULT:    -4.122      2.914      6.486
REMARK INTER + INTRA:         -16.847
REMARK INTER:                 -11.445
REMARK INTRA:                  -5.401
REMARK UNBOUND:                -5.979
REMARK SMILES CCCCCCCCCCCCCCCCCCCCCCCCCCCCCC(=O)[O-]
REMARK SMILES IDX 16 1 17 2 18 3 19 4 20 5 21 6 22 7 23 8 24 9 25 10 26 11
REMARK SMILES IDX 27 12 28 13 29 14 30 15 31 16 32 17 15 18 14 19 13 20 12 21
REMARK SMILES IDX 11 22 10 23 9 24 8 25 7 26 6 27 5 28 4 29 3 30 2 31 1 32
REMARK H PARENT
REMARK Flexibility Score: inf
ROOT
ATOM      1  C   UNL     1      42.663  64.795   8.612  1.00  0.00     0.000 C 
ENDROOT
BRANCH   1   2
ATOM      2  C   UNL     1      41.687  65.970   8.442  1.00  0.00     0.000 C 
BRANCH   2   3
ATOM      3  C   UNL     1      40.364  65.554   7.771  1.00  0.00     0.000 C 
BRANCH   3   4
ATOM      4  C   UNL     1      39.745  66.675   6.913  1.00  0.00     0.000 C 
BRANCH   4   5
ATOM      5  C   UNL     1      40.708  67.839   6.605  1.00  0.00     0.000 C 
BRANCH   5   6
ATOM      6  C   UNL     1      40.302  68.727   5.414  1.00  0.00     0.000 C 
BRANCH   6   7
ATOM      7  C   UNL     1      41.456  69.499   4.743  1.00  0.00     0.000 C 
BRANCH   7   8
ATOM      8  C   UNL     1      41.766  69.091   3.290  1.00  0.00     0.000 C 
BRANCH   8   9
ATOM      9  C   UNL     1      43.171  68.492   3.119  1.00  0.00     0.000 C 
BRANCH   9  10
ATOM     10  C   UNL     1      43.179  66.960   3.265  1.00  0.00     0.000 C 
BRANCH  10  11
ATOM     11  C   UNL     1      43.530  66.497   4.687  1.00  0.00     0.000 C 
BRANCH  11  12
ATOM     12  C   UNL     1      43.021  65.069   4.941  1.00  0.00     0.000 C 
BRANCH  12  13
ATOM     13  C   UNL     1      41.805  64.709   4.061  1.00  0.00     0.006 C 
BRANCH  13  14
ATOM     14  C   UNL     1      40.914  63.608   4.658  1.00  0.00     0.053 C 
BRANCH  14  15
ATOM     15  C   UNL     1      41.331  62.237   4.224  1.00  0.00     0.041 C 
ATOM     16  O   UNL     1      42.029  62.084   3.187  1.00  0.00    -0.550 OA
ATOM     17  O   UNL     1      40.924  61.124   4.951  1.00  0.00    -0.550 OA
ENDBRANCH  14  15
ENDBRANCH  13  14
ENDBRANCH  12  13
ENDBRANCH  11  12
ENDBRANCH  10  11
ENDBRANCH   9  10
ENDBRANCH   8   9
ENDBRANCH   7   8
ENDBRANCH   6   7
ENDBRANCH   5   6
ENDBRANCH   4   5
ENDBRANCH   3   4
ENDBRANCH   2   3
ENDBRANCH   1   2
BRANCH   1  18
ATOM     18  C   UNL     1      42.080  63.456   8.131  1.00  0.00     0.000 C 
BRANCH  18  19
ATOM     19  C   UNL     1      43.136  62.546   7.483  1.00  0.00     0.000 C 
BRANCH  19  20
ATOM     20  C   UNL     1      43.227  61.138   8.111  1.00  0.00     0.000 C 
BRANCH  20  21
ATOM     21  C   UNL     1      44.622  60.848   8.694  1.00  0.00     0.000 C 
BRANCH  21  22
ATOM     22  C   UNL     1      44.557  60.052  10.007  1.00  0.00     0.000 C 
BRANCH  22  23
ATOM     23  C   UNL     1      45.320  60.750  11.145  1.00  0.00     0.000 C 
BRANCH  23  24
ATOM     24  C   UNL     1      44.648  60.551  12.514  1.00  0.00    -0.000 C 
BRANCH  24  25
ATOM     25  C   UNL     1      44.436  61.878  13.262  1.00  0.00    -0.000 C 
BRANCH  25  26
ATOM     26  C   UNL     1      44.473  63.082  12.308  1.00  0.00    -0.000 C 
BRANCH  26  27
ATOM     27  C   UNL     1      43.062  63.560  11.914  1.00  0.00    -0.000 C 
BRANCH  27  28
ATOM     28  C   UNL     1      42.001  63.147  12.950  1.00  0.00    -0.000 C 
BRANCH  28  29
ATOM     29  C   UNL     1      40.825  62.402  12.295  1.00  0.00    -0.000 C 
BRANCH  29  30
ATOM     30  C   UNL     1      41.296  61.580  11.084  1.00  0.00    -0.000 C 
BRANCH  30  31
ATOM     31  C   UNL     1      40.632  60.194  11.019  1.00  0.00    -0.003 C 
ATOM     32  C   UNL     1      41.440  59.115  11.741  1.00  0.00     0.004 C 
ENDBRANCH  30  31
ENDBRANCH  29  30
ENDBRANCH  28  29
ENDBRANCH  27  28
ENDBRANCH  26  27
ENDBRANCH  25  26
ENDBRANCH  24  25
ENDBRANCH  23  24
ENDBRANCH  22  23
ENDBRANCH  21  22
ENDBRANCH  20  21
ENDBRANCH  19  20
ENDBRANCH  18  19
ENDBRANCH   1  18
TORSDOF 28
ENDMDL
MODEL 9
REMARK VINA RESULT:    -4.112      1.634      5.158
REMARK INTER + INTRA:         -16.821
REMARK INTER:                 -11.512
REMARK INTRA:                  -5.309
REMARK UNBOUND:                -5.979
REMARK SMILES CCCCCCCCCCCCCCCCCCCCCCCCCCCCCC(=O)[O-]
REMARK SMILES IDX 16 1 17 2 18 3 19 4 20 5 21 6 22 7 23 8 24 9 25 10 26 11
REMARK SMILES IDX 27 12 28 13 29 14 30 15 31 16 32 17 15 18 14 19 13 20 12 21
REMARK SMILES IDX 11 22 10 23 9 24 8 25 7 26 6 27 5 28 4 29 3 30 2 31 1 32
REMARK H PARENT
REMARK Flexibility Score: inf
ROOT
ATOM      1  C   UNL     1      42.401  64.682   8.971  1.00  0.00     0.000 C 
ENDROOT
BRANCH   1   2
ATOM      2  C   UNL     1      41.012  65.317   8.801  1.00  0.00     0.000 C 
BRANCH   2   3
ATOM      3  C   UNL     1      39.900  64.271   8.593  1.00  0.00     0.000 C 
BRANCH   3   4
ATOM      4  C   UNL     1      39.233  64.369   7.205  1.00  0.00     0.000 C 
BRANCH   4   5
ATOM      5  C   UNL     1      39.916  65.364   6.246  1.00  0.00     0.000 C 
BRANCH   5   6
ATOM      6  C   UNL     1      40.414  64.758   4.920  1.00  0.00     0.000 C 
BRANCH   6   7
ATOM      7  C   UNL     1      41.704  63.919   5.022  1.00  0.00     0.000 C 
BRANCH   7   8
ATOM      8  C   UNL     1      43.012  64.728   5.098  1.00  0.00     0.000 C 
BRANCH   8   9
ATOM      9  C   UNL     1      43.377  65.411   3.769  1.00  0.00     0.000 C 
BRANCH   9  10
ATOM     10  C   UNL     1      43.383  66.945   3.878  1.00  0.00     0.000 C 
BRANCH  10  11
ATOM     11  C   UNL     1      42.133  67.593   3.267  1.00  0.00     0.000 C 
BRANCH  11  12
ATOM     12  C   UNL     1      41.873  68.977   3.883  1.00  0.00     0.000 C 
BRANCH  12  13
ATOM     13  C   UNL     1      40.398  69.175   4.292  1.00  0.00     0.006 C 
BRANCH  13  14
ATOM     14  C   UNL     1      40.144  68.986   5.796  1.00  0.00     0.053 C 
BRANCH  14  15
ATOM     15  C   UNL     1      41.388  69.151   6.612  1.00  0.00     0.041 C 
ATOM     16  O   UNL     1      42.042  68.141   6.986  1.00  0.00    -0.550 OA
ATOM     17  O   UNL     1      41.813  70.422   6.984  1.00  0.00    -0.550 OA
ENDBRANCH  14  15
ENDBRANCH  13  14
ENDBRANCH  12  13
ENDBRANCH  11  12
ENDBRANCH  10  11
ENDBRANCH   9  10
ENDBRANCH   8   9
ENDBRANCH   7   8
ENDBRANCH   6   7
ENDBRANCH   5   6
ENDBRANCH   4   5
ENDBRANCH   3   4
ENDBRANCH   2   3
ENDBRANCH   1   2
BRANCH   1  18
ATOM     18  C   UNL     1      42.353  63.149   9.063  1.00  0.00     0.000 C 
BRANCH  18  19
ATOM     19  C   UNL     1      43.172  62.461   7.958  1.00  0.00     0.000 C 
BRANCH  19  20
ATOM     20  C   UNL     1      43.421  60.956   8.203  1.00  0.00     0.000 C 
BRANCH  20  21
ATOM     21  C   UNL     1      44.858  60.672   8.679  1.00  0.00     0.000 C 
BRANCH  21  22
ATOM     22  C   UNL     1      44.902  60.083  10.097  1.00  0.00     0.000 C 
BRANCH  22  23
ATOM     23  C   UNL     1      45.103  61.168  11.168  1.00  0.00     0.000 C 
BRANCH  23  24
ATOM     24  C   UNL     1      44.698  60.691  12.573  1.00  0.00    -0.000 C 
BRANCH  24  25
ATOM     25  C   UNL     1      43.918  61.762  13.354  1.00  0.00    -0.000 C 
BRANCH  25  26
ATOM     26  C   UNL     1      43.825  63.082  12.574  1.00  0.00    -0.000 C 
BRANCH  26  27
ATOM     27  C   UNL     1      42.399  63.667  12.581  1.00  0.00    -0.000 C 
BRANCH  27  28
ATOM     28  C   UNL     1      41.346  62.620  12.982  1.00  0.00    -0.000 C 
BRANCH  28  29
ATOM     29  C   UNL     1      40.179  62.572  11.980  1.00  0.00    -0.000 C 
BRANCH  29  30
ATOM     30  C   UNL     1      39.970  61.147  11.441  1.00  0.00    -0.000 C 
BRANCH  30  31
ATOM     31  C   UNL     1      41.294  60.458  11.069  1.00  0.00    -0.003 C 
ATOM     32  C   UNL     1      41.419  59.052  11.659  1.00  0.00     0.004 C 
ENDBRANCH  30  31
ENDBRANCH  29  30
ENDBRANCH  28  29
ENDBRANCH  27  28
ENDBRANCH  26  27
ENDBRANCH  25  26
ENDBRANCH  24  25
ENDBRANCH  23  24
ENDBRANCH  22  23
ENDBRANCH  21  22
ENDBRANCH  20  21
ENDBRANCH  19  20
ENDBRANCH  18  19
ENDBRANCH   1  18
TORSDOF 28
ENDMDL
