MODEL 1
REMARK VINA RESULT:    -4.343      0.000      0.000
REMARK INTER + INTRA:         -16.587
REMARK INTER:                 -11.453
REMARK INTRA:                  -5.134
REMARK UNBOUND:                -5.134
REMARK SMILES CCCCCCCCCCCCCCCCCCCCCCCCCCCCCC(=O)[O-]
REMARK SMILES IDX 16 1 17 2 18 3 19 4 20 5 21 6 22 7 23 8 24 9 25 10 26 11
REMARK SMILES IDX 27 12 28 13 29 14 30 15 31 16 32 17 15 18 14 19 13 20 12 21
REMARK SMILES IDX 11 22 10 23 9 24 8 25 7 26 6 27 5 28 4 29 3 30 2 31 1 32
REMARK H PARENT
REMARK Flexibility Score: inf
ROOT
ATOM      1  C   UNL     1     -33.504  18.032  24.144  1.00  0.00     0.000 C 
ENDROOT
BRANCH   1   2
ATOM      2  C   UNL     1     -33.234  19.169  25.141  1.00  0.00     0.000 C 
BRANCH   2   3
ATOM      3  C   UNL     1     -32.025  20.033  24.740  1.00  0.00     0.000 C 
BRANCH   3   4
ATOM      4  C   UNL     1     -31.315  19.494  23.486  1.00  0.00     0.000 C 
BRANCH   4   5
ATOM      5  C   UNL     1     -29.831  19.892  23.441  1.00  0.00     0.000 C 
BRANCH   5   6
ATOM      6  C   UNL     1     -29.621  21.314  23.973  1.00  0.00     0.000 C 
BRANCH   6   7
ATOM      7  C   UNL     1     -28.514  21.342  25.035  1.00  0.00     0.000 C 
BRANCH   7   8
ATOM      8  C   UNL     1     -28.992  22.037  26.319  1.00  0.00     0.000 C 
BRANCH   8   9
ATOM      9  C   UNL     1     -29.659  21.062  27.304  1.00  0.00     0.000 C 
BRANCH   9  10
ATOM     10  C   UNL     1     -30.883  21.676  28.007  1.00  0.00     0.000 C 
BRANCH  10  11
ATOM     11  C   UNL     1     -30.553  23.026  28.681  1.00  0.00     0.000 C 
BRANCH  11  12
ATOM     12  C   UNL     1     -31.363  23.294  29.964  1.00  0.00     0.000 C 
BRANCH  12  13
ATOM     13  C   UNL     1     -31.696  24.773  30.219  1.00  0.00     0.006 C 
BRANCH  13  14
ATOM     14  C   UNL     1     -33.205  25.028  30.348  1.00  0.00     0.053 C 
BRANCH  14  15
ATOM     15  C   UNL     1     -33.671  24.804  31.753  1.00  0.00     0.041 C 
ATOM     16  O   UNL     1     -34.897  24.653  32.002  1.00  0.00    -0.550 OA
ATOM     17  O   UNL     1     -32.750  24.782  32.795  1.00  0.00    -0.550 OA
ENDBRANCH  14  15
ENDBRANCH  13  14
ENDBRANCH  12  13
ENDBRANCH  11  12
ENDBRANCH  10  11
ENDBRANCH   9  10
ENDBRANCH   8   9
ENDBRANCH   7   8
ENDBRANCH   6   7
ENDBRANCH   5   6
ENDBRANCH   4   5
ENDBRANCH   3   4
ENDBRANCH   2   3
ENDBRANCH   1   2
BRANCH   1  18
ATOM     18  C   UNL     1     -33.870  16.706  24.834  1.00  0.00     0.000 C 
BRANCH  18  19
ATOM     19  C   UNL     1     -34.381  16.905  26.273  1.00  0.00     0.000 C 
BRANCH  19  20
ATOM     20  C   UNL     1     -34.367  15.636  27.144  1.00  0.00     0.000 C 
BRANCH  20  21
ATOM     21  C   UNL     1     -33.552  14.491  26.516  1.00  0.00     0.000 C 
BRANCH  21  22
ATOM     22  C   UNL     1     -32.747  13.692  27.557  1.00  0.00     0.000 C 
BRANCH  22  23
ATOM     23  C   UNL     1     -33.142  13.948  29.024  1.00  0.00     0.000 C 
BRANCH  23  24
ATOM     24  C   UNL     1     -32.044  14.646  29.855  1.00  0.00    -0.000 C 
BRANCH  24  25
ATOM     25  C   UNL     1     -30.759  14.886  29.043  1.00  0.00    -0.000 C 
BRANCH  25  26
ATOM     26  C   UNL     1     -30.341  16.365  29.019  1.00  0.00    -0.000 C 
BRANCH  26  27
ATOM     27  C   UNL     1     -31.159  17.194  28.016  1.00  0.00    -0.000 C 
BRANCH  27  28
ATOM     28  C   UNL     1     -30.388  17.386  26.701  1.00  0.00    -0.000 C 
BRANCH  28  29
ATOM     29  C   UNL     1     -30.214  16.073  25.918  1.00  0.00    -0.000 C 
BRANCH  29  30
ATOM     30  C   UNL     1     -30.047  16.301  24.406  1.00  0.00    -0.000 C 
BRANCH  30  31
ATOM     31  C   UNL     1     -30.848  15.293  23.567  1.00  0.00    -0.003 C 
ATOM     32  C   UNL     1     -31.283  15.858  22.216  1.00  0.00     0.004 C 
ENDBRANCH  30  31
ENDBRANCH  29  30
ENDBRANCH  28  29
ENDBRANCH  27  28
ENDBRANCH  26  27
ENDBRANCH  25  26
ENDBRANCH  24  25
ENDBRANCH  23  24
ENDBRANCH  22  23
ENDBRANCH  21  22
ENDBRANCH  20  21
ENDBRANCH  19  20
ENDBRANCH  18  19
ENDBRANCH   1  18
TORSDOF 28
ENDMDL
MODEL 2
REMARK VINA RESULT:    -4.216      2.451      5.116
REMARK INTER + INTRA:         -16.250
REMARK INTER:                 -10.573
REMARK INTRA:                  -5.677
REMARK UNBOUND:                -5.134
REMARK SMILES CCCCCCCCCCCCCCCCCCCCCCCCCCCCCC(=O)[O-]
REMARK SMILES IDX 16 1 17 2 18 3 19 4 20 5 21 6 22 7 23 8 24 9 25 10 26 11
REMARK SMILES IDX 27 12 28 13 29 14 30 15 31 16 32 17 15 18 14 19 13 20 12 21
REMARK SMILES IDX 11 22 10 23 9 24 8 25 7 26 6 27 5 28 4 29 3 30 2 31 1 32
REMARK H PARENT
REMARK Flexibility Score: inf
ROOT
ATOM      1  C   UNL     1     -30.565  16.361  21.085  1.00  0.00     0.000 C 
ENDROOT
BRANCH   1   2
ATOM      2  C   UNL     1     -30.713  17.201  22.362  1.00  0.00     0.000 C 
BRANCH   2   3
ATOM      3  C   UNL     1     -29.851  18.475  22.337  1.00  0.00     0.000 C 
BRANCH   3   4
ATOM      4  C   UNL     1     -30.702  19.755  22.409  1.00  0.00     0.000 C 
BRANCH   4   5
ATOM      5  C   UNL     1     -30.148  20.766  23.425  1.00  0.00     0.000 C 
BRANCH   5   6
ATOM      6  C   UNL     1     -28.813  21.354  22.951  1.00  0.00     0.000 C 
BRANCH   6   7
ATOM      7  C   UNL     1     -28.055  21.999  24.119  1.00  0.00     0.000 C 
BRANCH   7   8
ATOM      8  C   UNL     1     -28.923  22.049  25.385  1.00  0.00     0.000 C 
BRANCH   8   9
ATOM      9  C   UNL     1     -28.185  22.679  26.580  1.00  0.00     0.000 C 
BRANCH   9  10
ATOM     10  C   UNL     1     -27.859  21.653  27.680  1.00  0.00     0.000 C 
BRANCH  10  11
ATOM     11  C   UNL     1     -28.655  21.916  28.978  1.00  0.00     0.000 C 
BRANCH  11  12
ATOM     12  C   UNL     1     -30.032  21.227  29.013  1.00  0.00     0.000 C 
BRANCH  12  13
ATOM     13  C   UNL     1     -31.058  21.884  29.950  1.00  0.00     0.006 C 
BRANCH  13  14
ATOM     14  C   UNL     1     -31.875  22.985  29.257  1.00  0.00     0.053 C 
BRANCH  14  15
ATOM     15  C   UNL     1     -32.078  24.158  30.165  1.00  0.00     0.041 C 
ATOM     16  O   UNL     1     -31.221  24.439  31.044  1.00  0.00    -0.550 OA
ATOM     17  O   UNL     1     -33.228  24.932  30.053  1.00  0.00    -0.550 OA
ENDBRANCH  14  15
ENDBRANCH  13  14
ENDBRANCH  12  13
ENDBRANCH  11  12
ENDBRANCH  10  11
ENDBRANCH   9  10
ENDBRANCH   8   9
ENDBRANCH   7   8
ENDBRANCH   6   7
ENDBRANCH   5   6
ENDBRANCH   4   5
ENDBRANCH   3   4
ENDBRANCH   2   3
ENDBRANCH   1   2
BRANCH   1  18
ATOM     18  C   UNL     1     -29.489  16.908  20.131  1.00  0.00     0.000 C 
BRANCH  18  19
ATOM     19  C   UNL     1     -28.405  15.868  19.795  1.00  0.00     0.000 C 
BRANCH  19  20
ATOM     20  C   UNL     1     -26.983  16.440  19.651  1.00  0.00     0.000 C 
BRANCH  20  21
ATOM     21  C   UNL     1     -26.738  17.661  20.555  1.00  0.00     0.000 C 
BRANCH  21  22
ATOM     22  C   UNL     1     -25.910  17.320  21.806  1.00  0.00     0.000 C 
BRANCH  22  23
ATOM     23  C   UNL     1     -26.713  17.232  23.118  1.00  0.00     0.000 C 
BRANCH  23  24
ATOM     24  C   UNL     1     -26.593  18.486  24.011  1.00  0.00    -0.000 C 
BRANCH  24  25
ATOM     25  C   UNL     1     -27.549  18.439  25.216  1.00  0.00    -0.000 C 
BRANCH  25  26
ATOM     26  C   UNL     1     -28.262  17.083  25.355  1.00  0.00    -0.000 C 
BRANCH  26  27
ATOM     27  C   UNL     1     -29.659  17.212  25.981  1.00  0.00    -0.000 C 
BRANCH  27  28
ATOM     28  C   UNL     1     -29.993  18.680  26.287  1.00  0.00    -0.000 C 
BRANCH  28  29
ATOM     29  C   UNL     1     -31.504  18.967  26.241  1.00  0.00    -0.000 C 
BRANCH  29  30
ATOM     30  C   UNL     1     -32.306  17.825  25.593  1.00  0.00    -0.000 C 
BRANCH  30  31
ATOM     31  C   UNL     1     -33.403  18.340  24.648  1.00  0.00    -0.003 C 
ATOM     32  C   UNL     1     -33.533  19.863  24.666  1.00  0.00     0.004 C 
ENDBRANCH  30  31
ENDBRANCH  29  30
ENDBRANCH  28  29
ENDBRANCH  27  28
ENDBRANCH  26  27
ENDBRANCH  25  26
ENDBRANCH  24  25
ENDBRANCH  23  24
ENDBRANCH  22  23
ENDBRANCH  21  22
ENDBRANCH  20  21
ENDBRANCH  19  20
ENDBRANCH  18  19
ENDBRANCH   1  18
TORSDOF 28
ENDMDL
MODEL 3
REMARK VINA RESULT:    -4.168      1.247      4.004
REMARK INTER + INTRA:         -16.123
REMARK INTER:                 -11.211
REMARK INTRA:                  -4.912
REMARK UNBOUND:                -5.134
REMARK SMILES CCCCCCCCCCCCCCCCCCCCCCCCCCCCCC(=O)[O-]
REMARK SMILES IDX 16 1 17 2 18 3 19 4 20 5 21 6 22 7 23 8 24 9 25 10 26 11
REMARK SMILES IDX 27 12 28 13 29 14 30 15 31 16 32 17 15 18 14 19 13 20 12 21
REMARK SMILES IDX 11 22 10 23 9 24 8 25 7 26 6 27 5 28 4 29 3 30 2 31 1 32
REMARK H PARENT
REMARK Flexibility Score: inf
ROOT
ATOM      1  C   UNL     1     -31.369  19.519  25.927  1.00  0.00     0.000 C 
ENDROOT
BRANCH   1   2
ATOM      2  C   UNL     1     -31.587  20.049  24.502  1.00  0.00     0.000 C 
BRANCH   2   3
ATOM      3  C   UNL     1     -30.961  19.139  23.429  1.00  0.00     0.000 C 
BRANCH   3   4
ATOM      4  C   UNL     1     -29.593  19.658  22.952  1.00  0.00     0.000 C 
BRANCH   4   5
ATOM      5  C   UNL     1     -29.545  21.192  22.883  1.00  0.00     0.000 C 
BRANCH   5   6
ATOM      6  C   UNL     1     -28.321  21.743  23.625  1.00  0.00     0.000 C 
BRANCH   6   7
ATOM      7  C   UNL     1     -27.799  20.725  24.647  1.00  0.00     0.000 C 
BRANCH   7   8
ATOM      8  C   UNL     1     -28.094  21.180  26.084  1.00  0.00     0.000 C 
BRANCH   8   9
ATOM      9  C   UNL     1     -28.821  22.535  26.136  1.00  0.00     0.000 C 
BRANCH   9  10
ATOM     10  C   UNL     1     -29.589  22.744  27.453  1.00  0.00     0.000 C 
BRANCH  10  11
ATOM     11  C   UNL     1     -29.582  21.481  28.342  1.00  0.00     0.000 C 
BRANCH  11  12
ATOM     12  C   UNL     1     -30.207  21.696  29.733  1.00  0.00     0.000 C 
BRANCH  12  13
ATOM     13  C   UNL     1     -30.645  23.140  30.026  1.00  0.00     0.006 C 
BRANCH  13  14
ATOM     14  C   UNL     1     -32.172  23.299  30.080  1.00  0.00     0.053 C 
BRANCH  14  15
ATOM     15  C   UNL     1     -32.555  24.661  30.568  1.00  0.00     0.041 C 
ATOM     16  O   UNL     1     -31.838  25.261  31.413  1.00  0.00    -0.550 OA
ATOM     17  O   UNL     1     -33.720  25.262  30.105  1.00  0.00    -0.550 OA
ENDBRANCH  14  15
ENDBRANCH  13  14
ENDBRANCH  12  13
ENDBRANCH  11  12
ENDBRANCH  10  11
ENDBRANCH   9  10
ENDBRANCH   8   9
ENDBRANCH   7   8
ENDBRANCH   6   7
ENDBRANCH   5   6
ENDBRANCH   4   5
ENDBRANCH   3   4
ENDBRANCH   2   3
ENDBRANCH   1   2
BRANCH   1  18
ATOM     18  C   UNL     1     -30.291  18.424  26.000  1.00  0.00     0.000 C 
BRANCH  18  19
ATOM     19  C   UNL     1     -30.799  17.130  26.661  1.00  0.00     0.000 C 
BRANCH  19  20
ATOM     20  C   UNL     1     -30.139  15.838  26.145  1.00  0.00     0.000 C 
BRANCH  20  21
ATOM     21  C   UNL     1     -31.111  14.952  25.346  1.00  0.00     0.000 C 
BRANCH  21  22
ATOM     22  C   UNL     1     -31.020  15.187  23.828  1.00  0.00     0.000 C 
BRANCH  22  23
ATOM     23  C   UNL     1     -32.271  15.818  23.188  1.00  0.00     0.000 C 
BRANCH  23  24
ATOM     24  C   UNL     1     -33.514  15.810  24.103  1.00  0.00    -0.000 C 
BRANCH  24  25
ATOM     25  C   UNL     1     -33.947  17.229  24.513  1.00  0.00    -0.000 C 
BRANCH  25  26
ATOM     26  C   UNL     1     -34.312  17.330  26.003  1.00  0.00    -0.000 C 
BRANCH  26  27
ATOM     27  C   UNL     1     -34.801  15.994  26.583  1.00  0.00    -0.000 C 
BRANCH  27  28
ATOM     28  C   UNL     1     -33.979  15.595  27.818  1.00  0.00    -0.000 C 
BRANCH  28  29
ATOM     29  C   UNL     1     -33.473  14.144  27.751  1.00  0.00    -0.000 C 
BRANCH  29  30
ATOM     30  C   UNL     1     -32.534  13.788  28.916  1.00  0.00    -0.000 C 
BRANCH  30  31
ATOM     31  C   UNL     1     -33.096  12.664  29.801  1.00  0.00    -0.003 C 
ATOM     32  C   UNL     1     -33.032  12.994  31.292  1.00  0.00     0.004 C 
ENDBRANCH  30  31
ENDBRANCH  29  30
ENDBRANCH  28  29
ENDBRANCH  27  28
ENDBRANCH  26  27
ENDBRANCH  25  26
ENDBRANCH  24  25
ENDBRANCH  23  24
ENDBRANCH  22  23
ENDBRANCH  21  22
ENDBRANCH  20  21
ENDBRANCH  19  20
ENDBRANCH  18  19
ENDBRANCH   1  18
TORSDOF 28
ENDMDL
MODEL 4
REMARK VINA RESULT:    -4.167      3.699      7.576
REMARK INTER + INTRA:         -16.121
REMARK INTER:                 -11.082
REMARK INTRA:                  -5.039
REMARK UNBOUND:                -5.134
REMARK SMILES CCCCCCCCCCCCCCCCCCCCCCCCCCCCCC(=O)[O-]
REMARK SMILES IDX 16 1 17 2 18 3 19 4 20 5 21 6 22 7 23 8 24 9 25 10 26 11
REMARK SMILES IDX 27 12 28 13 29 14 30 15 31 16 32 17 15 18 14 19 13 20 12 21
REMARK SMILES IDX 11 22 10 23 9 24 8 25 7 26 6 27 5 28 4 29 3 30 2 31 1 32
REMARK H PARENT
REMARK Flexibility Score: inf
ROOT
ATOM      1  C   UNL     1     -31.811  25.056  30.704  1.00  0.00     0.000 C 
ENDROOT
BRANCH   1   2
ATOM      2  C   UNL     1     -31.049  23.799  30.259  1.00  0.00     0.000 C 
BRANCH   2   3
ATOM      3  C   UNL     1     -31.942  22.802  29.499  1.00  0.00     0.000 C 
BRANCH   3   4
ATOM      4  C   UNL     1     -31.123  21.833  28.629  1.00  0.00     0.000 C 
BRANCH   4   5
ATOM      5  C   UNL     1     -29.652  22.260  28.509  1.00  0.00     0.000 C 
BRANCH   5   6
ATOM      6  C   UNL     1     -29.359  22.860  27.129  1.00  0.00     0.000 C 
BRANCH   6   7
ATOM      7  C   UNL     1     -28.392  21.968  26.340  1.00  0.00     0.000 C 
BRANCH   7   8
ATOM      8  C   UNL     1     -28.176  22.504  24.917  1.00  0.00     0.000 C 
BRANCH   8   9
ATOM      9  C   UNL     1     -28.184  21.386  23.859  1.00  0.00     0.000 C 
BRANCH   9  10
ATOM     10  C   UNL     1     -29.259  21.601  22.780  1.00  0.00     0.000 C 
BRANCH  10  11
ATOM     11  C   UNL     1     -30.340  20.497  22.803  1.00  0.00     0.000 C 
BRANCH  11  12
ATOM     12  C   UNL     1     -29.964  19.277  23.665  1.00  0.00     0.000 C 
BRANCH  12  13
ATOM     13  C   UNL     1     -30.964  18.946  24.783  1.00  0.00     0.006 C 
BRANCH  13  14
ATOM     14  C   UNL     1     -31.933  20.102  25.076  1.00  0.00     0.053 C 
BRANCH  14  15
ATOM     15  C   UNL     1     -33.326  19.759  24.650  1.00  0.00     0.041 C 
ATOM     16  O   UNL     1     -34.144  20.669  24.353  1.00  0.00    -0.550 OA
ATOM     17  O   UNL     1     -33.730  18.428  24.600  1.00  0.00    -0.550 OA
ENDBRANCH  14  15
ENDBRANCH  13  14
ENDBRANCH  12  13
ENDBRANCH  11  12
ENDBRANCH  10  11
ENDBRANCH   9  10
ENDBRANCH   8   9
ENDBRANCH   7   8
ENDBRANCH   6   7
ENDBRANCH   5   6
ENDBRANCH   4   5
ENDBRANCH   3   4
ENDBRANCH   2   3
ENDBRANCH   1   2
BRANCH   1  18
ATOM     18  C   UNL     1     -33.285  25.048  30.265  1.00  0.00     0.000 C 
BRANCH  18  19
ATOM     19  C   UNL     1     -34.207  25.781  31.258  1.00  0.00     0.000 C 
BRANCH  19  20
ATOM     20  C   UNL     1     -34.508  25.006  32.553  1.00  0.00     0.000 C 
BRANCH  20  21
ATOM     21  C   UNL     1     -34.953  23.556  32.290  1.00  0.00     0.000 C 
BRANCH  21  22
ATOM     22  C   UNL     1     -34.188  22.533  33.149  1.00  0.00     0.000 C 
BRANCH  22  23
ATOM     23  C   UNL     1     -32.923  23.076  33.840  1.00  0.00     0.000 C 
BRANCH  23  24
ATOM     24  C   UNL     1     -31.660  22.222  33.596  1.00  0.00    -0.000 C 
BRANCH  24  25
ATOM     25  C   UNL     1     -31.929  21.037  32.651  1.00  0.00    -0.000 C 
BRANCH  25  26
ATOM     26  C   UNL     1     -30.636  20.372  32.151  1.00  0.00    -0.000 C 
BRANCH  26  27
ATOM     27  C   UNL     1     -29.399  21.264  32.350  1.00  0.00    -0.000 C 
BRANCH  27  28
ATOM     28  C   UNL     1     -28.224  20.775  31.490  1.00  0.00    -0.000 C 
BRANCH  28  29
ATOM     29  C   UNL     1     -28.245  19.254  31.266  1.00  0.00    -0.000 C 
BRANCH  29  30
ATOM     30  C   UNL     1     -27.546  18.836  29.960  1.00  0.00    -0.000 C 
BRANCH  30  31
ATOM     31  C   UNL     1     -28.417  17.908  29.099  1.00  0.00    -0.003 C 
ATOM     32  C   UNL     1     -29.101  18.640  27.944  1.00  0.00     0.004 C 
ENDBRANCH  30  31
ENDBRANCH  29  30
ENDBRANCH  28  29
ENDBRANCH  27  28
ENDBRANCH  26  27
ENDBRANCH  25  26
ENDBRANCH  24  25
ENDBRANCH  23  24
ENDBRANCH  22  23
ENDBRANCH  21  22
ENDBRANCH  20  21
ENDBRANCH  19  20
ENDBRANCH  18  19
ENDBRANCH   1  18
TORSDOF 28
ENDMDL
MODEL 5
REMARK VINA RESULT:    -4.124      1.293      2.974
REMARK INTER + INTRA:         -16.007
REMARK INTER:                 -11.323
REMARK INTRA:                  -4.684
REMARK UNBOUND:                -5.134
REMARK SMILES CCCCCCCCCCCCCCCCCCCCCCCCCCCCCC(=O)[O-]
REMARK SMILES IDX 16 1 17 2 18 3 19 4 20 5 21 6 22 7 23 8 24 9 25 10 26 11
REMARK SMILES IDX 27 12 28 13 29 14 30 15 31 16 32 17 15 18 14 19 13 20 12 21
REMARK SMILES IDX 11 22 10 23 9 24 8 25 7 26 6 27 5 28 4 29 3 30 2 31 1 32
REMARK H PARENT
REMARK Flexibility Score: inf
ROOT
ATOM      1  C   UNL     1     -31.903  19.417  24.633  1.00  0.00     0.000 C 
ENDROOT
BRANCH   1   2
ATOM      2  C   UNL     1     -31.172  19.296  23.287  1.00  0.00     0.000 C 
BRANCH   2   3
ATOM      3  C   UNL     1     -30.141  20.418  23.070  1.00  0.00     0.000 C 
BRANCH   3   4
ATOM      4  C   UNL     1     -28.698  19.935  23.306  1.00  0.00     0.000 C 
BRANCH   4   5
ATOM      5  C   UNL     1     -28.084  20.540  24.578  1.00  0.00     0.000 C 
BRANCH   5   6
ATOM      6  C   UNL     1     -28.489  22.009  24.746  1.00  0.00     0.000 C 
BRANCH   6   7
ATOM      7  C   UNL     1     -28.891  22.303  26.197  1.00  0.00     0.000 C 
BRANCH   7   8
ATOM      8  C   UNL     1     -29.335  21.023  26.921  1.00  0.00     0.000 C 
BRANCH   8   9
ATOM      9  C   UNL     1     -30.606  21.233  27.762  1.00  0.00     0.000 C 
BRANCH   9  10
ATOM     10  C   UNL     1     -30.358  21.035  29.268  1.00  0.00     0.000 C 
BRANCH  10  11
ATOM     11  C   UNL     1     -30.514  22.349  30.064  1.00  0.00     0.000 C 
BRANCH  11  12
ATOM     12  C   UNL     1     -30.975  23.544  29.209  1.00  0.00     0.000 C 
BRANCH  12  13
ATOM     13  C   UNL     1     -32.376  24.076  29.548  1.00  0.00     0.006 C 
BRANCH  13  14
ATOM     14  C   UNL     1     -32.358  25.129  30.666  1.00  0.00     0.053 C 
BRANCH  14  15
ATOM     15  C   UNL     1     -33.748  25.515  31.065  1.00  0.00     0.041 C 
ATOM     16  O   UNL     1     -34.565  25.936  30.203  1.00  0.00    -0.550 OA
ATOM     17  O   UNL     1     -34.137  25.432  32.398  1.00  0.00    -0.550 OA
ENDBRANCH  14  15
ENDBRANCH  13  14
ENDBRANCH  12  13
ENDBRANCH  11  12
ENDBRANCH  10  11
ENDBRANCH   9  10
ENDBRANCH   8   9
ENDBRANCH   7   8
ENDBRANCH   6   7
ENDBRANCH   5   6
ENDBRANCH   4   5
ENDBRANCH   3   4
ENDBRANCH   2   3
ENDBRANCH   1   2
BRANCH   1  18
ATOM     18  C   UNL     1     -33.408  19.118  24.525  1.00  0.00     0.000 C 
BRANCH  18  19
ATOM     19  C   UNL     1     -33.757  17.669  24.909  1.00  0.00     0.000 C 
BRANCH  19  20
ATOM     20  C   UNL     1     -34.389  17.504  26.303  1.00  0.00     0.000 C 
BRANCH  20  21
ATOM     21  C   UNL     1     -34.851  16.063  26.581  1.00  0.00     0.000 C 
BRANCH  21  22
ATOM     22  C   UNL     1     -34.092  15.409  27.749  1.00  0.00     0.000 C 
BRANCH  22  23
ATOM     23  C   UNL     1     -33.196  14.217  27.361  1.00  0.00     0.000 C 
BRANCH  23  24
ATOM     24  C   UNL     1     -32.880  14.136  25.852  1.00  0.00    -0.000 C 
BRANCH  24  25
ATOM     25  C   UNL     1     -31.392  14.388  25.552  1.00  0.00    -0.000 C 
BRANCH  25  26
ATOM     26  C   UNL     1     -30.670  15.113  26.700  1.00  0.00    -0.000 C 
BRANCH  26  27
ATOM     27  C   UNL     1     -30.461  16.609  26.414  1.00  0.00    -0.000 C 
BRANCH  27  28
ATOM     28  C   UNL     1     -30.928  17.468  27.599  1.00  0.00    -0.000 C 
BRANCH  28  29
ATOM     29  C   UNL     1     -30.875  16.711  28.937  1.00  0.00    -0.000 C 
BRANCH  29  30
ATOM     30  C   UNL     1     -29.946  17.384  29.963  1.00  0.00    -0.000 C 
BRANCH  30  31
ATOM     31  C   UNL     1     -28.734  16.510  30.320  1.00  0.00    -0.003 C 
ATOM     32  C   UNL     1     -29.009  15.017  30.149  1.00  0.00     0.004 C 
ENDBRANCH  30  31
ENDBRANCH  29  30
ENDBRANCH  28  29
ENDBRANCH  27  28
ENDBRANCH  26  27
ENDBRANCH  25  26
ENDBRANCH  24  25
ENDBRANCH  23  24
ENDBRANCH  22  23
ENDBRANCH  21  22
ENDBRANCH  20  21
ENDBRANCH  19  20
ENDBRANCH  18  19
ENDBRANCH   1  18
TORSDOF 28
ENDMDL
MODEL 6
REMARK VINA RESULT:    -4.118      1.702      4.815
REMARK INTER + INTRA:         -15.992
REMARK INTER:                 -10.194
REMARK INTRA:                  -5.798
REMARK UNBOUND:                -5.134
REMARK SMILES CCCCCCCCCCCCCCCCCCCCCCCCCCCCCC(=O)[O-]
REMARK SMILES IDX 16 1 17 2 18 3 19 4 20 5 21 6 22 7 23 8 24 9 25 10 26 11
REMARK SMILES IDX 27 12 28 13 29 14 30 15 31 16 32 17 15 18 14 19 13 20 12 21
REMARK SMILES IDX 11 22 10 23 9 24 8 25 7 26 6 27 5 28 4 29 3 30 2 31 1 32
REMARK H PARENT
REMARK Flexibility Score: inf
ROOT
ATOM      1  C   UNL     1     -27.965  20.960  23.312  1.00  0.00     0.000 C 
ENDROOT
BRANCH   1   2
ATOM      2  C   UNL     1     -29.410  21.337  23.671  1.00  0.00     0.000 C 
BRANCH   2   3
ATOM      3  C   UNL     1     -30.448  20.444  22.967  1.00  0.00     0.000 C 
BRANCH   3   4
ATOM      4  C   UNL     1     -31.427  19.795  23.962  1.00  0.00     0.000 C 
BRANCH   4   5
ATOM      5  C   UNL     1     -31.091  20.144  25.420  1.00  0.00     0.000 C 
BRANCH   5   6
ATOM      6  C   UNL     1     -30.919  18.877  26.268  1.00  0.00     0.000 C 
BRANCH   6   7
ATOM      7  C   UNL     1     -29.438  18.625  26.578  1.00  0.00     0.000 C 
BRANCH   7   8
ATOM      8  C   UNL     1     -29.182  18.613  28.093  1.00  0.00     0.000 C 
BRANCH   8   9
ATOM      9  C   UNL     1     -28.186  19.701  28.531  1.00  0.00     0.000 C 
BRANCH   9  10
ATOM     10  C   UNL     1     -27.801  20.647  27.380  1.00  0.00     0.000 C 
BRANCH  10  11
ATOM     11  C   UNL     1     -28.035  22.131  27.739  1.00  0.00     0.000 C 
BRANCH  11  12
ATOM     12  C   UNL     1     -29.381  22.687  27.238  1.00  0.00     0.000 C 
BRANCH  12  13
ATOM     13  C   UNL     1     -30.582  22.388  28.150  1.00  0.00     0.006 C 
BRANCH  13  14
ATOM     14  C   UNL     1     -30.304  22.717  29.625  1.00  0.00     0.053 C 
BRANCH  14  15
ATOM     15  C   UNL     1     -31.311  23.686  30.160  1.00  0.00     0.041 C 
ATOM     16  O   UNL     1     -32.311  24.014  29.467  1.00  0.00    -0.550 OA
ATOM     17  O   UNL     1     -31.135  24.247  31.420  1.00  0.00    -0.550 OA
ENDBRANCH  14  15
ENDBRANCH  13  14
ENDBRANCH  12  13
ENDBRANCH  11  12
ENDBRANCH  10  11
ENDBRANCH   9  10
ENDBRANCH   8   9
ENDBRANCH   7   8
ENDBRANCH   6   7
ENDBRANCH   5   6
ENDBRANCH   4   5
ENDBRANCH   3   4
ENDBRANCH   2   3
ENDBRANCH   1   2
BRANCH   1  18
ATOM     18  C   UNL     1     -27.599  19.527  23.736  1.00  0.00     0.000 C 
BRANCH  18  19
ATOM     19  C   UNL     1     -27.032  18.689  22.575  1.00  0.00     0.000 C 
BRANCH  19  20
ATOM     20  C   UNL     1     -27.785  17.375  22.298  1.00  0.00     0.000 C 
BRANCH  20  21
ATOM     21  C   UNL     1     -29.038  17.211  23.177  1.00  0.00     0.000 C 
BRANCH  21  22
ATOM     22  C   UNL     1     -28.963  15.980  24.097  1.00  0.00     0.000 C 
BRANCH  22  23
ATOM     23  C   UNL     1     -30.309  15.529  24.696  1.00  0.00     0.000 C 
BRANCH  23  24
ATOM     24  C   UNL     1     -31.126  14.599  23.773  1.00  0.00    -0.000 C 
BRANCH  24  25
ATOM     25  C   UNL     1     -32.614  14.987  23.719  1.00  0.00    -0.000 C 
BRANCH  25  26
ATOM     26  C   UNL     1     -32.827  16.507  23.623  1.00  0.00    -0.000 C 
BRANCH  26  27
ATOM     27  C   UNL     1     -34.135  16.964  24.288  1.00  0.00    -0.000 C 
BRANCH  27  28
ATOM     28  C   UNL     1     -33.944  17.168  25.798  1.00  0.00    -0.000 C 
BRANCH  28  29
ATOM     29  C   UNL     1     -34.698  16.123  26.638  1.00  0.00    -0.000 C 
BRANCH  29  30
ATOM     30  C   UNL     1     -33.777  15.008  27.165  1.00  0.00    -0.000 C 
BRANCH  30  31
ATOM     31  C   UNL     1     -33.108  15.380  28.497  1.00  0.00    -0.003 C 
ATOM     32  C   UNL     1     -31.652  15.814  28.328  1.00  0.00     0.004 C 
ENDBRANCH  30  31
ENDBRANCH  29  30
ENDBRANCH  28  29
ENDBRANCH  27  28
ENDBRANCH  26  27
ENDBRANCH  25  26
ENDBRANCH  24  25
ENDBRANCH  23  24
ENDBRANCH  22  23
ENDBRANCH  21  22
ENDBRANCH  20  21
ENDBRANCH  19  20
ENDBRANCH  18  19
ENDBRANCH   1  18
TORSDOF 28
ENDMDL
MODEL 7
REMARK VINA RESULT:    -4.106      1.202      2.436
REMARK INTER + INTRA:         -15.962
REMARK INTER:                 -10.971
REMARK INTRA:                  -4.991
REMARK UNBOUND:                -5.134
REMARK SMILES CCCCCCCCCCCCCCCCCCCCCCCCCCCCCC(=O)[O-]
REMARK SMILES IDX 16 1 17 2 18 3 19 4 20 5 21 6 22 7 23 8 24 9 25 10 26 11
REMARK SMILES IDX 27 12 28 13 29 14 30 15 31 16 32 17 15 18 14 19 13 20 12 21
REMARK SMILES IDX 11 22 10 23 9 24 8 25 7 26 6 27 5 28 4 29 3 30 2 31 1 32
REMARK H PARENT
REMARK Flexibility Score: inf
ROOT
ATOM      1  C   UNL     1     -31.916  19.906  24.112  1.00  0.00     0.000 C 
ENDROOT
BRANCH   1   2
ATOM      2  C   UNL     1     -30.934  19.742  22.942  1.00  0.00     0.000 C 
BRANCH   2   3
ATOM      3  C   UNL     1     -29.675  18.946  23.331  1.00  0.00     0.000 C 
BRANCH   3   4
ATOM      4  C   UNL     1     -28.421  19.837  23.396  1.00  0.00     0.000 C 
BRANCH   4   5
ATOM      5  C   UNL     1     -28.772  21.331  23.466  1.00  0.00     0.000 C 
BRANCH   5   6
ATOM      6  C   UNL     1     -28.212  21.973  24.741  1.00  0.00     0.000 C 
BRANCH   6   7
ATOM      7  C   UNL     1     -29.222  21.873  25.892  1.00  0.00     0.000 C 
BRANCH   7   8
ATOM      8  C   UNL     1     -28.819  20.780  26.893  1.00  0.00     0.000 C 
BRANCH   8   9
ATOM      9  C   UNL     1     -29.819  20.648  28.054  1.00  0.00     0.000 C 
BRANCH   9  10
ATOM     10  C   UNL     1     -30.985  21.647  27.948  1.00  0.00     0.000 C 
BRANCH  10  11
ATOM     11  C   UNL     1     -31.256  22.373  29.284  1.00  0.00     0.000 C 
BRANCH  11  12
ATOM     12  C   UNL     1     -31.377  23.903  29.147  1.00  0.00     0.000 C 
BRANCH  12  13
ATOM     13  C   UNL     1     -31.560  24.656  30.474  1.00  0.00     0.006 C 
BRANCH  13  14
ATOM     14  C   UNL     1     -32.698  24.081  31.331  1.00  0.00     0.053 C 
BRANCH  14  15
ATOM     15  C   UNL     1     -33.908  24.961  31.280  1.00  0.00     0.041 C 
ATOM     16  O   UNL     1     -33.844  26.104  30.755  1.00  0.00    -0.550 OA
ATOM     17  O   UNL     1     -35.108  24.524  31.832  1.00  0.00    -0.550 OA
ENDBRANCH  14  15
ENDBRANCH  13  14
ENDBRANCH  12  13
ENDBRANCH  11  12
ENDBRANCH  10  11
ENDBRANCH   9  10
ENDBRANCH   8   9
ENDBRANCH   7   8
ENDBRANCH   6   7
ENDBRANCH   5   6
ENDBRANCH   4   5
ENDBRANCH   3   4
ENDBRANCH   2   3
ENDBRANCH   1   2
BRANCH   1  18
ATOM     18  C   UNL     1     -31.990  18.658  25.009  1.00  0.00     0.000 C 
BRANCH  18  19
ATOM     19  C   UNL     1     -33.423  18.341  25.473  1.00  0.00     0.000 C 
BRANCH  19  20
ATOM     20  C   UNL     1     -34.100  17.175  24.731  1.00  0.00     0.000 C 
BRANCH  20  21
ATOM     21  C   UNL     1     -33.124  16.396  23.830  1.00  0.00     0.000 C 
BRANCH  21  22
ATOM     22  C   UNL     1     -32.758  15.015  24.404  1.00  0.00     0.000 C 
BRANCH  22  23
ATOM     23  C   UNL     1     -33.500  14.627  25.697  1.00  0.00     0.000 C 
BRANCH  23  24
ATOM     24  C   UNL     1     -32.780  13.547  26.533  1.00  0.00    -0.000 C 
BRANCH  24  25
ATOM     25  C   UNL     1     -33.003  13.733  28.044  1.00  0.00    -0.000 C 
BRANCH  25  26
ATOM     26  C   UNL     1     -33.113  15.211  28.450  1.00  0.00    -0.000 C 
BRANCH  26  27
ATOM     27  C   UNL     1     -31.797  15.768  29.016  1.00  0.00    -0.000 C 
BRANCH  27  28
ATOM     28  C   UNL     1     -31.230  16.871  28.110  1.00  0.00    -0.000 C 
BRANCH  28  29
ATOM     29  C   UNL     1     -29.693  16.932  28.142  1.00  0.00    -0.000 C 
BRANCH  29  30
ATOM     30  C   UNL     1     -29.073  17.019  26.736  1.00  0.00    -0.000 C 
BRANCH  30  31
ATOM     31  C   UNL     1     -29.677  15.994  25.764  1.00  0.00    -0.003 C 
ATOM     32  C   UNL     1     -29.200  14.568  26.034  1.00  0.00     0.004 C 
ENDBRANCH  30  31
ENDBRANCH  29  30
ENDBRANCH  28  29
ENDBRANCH  27  28
ENDBRANCH  26  27
ENDBRANCH  25  26
ENDBRANCH  24  25
ENDBRANCH  23  24
ENDBRANCH  22  23
ENDBRANCH  21  22
ENDBRANCH  20  21
ENDBRANCH  19  20
ENDBRANCH  18  19
ENDBRANCH   1  18
TORSDOF 28
ENDMDL
MODEL 8
REMARK VINA RESULT:    -4.076      1.792      5.155
REMARK INTER + INTRA:         -15.882
REMARK INTER:                 -11.001
REMARK INTRA:                  -4.880
REMARK UNBOUND:                -5.134
REMARK SMILES CCCCCCCCCCCCCCCCCCCCCCCCCCCCCC(=O)[O-]
REMARK SMILES IDX 16 1 17 2 18 3 19 4 20 5 21 6 22 7 23 8 24 9 25 10 26 11
REMARK SMILES IDX 27 12 28 13 29 14 30 15 31 16 32 17 15 18 14 19 13 20 12 21
REMARK SMILES IDX 11 22 10 23 9 24 8 25 7 26 6 27 5 28 4 29 3 30 2 31 1 32
REMARK H PARENT
REMARK Flexibility Score: inf
ROOT
ATOM      1  C   UNL     1     -30.923  20.132  23.125  1.00  0.00     0.000 C 
ENDROOT
BRANCH   1   2
ATOM      2  C   UNL     1     -31.786  19.275  24.063  1.00  0.00     0.000 C 
BRANCH   2   3
ATOM      3  C   UNL     1     -30.945  18.467  25.069  1.00  0.00     0.000 C 
BRANCH   3   4
ATOM      4  C   UNL     1     -31.206  18.898  26.523  1.00  0.00     0.000 C 
BRANCH   4   5
ATOM      5  C   UNL     1     -29.989  18.654  27.429  1.00  0.00     0.000 C 
BRANCH   5   6
ATOM      6  C   UNL     1     -28.679  18.769  26.642  1.00  0.00     0.000 C 
BRANCH   6   7
ATOM      7  C   UNL     1     -27.778  19.860  27.237  1.00  0.00     0.000 C 
BRANCH   7   8
ATOM      8  C   UNL     1     -28.452  21.238  27.165  1.00  0.00     0.000 C 
BRANCH   8   9
ATOM      9  C   UNL     1     -28.199  22.084  28.425  1.00  0.00     0.000 C 
BRANCH   9  10
ATOM     10  C   UNL     1     -29.391  22.067  29.398  1.00  0.00     0.000 C 
BRANCH  10  11
ATOM     11  C   UNL     1     -30.746  21.985  28.661  1.00  0.00     0.000 C 
BRANCH  11  12
ATOM     12  C   UNL     1     -31.863  22.817  29.319  1.00  0.00     0.000 C 
BRANCH  12  13
ATOM     13  C   UNL     1     -31.462  24.254  29.689  1.00  0.00     0.006 C 
BRANCH  13  14
ATOM     14  C   UNL     1     -32.597  25.030  30.375  1.00  0.00     0.053 C 
BRANCH  14  15
ATOM     15  C   UNL     1     -32.887  24.470  31.733  1.00  0.00     0.041 C 
ATOM     16  O   UNL     1     -32.065  24.625  32.675  1.00  0.00    -0.550 OA
ATOM     17  O   UNL     1     -34.061  23.758  31.954  1.00  0.00    -0.550 OA
ENDBRANCH  14  15
ENDBRANCH  13  14
ENDBRANCH  12  13
ENDBRANCH  11  12
ENDBRANCH  10  11
ENDBRANCH   9  10
ENDBRANCH   8   9
ENDBRANCH   7   8
ENDBRANCH   6   7
ENDBRANCH   5   6
ENDBRANCH   4   5
ENDBRANCH   3   4
ENDBRANCH   2   3
ENDBRANCH   1   2
BRANCH   1  18
ATOM     18  C   UNL     1     -29.852  20.944  23.873  1.00  0.00     0.000 C 
BRANCH  18  19
ATOM     19  C   UNL     1     -28.911  21.708  22.923  1.00  0.00     0.000 C 
BRANCH  19  20
ATOM     20  C   UNL     1     -27.420  21.357  23.070  1.00  0.00     0.000 C 
BRANCH  20  21
ATOM     21  C   UNL     1     -27.193  19.920  23.574  1.00  0.00     0.000 C 
BRANCH  21  22
ATOM     22  C   UNL     1     -27.212  18.882  22.439  1.00  0.00     0.000 C 
BRANCH  22  23
ATOM     23  C   UNL     1     -28.239  17.746  22.610  1.00  0.00     0.000 C 
BRANCH  23  24
ATOM     24  C   UNL     1     -28.918  17.312  21.293  1.00  0.00    -0.000 C 
BRANCH  24  25
ATOM     25  C   UNL     1     -30.401  16.949  21.492  1.00  0.00    -0.000 C 
BRANCH  25  26
ATOM     26  C   UNL     1     -30.607  15.863  22.561  1.00  0.00    -0.000 C 
BRANCH  26  27
ATOM     27  C   UNL     1     -32.086  15.677  22.936  1.00  0.00    -0.000 C 
BRANCH  27  28
ATOM     28  C   UNL     1     -32.399  14.203  23.232  1.00  0.00    -0.000 C 
BRANCH  28  29
ATOM     29  C   UNL     1     -32.961  13.988  24.647  1.00  0.00    -0.000 C 
BRANCH  29  30
ATOM     30  C   UNL     1     -32.716  15.192  25.573  1.00  0.00    -0.000 C 
BRANCH  30  31
ATOM     31  C   UNL     1     -33.939  15.525  26.441  1.00  0.00    -0.003 C 
ATOM     32  C   UNL     1     -34.401  16.973  26.283  1.00  0.00     0.004 C 
ENDBRANCH  30  31
ENDBRANCH  29  30
ENDBRANCH  28  29
ENDBRANCH  27  28
ENDBRANCH  26  27
ENDBRANCH  25  26
ENDBRANCH  24  25
ENDBRANCH  23  24
ENDBRANCH  22  23
ENDBRANCH  21  22
ENDBRANCH  20  21
ENDBRANCH  19  20
ENDBRANCH  18  19
ENDBRANCH   1  18
TORSDOF 28
ENDMDL
MODEL 9
REMARK VINA RESULT:    -4.063      4.999      9.064
REMARK INTER + INTRA:         -15.848
REMARK INTER:                 -10.241
REMARK INTRA:                  -5.607
REMARK UNBOUND:                -5.134
REMARK SMILES CCCCCCCCCCCCCCCCCCCCCCCCCCCCCC(=O)[O-]
REMARK SMILES IDX 16 1 17 2 18 3 19 4 20 5 21 6 22 7 23 8 24 9 25 10 26 11
REMARK SMILES IDX 27 12 28 13 29 14 30 15 31 16 32 17 15 18 14 19 13 20 12 21
REMARK SMILES IDX 11 22 10 23 9 24 8 25 7 26 6 27 5 28 4 29 3 30 2 31 1 32
REMARK H PARENT
REMARK Flexibility Score: inf
ROOT
ATOM      1  C   UNL     1     -29.323  21.550  23.360  1.00  0.00     0.000 C 
ENDROOT
BRANCH   1   2
ATOM      2  C   UNL     1     -30.263  20.621  22.577  1.00  0.00     0.000 C 
BRANCH   2   3
ATOM      3  C   UNL     1     -31.287  19.914  23.483  1.00  0.00     0.000 C 
BRANCH   3   4
ATOM      4  C   UNL     1     -30.980  20.117  24.977  1.00  0.00     0.000 C 
BRANCH   4   5
ATOM      5  C   UNL     1     -32.009  19.421  25.883  1.00  0.00     0.000 C 
BRANCH   5   6
ATOM      6  C   UNL     1     -33.271  19.042  25.099  1.00  0.00     0.000 C 
BRANCH   6   7
ATOM      7  C   UNL     1     -33.594  17.553  25.271  1.00  0.00     0.000 C 
BRANCH   7   8
ATOM      8  C   UNL     1     -33.979  16.908  23.931  1.00  0.00     0.000 C 
BRANCH   8   9
ATOM      9  C   UNL     1     -33.030  15.764  23.534  1.00  0.00     0.000 C 
BRANCH   9  10
ATOM     10  C   UNL     1     -31.556  16.205  23.493  1.00  0.00     0.000 C 
BRANCH  10  11
ATOM     11  C   UNL     1     -30.892  15.899  22.133  1.00  0.00     0.000 C 
BRANCH  11  12
ATOM     12  C   UNL     1     -30.568  17.155  21.303  1.00  0.00     0.000 C 
BRANCH  12  13
ATOM     13  C   UNL     1     -29.573  16.929  20.153  1.00  0.00     0.006 C 
BRANCH  13  14
ATOM     14  C   UNL     1     -28.743  15.648  20.329  1.00  0.00     0.053 C 
BRANCH  14  15
ATOM     15  C   UNL     1     -28.907  14.735  19.154  1.00  0.00     0.041 C 
ATOM     16  O   UNL     1     -27.914  14.118  18.683  1.00  0.00    -0.550 OA
ATOM     17  O   UNL     1     -30.156  14.581  18.562  1.00  0.00    -0.550 OA
ENDBRANCH  14  15
ENDBRANCH  13  14
ENDBRANCH  12  13
ENDBRANCH  11  12
ENDBRANCH  10  11
ENDBRANCH   9  10
ENDBRANCH   8   9
ENDBRANCH   7   8
ENDBRANCH   6   7
ENDBRANCH   5   6
ENDBRANCH   4   5
ENDBRANCH   3   4
ENDBRANCH   2   3
ENDBRANCH   1   2
BRANCH   1  18
ATOM     18  C   UNL     1     -27.863  21.464  22.882  1.00  0.00     0.000 C 
BRANCH  18  19
ATOM     19  C   UNL     1     -27.119  20.243  23.455  1.00  0.00     0.000 C 
BRANCH  19  20
ATOM     20  C   UNL     1     -26.882  19.101  22.450  1.00  0.00     0.000 C 
BRANCH  20  21
ATOM     21  C   UNL     1     -27.206  17.716  23.037  1.00  0.00     0.000 C 
BRANCH  21  22
ATOM     22  C   UNL     1     -28.310  17.765  24.107  1.00  0.00     0.000 C 
BRANCH  22  23
ATOM     23  C   UNL     1     -27.888  17.274  25.505  1.00  0.00     0.000 C 
BRANCH  23  24
ATOM     24  C   UNL     1     -28.731  17.862  26.657  1.00  0.00    -0.000 C 
BRANCH  24  25
ATOM     25  C   UNL     1     -27.896  18.746  27.600  1.00  0.00    -0.000 C 
BRANCH  25  26
ATOM     26  C   UNL     1     -27.476  20.075  26.951  1.00  0.00    -0.000 C 
BRANCH  26  27
ATOM     27  C   UNL     1     -27.864  21.296  27.802  1.00  0.00    -0.000 C 
BRANCH  27  28
ATOM     28  C   UNL     1     -28.672  22.308  26.977  1.00  0.00    -0.000 C 
BRANCH  28  29
ATOM     29  C   UNL     1     -30.005  22.688  27.644  1.00  0.00    -0.000 C 
BRANCH  29  30
ATOM     30  C   UNL     1     -30.289  21.865  28.914  1.00  0.00    -0.000 C 
BRANCH  30  31
ATOM     31  C   UNL     1     -31.527  22.367  29.673  1.00  0.00    -0.003 C 
ATOM     32  C   UNL     1     -31.759  23.868  29.504  1.00  0.00     0.004 C 
ENDBRANCH  30  31
ENDBRANCH  29  30
ENDBRANCH  28  29
ENDBRANCH  27  28
ENDBRANCH  26  27
ENDBRANCH  25  26
ENDBRANCH  24  25
ENDBRANCH  23  24
ENDBRANCH  22  23
ENDBRANCH  21  22
ENDBRANCH  20  21
ENDBRANCH  19  20
ENDBRANCH  18  19
ENDBRANCH   1  18
TORSDOF 28
ENDMDL
