MODEL 1
REMARK VINA RESULT:    -5.611      0.000      0.000
REMARK INTER + INTRA:          -6.904
REMARK INTER:                  -6.595
REMARK INTRA:                  -0.309
REMARK UNBOUND:                -0.309
REMARK SMILES O=c1cc(-c2ccc(O)c(O)c2)oc2cc(O)cc(O)c12
REMARK SMILES IDX 4 1 3 2 2 3 1 4 21 5 19 6 18 7 16 8 15 9 14 10 13 11 5 12
REMARK SMILES IDX 6 13 7 14 8 15 12 16 10 17 9 18 11 20 20 22 17 24
REMARK H PARENT 9 19 11 21 20 23 17 25
REMARK Flexibility Score: inf
ROOT
ATOM      1  C   UNL     1     128.408 127.674 132.993  1.00  0.00     0.138 A 
ATOM      2  C   UNL     1     129.808 127.545 132.989  1.00  0.00     0.100 A 
ATOM      3  C   UNL     1     130.603 128.691 132.982  1.00  0.00     0.197 A 
ATOM      4  O   UNL     1     131.858 128.566 132.980  1.00  0.00    -0.289 OA
ATOM      5  C   UNL     1     129.991 129.961 132.981  1.00  0.00     0.107 A 
ATOM      6  C   UNL     1     130.723 131.173 132.971  1.00  0.00     0.134 A 
ATOM      7  C   UNL     1     130.039 132.398 132.977  1.00  0.00     0.093 A 
ATOM      8  C   UNL     1     128.643 132.434 132.992  1.00  0.00     0.123 A 
ATOM      9  C   UNL     1     127.914 131.239 133.001  1.00  0.00     0.094 A 
ATOM     10  C   UNL     1     128.578 130.009 132.994  1.00  0.00     0.146 A 
ATOM     11  O   UNL     1     127.863 128.887 133.002  1.00  0.00    -0.456 OA
ENDROOT
BRANCH   1  12
ATOM     12  C   UNL     1     127.513 126.488 133.002  1.00  0.00     0.021 A 
ATOM     13  C   UNL     1     127.912 125.256 132.456  1.00  0.00     0.016 A 
ATOM     14  C   UNL     1     127.045 124.162 132.470  1.00  0.00     0.051 A 
ATOM     15  C   UNL     1     125.763 124.272 133.020  1.00  0.00     0.157 A 
ATOM     16  C   UNL     1     126.220 126.603 133.542  1.00  0.00     0.062 A 
ATOM     17  C   UNL     1     125.344 125.511 133.561  1.00  0.00     0.158 A 
BRANCH  15  18
ATOM     18  O   UNL     1     124.948 123.140 133.005  1.00  0.00    -0.504 OA
ATOM     19  H   UNL     1     125.156 122.300 132.483  1.00  0.00     0.293 HD
ENDBRANCH  15  18
BRANCH  17  20
ATOM     20  O   UNL     1     124.080 125.699 134.121  1.00  0.00    -0.504 OA
ATOM     21  H   UNL     1     123.811 126.519 134.646  1.00  0.00     0.293 HD
ENDBRANCH  17  20
ENDBRANCH   1  12
BRANCH   6  22
ATOM     22  O   UNL     1     132.119 131.169 132.957  1.00  0.00    -0.507 OA
ATOM     23  H   UNL     1     132.644 130.467 132.451  1.00  0.00     0.293 HD
ENDBRANCH   6  22
BRANCH   8  24
ATOM     24  O   UNL     1     127.988 133.664 132.998  1.00  0.00    -0.508 OA
ATOM     25  H   UNL     1     127.037 133.759 132.662  1.00  0.00     0.293 HD
ENDBRANCH   8  24
TORSDOF 5
ENDMDL
MODEL 2
REMARK VINA RESULT:    -5.609      2.786      8.545
REMARK INTER + INTRA:          -6.903
REMARK INTER:                  -6.591
REMARK INTRA:                  -0.312
REMARK UNBOUND:                -0.309
REMARK SMILES O=c1cc(-c2ccc(O)c(O)c2)oc2cc(O)cc(O)c12
REMARK SMILES IDX 4 1 3 2 2 3 1 4 21 5 19 6 18 7 16 8 15 9 14 10 13 11 5 12
REMARK SMILES IDX 6 13 7 14 8 15 12 16 10 17 9 18 11 20 20 22 17 24
REMARK H PARENT 9 19 11 21 20 23 17 25
REMARK Flexibility Score: inf
ROOT
ATOM      1  C   UNL     1     131.273 131.984 132.888  1.00  0.00     0.138 A 
ATOM      2  C   UNL     1     129.881 132.145 132.791  1.00  0.00     0.100 A 
ATOM      3  C   UNL     1     129.059 131.019 132.765  1.00  0.00     0.197 A 
ATOM      4  O   UNL     1     127.810 131.174 132.679  1.00  0.00    -0.289 OA
ATOM      5  C   UNL     1     129.636 129.735 132.839  1.00  0.00     0.107 A 
ATOM      6  C   UNL     1     128.875 128.541 132.817  1.00  0.00     0.134 A 
ATOM      7  C   UNL     1     129.526 127.302 132.902  1.00  0.00     0.093 A 
ATOM      8  C   UNL     1     130.917 127.233 133.008  1.00  0.00     0.123 A 
ATOM      9  C   UNL     1     131.674 128.409 133.029  1.00  0.00     0.094 A 
ATOM     10  C   UNL     1     131.044 129.654 132.945  1.00  0.00     0.146 A 
ATOM     11  O   UNL     1     131.786 130.758 132.967  1.00  0.00    -0.456 OA
ENDROOT
BRANCH   1  12
ATOM     12  C   UNL     1     132.196 133.147 132.922  1.00  0.00     0.021 A 
ATOM     13  C   UNL     1     131.829 134.397 132.394  1.00  0.00     0.016 A 
ATOM     14  C   UNL     1     132.722 135.470 132.431  1.00  0.00     0.051 A 
ATOM     15  C   UNL     1     133.998 135.321 132.984  1.00  0.00     0.157 A 
ATOM     16  C   UNL     1     133.483 132.993 133.466  1.00  0.00     0.062 A 
ATOM     17  C   UNL     1     134.384 134.064 133.507  1.00  0.00     0.158 A 
BRANCH  15  18
ATOM     18  O   UNL     1     134.840 136.434 132.992  1.00  0.00    -0.504 OA
ATOM     19  H   UNL     1     134.689 137.261 132.432  1.00  0.00     0.293 HD
ENDBRANCH  15  18
BRANCH  17  20
ATOM     20  O   UNL     1     135.641 133.837 134.070  1.00  0.00    -0.504 OA
ATOM     21  H   UNL     1     135.930 132.956 134.471  1.00  0.00     0.293 HD
ENDBRANCH  17  20
ENDBRANCH   1  12
BRANCH   6  22
ATOM     22  O   UNL     1     127.484 128.578 132.713  1.00  0.00    -0.507 OA
ATOM     23  H   UNL     1     126.959 129.424 132.900  1.00  0.00     0.293 HD
ENDBRANCH   6  22
BRANCH   8  24
ATOM     24  O   UNL     1     131.539 125.988 133.091  1.00  0.00    -0.508 OA
ATOM     25  H   UNL     1     131.308 125.328 133.823  1.00  0.00     0.293 HD
ENDBRANCH   8  24
TORSDOF 5
ENDMDL
MODEL 3
REMARK VINA RESULT:    -5.582      3.488      6.297
REMARK INTER + INTRA:          -6.870
REMARK INTER:                  -6.594
REMARK INTRA:                  -0.276
REMARK UNBOUND:                -0.309
REMARK SMILES O=c1cc(-c2ccc(O)c(O)c2)oc2cc(O)cc(O)c12
REMARK SMILES IDX 4 1 3 2 2 3 1 4 21 5 19 6 18 7 16 8 15 9 14 10 13 11 5 12
REMARK SMILES IDX 6 13 7 14 8 15 12 16 10 17 9 18 11 20 20 22 17 24
REMARK H PARENT 9 19 11 21 20 23 17 25
REMARK Flexibility Score: inf
ROOT
ATOM      1  C   UNL     1     130.995 132.729 132.844  1.00  0.00     0.138 A 
ATOM      2  C   UNL     1     130.443 133.953 132.429  1.00  0.00     0.100 A 
ATOM      3  C   UNL     1     131.259 135.080 132.345  1.00  0.00     0.197 A 
ATOM      4  O   UNL     1     130.756 136.174 131.970  1.00  0.00    -0.289 OA
ATOM      5  C   UNL     1     132.625 134.976 132.676  1.00  0.00     0.107 A 
ATOM      6  C   UNL     1     133.522 136.070 132.620  1.00  0.00     0.134 A 
ATOM      7  C   UNL     1     134.870 135.882 132.959  1.00  0.00     0.093 A 
ATOM      8  C   UNL     1     135.337 134.625 133.352  1.00  0.00     0.123 A 
ATOM      9  C   UNL     1     134.456 133.540 133.410  1.00  0.00     0.094 A 
ATOM     10  C   UNL     1     133.109 133.708 133.076  1.00  0.00     0.146 A 
ATOM     11  O   UNL     1     132.290 132.662 133.140  1.00  0.00    -0.456 OA
ENDROOT
BRANCH   1  12
ATOM     12  C   UNL     1     130.173 131.495 132.950  1.00  0.00     0.021 A 
ATOM     13  C   UNL     1     130.274 130.634 134.056  1.00  0.00     0.016 A 
ATOM     14  C   UNL     1     129.496 129.476 134.123  1.00  0.00     0.051 A 
ATOM     15  C   UNL     1     128.610 129.148 133.092  1.00  0.00     0.157 A 
ATOM     16  C   UNL     1     129.294 131.159 131.907  1.00  0.00     0.062 A 
ATOM     17  C   UNL     1     128.510 130.000 131.967  1.00  0.00     0.158 A 
BRANCH  15  18
ATOM     18  O   UNL     1     127.860 127.978 133.223  1.00  0.00    -0.504 OA
ATOM     19  H   UNL     1     127.040 127.768 132.672  1.00  0.00     0.293 HD
ENDBRANCH  15  18
BRANCH  17  20
ATOM     20  O   UNL     1     127.653 129.737 130.896  1.00  0.00    -0.504 OA
ATOM     21  H   UNL     1     126.809 129.187 130.971  1.00  0.00     0.293 HD
ENDBRANCH  17  20
ENDBRANCH   1  12
BRANCH   6  22
ATOM     22  O   UNL     1     133.085 137.337 132.230  1.00  0.00    -0.507 OA
ATOM     23  H   UNL     1     133.477 137.812 131.427  1.00  0.00     0.293 HD
ENDBRANCH   6  22
BRANCH   8  24
ATOM     24  O   UNL     1     136.681 134.465 133.684  1.00  0.00    -0.508 OA
ATOM     25  H   UNL     1     137.285 133.843 133.161  1.00  0.00     0.293 HD
ENDBRANCH   8  24
TORSDOF 5
ENDMDL
MODEL 4
REMARK VINA RESULT:    -5.496      1.612      7.037
REMARK INTER + INTRA:          -6.769
REMARK INTER:                  -6.483
REMARK INTRA:                  -0.286
REMARK UNBOUND:                -0.309
REMARK SMILES O=c1cc(-c2ccc(O)c(O)c2)oc2cc(O)cc(O)c12
REMARK SMILES IDX 4 1 3 2 2 3 1 4 21 5 19 6 18 7 16 8 15 9 14 10 13 11 5 12
REMARK SMILES IDX 6 13 7 14 8 15 12 16 10 17 9 18 11 20 20 22 17 24
REMARK H PARENT 9 19 11 21 20 23 17 25
REMARK Flexibility Score: inf
ROOT
ATOM      1  C   UNL     1     128.888 127.208 133.147  1.00  0.00     0.138 A 
ATOM      2  C   UNL     1     129.565 126.005 132.885  1.00  0.00     0.100 A 
ATOM      3  C   UNL     1     128.842 124.816 132.789  1.00  0.00     0.197 A 
ATOM      4  O   UNL     1     129.458 123.741 132.554  1.00  0.00    -0.289 OA
ATOM      5  C   UNL     1     127.442 124.839 132.952  1.00  0.00     0.107 A 
ATOM      6  C   UNL     1     126.633 123.680 132.873  1.00  0.00     0.134 A 
ATOM      7  C   UNL     1     125.245 123.788 133.041  1.00  0.00     0.093 A 
ATOM      8  C   UNL     1     124.652 125.029 133.287  1.00  0.00     0.123 A 
ATOM      9  C   UNL     1     125.446 126.178 133.367  1.00  0.00     0.094 A 
ATOM     10  C   UNL     1     126.831 126.091 133.203  1.00  0.00     0.146 A 
ATOM     11  O   UNL     1     127.565 127.197 133.286  1.00  0.00    -0.456 OA
ENDROOT
BRANCH   1  12
ATOM     12  C   UNL     1     129.607 128.503 133.258  1.00  0.00     0.021 A 
ATOM     13  C   UNL     1     129.114 129.556 134.048  1.00  0.00     0.016 A 
ATOM     14  C   UNL     1     129.807 130.766 134.125  1.00  0.00     0.051 A 
ATOM     15  C   UNL     1     130.997 130.956 133.415  1.00  0.00     0.157 A 
ATOM     16  C   UNL     1     130.795 128.699 132.533  1.00  0.00     0.062 A 
ATOM     17  C   UNL     1     131.496 129.909 132.605  1.00  0.00     0.158 A 
BRANCH  15  18
ATOM     18  O   UNL     1     131.641 132.188 133.538  1.00  0.00    -0.504 OA
ATOM     19  H   UNL     1     132.452 132.346 134.120  1.00  0.00     0.293 HD
ENDBRANCH  15  18
BRANCH  17  20
ATOM     20  O   UNL     1     132.673 130.025 131.864  1.00  0.00    -0.504 OA
ATOM     21  H   UNL     1     133.449 129.382 131.931  1.00  0.00     0.293 HD
ENDBRANCH  17  20
ENDBRANCH   1  12
BRANCH   6  22
ATOM     22  O   UNL     1     127.197 122.427 132.627  1.00  0.00    -0.507 OA
ATOM     23  H   UNL     1     126.922 121.866 131.830  1.00  0.00     0.293 HD
ENDBRANCH   6  22
BRANCH   8  24
ATOM     24  O   UNL     1     123.270 125.109 133.450  1.00  0.00    -0.508 OA
ATOM     25  H   UNL     1     122.653 125.278 132.665  1.00  0.00     0.293 HD
ENDBRANCH   8  24
TORSDOF 5
ENDMDL
MODEL 5
REMARK VINA RESULT:    -5.365      1.512      6.790
REMARK INTER + INTRA:          -6.615
REMARK INTER:                  -6.300
REMARK INTRA:                  -0.316
REMARK UNBOUND:                -0.309
REMARK SMILES O=c1cc(-c2ccc(O)c(O)c2)oc2cc(O)cc(O)c12
REMARK SMILES IDX 4 1 3 2 2 3 1 4 21 5 19 6 18 7 16 8 15 9 14 10 13 11 5 12
REMARK SMILES IDX 6 13 7 14 8 15 12 16 10 17 9 18 11 20 20 22 17 24
REMARK H PARENT 9 19 11 21 20 23 17 25
REMARK Flexibility Score: inf
ROOT
ATOM      1  C   UNL     1     128.507 127.713 132.887  1.00  0.00     0.138 A 
ATOM      2  C   UNL     1     129.291 126.606 132.521  1.00  0.00     0.100 A 
ATOM      3  C   UNL     1     128.696 125.349 132.411  1.00  0.00     0.197 A 
ATOM      4  O   UNL     1     129.407 124.362 132.080  1.00  0.00    -0.289 OA
ATOM      5  C   UNL     1     127.317 125.209 132.665  1.00  0.00     0.107 A 
ATOM      6  C   UNL     1     126.635 123.971 132.577  1.00  0.00     0.134 A 
ATOM      7  C   UNL     1     125.259 123.915 132.840  1.00  0.00     0.093 A 
ATOM      8  C   UNL     1     124.553 125.070 133.187  1.00  0.00     0.123 A 
ATOM      9  C   UNL     1     125.221 126.296 133.276  1.00  0.00     0.094 A 
ATOM     10  C   UNL     1     126.593 126.371 133.019  1.00  0.00     0.146 A 
ATOM     11  O   UNL     1     127.206 127.548 133.111  1.00  0.00    -0.456 OA
ENDROOT
BRANCH   1  12
ATOM     12  C   UNL     1     129.087 129.074 133.019  1.00  0.00     0.021 A 
ATOM     13  C   UNL     1     130.474 129.280 133.121  1.00  0.00     0.016 A 
ATOM     14  C   UNL     1     130.989 130.571 133.254  1.00  0.00     0.051 A 
ATOM     15  C   UNL     1     130.139 131.680 133.295  1.00  0.00     0.157 A 
ATOM     16  C   UNL     1     128.232 130.188 133.075  1.00  0.00     0.062 A 
ATOM     17  C   UNL     1     128.740 131.486 133.207  1.00  0.00     0.158 A 
BRANCH  15  18
ATOM     18  O   UNL     1     130.719 132.943 133.427  1.00  0.00    -0.504 OA
ATOM     19  H   UNL     1     130.674 133.501 134.268  1.00  0.00     0.293 HD
ENDBRANCH  15  18
BRANCH  17  20
ATOM     20  O   UNL     1     127.829 132.542 133.247  1.00  0.00    -0.504 OA
ATOM     21  H   UNL     1     126.848 132.450 133.024  1.00  0.00     0.293 HD
ENDBRANCH  17  20
ENDBRANCH   1  12
BRANCH   6  22
ATOM     22  O   UNL     1     127.313 122.801 132.231  1.00  0.00    -0.507 OA
ATOM     23  H   UNL     1     126.850 121.900 132.221  1.00  0.00     0.293 HD
ENDBRANCH   6  22
BRANCH   8  24
ATOM     24  O   UNL     1     123.185 124.988 133.443  1.00  0.00    -0.508 OA
ATOM     25  H   UNL     1     122.617 124.246 133.054  1.00  0.00     0.293 HD
ENDBRANCH   8  24
TORSDOF 5
ENDMDL
MODEL 6
REMARK VINA RESULT:    -5.250      2.906      5.065
REMARK INTER + INTRA:          -6.480
REMARK INTER:                  -6.182
REMARK INTRA:                  -0.297
REMARK UNBOUND:                -0.309
REMARK SMILES O=c1cc(-c2ccc(O)c(O)c2)oc2cc(O)cc(O)c12
REMARK SMILES IDX 4 1 3 2 2 3 1 4 21 5 19 6 18 7 16 8 15 9 14 10 13 11 5 12
REMARK SMILES IDX 6 13 7 14 8 15 12 16 10 17 9 18 11 20 20 22 17 24
REMARK H PARENT 9 19 11 21 20 23 17 25
REMARK Flexibility Score: inf
ROOT
ATOM      1  C   UNL     1     130.629 132.175 133.427  1.00  0.00     0.138 A 
ATOM      2  C   UNL     1     132.032 132.202 133.355  1.00  0.00     0.100 A 
ATOM      3  C   UNL     1     132.697 133.428 133.380  1.00  0.00     0.197 A 
ATOM      4  O   UNL     1     133.957 133.443 133.316  1.00  0.00    -0.289 OA
ATOM      5  C   UNL     1     131.953 134.621 133.479  1.00  0.00     0.107 A 
ATOM      6  C   UNL     1     132.548 135.905 133.508  1.00  0.00     0.134 A 
ATOM      7  C   UNL     1     131.737 137.045 133.615  1.00  0.00     0.093 A 
ATOM      8  C   UNL     1     130.347 136.925 133.693  1.00  0.00     0.123 A 
ATOM      9  C   UNL     1     129.753 135.658 133.664  1.00  0.00     0.094 A 
ATOM     10  C   UNL     1     130.545 134.511 133.557  1.00  0.00     0.146 A 
ATOM     11  O   UNL     1     129.957 133.319 133.530  1.00  0.00    -0.456 OA
ENDROOT
BRANCH   1  12
ATOM     12  C   UNL     1     129.869 130.899 133.407  1.00  0.00     0.021 A 
ATOM     13  C   UNL     1     130.316 129.761 134.100  1.00  0.00     0.016 A 
ATOM     14  C   UNL     1     129.585 128.572 134.054  1.00  0.00     0.051 A 
ATOM     15  C   UNL     1     128.402 128.488 133.314  1.00  0.00     0.157 A 
ATOM     16  C   UNL     1     128.687 130.811 132.652  1.00  0.00     0.062 A 
ATOM     17  C   UNL     1     127.947 129.623 132.601  1.00  0.00     0.158 A 
BRANCH  15  18
ATOM     18  O   UNL     1     127.718 127.271 133.312  1.00  0.00    -0.504 OA
ATOM     19  H   UNL     1     127.558 126.711 134.138  1.00  0.00     0.293 HD
ENDBRANCH  15  18
BRANCH  17  20
ATOM     20  O   UNL     1     126.779 129.614 131.837  1.00  0.00    -0.504 OA
ATOM     21  H   UNL     1     126.025 130.277 131.950  1.00  0.00     0.293 HD
ENDBRANCH  17  20
ENDBRANCH   1  12
BRANCH   6  22
ATOM     22  O   UNL     1     133.933 136.057 133.434  1.00  0.00    -0.507 OA
ATOM     23  H   UNL     1     134.457 135.767 132.617  1.00  0.00     0.293 HD
ENDBRANCH   6  22
BRANCH   8  24
ATOM     24  O   UNL     1     129.564 138.073 133.799  1.00  0.00    -0.508 OA
ATOM     25  H   UNL     1     129.802 138.820 134.440  1.00  0.00     0.293 HD
ENDBRANCH   8  24
TORSDOF 5
ENDMDL
MODEL 7
REMARK VINA RESULT:    -5.220      1.870      7.602
REMARK INTER + INTRA:          -6.445
REMARK INTER:                  -6.180
REMARK INTRA:                  -0.265
REMARK UNBOUND:                -0.309
REMARK SMILES O=c1cc(-c2ccc(O)c(O)c2)oc2cc(O)cc(O)c12
REMARK SMILES IDX 4 1 3 2 2 3 1 4 21 5 19 6 18 7 16 8 15 9 14 10 13 11 5 12
REMARK SMILES IDX 6 13 7 14 8 15 12 16 10 17 9 18 11 20 20 22 17 24
REMARK H PARENT 9 19 11 21 20 23 17 25
REMARK Flexibility Score: inf
ROOT
ATOM      1  C   UNL     1     128.397 126.987 133.101  1.00  0.00     0.138 A 
ATOM      2  C   UNL     1     127.008 127.057 132.896  1.00  0.00     0.100 A 
ATOM      3  C   UNL     1     126.246 125.890 132.952  1.00  0.00     0.197 A 
ATOM      4  O   UNL     1     125.001 125.963 132.768  1.00  0.00    -0.289 OA
ATOM      5  C   UNL     1     126.879 124.658 133.214  1.00  0.00     0.107 A 
ATOM      6  C   UNL     1     126.182 123.429 133.286  1.00  0.00     0.134 A 
ATOM      7  C   UNL     1     126.885 122.246 133.558  1.00  0.00     0.093 A 
ATOM      8  C   UNL     1     128.267 122.269 133.759  1.00  0.00     0.123 A 
ATOM      9  C   UNL     1     128.962 123.481 133.690  1.00  0.00     0.094 A 
ATOM     10  C   UNL     1     128.279 124.670 133.418  1.00  0.00     0.146 A 
ATOM     11  O   UNL     1     128.962 125.810 133.356  1.00  0.00    -0.456 OA
ENDROOT
BRANCH   1  12
ATOM     12  C   UNL     1     129.258 128.197 133.055  1.00  0.00     0.021 A 
ATOM     13  C   UNL     1     129.311 129.107 134.125  1.00  0.00     0.016 A 
ATOM     14  C   UNL     1     130.122 130.241 134.048  1.00  0.00     0.051 A 
ATOM     15  C   UNL     1     130.888 130.498 132.907  1.00  0.00     0.157 A 
ATOM     16  C   UNL     1     130.017 128.462 131.902  1.00  0.00     0.062 A 
ATOM     17  C   UNL     1     130.832 129.597 131.817  1.00  0.00     0.158 A 
BRANCH  15  18
ATOM     18  O   UNL     1     131.679 131.648 132.897  1.00  0.00    -0.504 OA
ATOM     19  H   UNL     1     132.612 131.696 133.281  1.00  0.00     0.293 HD
ENDBRANCH  15  18
BRANCH  17  20
ATOM     20  O   UNL     1     131.564 129.788 130.643  1.00  0.00    -0.504 OA
ATOM     21  H   UNL     1     131.828 129.043 130.015  1.00  0.00     0.293 HD
ENDBRANCH  17  20
ENDBRANCH   1  12
BRANCH   6  22
ATOM     22  O   UNL     1     124.801 123.374 133.090  1.00  0.00    -0.507 OA
ATOM     23  H   UNL     1     124.181 124.081 133.468  1.00  0.00     0.293 HD
ENDBRANCH   6  22
BRANCH   8  24
ATOM     24  O   UNL     1     128.942 121.079 134.029  1.00  0.00    -0.508 OA
ATOM     25  H   UNL     1     129.204 120.821 134.972  1.00  0.00     0.293 HD
ENDBRANCH   8  24
TORSDOF 5
ENDMDL
MODEL 8
REMARK VINA RESULT:    -5.080      2.085      2.108
REMARK INTER + INTRA:          -6.280
REMARK INTER:                  -6.014
REMARK INTRA:                  -0.266
REMARK UNBOUND:                -0.309
REMARK SMILES O=c1cc(-c2ccc(O)c(O)c2)oc2cc(O)cc(O)c12
REMARK SMILES IDX 4 1 3 2 2 3 1 4 21 5 19 6 18 7 16 8 15 9 14 10 13 11 5 12
REMARK SMILES IDX 6 13 7 14 8 15 12 16 10 17 9 18 11 20 20 22 17 24
REMARK H PARENT 9 19 11 21 20 23 17 25
REMARK Flexibility Score: inf
ROOT
ATOM      1  C   UNL     1     128.702 127.184 132.259  1.00  0.00     0.138 A 
ATOM      2  C   UNL     1     129.835 127.181 133.090  1.00  0.00     0.100 A 
ATOM      3  C   UNL     1     130.856 128.103 132.861  1.00  0.00     0.197 A 
ATOM      4  O   UNL     1     131.869 128.094 133.612  1.00  0.00    -0.289 OA
ATOM      5  C   UNL     1     130.736 129.026 131.802  1.00  0.00     0.107 A 
ATOM      6  C   UNL     1     131.725 129.992 131.500  1.00  0.00     0.134 A 
ATOM      7  C   UNL     1     131.526 130.880 130.432  1.00  0.00     0.093 A 
ATOM      8  C   UNL     1     130.362 130.819 129.663  1.00  0.00     0.123 A 
ATOM      9  C   UNL     1     129.381 129.866 129.956  1.00  0.00     0.094 A 
ATOM     10  C   UNL     1     129.561 128.972 131.016  1.00  0.00     0.146 A 
ATOM     11  O   UNL     1     128.615 128.074 131.274  1.00  0.00    -0.456 OA
ENDROOT
BRANCH   1  12
ATOM     12  C   UNL     1     127.584 126.226 132.457  1.00  0.00     0.021 A 
ATOM     13  C   UNL     1     127.615 124.931 131.911  1.00  0.00     0.016 A 
ATOM     14  C   UNL     1     126.544 124.056 132.106  1.00  0.00     0.051 A 
ATOM     15  C   UNL     1     125.420 124.451 132.838  1.00  0.00     0.157 A 
ATOM     16  C   UNL     1     126.448 126.628 133.182  1.00  0.00     0.062 A 
ATOM     17  C   UNL     1     125.371 125.757 133.382  1.00  0.00     0.158 A 
BRANCH  15  18
ATOM     18  O   UNL     1     124.386 123.527 132.998  1.00  0.00    -0.504 OA
ATOM     19  H   UNL     1     124.378 122.805 133.704  1.00  0.00     0.293 HD
ENDBRANCH  15  18
BRANCH  17  20
ATOM     20  O   UNL     1     124.282 126.225 134.120  1.00  0.00    -0.504 OA
ATOM     21  H   UNL     1     123.386 125.761 134.161  1.00  0.00     0.293 HD
ENDBRANCH  17  20
ENDBRANCH   1  12
BRANCH   6  22
ATOM     22  O   UNL     1     132.898 130.078 132.251  1.00  0.00    -0.507 OA
ATOM     23  H   UNL     1     133.121 129.399 132.970  1.00  0.00     0.293 HD
ENDBRANCH   6  22
BRANCH   8  24
ATOM     24  O   UNL     1     130.189 131.712 128.607  1.00  0.00    -0.508 OA
ATOM     25  H   UNL     1     130.782 132.526 128.499  1.00  0.00     0.293 HD
ENDBRANCH   8  24
TORSDOF 5
ENDMDL
MODEL 9
REMARK VINA RESULT:    -5.043     14.588     18.037
REMARK INTER + INTRA:          -6.237
REMARK INTER:                  -5.951
REMARK INTRA:                  -0.286
REMARK UNBOUND:                -0.309
REMARK SMILES O=c1cc(-c2ccc(O)c(O)c2)oc2cc(O)cc(O)c12
REMARK SMILES IDX 4 1 3 2 2 3 1 4 21 5 19 6 18 7 16 8 15 9 14 10 13 11 5 12
REMARK SMILES IDX 6 13 7 14 8 15 12 16 10 17 9 18 11 20 20 22 17 24
REMARK H PARENT 9 19 11 21 20 23 17 25
REMARK Flexibility Score: inf
ROOT
ATOM      1  C   UNL     1     138.259 136.024 121.165  1.00  0.00     0.138 A 
ATOM      2  C   UNL     1     138.910 134.779 121.198  1.00  0.00     0.100 A 
ATOM      3  C   UNL     1     138.489 133.808 122.106  1.00  0.00     0.197 A 
ATOM      4  O   UNL     1     139.078 132.693 122.128  1.00  0.00    -0.289 OA
ATOM      5  C   UNL     1     137.414 134.087 122.974  1.00  0.00     0.107 A 
ATOM      6  C   UNL     1     136.925 133.159 123.926  1.00  0.00     0.134 A 
ATOM      7  C   UNL     1     135.847 133.512 124.750  1.00  0.00     0.093 A 
ATOM      8  C   UNL     1     135.250 134.771 124.642  1.00  0.00     0.123 A 
ATOM      9  C   UNL     1     135.729 135.692 123.704  1.00  0.00     0.094 A 
ATOM     10  C   UNL     1     136.803 135.359 122.874  1.00  0.00     0.146 A 
ATOM     11  O   UNL     1     137.242 136.252 121.992  1.00  0.00    -0.456 OA
ENDROOT
BRANCH   1  12
ATOM     12  C   UNL     1     138.664 137.095 120.218  1.00  0.00     0.021 A 
ATOM     13  C   UNL     1     138.495 138.456 120.527  1.00  0.00     0.016 A 
ATOM     14  C   UNL     1     138.877 139.440 119.612  1.00  0.00     0.051 A 
ATOM     15  C   UNL     1     139.425 139.093 118.374  1.00  0.00     0.157 A 
ATOM     16  C   UNL     1     139.202 136.745 118.968  1.00  0.00     0.062 A 
ATOM     17  C   UNL     1     139.588 137.726 118.046  1.00  0.00     0.158 A 
BRANCH  15  18
ATOM     18  O   UNL     1     139.788 140.125 117.507  1.00  0.00    -0.504 OA
ATOM     19  H   UNL     1     139.571 141.099 117.667  1.00  0.00     0.293 HD
ENDBRANCH  15  18
BRANCH  17  20
ATOM     20  O   UNL     1     140.122 137.301 116.828  1.00  0.00    -0.504 OA
ATOM     21  H   UNL     1     139.588 136.834 116.109  1.00  0.00     0.293 HD
ENDBRANCH  17  20
ENDBRANCH   1  12
BRANCH   6  22
ATOM     22  O   UNL     1     137.501 131.895 124.056  1.00  0.00    -0.507 OA
ATOM     23  H   UNL     1     136.970 131.048 123.887  1.00  0.00     0.293 HD
ENDBRANCH   6  22
BRANCH   8  24
ATOM     24  O   UNL     1     134.179 135.097 125.473  1.00  0.00    -0.508 OA
ATOM     25  H   UNL     1     133.374 134.490 125.561  1.00  0.00     0.293 HD
ENDBRANCH   8  24
TORSDOF 5
ENDMDL
