MODEL 1
REMARK VINA RESULT:    -5.799      0.000      0.000
REMARK INTER + INTRA:          -7.986
REMARK INTER:                  -8.003
REMARK INTRA:                   0.017
REMARK UNBOUND:                 0.017
REMARK SMILES CC[C@@H](CC[C@H](C)[C@@H]1CC[C@H]2[C@H]3CC=C4C[C@@H](O)CC[C@@]4(C)[C@H]3CC[C@]21C)C(C)C
REMARK SMILES IDX 5 1 4 2 3 3 2 4 1 5 28 6 29 7 30 8 6 9 7 10 8 11 9 12 26 13
REMARK SMILES IDX 10 14 11 15 25 16 27 17 12 18 24 19 23 20 13 21 21 22 14 23
REMARK SMILES IDX 15 24 20 25 22 26 16 27 19 28 17 29 18 30
REMARK H PARENT 18 31
REMARK Flexibility Score: inf
ROOT
ATOM      1  C   UNL     1     -15.477 -26.634 -11.747  1.00  0.00     0.004 C 
ENDROOT
BRANCH   1   2
ATOM      2  C   UNL     1     -16.263 -27.666 -12.597  1.00  0.00     0.004 C 
BRANCH   2   3
ATOM      3  C   UNL     1     -15.549 -28.060 -13.922  1.00  0.00    -0.009 C 
BRANCH   3   4
ATOM      4  C   UNL     1     -15.098 -29.549 -13.885  1.00  0.00     0.000 C 
ATOM      5  C   UNL     1     -16.140 -30.481 -13.256  1.00  0.00     0.004 C 
ENDBRANCH   3   4
BRANCH   3   6
ATOM      6  C   UNL     1     -14.373 -27.090 -14.286  1.00  0.00    -0.014 C 
ATOM      7  C   UNL     1     -13.511 -27.582 -15.458  1.00  0.00     0.007 C 
ATOM      8  C   UNL     1     -14.863 -25.657 -14.551  1.00  0.00     0.007 C 
ENDBRANCH   3   6
ENDBRANCH   2   3
ENDBRANCH   1   2
BRANCH   1   9
ATOM      9  C   UNL     1     -15.348 -26.997 -10.229  1.00  0.00    -0.011 C 
ATOM     10  C   UNL     1     -14.367 -25.981  -9.596  1.00  0.00     0.008 C 
BRANCH   9  11
ATOM     11  C   UNL     1     -14.989 -28.526  -9.985  1.00  0.00    -0.002 C 
ATOM     12  C   UNL     1     -14.997 -28.852  -8.467  1.00  0.00     0.005 C 
ATOM     13  C   UNL     1     -13.566 -29.080 -10.394  1.00  0.00    -0.026 C 
ATOM     14  C   UNL     1     -13.561 -28.698  -7.970  1.00  0.00     0.005 C 
ATOM     15  C   UNL     1     -12.674 -28.616  -9.223  1.00  0.00    -0.001 C 
ATOM     16  C   UNL     1     -13.639 -30.657 -10.489  1.00  0.00     0.007 C 
ATOM     17  C   UNL     1     -12.978 -28.565 -11.734  1.00  0.00     0.012 C 
ATOM     18  C   UNL     1     -11.290 -29.331  -9.131  1.00  0.00     0.000 C 
ATOM     19  C   UNL     1     -12.756 -31.424  -9.491  1.00  0.00     0.005 C 
ATOM     20  C   UNL     1     -11.310 -30.882  -9.436  1.00  0.00     0.003 C 
ATOM     21  C   UNL     1     -10.541 -28.922  -7.831  1.00  0.00     0.031 C 
ATOM     22  C   UNL     1     -10.342 -31.718  -8.498  1.00  0.00    -0.008 C 
ATOM     23  C   UNL     1     -10.653 -29.960  -6.759  1.00  0.00    -0.027 C 
ATOM     24  C   UNL     1     -10.513 -31.264  -7.047  1.00  0.00    -0.065 C 
ATOM     25  C   UNL     1     -10.616 -33.255  -8.566  1.00  0.00     0.014 C 
ATOM     26  C   UNL     1      -8.875 -31.483  -8.954  1.00  0.00     0.016 C 
ATOM     27  C   UNL     1     -10.627 -32.294  -5.946  1.00  0.00     0.063 C 
ATOM     28  C   UNL     1      -9.735 -34.070  -7.602  1.00  0.00     0.033 C 
ATOM     29  C   UNL     1      -9.626 -33.441  -6.185  1.00  0.00     0.118 C 
BRANCH  29  30
ATOM     30  O   UNL     1      -9.757 -34.423  -5.187  1.00  0.00    -0.393 OA
ATOM     31  H   UNL     1      -8.878 -34.872  -5.091  1.00  0.00     0.210 HD
ENDBRANCH  29  30
ENDBRANCH   9  11
ENDBRANCH   1   9
TORSDOF 7
ENDMDL
MODEL 2
REMARK VINA RESULT:    -5.067      2.836      7.138
REMARK INTER + INTRA:          -6.975
REMARK INTER:                  -6.650
REMARK INTRA:                  -0.325
REMARK UNBOUND:                 0.017
REMARK SMILES CC[C@@H](CC[C@H](C)[C@@H]1CC[C@H]2[C@H]3CC=C4C[C@@H](O)CC[C@@]4(C)[C@H]3CC[C@]21C)C(C)C
REMARK SMILES IDX 5 1 4 2 3 3 2 4 1 5 28 6 29 7 30 8 6 9 7 10 8 11 9 12 26 13
REMARK SMILES IDX 10 14 11 15 25 16 27 17 12 18 24 19 23 20 13 21 21 22 14 23
REMARK SMILES IDX 15 24 20 25 22 26 16 27 19 28 17 29 18 30
REMARK H PARENT 18 31
REMARK Flexibility Score: inf
ROOT
ATOM      1  C   UNL     1     -10.229 -26.481  -8.356  1.00  0.00     0.004 C 
ENDROOT
BRANCH   1   2
ATOM      2  C   UNL     1      -9.784 -27.178  -7.044  1.00  0.00     0.004 C 
BRANCH   2   3
ATOM      3  C   UNL     1      -8.974 -28.486  -7.274  1.00  0.00    -0.009 C 
BRANCH   3   4
ATOM      4  C   UNL     1      -8.890 -28.825  -8.791  1.00  0.00     0.000 C 
ATOM      5  C   UNL     1      -8.878 -30.330  -9.075  1.00  0.00     0.004 C 
ENDBRANCH   3   4
BRANCH   3   6
ATOM      6  C   UNL     1      -9.512 -29.688  -6.423  1.00  0.00    -0.014 C 
ATOM      7  C   UNL     1      -8.890 -29.774  -5.021  1.00  0.00     0.007 C 
ATOM      8  C   UNL     1     -11.046 -29.690  -6.326  1.00  0.00     0.007 C 
ENDBRANCH   3   6
ENDBRANCH   2   3
ENDBRANCH   1   2
BRANCH   1   9
ATOM      9  C   UNL     1     -11.773 -26.504  -8.622  1.00  0.00    -0.011 C 
ATOM     10  C   UNL     1     -12.448 -25.712  -7.477  1.00  0.00     0.008 C 
BRANCH   9  11
ATOM     11  C   UNL     1     -12.339 -27.971  -8.856  1.00  0.00    -0.002 C 
ATOM     12  C   UNL     1     -11.488 -28.720  -9.917  1.00  0.00     0.005 C 
ATOM     13  C   UNL     1     -13.790 -28.174  -9.449  1.00  0.00    -0.026 C 
ATOM     14  C   UNL     1     -12.175 -28.512 -11.266  1.00  0.00     0.005 C 
ATOM     15  C   UNL     1     -13.571 -27.946 -10.961  1.00  0.00    -0.001 C 
ATOM     16  C   UNL     1     -14.267 -29.649  -9.141  1.00  0.00     0.007 C 
ATOM     17  C   UNL     1     -14.894 -27.215  -8.931  1.00  0.00     0.012 C 
ATOM     18  C   UNL     1     -14.731 -28.452 -11.874  1.00  0.00     0.000 C 
ATOM     19  C   UNL     1     -14.517 -30.538 -10.370  1.00  0.00     0.005 C 
ATOM     20  C   UNL     1     -15.370 -29.835 -11.450  1.00  0.00     0.003 C 
ATOM     21  C   UNL     1     -14.346 -28.333 -13.375  1.00  0.00     0.031 C 
ATOM     22  C   UNL     1     -15.739 -30.759 -12.685  1.00  0.00    -0.008 C 
ATOM     23  C   UNL     1     -13.909 -29.642 -13.956  1.00  0.00    -0.027 C 
ATOM     24  C   UNL     1     -14.579 -30.773 -13.682  1.00  0.00    -0.065 C 
ATOM     25  C   UNL     1     -16.042 -32.233 -12.264  1.00  0.00     0.014 C 
ATOM     26  C   UNL     1     -17.015 -30.195 -13.369  1.00  0.00     0.016 C 
ATOM     27  C   UNL     1     -14.120 -32.083 -14.283  1.00  0.00     0.063 C 
ATOM     28  C   UNL     1     -16.326 -33.157 -13.463  1.00  0.00     0.033 C 
ATOM     29  C   UNL     1     -15.338 -32.957 -14.644  1.00  0.00     0.118 C 
BRANCH  29  30
ATOM     30  O   UNL     1     -14.917 -34.193 -15.165  1.00  0.00    -0.393 OA
ATOM     31  H   UNL     1     -14.397 -34.655 -14.458  1.00  0.00     0.210 HD
ENDBRANCH  29  30
ENDBRANCH   9  11
ENDBRANCH   1   9
TORSDOF 7
ENDMDL
MODEL 3
REMARK VINA RESULT:    -4.721      3.858      6.323
REMARK INTER + INTRA:          -6.498
REMARK INTER:                  -5.326
REMARK INTRA:                  -1.172
REMARK UNBOUND:                 0.017
REMARK SMILES CC[C@@H](CC[C@H](C)[C@@H]1CC[C@H]2[C@H]3CC=C4C[C@@H](O)CC[C@@]4(C)[C@H]3CC[C@]21C)C(C)C
REMARK SMILES IDX 5 1 4 2 3 3 2 4 1 5 28 6 29 7 30 8 6 9 7 10 8 11 9 12 26 13
REMARK SMILES IDX 10 14 11 15 25 16 27 17 12 18 24 19 23 20 13 21 21 22 14 23
REMARK SMILES IDX 15 24 20 25 22 26 16 27 19 28 17 29 18 30
REMARK H PARENT 18 31
REMARK Flexibility Score: inf
ROOT
ATOM      1  C   UNL     1     -14.495 -33.563 -13.971  1.00  0.00     0.004 C 
ENDROOT
BRANCH   1   2
ATOM      2  C   UNL     1     -15.038 -34.642 -14.943  1.00  0.00     0.004 C 
BRANCH   2   3
ATOM      3  C   UNL     1     -14.583 -36.088 -14.591  1.00  0.00    -0.009 C 
BRANCH   3   4
ATOM      4  C   UNL     1     -14.167 -36.863 -15.874  1.00  0.00     0.000 C 
ATOM      5  C   UNL     1     -14.840 -36.335 -17.145  1.00  0.00     0.004 C 
ENDBRANCH   3   4
BRANCH   3   6
ATOM      6  C   UNL     1     -15.645 -36.866 -13.741  1.00  0.00    -0.014 C 
ATOM      7  C   UNL     1     -15.619 -36.507 -12.248  1.00  0.00     0.007 C 
ATOM      8  C   UNL     1     -17.068 -36.706 -14.301  1.00  0.00     0.007 C 
ENDBRANCH   3   6
ENDBRANCH   2   3
ENDBRANCH   1   2
BRANCH   1   9
ATOM      9  C   UNL     1     -15.578 -32.896 -13.057  1.00  0.00    -0.011 C 
ATOM     10  C   UNL     1     -16.948 -33.099 -13.746  1.00  0.00     0.008 C 
BRANCH   9  11
ATOM     11  C   UNL     1     -15.228 -31.393 -12.676  1.00  0.00    -0.002 C 
ATOM     12  C   UNL     1     -13.819 -31.012 -13.207  1.00  0.00     0.005 C 
ATOM     13  C   UNL     1     -15.090 -30.973 -11.158  1.00  0.00    -0.026 C 
ATOM     14  C   UNL     1     -12.831 -31.264 -12.069  1.00  0.00     0.005 C 
ATOM     15  C   UNL     1     -13.672 -31.465 -10.799  1.00  0.00    -0.001 C 
ATOM     16  C   UNL     1     -15.212 -29.400 -11.050  1.00  0.00     0.007 C 
ATOM     17  C   UNL     1     -16.120 -31.583 -10.172  1.00  0.00     0.012 C 
ATOM     18  C   UNL     1     -13.083 -30.862  -9.485  1.00  0.00     0.000 C 
ATOM     19  C   UNL     1     -13.964 -28.671 -10.526  1.00  0.00     0.005 C 
ATOM     20  C   UNL     1     -13.382 -29.327  -9.254  1.00  0.00     0.003 C 
ATOM     21  C   UNL     1     -11.598 -31.283  -9.300  1.00  0.00     0.031 C 
ATOM     22  C   UNL     1     -12.159 -28.539  -8.623  1.00  0.00    -0.008 C 
ATOM     23  C   UNL     1     -10.645 -30.200  -9.701  1.00  0.00    -0.027 C 
ATOM     24  C   UNL     1     -10.868 -28.924  -9.350  1.00  0.00    -0.065 C 
ATOM     25  C   UNL     1     -12.329 -26.988  -8.715  1.00  0.00     0.014 C 
ATOM     26  C   UNL     1     -12.046 -28.910  -7.118  1.00  0.00     0.016 C 
ATOM     27  C   UNL     1      -9.890 -27.847  -9.764  1.00  0.00     0.063 C 
ATOM     28  C   UNL     1     -11.113 -26.213  -8.175  1.00  0.00     0.033 C 
ATOM     29  C   UNL     1      -9.752 -26.796  -8.646  1.00  0.00     0.118 C 
BRANCH  29  30
ATOM     30  O   UNL     1      -8.875 -25.770  -9.043  1.00  0.00    -0.393 OA
ATOM     31  H   UNL     1      -9.202 -25.415  -9.910  1.00  0.00     0.210 HD
ENDBRANCH  29  30
ENDBRANCH   9  11
ENDBRANCH   1   9
TORSDOF 7
ENDMDL
MODEL 4
REMARK VINA RESULT:    -4.597      3.040      5.375
REMARK INTER + INTRA:          -6.327
REMARK INTER:                  -6.652
REMARK INTRA:                   0.325
REMARK UNBOUND:                 0.017
REMARK SMILES CC[C@@H](CC[C@H](C)[C@@H]1CC[C@H]2[C@H]3CC=C4C[C@@H](O)CC[C@@]4(C)[C@H]3CC[C@]21C)C(C)C
REMARK SMILES IDX 5 1 4 2 3 3 2 4 1 5 28 6 29 7 30 8 6 9 7 10 8 11 9 12 26 13
REMARK SMILES IDX 10 14 11 15 25 16 27 17 12 18 24 19 23 20 13 21 21 22 14 23
REMARK SMILES IDX 15 24 20 25 22 26 16 27 19 28 17 29 18 30
REMARK H PARENT 18 31
REMARK Flexibility Score: inf
ROOT
ATOM      1  C   UNL     1     -16.651 -32.300 -13.745  1.00  0.00     0.004 C 
ENDROOT
BRANCH   1   2
ATOM      2  C   UNL     1     -15.337 -33.116 -13.859  1.00  0.00     0.004 C 
BRANCH   2   3
ATOM      3  C   UNL     1     -15.561 -34.633 -14.116  1.00  0.00    -0.009 C 
BRANCH   3   4
ATOM      4  C   UNL     1     -15.215 -35.466 -12.848  1.00  0.00     0.000 C 
ATOM      5  C   UNL     1     -16.036 -36.754 -12.727  1.00  0.00     0.004 C 
ENDBRANCH   3   4
BRANCH   3   6
ATOM      6  C   UNL     1     -14.810 -35.147 -15.392  1.00  0.00    -0.014 C 
ATOM      7  C   UNL     1     -13.308 -35.377 -15.170  1.00  0.00     0.007 C 
ATOM      8  C   UNL     1     -15.460 -36.410 -15.979  1.00  0.00     0.007 C 
ENDBRANCH   3   6
ENDBRANCH   2   3
ENDBRANCH   1   2
BRANCH   1   9
ATOM      9  C   UNL     1     -16.520 -30.946 -12.968  1.00  0.00    -0.011 C 
ATOM     10  C   UNL     1     -17.334 -29.888 -13.749  1.00  0.00     0.008 C 
BRANCH   9  11
ATOM     11  C   UNL     1     -15.010 -30.551 -12.665  1.00  0.00    -0.002 C 
ATOM     12  C   UNL     1     -14.429 -31.446 -11.537  1.00  0.00     0.005 C 
ATOM     13  C   UNL     1     -14.666 -29.114 -12.103  1.00  0.00    -0.026 C 
ATOM     14  C   UNL     1     -14.625 -30.691 -10.223  1.00  0.00     0.005 C 
ATOM     15  C   UNL     1     -15.001 -29.250 -10.602  1.00  0.00    -0.001 C 
ATOM     16  C   UNL     1     -13.129 -28.827 -12.338  1.00  0.00     0.007 C 
ATOM     17  C   UNL     1     -15.454 -27.923 -12.708  1.00  0.00     0.012 C 
ATOM     18  C   UNL     1     -14.409 -28.126  -9.694  1.00  0.00     0.000 C 
ATOM     19  C   UNL     1     -12.285 -28.641 -11.066  1.00  0.00     0.005 C 
ATOM     20  C   UNL     1     -12.938 -27.673 -10.055  1.00  0.00     0.003 C 
ATOM     21  C   UNL     1     -14.656 -28.441  -8.192  1.00  0.00     0.031 C 
ATOM     22  C   UNL     1     -12.046 -27.372  -8.779  1.00  0.00    -0.008 C 
ATOM     23  C   UNL     1     -13.443 -29.010  -7.523  1.00  0.00    -0.027 C 
ATOM     24  C   UNL     1     -12.227 -28.489  -7.749  1.00  0.00    -0.065 C 
ATOM     25  C   UNL     1     -10.524 -27.262  -9.120  1.00  0.00     0.014 C 
ATOM     26  C   UNL     1     -12.488 -26.014  -8.166  1.00  0.00     0.016 C 
ATOM     27  C   UNL     1     -11.017 -29.079  -7.059  1.00  0.00     0.063 C 
ATOM     28  C   UNL     1      -9.640 -27.048  -7.878  1.00  0.00     0.033 C 
ATOM     29  C   UNL     1     -10.023 -27.962  -6.682  1.00  0.00     0.118 C 
BRANCH  29  30
ATOM     30  O   UNL     1      -8.877 -28.508  -6.078  1.00  0.00    -0.393 OA
ATOM     31  H   UNL     1      -8.650 -29.342  -6.565  1.00  0.00     0.210 HD
ENDBRANCH  29  30
ENDBRANCH   9  11
ENDBRANCH   1   9
TORSDOF 7
ENDMDL
MODEL 5
REMARK VINA RESULT:    -4.288      2.876      8.150
REMARK INTER + INTRA:          -5.900
REMARK INTER:                  -5.810
REMARK INTRA:                  -0.090
REMARK UNBOUND:                 0.017
REMARK SMILES CC[C@@H](CC[C@H](C)[C@@H]1CC[C@H]2[C@H]3CC=C4C[C@@H](O)CC[C@@]4(C)[C@H]3CC[C@]21C)C(C)C
REMARK SMILES IDX 5 1 4 2 3 3 2 4 1 5 28 6 29 7 30 8 6 9 7 10 8 11 9 12 26 13
REMARK SMILES IDX 10 14 11 15 25 16 27 17 12 18 24 19 23 20 13 21 21 22 14 23
REMARK SMILES IDX 15 24 20 25 22 26 16 27 19 28 17 29 18 30
REMARK H PARENT 18 31
REMARK Flexibility Score: inf
ROOT
ATOM      1  C   UNL     1      -8.876 -30.246  -5.827  1.00  0.00     0.004 C 
ENDROOT
BRANCH   1   2
ATOM      2  C   UNL     1      -9.220 -31.636  -5.234  1.00  0.00     0.004 C 
BRANCH   2   3
ATOM      3  C   UNL     1      -8.931 -32.819  -6.201  1.00  0.00    -0.009 C 
BRANCH   3   4
ATOM      4  C   UNL     1      -8.877 -32.326  -7.676  1.00  0.00     0.000 C 
ATOM      5  C   UNL     1      -9.124 -33.442  -8.697  1.00  0.00     0.004 C 
ENDBRANCH   3   4
BRANCH   3   6
ATOM      6  C   UNL     1      -9.925 -34.016  -6.008  1.00  0.00    -0.014 C 
ATOM      7  C   UNL     1      -9.229 -35.380  -5.894  1.00  0.00     0.007 C 
ATOM      8  C   UNL     1     -10.869 -33.798  -4.815  1.00  0.00     0.007 C 
ENDBRANCH   3   6
ENDBRANCH   2   3
ENDBRANCH   1   2
BRANCH   1   9
ATOM      9  C   UNL     1     -10.116 -29.364  -6.198  1.00  0.00    -0.011 C 
ATOM     10  C   UNL     1     -11.360 -30.032  -5.565  1.00  0.00     0.008 C 
BRANCH   9  11
ATOM     11  C   UNL     1     -10.225 -29.071  -7.757  1.00  0.00    -0.002 C 
ATOM     12  C   UNL     1     -10.615 -27.589  -8.006  1.00  0.00     0.005 C 
ATOM     13  C   UNL     1     -11.318 -29.810  -8.626  1.00  0.00    -0.026 C 
ATOM     14  C   UNL     1     -12.135 -27.546  -8.149  1.00  0.00     0.005 C 
ATOM     15  C   UNL     1     -12.597 -29.002  -8.318  1.00  0.00    -0.001 C 
ATOM     16  C   UNL     1     -10.913 -29.710 -10.151  1.00  0.00     0.007 C 
ATOM     17  C   UNL     1     -11.560 -31.310  -8.312  1.00  0.00     0.012 C 
ATOM     18  C   UNL     1     -13.775 -29.237  -9.315  1.00  0.00     0.000 C 
ATOM     19  C   UNL     1     -11.889 -28.932 -11.049  1.00  0.00     0.005 C 
ATOM     20  C   UNL     1     -13.359 -29.355 -10.836  1.00  0.00     0.003 C 
ATOM     21  C   UNL     1     -14.949 -28.260  -9.023  1.00  0.00     0.031 C 
ATOM     22  C   UNL     1     -14.384 -28.651 -11.821  1.00  0.00    -0.008 C 
ATOM     23  C   UNL     1     -14.967 -27.095  -9.964  1.00  0.00    -0.027 C 
ATOM     24  C   UNL     1     -14.755 -27.270 -11.278  1.00  0.00    -0.065 C 
ATOM     25  C   UNL     1     -13.806 -28.472 -13.263  1.00  0.00     0.014 C 
ATOM     26  C   UNL     1     -15.658 -29.533 -11.934  1.00  0.00     0.016 C 
ATOM     27  C   UNL     1     -14.781 -26.078 -12.209  1.00  0.00     0.063 C 
ATOM     28  C   UNL     1     -14.761 -27.720 -14.208  1.00  0.00     0.033 C 
ATOM     29  C   UNL     1     -15.416 -26.471 -13.557  1.00  0.00     0.118 C 
BRANCH  29  30
ATOM     30  O   UNL     1     -15.405 -25.378 -14.442  1.00  0.00    -0.393 OA
ATOM     31  H   UNL     1     -15.654 -25.717 -15.340  1.00  0.00     0.210 HD
ENDBRANCH  29  30
ENDBRANCH   9  11
ENDBRANCH   1   9
TORSDOF 7
ENDMDL
MODEL 6
REMARK VINA RESULT:    -3.849      2.794      7.949
REMARK INTER + INTRA:          -5.294
REMARK INTER:                  -4.957
REMARK INTRA:                  -0.338
REMARK UNBOUND:                 0.017
REMARK SMILES CC[C@@H](CC[C@H](C)[C@@H]1CC[C@H]2[C@H]3CC=C4C[C@@H](O)CC[C@@]4(C)[C@H]3CC[C@]21C)C(C)C
REMARK SMILES IDX 5 1 4 2 3 3 2 4 1 5 28 6 29 7 30 8 6 9 7 10 8 11 9 12 26 13
REMARK SMILES IDX 10 14 11 15 25 16 27 17 12 18 24 19 23 20 13 21 21 22 14 23
REMARK SMILES IDX 15 24 20 25 22 26 16 27 19 28 17 29 18 30
REMARK H PARENT 18 31
REMARK Flexibility Score: inf
ROOT
ATOM      1  C   UNL     1      -9.116 -31.105  -5.789  1.00  0.00     0.004 C 
ENDROOT
BRANCH   1   2
ATOM      2  C   UNL     1      -8.875 -32.611  -6.073  1.00  0.00     0.004 C 
BRANCH   2   3
ATOM      3  C   UNL     1      -9.954 -33.256  -6.989  1.00  0.00    -0.009 C 
BRANCH   3   4
ATOM      4  C   UNL     1     -11.106 -33.866  -6.140  1.00  0.00     0.000 C 
ATOM      5  C   UNL     1     -10.738 -34.051  -4.664  1.00  0.00     0.004 C 
ENDBRANCH   3   4
BRANCH   3   6
ATOM      6  C   UNL     1      -9.348 -34.287  -8.002  1.00  0.00    -0.014 C 
ATOM      7  C   UNL     1     -10.000 -35.676  -7.929  1.00  0.00     0.007 C 
ATOM      8  C   UNL     1      -9.372 -33.764  -9.447  1.00  0.00     0.007 C 
ENDBRANCH   3   6
ENDBRANCH   2   3
ENDBRANCH   1   2
BRANCH   1   9
ATOM      9  C   UNL     1      -9.048 -30.180  -7.052  1.00  0.00    -0.011 C 
ATOM     10  C   UNL     1      -9.175 -28.719  -6.559  1.00  0.00     0.008 C 
BRANCH   9  11
ATOM     11  C   UNL     1     -10.077 -30.604  -8.187  1.00  0.00    -0.002 C 
ATOM     12  C   UNL     1      -9.503 -30.279  -9.592  1.00  0.00     0.005 C 
ATOM     13  C   UNL     1     -11.488 -29.897  -8.279  1.00  0.00    -0.026 C 
ATOM     14  C   UNL     1     -10.030 -28.899  -9.982  1.00  0.00     0.005 C 
ATOM     15  C   UNL     1     -11.154 -28.567  -8.987  1.00  0.00    -0.001 C 
ATOM     16  C   UNL     1     -12.456 -30.798  -9.147  1.00  0.00     0.007 C 
ATOM     17  C   UNL     1     -12.210 -29.608  -6.937  1.00  0.00     0.012 C 
ATOM     18  C   UNL     1     -12.386 -27.809  -9.573  1.00  0.00     0.000 C 
ATOM     19  C   UNL     1     -12.956 -30.166 -10.456  1.00  0.00     0.005 C 
ATOM     20  C   UNL     1     -13.477 -28.725 -10.261  1.00  0.00     0.003 C 
ATOM     21  C   UNL     1     -11.933 -26.578 -10.408  1.00  0.00     0.031 C 
ATOM     22  C   UNL     1     -14.101 -28.080 -11.568  1.00  0.00    -0.008 C 
ATOM     23  C   UNL     1     -11.956 -26.849 -11.880  1.00  0.00    -0.027 C 
ATOM     24  C   UNL     1     -12.984 -27.504 -12.442  1.00  0.00    -0.065 C 
ATOM     25  C   UNL     1     -14.908 -29.111 -12.422  1.00  0.00     0.014 C 
ATOM     26  C   UNL     1     -15.080 -26.948 -11.152  1.00  0.00     0.016 C 
ATOM     27  C   UNL     1     -12.986 -27.763 -13.932  1.00  0.00     0.063 C 
ATOM     28  C   UNL     1     -15.453 -28.516 -13.733  1.00  0.00     0.033 C 
ATOM     29  C   UNL     1     -14.418 -27.641 -14.491  1.00  0.00     0.118 C 
BRANCH  29  30
ATOM     30  O   UNL     1     -14.432 -27.922 -15.868  1.00  0.00    -0.393 OA
ATOM     31  H   UNL     1     -14.821 -27.135 -16.331  1.00  0.00     0.210 HD
ENDBRANCH  29  30
ENDBRANCH   9  11
ENDBRANCH   1   9
TORSDOF 7
ENDMDL
