MODEL 1
REMARK VINA RESULT:    -8.844      0.000      0.000
REMARK INTER + INTRA:         -13.177
REMARK INTER:                 -12.204
REMARK INTRA:                  -0.973
REMARK UNBOUND:                -0.973
REMARK SMILES CC[C@H](CC[C@@H](C)[C@@H]1CC[C@H]2[C@H]3CC=C4C[C@H](O)CC[C@@]4(C)[C@@H]3CC[C@]21C)C(C)C
REMARK SMILES IDX 5 1 4 2 3 3 2 4 1 5 28 6 29 7 30 8 6 9 7 10 8 11 9 12 26 13
REMARK SMILES IDX 10 14 11 15 25 16 27 17 12 18 24 19 23 20 13 21 21 22 14 23
REMARK SMILES IDX 15 24 20 25 22 26 16 27 19 28 17 29 18 30
REMARK H PARENT 18 31
REMARK Flexibility Score: inf
ROOT
ATOM      1  C   UNL     1       4.931  25.425  23.813  1.00  0.00     0.004 C 
ENDROOT
BRANCH   1   2
ATOM      2  C   UNL     1       3.816  24.879  24.741  1.00  0.00     0.004 C 
BRANCH   2   3
ATOM      3  C   UNL     1       2.449  25.612  24.596  1.00  0.00    -0.009 C 
BRANCH   3   4
ATOM      4  C   UNL     1       1.423  24.595  24.017  1.00  0.00     0.000 C 
ATOM      5  C   UNL     1       2.017  23.595  23.027  1.00  0.00     0.004 C 
ENDBRANCH   3   4
BRANCH   3   6
ATOM      6  C   UNL     1       1.893  26.293  25.911  1.00  0.00    -0.014 C 
ATOM      7  C   UNL     1       0.647  25.648  26.546  1.00  0.00     0.007 C 
ATOM      8  C   UNL     1       2.990  26.380  26.991  1.00  0.00     0.007 C 
ENDBRANCH   3   6
ENDBRANCH   2   3
ENDBRANCH   1   2
BRANCH   1   9
ATOM      9  C   UNL     1       6.352  25.328  24.437  1.00  0.00    -0.011 C 
ATOM     10  C   UNL     1       6.256  25.445  25.978  1.00  0.00     0.008 C 
BRANCH   9  11
ATOM     11  C   UNL     1       7.106  24.035  23.944  1.00  0.00    -0.002 C 
ATOM     12  C   UNL     1       7.735  23.253  25.106  1.00  0.00     0.005 C 
ATOM     13  C   UNL     1       8.256  24.221  22.882  1.00  0.00    -0.026 C 
ATOM     14  C   UNL     1       9.232  23.527  25.078  1.00  0.00     0.005 C 
ATOM     15  C   UNL     1       9.580  24.133  23.701  1.00  0.00    -0.001 C 
ATOM     16  C   UNL     1       8.181  23.097  21.781  1.00  0.00     0.007 C 
ATOM     17  C   UNL     1       8.188  25.570  22.113  1.00  0.00     0.012 C 
ATOM     18  C   UNL     1      10.697  23.378  22.929  1.00  0.00     0.000 C 
ATOM     19  C   UNL     1       8.823  21.766  22.190  1.00  0.00     0.005 C 
ATOM     20  C   UNL     1      10.320  21.910  22.599  1.00  0.00     0.003 C 
ATOM     21  C   UNL     1      12.051  23.413  23.646  1.00  0.00     0.031 C 
ATOM     22  C   UNL     1      11.364  21.275  21.601  1.00  0.00    -0.008 C 
ATOM     23  C   UNL     1      13.091  22.619  22.902  1.00  0.00    -0.027 C 
ATOM     24  C   UNL     1      12.801  21.598  22.058  1.00  0.00    -0.065 C 
ATOM     25  C   UNL     1      11.180  19.723  21.597  1.00  0.00     0.014 C 
ATOM     26  C   UNL     1      11.174  21.827  20.160  1.00  0.00     0.016 C 
ATOM     27  C   UNL     1      13.948  20.824  21.436  1.00  0.00     0.063 C 
ATOM     28  C   UNL     1      12.318  18.963  20.896  1.00  0.00     0.033 C 
ATOM     29  C   UNL     1      13.680  19.316  21.512  1.00  0.00     0.118 C 
BRANCH  29  30
ATOM     30  O   UNL     1      14.711  18.596  20.887  1.00  0.00    -0.393 OA
ATOM     31  H   UNL     1      14.781  17.716  21.345  1.00  0.00     0.210 HD
ENDBRANCH  29  30
ENDBRANCH   9  11
ENDBRANCH   1   9
TORSDOF 7
ENDMDL
MODEL 2
REMARK VINA RESULT:    -8.529      1.375      3.127
REMARK INTER + INTRA:         -12.742
REMARK INTER:                 -11.716
REMARK INTRA:                  -1.026
REMARK UNBOUND:                -0.973
REMARK SMILES CC[C@H](CC[C@@H](C)[C@@H]1CC[C@H]2[C@H]3CC=C4C[C@H](O)CC[C@@]4(C)[C@@H]3CC[C@]21C)C(C)C
REMARK SMILES IDX 5 1 4 2 3 3 2 4 1 5 28 6 29 7 30 8 6 9 7 10 8 11 9 12 26 13
REMARK SMILES IDX 10 14 11 15 25 16 27 17 12 18 24 19 23 20 13 21 21 22 14 23
REMARK SMILES IDX 15 24 20 25 22 26 16 27 19 28 17 29 18 30
REMARK H PARENT 18 31
REMARK Flexibility Score: inf
ROOT
ATOM      1  C   UNL     1       4.430  24.878  24.243  1.00  0.00     0.004 C 
ENDROOT
BRANCH   1   2
ATOM      2  C   UNL     1       3.040  25.439  23.848  1.00  0.00     0.004 C 
BRANCH   2   3
ATOM      3  C   UNL     1       1.840  24.653  24.457  1.00  0.00    -0.009 C 
BRANCH   3   4
ATOM      4  C   UNL     1       1.020  25.643  25.335  1.00  0.00     0.000 C 
ATOM      5  C   UNL     1       1.252  25.491  26.838  1.00  0.00     0.004 C 
ENDBRANCH   3   4
BRANCH   3   6
ATOM      6  C   UNL     1       0.907  23.913  23.416  1.00  0.00    -0.014 C 
ATOM      7  C   UNL     1       1.525  22.717  22.668  1.00  0.00     0.007 C 
ATOM      8  C   UNL     1      -0.396  23.436  24.088  1.00  0.00     0.007 C 
ENDBRANCH   3   6
ENDBRANCH   2   3
ENDBRANCH   1   2
BRANCH   1   9
ATOM      9  C   UNL     1       5.083  24.014  23.126  1.00  0.00    -0.011 C 
ATOM     10  C   UNL     1       4.595  24.497  21.738  1.00  0.00     0.008 C 
BRANCH   9  11
ATOM     11  C   UNL     1       6.651  23.981  23.272  1.00  0.00    -0.002 C 
ATOM     12  C   UNL     1       7.340  24.997  22.349  1.00  0.00     0.005 C 
ATOM     13  C   UNL     1       7.380  22.607  23.015  1.00  0.00    -0.026 C 
ATOM     14  C   UNL     1       7.935  24.218  21.184  1.00  0.00     0.005 C 
ATOM     15  C   UNL     1       7.968  22.725  21.575  1.00  0.00    -0.001 C 
ATOM     16  C   UNL     1       8.512  22.372  24.085  1.00  0.00     0.007 C 
ATOM     17  C   UNL     1       6.442  21.372  23.114  1.00  0.00     0.012 C 
ATOM     18  C   UNL     1       9.367  22.060  21.458  1.00  0.00     0.000 C 
ATOM     19  C   UNL     1       9.833  23.088  23.778  1.00  0.00     0.005 C 
ATOM     20  C   UNL     1      10.426  22.707  22.388  1.00  0.00     0.003 C 
ATOM     21  C   UNL     1       9.896  22.026  20.020  1.00  0.00     0.031 C 
ATOM     22  C   UNL     1      11.743  21.839  22.424  1.00  0.00    -0.008 C 
ATOM     23  C   UNL     1      11.279  21.432  19.955  1.00  0.00    -0.027 C 
ATOM     24  C   UNL     1      12.149  21.429  20.994  1.00  0.00    -0.065 C 
ATOM     25  C   UNL     1      12.896  22.696  23.041  1.00  0.00     0.014 C 
ATOM     26  C   UNL     1      11.545  20.547  23.266  1.00  0.00     0.016 C 
ATOM     27  C   UNL     1      13.543  20.873  20.769  1.00  0.00     0.063 C 
ATOM     28  C   UNL     1      14.294  22.078  22.867  1.00  0.00     0.033 C 
ATOM     29  C   UNL     1      14.595  21.804  21.386  1.00  0.00     0.118 C 
BRANCH  29  30
ATOM     30  O   UNL     1      15.884  21.267  21.231  1.00  0.00    -0.393 OA
ATOM     31  H   UNL     1      15.796  20.422  20.713  1.00  0.00     0.210 HD
ENDBRANCH  29  30
ENDBRANCH   9  11
ENDBRANCH   1   9
TORSDOF 7
ENDMDL
MODEL 3
REMARK VINA RESULT:    -8.428      3.837      5.597
REMARK INTER + INTRA:         -12.603
REMARK INTER:                 -10.846
REMARK INTRA:                  -1.757
REMARK UNBOUND:                -0.973
REMARK SMILES CC[C@H](CC[C@@H](C)[C@@H]1CC[C@H]2[C@H]3CC=C4C[C@H](O)CC[C@@]4(C)[C@@H]3CC[C@]21C)C(C)C
REMARK SMILES IDX 5 1 4 2 3 3 2 4 1 5 28 6 29 7 30 8 6 9 7 10 8 11 9 12 26 13
REMARK SMILES IDX 10 14 11 15 25 16 27 17 12 18 24 19 23 20 13 21 21 22 14 23
REMARK SMILES IDX 15 24 20 25 22 26 16 27 19 28 17 29 18 30
REMARK H PARENT 18 31
REMARK Flexibility Score: inf
ROOT
ATOM      1  C   UNL     1       4.411  21.630  18.376  1.00  0.00     0.004 C 
ENDROOT
BRANCH   1   2
ATOM      2  C   UNL     1       5.025  20.282  17.920  1.00  0.00     0.004 C 
BRANCH   2   3
ATOM      3  C   UNL     1       4.006  19.105  17.860  1.00  0.00    -0.009 C 
BRANCH   3   4
ATOM      4  C   UNL     1       4.771  17.795  18.208  1.00  0.00     0.000 C 
ATOM      5  C   UNL     1       4.387  16.594  17.345  1.00  0.00     0.004 C 
ENDBRANCH   3   4
BRANCH   3   6
ATOM      6  C   UNL     1       2.719  19.267  18.765  1.00  0.00    -0.014 C 
ATOM      7  C   UNL     1       1.375  18.869  18.127  1.00  0.00     0.007 C 
ATOM      8  C   UNL     1       2.873  18.485  20.085  1.00  0.00     0.007 C 
ENDBRANCH   3   6
ENDBRANCH   2   3
ENDBRANCH   1   2
BRANCH   1   9
ATOM      9  C   UNL     1       4.973  22.132  19.737  1.00  0.00    -0.011 C 
ATOM     10  C   UNL     1       3.879  22.025  20.827  1.00  0.00     0.008 C 
BRANCH   9  11
ATOM     11  C   UNL     1       6.314  21.393  20.108  1.00  0.00    -0.002 C 
ATOM     12  C   UNL     1       6.291  20.834  21.538  1.00  0.00     0.005 C 
ATOM     13  C   UNL     1       7.655  22.213  19.991  1.00  0.00    -0.026 C 
ATOM     14  C   UNL     1       7.148  21.754  22.397  1.00  0.00     0.005 C 
ATOM     15  C   UNL     1       8.006  22.625  21.454  1.00  0.00    -0.001 C 
ATOM     16  C   UNL     1       8.792  21.329  19.351  1.00  0.00     0.007 C 
ATOM     17  C   UNL     1       7.544  23.474  19.089  1.00  0.00     0.012 C 
ATOM     18  C   UNL     1       9.533  22.561  21.731  1.00  0.00     0.000 C 
ATOM     19  C   UNL     1       9.495  20.389  20.338  1.00  0.00     0.005 C 
ATOM     20  C   UNL     1      10.122  21.137  21.553  1.00  0.00     0.003 C 
ATOM     21  C   UNL     1       9.917  23.108  23.110  1.00  0.00     0.031 C 
ATOM     22  C   UNL     1      11.699  21.176  21.589  1.00  0.00    -0.008 C 
ATOM     23  C   UNL     1      11.394  22.971  23.367  1.00  0.00    -0.027 C 
ATOM     24  C   UNL     1      12.184  22.048  22.765  1.00  0.00    -0.065 C 
ATOM     25  C   UNL     1      12.236  19.722  21.794  1.00  0.00     0.014 C 
ATOM     26  C   UNL     1      12.279  21.765  20.272  1.00  0.00     0.016 C 
ATOM     27  C   UNL     1      13.641  21.962  23.177  1.00  0.00     0.063 C 
ATOM     28  C   UNL     1      13.734  19.654  22.138  1.00  0.00     0.033 C 
ATOM     29  C   UNL     1      14.053  20.499  23.380  1.00  0.00     0.118 C 
BRANCH  29  30
ATOM     30  O   UNL     1      15.416  20.409  23.707  1.00  0.00    -0.393 OA
ATOM     31  H   UNL     1      15.581  21.017  24.477  1.00  0.00     0.210 HD
ENDBRANCH  29  30
ENDBRANCH   9  11
ENDBRANCH   1   9
TORSDOF 7
ENDMDL
MODEL 4
REMARK VINA RESULT:    -8.414      1.450      2.614
REMARK INTER + INTRA:         -12.584
REMARK INTER:                 -10.743
REMARK INTRA:                  -1.841
REMARK UNBOUND:                -0.973
REMARK SMILES CC[C@H](CC[C@@H](C)[C@@H]1CC[C@H]2[C@H]3CC=C4C[C@H](O)CC[C@@]4(C)[C@@H]3CC[C@]21C)C(C)C
REMARK SMILES IDX 5 1 4 2 3 3 2 4 1 5 28 6 29 7 30 8 6 9 7 10 8 11 9 12 26 13
REMARK SMILES IDX 10 14 11 15 25 16 27 17 12 18 24 19 23 20 13 21 21 22 14 23
REMARK SMILES IDX 15 24 20 25 22 26 16 27 19 28 17 29 18 30
REMARK H PARENT 18 31
REMARK Flexibility Score: inf
ROOT
ATOM      1  C   UNL     1       4.680  24.928  23.991  1.00  0.00     0.004 C 
ENDROOT
BRANCH   1   2
ATOM      2  C   UNL     1       4.460  24.523  22.510  1.00  0.00     0.004 C 
BRANCH   2   3
ATOM      3  C   UNL     1       3.781  23.134  22.323  1.00  0.00    -0.009 C 
BRANCH   3   4
ATOM      4  C   UNL     1       2.247  23.327  22.500  1.00  0.00     0.000 C 
ATOM      5  C   UNL     1       1.396  22.566  21.484  1.00  0.00     0.004 C 
ENDBRANCH   3   4
BRANCH   3   6
ATOM      6  C   UNL     1       4.106  22.389  20.966  1.00  0.00    -0.014 C 
ATOM      7  C   UNL     1       4.792  23.226  19.869  1.00  0.00     0.007 C 
ATOM      8  C   UNL     1       4.965  21.135  21.219  1.00  0.00     0.007 C 
ENDBRANCH   3   6
ENDBRANCH   2   3
ENDBRANCH   1   2
BRANCH   1   9
ATOM      9  C   UNL     1       6.182  25.056  24.375  1.00  0.00    -0.011 C 
ATOM     10  C   UNL     1       6.311  25.357  25.889  1.00  0.00     0.008 C 
BRANCH   9  11
ATOM     11  C   UNL     1       7.002  23.796  23.905  1.00  0.00    -0.002 C 
ATOM     12  C   UNL     1       7.663  23.064  25.081  1.00  0.00     0.005 C 
ATOM     13  C   UNL     1       8.145  24.023  22.845  1.00  0.00    -0.026 C 
ATOM     14  C   UNL     1       9.145  23.412  25.055  1.00  0.00     0.005 C 
ATOM     15  C   UNL     1       9.469  24.013  23.670  1.00  0.00    -0.001 C 
ATOM     16  C   UNL     1       8.132  22.880  21.761  1.00  0.00     0.007 C 
ATOM     17  C   UNL     1       8.014  25.354  22.054  1.00  0.00     0.012 C 
ATOM     18  C   UNL     1      10.626  23.304  22.915  1.00  0.00     0.000 C 
ATOM     19  C   UNL     1       8.839  21.588  22.193  1.00  0.00     0.005 C 
ATOM     20  C   UNL     1      10.324  21.814  22.606  1.00  0.00     0.003 C 
ATOM     21  C   UNL     1      11.973  23.417  23.636  1.00  0.00     0.031 C 
ATOM     22  C   UNL     1      11.403  21.217  21.622  1.00  0.00    -0.008 C 
ATOM     23  C   UNL     1      13.055  22.665  22.908  1.00  0.00    -0.027 C 
ATOM     24  C   UNL     1      12.820  21.618  22.079  1.00  0.00    -0.065 C 
ATOM     25  C   UNL     1      11.298  19.658  21.641  1.00  0.00     0.014 C 
ATOM     26  C   UNL     1      11.193  21.736  20.172  1.00  0.00     0.016 C 
ATOM     27  C   UNL     1      14.008  20.894  21.474  1.00  0.00     0.063 C 
ATOM     28  C   UNL     1      12.475  18.945  20.956  1.00  0.00     0.033 C 
ATOM     29  C   UNL     1      13.815  19.375  21.572  1.00  0.00     0.118 C 
BRANCH  29  30
ATOM     30  O   UNL     1      14.884  18.699  20.963  1.00  0.00    -0.393 OA
ATOM     31  H   UNL     1      14.559  18.352  20.089  1.00  0.00     0.210 HD
ENDBRANCH  29  30
ENDBRANCH   9  11
ENDBRANCH   1   9
TORSDOF 7
ENDMDL
MODEL 5
REMARK VINA RESULT:    -8.372      9.916     12.702
REMARK INTER + INTRA:         -12.526
REMARK INTER:                 -10.308
REMARK INTRA:                  -2.219
REMARK UNBOUND:                -0.973
REMARK SMILES CC[C@H](CC[C@@H](C)[C@@H]1CC[C@H]2[C@H]3CC=C4C[C@H](O)CC[C@@]4(C)[C@@H]3CC[C@]21C)C(C)C
REMARK SMILES IDX 5 1 4 2 3 3 2 4 1 5 28 6 29 7 30 8 6 9 7 10 8 11 9 12 26 13
REMARK SMILES IDX 10 14 11 15 25 16 27 17 12 18 24 19 23 20 13 21 21 22 14 23
REMARK SMILES IDX 15 24 20 25 22 26 16 27 19 28 17 29 18 30
REMARK H PARENT 18 31
REMARK Flexibility Score: inf
ROOT
ATOM      1  C   UNL     1       9.315  16.912  30.188  1.00  0.00     0.004 C 
ENDROOT
BRANCH   1   2
ATOM      2  C   UNL     1      10.043  16.176  29.034  1.00  0.00     0.004 C 
BRANCH   2   3
ATOM      3  C   UNL     1      10.593  14.771  29.422  1.00  0.00    -0.009 C 
BRANCH   3   4
ATOM      4  C   UNL     1       9.784  14.265  30.651  1.00  0.00     0.000 C 
ATOM      5  C   UNL     1       9.156  12.884  30.467  1.00  0.00     0.004 C 
ENDBRANCH   3   4
BRANCH   3   6
ATOM      6  C   UNL     1      10.597  13.693  28.264  1.00  0.00    -0.014 C 
ATOM      7  C   UNL     1      10.295  14.207  26.844  1.00  0.00     0.007 C 
ATOM      8  C   UNL     1      11.938  12.934  28.223  1.00  0.00     0.007 C 
ENDBRANCH   3   6
ENDBRANCH   2   3
ENDBRANCH   1   2
BRANCH   1   9
ATOM      9  C   UNL     1       7.844  17.284  29.847  1.00  0.00    -0.011 C 
ATOM     10  C   UNL     1       7.742  18.800  29.550  1.00  0.00     0.008 C 
BRANCH   9  11
ATOM     11  C   UNL     1       7.276  16.372  28.694  1.00  0.00    -0.002 C 
ATOM     12  C   UNL     1       6.685  17.196  27.542  1.00  0.00     0.005 C 
ATOM     13  C   UNL     1       6.171  15.316  29.076  1.00  0.00    -0.026 C 
ATOM     14  C   UNL     1       5.169  17.120  27.663  1.00  0.00     0.005 C 
ATOM     15  C   UNL     1       4.825  15.957  28.617  1.00  0.00    -0.001 C 
ATOM     16  C   UNL     1       6.437  13.945  28.347  1.00  0.00     0.007 C 
ATOM     17  C   UNL     1       6.118  14.983  30.593  1.00  0.00     0.012 C 
ATOM     18  C   UNL     1       3.848  14.905  28.022  1.00  0.00     0.000 C 
ATOM     19  C   UNL     1       5.937  13.890  26.898  1.00  0.00     0.005 C 
ATOM     20  C   UNL     1       4.414  14.194  26.766  1.00  0.00     0.003 C 
ATOM     21  C   UNL     1       2.464  15.482  27.708  1.00  0.00     0.031 C 
ATOM     22  C   UNL     1       3.508  12.968  26.360  1.00  0.00    -0.008 C 
ATOM     23  C   UNL     1       1.566  14.451  27.075  1.00  0.00    -0.027 C 
ATOM     24  C   UNL     1       2.020  13.374  26.388  1.00  0.00    -0.065 C 
ATOM     25  C   UNL     1       3.875  12.526  24.906  1.00  0.00     0.014 C 
ATOM     26  C   UNL     1       3.707  11.773  27.334  1.00  0.00     0.016 C 
ATOM     27  C   UNL     1       1.008  12.457  25.728  1.00  0.00     0.063 C 
ATOM     28  C   UNL     1       2.875  11.538  24.284  1.00  0.00     0.033 C 
ATOM     29  C   UNL     1       1.450  12.112  24.300  1.00  0.00     0.118 C 
BRANCH  29  30
ATOM     30  O   UNL     1       0.546  11.218  23.704  1.00  0.00    -0.393 OA
ATOM     31  H   UNL     1       0.908  10.299  23.828  1.00  0.00     0.210 HD
ENDBRANCH  29  30
ENDBRANCH   9  11
ENDBRANCH   1   9
TORSDOF 7
ENDMDL
MODEL 6
REMARK VINA RESULT:    -8.287     10.107     11.616
REMARK INTER + INTRA:         -12.408
REMARK INTER:                 -10.227
REMARK INTRA:                  -2.181
REMARK UNBOUND:                -0.973
REMARK SMILES CC[C@H](CC[C@@H](C)[C@@H]1CC[C@H]2[C@H]3CC=C4C[C@H](O)CC[C@@]4(C)[C@@H]3CC[C@]21C)C(C)C
REMARK SMILES IDX 5 1 4 2 3 3 2 4 1 5 28 6 29 7 30 8 6 9 7 10 8 11 9 12 26 13
REMARK SMILES IDX 10 14 11 15 25 16 27 17 12 18 24 19 23 20 13 21 21 22 14 23
REMARK SMILES IDX 15 24 20 25 22 26 16 27 19 28 17 29 18 30
REMARK H PARENT 18 31
REMARK Flexibility Score: inf
ROOT
ATOM      1  C   UNL     1       2.580  11.527  25.182  1.00  0.00     0.004 C 
ENDROOT
BRANCH   1   2
ATOM      2  C   UNL     1       1.701  12.644  25.802  1.00  0.00     0.004 C 
BRANCH   2   3
ATOM      3  C   UNL     1       1.344  12.415  27.301  1.00  0.00    -0.009 C 
BRANCH   3   4
ATOM      4  C   UNL     1       2.088  11.134  27.777  1.00  0.00     0.000 C 
ATOM      5  C   UNL     1       1.207  10.136  28.527  1.00  0.00     0.004 C 
ENDBRANCH   3   4
BRANCH   3   6
ATOM      6  C   UNL     1       1.636  13.632  28.268  1.00  0.00    -0.014 C 
ATOM      7  C   UNL     1       2.511  13.337  29.501  1.00  0.00     0.007 C 
ATOM      8  C   UNL     1       2.273  14.806  27.498  1.00  0.00     0.007 C 
ENDBRANCH   3   6
ENDBRANCH   2   3
ENDBRANCH   1   2
BRANCH   1   9
ATOM      9  C   UNL     1       3.922  12.056  24.600  1.00  0.00    -0.011 C 
ATOM     10  C   UNL     1       3.694  12.602  23.169  1.00  0.00     0.008 C 
BRANCH   9  11
ATOM     11  C   UNL     1       4.600  13.091  25.575  1.00  0.00    -0.002 C 
ATOM     12  C   UNL     1       5.126  14.327  24.832  1.00  0.00     0.005 C 
ATOM     13  C   UNL     1       5.800  12.582  26.461  1.00  0.00    -0.026 C 
ATOM     14  C   UNL     1       6.639  14.188  24.737  1.00  0.00     0.005 C 
ATOM     15  C   UNL     1       7.082  13.104  25.743  1.00  0.00    -0.001 C 
ATOM     16  C   UNL     1       5.687  13.149  27.926  1.00  0.00     0.007 C 
ATOM     17  C   UNL     1       5.858  11.036  26.610  1.00  0.00     0.012 C 
ATOM     18  C   UNL     1       8.171  13.566  26.750  1.00  0.00     0.000 C 
ATOM     19  C   UNL     1       6.216  14.579  28.095  1.00  0.00     0.005 C 
ATOM     20  C   UNL     1       7.702  14.735  27.655  1.00  0.00     0.003 C 
ATOM     21  C   UNL     1       9.495  13.936  26.074  1.00  0.00     0.031 C 
ATOM     22  C   UNL     1       8.735  14.990  28.819  1.00  0.00    -0.008 C 
ATOM     23  C   UNL     1      10.504  14.439  27.073  1.00  0.00    -0.027 C 
ATOM     24  C   UNL     1      10.174  15.000  28.263  1.00  0.00    -0.065 C 
ATOM     25  C   UNL     1       8.441  16.385  29.460  1.00  0.00     0.014 C 
ATOM     26  C   UNL     1       8.641  13.885  29.909  1.00  0.00     0.016 C 
ATOM     27  C   UNL     1      11.285  15.542  29.141  1.00  0.00     0.063 C 
ATOM     28  C   UNL     1       9.548  16.883  30.405  1.00  0.00     0.033 C 
ATOM     29  C   UNL     1      10.907  16.923  29.691  1.00  0.00     0.118 C 
BRANCH  29  30
ATOM     30  O   UNL     1      11.907  17.406  30.550  1.00  0.00    -0.393 OA
ATOM     31  H   UNL     1      12.658  17.731  29.983  1.00  0.00     0.210 HD
ENDBRANCH  29  30
ENDBRANCH   9  11
ENDBRANCH   1   9
TORSDOF 7
ENDMDL
MODEL 7
REMARK VINA RESULT:    -8.251     10.440     11.915
REMARK INTER + INTRA:         -12.358
REMARK INTER:                 -10.671
REMARK INTRA:                  -1.687
REMARK UNBOUND:                -0.973
REMARK SMILES CC[C@H](CC[C@@H](C)[C@@H]1CC[C@H]2[C@H]3CC=C4C[C@H](O)CC[C@@]4(C)[C@@H]3CC[C@]21C)C(C)C
REMARK SMILES IDX 5 1 4 2 3 3 2 4 1 5 28 6 29 7 30 8 6 9 7 10 8 11 9 12 26 13
REMARK SMILES IDX 10 14 11 15 25 16 27 17 12 18 24 19 23 20 13 21 21 22 14 23
REMARK SMILES IDX 15 24 20 25 22 26 16 27 19 28 17 29 18 30
REMARK H PARENT 18 31
REMARK Flexibility Score: inf
ROOT
ATOM      1  C   UNL     1       0.799  13.121  27.335  1.00  0.00     0.004 C 
ENDROOT
BRANCH   1   2
ATOM      2  C   UNL     1       1.265  11.744  26.796  1.00  0.00     0.004 C 
BRANCH   2   3
ATOM      3  C   UNL     1       2.599  11.793  25.992  1.00  0.00    -0.009 C 
BRANCH   3   4
ATOM      4  C   UNL     1       3.421  10.523  26.358  1.00  0.00     0.000 C 
ATOM      5  C   UNL     1       4.858  10.532  25.839  1.00  0.00     0.004 C 
ENDBRANCH   3   4
BRANCH   3   6
ATOM      6  C   UNL     1       2.449  11.938  24.424  1.00  0.00    -0.014 C 
ATOM      7  C   UNL     1       1.025  11.801  23.853  1.00  0.00     0.007 C 
ATOM      8  C   UNL     1       3.032  13.280  23.939  1.00  0.00     0.007 C 
ENDBRANCH   3   6
ENDBRANCH   2   3
ENDBRANCH   1   2
BRANCH   1   9
ATOM      9  C   UNL     1       1.532  13.550  28.639  1.00  0.00    -0.011 C 
ATOM     10  C   UNL     1       0.889  12.843  29.857  1.00  0.00     0.008 C 
BRANCH   9  11
ATOM     11  C   UNL     1       3.087  13.324  28.521  1.00  0.00    -0.002 C 
ATOM     12  C   UNL     1       3.676  12.680  29.784  1.00  0.00     0.005 C 
ATOM     13  C   UNL     1       3.986  14.584  28.223  1.00  0.00    -0.026 C 
ATOM     14  C   UNL     1       4.401  13.776  30.554  1.00  0.00     0.005 C 
ATOM     15  C   UNL     1       4.604  14.974  29.602  1.00  0.00    -0.001 C 
ATOM     16  C   UNL     1       5.103  14.231  27.169  1.00  0.00     0.007 C 
ATOM     17  C   UNL     1       3.205  15.786  27.624  1.00  0.00     0.012 C 
ATOM     18  C   UNL     1       6.077  15.449  29.471  1.00  0.00     0.000 C 
ATOM     19  C   UNL     1       6.336  13.535  27.760  1.00  0.00     0.005 C 
ATOM     20  C   UNL     1       7.017  14.359  28.894  1.00  0.00     0.003 C 
ATOM     21  C   UNL     1       6.654  15.984  30.786  1.00  0.00     0.031 C 
ATOM     22  C   UNL     1       8.429  14.968  28.541  1.00  0.00    -0.008 C 
ATOM     23  C   UNL     1       8.100  16.376  30.635  1.00  0.00    -0.027 C 
ATOM     24  C   UNL     1       8.929  15.857  29.696  1.00  0.00    -0.065 C 
ATOM     25  C   UNL     1       9.446  13.799  28.336  1.00  0.00     0.014 C 
ATOM     26  C   UNL     1       8.363  15.833  27.251  1.00  0.00     0.016 C 
ATOM     27  C   UNL     1      10.387  16.276  29.707  1.00  0.00     0.063 C 
ATOM     28  C   UNL     1      10.914  14.254  28.276  1.00  0.00     0.033 C 
ATOM     29  C   UNL     1      11.296  15.053  29.531  1.00  0.00     0.118 C 
BRANCH  29  30
ATOM     30  O   UNL     1      12.645  15.440  29.483  1.00  0.00    -0.393 OA
ATOM     31  H   UNL     1      12.827  15.782  28.566  1.00  0.00     0.210 HD
ENDBRANCH  29  30
ENDBRANCH   9  11
ENDBRANCH   1   9
TORSDOF 7
ENDMDL
MODEL 8
REMARK VINA RESULT:    -8.203      1.911      2.896
REMARK INTER + INTRA:         -12.293
REMARK INTER:                 -11.451
REMARK INTRA:                  -0.841
REMARK UNBOUND:                -0.973
REMARK SMILES CC[C@H](CC[C@@H](C)[C@@H]1CC[C@H]2[C@H]3CC=C4C[C@H](O)CC[C@@]4(C)[C@@H]3CC[C@]21C)C(C)C
REMARK SMILES IDX 5 1 4 2 3 3 2 4 1 5 28 6 29 7 30 8 6 9 7 10 8 11 9 12 26 13
REMARK SMILES IDX 10 14 11 15 25 16 27 17 12 18 24 19 23 20 13 21 21 22 14 23
REMARK SMILES IDX 15 24 20 25 22 26 16 27 19 28 17 29 18 30
REMARK H PARENT 18 31
REMARK Flexibility Score: inf
ROOT
ATOM      1  C   UNL     1       3.343  22.530  20.990  1.00  0.00     0.004 C 
ENDROOT
BRANCH   1   2
ATOM      2  C   UNL     1       2.486  22.649  22.276  1.00  0.00     0.004 C 
BRANCH   2   3
ATOM      3  C   UNL     1       0.973  22.909  22.011  1.00  0.00    -0.009 C 
BRANCH   3   4
ATOM      4  C   UNL     1       0.270  21.527  21.871  1.00  0.00     0.000 C 
ATOM      5  C   UNL     1      -0.233  21.217  20.462  1.00  0.00     0.004 C 
ENDBRANCH   3   4
BRANCH   3   6
ATOM      6  C   UNL     1       0.236  23.814  23.079  1.00  0.00    -0.014 C 
ATOM      7  C   UNL     1      -0.807  23.115  23.971  1.00  0.00     0.007 C 
ATOM      8  C   UNL     1       1.253  24.522  23.995  1.00  0.00     0.007 C 
ENDBRANCH   3   6
ENDBRANCH   2   3
ENDBRANCH   1   2
BRANCH   1   9
ATOM      9  C   UNL     1       4.650  23.373  21.044  1.00  0.00    -0.011 C 
ATOM     10  C   UNL     1       4.521  24.470  22.130  1.00  0.00     0.008 C 
BRANCH   9  11
ATOM     11  C   UNL     1       5.917  22.453  21.217  1.00  0.00    -0.002 C 
ATOM     12  C   UNL     1       6.055  21.922  22.651  1.00  0.00     0.005 C 
ATOM     13  C   UNL     1       7.321  23.068  20.851  1.00  0.00    -0.026 C 
ATOM     14  C   UNL     1       7.165  22.719  23.323  1.00  0.00     0.005 C 
ATOM     15  C   UNL     1       7.966  23.443  22.221  1.00  0.00    -0.001 C 
ATOM     16  C   UNL     1       8.198  22.020  20.067  1.00  0.00     0.007 C 
ATOM     17  C   UNL     1       7.239  24.319  19.934  1.00  0.00     0.012 C 
ATOM     18  C   UNL     1       9.494  23.162  22.245  1.00  0.00     0.000 C 
ATOM     19  C   UNL     1       8.917  21.001  20.960  1.00  0.00     0.005 C 
ATOM     20  C   UNL     1       9.838  21.666  22.026  1.00  0.00     0.003 C 
ATOM     21  C   UNL     1      10.176  23.666  23.521  1.00  0.00     0.031 C 
ATOM     22  C   UNL     1      11.388  21.476  21.802  1.00  0.00    -0.008 C 
ATOM     23  C   UNL     1      11.642  23.320  23.538  1.00  0.00    -0.027 C 
ATOM     24  C   UNL     1      12.181  22.284  22.849  1.00  0.00    -0.065 C 
ATOM     25  C   UNL     1      11.742  19.963  21.971  1.00  0.00     0.014 C 
ATOM     26  C   UNL     1      11.816  21.957  20.387  1.00  0.00     0.016 C 
ATOM     27  C   UNL     1      13.660  21.993  23.019  1.00  0.00     0.063 C 
ATOM     28  C   UNL     1      13.251  19.682  22.067  1.00  0.00     0.033 C 
ATOM     29  C   UNL     1      13.890  20.489  23.207  1.00  0.00     0.118 C 
BRANCH  29  30
ATOM     30  O   UNL     1      15.262  20.206  23.309  1.00  0.00    -0.393 OA
ATOM     31  H   UNL     1      15.676  20.409  22.427  1.00  0.00     0.210 HD
ENDBRANCH  29  30
ENDBRANCH   9  11
ENDBRANCH   1   9
TORSDOF 7
ENDMDL
