MODEL 1
REMARK VINA RESULT:    -3.566      0.000      0.000
REMARK INTER + INTRA:          -7.560
REMARK INTER:                  -6.067
REMARK INTRA:                  -1.493
REMARK UNBOUND:                -1.493
REMARK SMILES CCCCCCCCCCCCCC(=O)[O-]
REMARK SMILES IDX 8 1 9 2 10 3 11 4 12 5 13 6 14 7 15 8 16 9 7 10 6 11 5 12
REMARK SMILES IDX 4 13 3 14 2 15 1 16
REMARK H PARENT
REMARK Flexibility Score: inf
ROOT
ATOM      1  C   UNL     1     -35.608   5.630  -1.370  1.00  0.00     0.000 C 
ENDROOT
BRANCH   1   2
ATOM      2  C   UNL     1     -36.762   5.386  -2.359  1.00  0.00     0.000 C 
BRANCH   2   3
ATOM      3  C   UNL     1     -36.462   5.784  -3.816  1.00  0.00     0.000 C 
BRANCH   3   4
ATOM      4  C   UNL     1     -35.250   5.044  -4.424  1.00  0.00     0.000 C 
BRANCH   4   5
ATOM      5  C   UNL     1     -35.670   3.808  -5.239  1.00  0.00     0.006 C 
BRANCH   5   6
ATOM      6  C   UNL     1     -34.774   2.595  -4.958  1.00  0.00     0.053 C 
BRANCH   6   7
ATOM      7  C   UNL     1     -35.471   1.572  -4.113  1.00  0.00     0.041 C 
ATOM      8  O   UNL     1     -35.828   0.473  -4.613  1.00  0.00    -0.550 OA
ATOM      9  O   UNL     1     -35.754   1.848  -2.782  1.00  0.00    -0.550 OA
ENDBRANCH   6   7
ENDBRANCH   5   6
ENDBRANCH   4   5
ENDBRANCH   3   4
ENDBRANCH   2   3
ENDBRANCH   1   2
BRANCH   1  10
ATOM     10  C   UNL     1     -35.070   7.075  -1.346  1.00  0.00     0.000 C 
BRANCH  10  11
ATOM     11  C   UNL     1     -33.539   7.169  -1.526  1.00  0.00    -0.000 C 
BRANCH  11  12
ATOM     12  C   UNL     1     -33.150   7.843  -2.850  1.00  0.00    -0.000 C 
BRANCH  12  13
ATOM     13  C   UNL     1     -34.112   8.990  -3.187  1.00  0.00    -0.000 C 
BRANCH  13  14
ATOM     14  C   UNL     1     -34.655   8.913  -4.626  1.00  0.00    -0.000 C 
BRANCH  14  15
ATOM     15  C   UNL     1     -35.991   9.645  -4.854  1.00  0.00    -0.003 C 
ATOM     16  C   UNL     1     -36.321  10.649  -3.750  1.00  0.00     0.004 C 
ENDBRANCH  14  15
ENDBRANCH  13  14
ENDBRANCH  12  13
ENDBRANCH  11  12
ENDBRANCH  10  11
ENDBRANCH   1  10
TORSDOF 12
ENDMDL
MODEL 2
REMARK VINA RESULT:    -3.538      1.805      3.785
REMARK INTER + INTRA:          -7.513
REMARK INTER:                  -5.500
REMARK INTRA:                  -2.013
REMARK UNBOUND:                -1.493
REMARK SMILES CCCCCCCCCCCCCC(=O)[O-]
REMARK SMILES IDX 8 1 9 2 10 3 11 4 12 5 13 6 14 7 15 8 16 9 7 10 6 11 5 12
REMARK SMILES IDX 4 13 3 14 2 15 1 16
REMARK H PARENT
REMARK Flexibility Score: inf
ROOT
ATOM      1  C   UNL     1     -35.855   7.807  -2.764  1.00  0.00     0.000 C 
ENDROOT
BRANCH   1   2
ATOM      2  C   UNL     1     -36.227   7.269  -1.370  1.00  0.00     0.000 C 
BRANCH   2   3
ATOM      3  C   UNL     1     -36.005   5.757  -1.179  1.00  0.00     0.000 C 
BRANCH   3   4
ATOM      4  C   UNL     1     -36.373   4.915  -2.420  1.00  0.00     0.000 C 
BRANCH   4   5
ATOM      5  C   UNL     1     -35.278   3.896  -2.779  1.00  0.00     0.006 C 
BRANCH   5   6
ATOM      6  C   UNL     1     -35.042   3.806  -4.293  1.00  0.00     0.053 C 
BRANCH   6   7
ATOM      7  C   UNL     1     -35.088   2.388  -4.779  1.00  0.00     0.041 C 
ATOM      8  O   UNL     1     -34.529   2.071  -5.862  1.00  0.00    -0.550 OA
ATOM      9  O   UNL     1     -35.775   1.427  -4.051  1.00  0.00    -0.550 OA
ENDBRANCH   6   7
ENDBRANCH   5   6
ENDBRANCH   4   5
ENDBRANCH   3   4
ENDBRANCH   2   3
ENDBRANCH   1   2
BRANCH   1  10
ATOM     10  C   UNL     1     -34.387   8.253  -2.917  1.00  0.00     0.000 C 
BRANCH  10  11
ATOM     11  C   UNL     1     -33.509   7.243  -3.687  1.00  0.00    -0.000 C 
BRANCH  11  12
ATOM     12  C   UNL     1     -32.565   6.465  -2.758  1.00  0.00    -0.000 C 
BRANCH  12  13
ATOM     13  C   UNL     1     -32.333   7.227  -1.447  1.00  0.00    -0.000 C 
BRANCH  13  14
ATOM     14  C   UNL     1     -32.202   6.295  -0.227  1.00  0.00    -0.000 C 
BRANCH  14  15
ATOM     15  C   UNL     1     -32.555   4.821  -0.498  1.00  0.00    -0.003 C 
ATOM     16  C   UNL     1     -32.311   3.915   0.709  1.00  0.00     0.004 C 
ENDBRANCH  14  15
ENDBRANCH  13  14
ENDBRANCH  12  13
ENDBRANCH  11  12
ENDBRANCH  10  11
ENDBRANCH   1  10
TORSDOF 12
ENDMDL
MODEL 3
REMARK VINA RESULT:    -3.533      3.135      6.023
REMARK INTER + INTRA:          -7.505
REMARK INTER:                  -5.815
REMARK INTRA:                  -1.690
REMARK UNBOUND:                -1.493
REMARK SMILES CCCCCCCCCCCCCC(=O)[O-]
REMARK SMILES IDX 8 1 9 2 10 3 11 4 12 5 13 6 14 7 15 8 16 9 7 10 6 11 5 12
REMARK SMILES IDX 4 13 3 14 2 15 1 16
REMARK H PARENT
REMARK Flexibility Score: inf
ROOT
ATOM      1  C   UNL     1     -35.317   1.490  -3.461  1.00  0.00     0.000 C 
ENDROOT
BRANCH   1   2
ATOM      2  C   UNL     1     -35.465   2.970  -3.064  1.00  0.00     0.000 C 
BRANCH   2   3
ATOM      3  C   UNL     1     -36.843   3.587  -3.369  1.00  0.00     0.000 C 
BRANCH   3   4
ATOM      4  C   UNL     1     -36.929   5.097  -3.053  1.00  0.00     0.000 C 
BRANCH   4   5
ATOM      5  C   UNL     1     -36.092   5.483  -1.821  1.00  0.00     0.006 C 
BRANCH   5   6
ATOM      6  C   UNL     1     -36.199   6.978  -1.493  1.00  0.00     0.053 C 
BRANCH   6   7
ATOM      7  C   UNL     1     -35.386   7.814  -2.435  1.00  0.00     0.041 C 
ATOM      8  O   UNL     1     -34.165   8.021  -2.207  1.00  0.00    -0.550 OA
ATOM      9  O   UNL     1     -35.987   8.391  -3.546  1.00  0.00    -0.550 OA
ENDBRANCH   6   7
ENDBRANCH   5   6
ENDBRANCH   4   5
ENDBRANCH   3   4
ENDBRANCH   2   3
ENDBRANCH   1   2
BRANCH   1  10
ATOM     10  C   UNL     1     -34.894   1.250  -4.924  1.00  0.00     0.000 C 
BRANCH  10  11
ATOM     11  C   UNL     1     -36.050   0.782  -5.834  1.00  0.00    -0.000 C 
BRANCH  11  12
ATOM     12  C   UNL     1     -36.575   1.910  -6.735  1.00  0.00    -0.000 C 
BRANCH  12  13
ATOM     13  C   UNL     1     -35.421   2.764  -7.276  1.00  0.00    -0.000 C 
BRANCH  13  14
ATOM     14  C   UNL     1     -35.622   4.270  -7.028  1.00  0.00    -0.000 C 
BRANCH  14  15
ATOM     15  C   UNL     1     -34.585   4.916  -6.090  1.00  0.00    -0.003 C 
ATOM     16  C   UNL     1     -33.208   4.257  -6.174  1.00  0.00     0.004 C 
ENDBRANCH  14  15
ENDBRANCH  13  14
ENDBRANCH  12  13
ENDBRANCH  11  12
ENDBRANCH  10  11
ENDBRANCH   1  10
TORSDOF 12
ENDMDL
MODEL 4
REMARK VINA RESULT:    -3.479      1.610      3.192
REMARK INTER + INTRA:          -7.412
REMARK INTER:                  -5.329
REMARK INTRA:                  -2.083
REMARK UNBOUND:                -1.493
REMARK SMILES CCCCCCCCCCCCCC(=O)[O-]
REMARK SMILES IDX 8 1 9 2 10 3 11 4 12 5 13 6 14 7 15 8 16 9 7 10 6 11 5 12
REMARK SMILES IDX 4 13 3 14 2 15 1 16
REMARK H PARENT
REMARK Flexibility Score: inf
ROOT
ATOM      1  C   UNL     1     -36.452   6.124  -1.691  1.00  0.00     0.000 C 
ENDROOT
BRANCH   1   2
ATOM      2  C   UNL     1     -35.322   5.182  -1.236  1.00  0.00     0.000 C 
BRANCH   2   3
ATOM      3  C   UNL     1     -35.070   3.978  -2.164  1.00  0.00     0.000 C 
BRANCH   3   4
ATOM      4  C   UNL     1     -33.878   4.176  -3.126  1.00  0.00     0.000 C 
BRANCH   4   5
ATOM      5  C   UNL     1     -34.216   3.756  -4.567  1.00  0.00     0.006 C 
BRANCH   5   6
ATOM      6  C   UNL     1     -35.727   3.754  -4.831  1.00  0.00     0.053 C 
BRANCH   6   7
ATOM      7  C   UNL     1     -36.192   2.444  -5.393  1.00  0.00     0.041 C 
ATOM      8  O   UNL     1     -36.824   2.410  -6.482  1.00  0.00    -0.550 OA
ATOM      9  O   UNL     1     -35.954   1.267  -4.697  1.00  0.00    -0.550 OA
ENDBRANCH   6   7
ENDBRANCH   5   6
ENDBRANCH   4   5
ENDBRANCH   3   4
ENDBRANCH   2   3
ENDBRANCH   1   2
BRANCH   1  10
ATOM     10  C   UNL     1     -35.987   7.521  -2.147  1.00  0.00     0.000 C 
BRANCH  10  11
ATOM     11  C   UNL     1     -35.626   7.596  -3.647  1.00  0.00    -0.000 C 
BRANCH  11  12
ATOM     12  C   UNL     1     -34.113   7.738  -3.875  1.00  0.00    -0.000 C 
BRANCH  12  13
ATOM     13  C   UNL     1     -33.410   8.240  -2.607  1.00  0.00    -0.000 C 
BRANCH  13  14
ATOM     14  C   UNL     1     -32.285   7.301  -2.134  1.00  0.00    -0.000 C 
BRANCH  14  15
ATOM     15  C   UNL     1     -32.301   6.976  -0.629  1.00  0.00    -0.003 C 
ATOM     16  C   UNL     1     -31.581   5.672  -0.289  1.00  0.00     0.004 C 
ENDBRANCH  14  15
ENDBRANCH  13  14
ENDBRANCH  12  13
ENDBRANCH  11  12
ENDBRANCH  10  11
ENDBRANCH   1  10
TORSDOF 12
ENDMDL
MODEL 5
REMARK VINA RESULT:    -3.476      3.175      5.772
REMARK INTER + INTRA:          -7.407
REMARK INTER:                  -5.139
REMARK INTRA:                  -2.268
REMARK UNBOUND:                -1.493
REMARK SMILES CCCCCCCCCCCCCC(=O)[O-]
REMARK SMILES IDX 8 1 9 2 10 3 11 4 12 5 13 6 14 7 15 8 16 9 7 10 6 11 5 12
REMARK SMILES IDX 4 13 3 14 2 15 1 16
REMARK H PARENT
REMARK Flexibility Score: inf
ROOT
ATOM      1  C   UNL     1     -36.053   5.902  -1.398  1.00  0.00     0.000 C 
ENDROOT
BRANCH   1   2
ATOM      2  C   UNL     1     -35.270   7.209  -1.176  1.00  0.00     0.000 C 
BRANCH   2   3
ATOM      3  C   UNL     1     -33.742   7.040  -1.080  1.00  0.00     0.000 C 
BRANCH   3   4
ATOM      4  C   UNL     1     -32.980   7.581  -2.310  1.00  0.00     0.000 C 
BRANCH   4   5
ATOM      5  C   UNL     1     -33.677   8.802  -2.936  1.00  0.00     0.006 C 
BRANCH   5   6
ATOM      6  C   UNL     1     -34.125   8.538  -4.379  1.00  0.00     0.053 C 
BRANCH   6   7
ATOM      7  C   UNL     1     -35.567   8.889  -4.587  1.00  0.00     0.041 C 
ATOM      8  O   UNL     1     -36.164   8.525  -5.633  1.00  0.00    -0.550 OA
ATOM      9  O   UNL     1     -36.240   9.648  -3.638  1.00  0.00    -0.550 OA
ENDBRANCH   6   7
ENDBRANCH   5   6
ENDBRANCH   4   5
ENDBRANCH   3   4
ENDBRANCH   2   3
ENDBRANCH   1   2
BRANCH   1  10
ATOM     10  C   UNL     1     -36.623   5.721  -2.819  1.00  0.00     0.000 C 
BRANCH  10  11
ATOM     11  C   UNL     1     -35.597   5.174  -3.834  1.00  0.00    -0.000 C 
BRANCH  11  12
ATOM     12  C   UNL     1     -34.910   3.894  -3.334  1.00  0.00    -0.000 C 
BRANCH  12  13
ATOM     13  C   UNL     1     -33.382   4.039  -3.371  1.00  0.00    -0.000 C 
BRANCH  13  14
ATOM     14  C   UNL     1     -32.717   3.713  -2.021  1.00  0.00    -0.000 C 
BRANCH  14  15
ATOM     15  C   UNL     1     -33.568   2.849  -1.071  1.00  0.00    -0.003 C 
ATOM     16  C   UNL     1     -33.808   3.510   0.286  1.00  0.00     0.004 C 
ENDBRANCH  14  15
ENDBRANCH  13  14
ENDBRANCH  12  13
ENDBRANCH  11  12
ENDBRANCH  10  11
ENDBRANCH   1  10
TORSDOF 12
ENDMDL
MODEL 6
REMARK VINA RESULT:    -3.468      1.410      2.541
REMARK INTER + INTRA:          -7.393
REMARK INTER:                  -5.936
REMARK INTRA:                  -1.457
REMARK UNBOUND:                -1.493
REMARK SMILES CCCCCCCCCCCCCC(=O)[O-]
REMARK SMILES IDX 8 1 9 2 10 3 11 4 12 5 13 6 14 7 15 8 16 9 7 10 6 11 5 12
REMARK SMILES IDX 4 13 3 14 2 15 1 16
REMARK H PARENT
REMARK Flexibility Score: inf
ROOT
ATOM      1  C   UNL     1     -36.090   3.992  -3.008  1.00  0.00     0.000 C 
ENDROOT
BRANCH   1   2
ATOM      2  C   UNL     1     -34.562   4.077  -3.172  1.00  0.00     0.000 C 
BRANCH   2   3
ATOM      3  C   UNL     1     -34.086   4.673  -4.510  1.00  0.00     0.000 C 
BRANCH   3   4
ATOM      4  C   UNL     1     -34.883   4.166  -5.732  1.00  0.00     0.000 C 
BRANCH   4   5
ATOM      5  C   UNL     1     -34.395   2.790  -6.217  1.00  0.00     0.006 C 
BRANCH   5   6
ATOM      6  C   UNL     1     -35.512   1.738  -6.196  1.00  0.00     0.053 C 
BRANCH   6   7
ATOM      7  C   UNL     1     -35.208   0.622  -5.242  1.00  0.00     0.041 C 
ATOM      8  O   UNL     1     -35.463   0.750  -4.016  1.00  0.00    -0.550 OA
ATOM      9  O   UNL     1     -34.612  -0.543  -5.705  1.00  0.00    -0.550 OA
ENDBRANCH   6   7
ENDBRANCH   5   6
ENDBRANCH   4   5
ENDBRANCH   3   4
ENDBRANCH   2   3
ENDBRANCH   1   2
BRANCH   1  10
ATOM     10  C   UNL     1     -36.761   5.287  -2.508  1.00  0.00     0.000 C 
BRANCH  10  11
ATOM     11  C   UNL     1     -36.044   5.932  -1.303  1.00  0.00    -0.000 C 
BRANCH  11  12
ATOM     12  C   UNL     1     -35.528   7.344  -1.619  1.00  0.00    -0.000 C 
BRANCH  12  13
ATOM     13  C   UNL     1     -35.914   7.764  -3.044  1.00  0.00    -0.000 C 
BRANCH  13  14
ATOM     14  C   UNL     1     -34.721   8.306  -3.853  1.00  0.00    -0.000 C 
BRANCH  14  15
ATOM     15  C   UNL     1     -33.831   9.312  -3.100  1.00  0.00    -0.003 C 
ATOM     16  C   UNL     1     -32.388   8.834  -2.941  1.00  0.00     0.004 C 
ENDBRANCH  14  15
ENDBRANCH  13  14
ENDBRANCH  12  13
ENDBRANCH  11  12
ENDBRANCH  10  11
ENDBRANCH   1  10
TORSDOF 12
ENDMDL
MODEL 7
REMARK VINA RESULT:    -3.451      3.162      5.866
REMARK INTER + INTRA:          -7.364
REMARK INTER:                  -5.655
REMARK INTRA:                  -1.709
REMARK UNBOUND:                -1.493
REMARK SMILES CCCCCCCCCCCCCC(=O)[O-]
REMARK SMILES IDX 8 1 9 2 10 3 11 4 12 5 13 6 14 7 15 8 16 9 7 10 6 11 5 12
REMARK SMILES IDX 4 13 3 14 2 15 1 16
REMARK H PARENT
REMARK Flexibility Score: inf
ROOT
ATOM      1  C   UNL     1     -36.160   5.578  -1.495  1.00  0.00     0.000 C 
ENDROOT
BRANCH   1   2
ATOM      2  C   UNL     1     -35.699   7.044  -1.590  1.00  0.00     0.000 C 
BRANCH   2   3
ATOM      3  C   UNL     1     -34.205   7.274  -1.293  1.00  0.00     0.000 C 
BRANCH   3   4
ATOM      4  C   UNL     1     -33.366   7.595  -2.550  1.00  0.00     0.000 C 
BRANCH   4   5
ATOM      5  C   UNL     1     -33.734   8.957  -3.164  1.00  0.00     0.006 C 
BRANCH   5   6
ATOM      6  C   UNL     1     -34.274   8.823  -4.593  1.00  0.00     0.053 C 
BRANCH   6   7
ATOM      7  C   UNL     1     -35.660   9.382  -4.718  1.00  0.00     0.041 C 
ATOM      8  O   UNL     1     -36.241   9.391  -5.835  1.00  0.00    -0.550 OA
ATOM      9  O   UNL     1     -36.293   9.924  -3.608  1.00  0.00    -0.550 OA
ENDBRANCH   6   7
ENDBRANCH   5   6
ENDBRANCH   4   5
ENDBRANCH   3   4
ENDBRANCH   2   3
ENDBRANCH   1   2
BRANCH   1  10
ATOM     10  C   UNL     1     -36.369   4.875  -2.851  1.00  0.00     0.000 C 
BRANCH  10  11
ATOM     11  C   UNL     1     -36.545   5.851  -4.035  1.00  0.00    -0.000 C 
BRANCH  11  12
ATOM     12  C   UNL     1     -35.578   5.546  -5.189  1.00  0.00    -0.000 C 
BRANCH  12  13
ATOM     13  C   UNL     1     -34.439   4.627  -4.724  1.00  0.00    -0.000 C 
BRANCH  13  14
ATOM     14  C   UNL     1     -33.919   3.705  -5.843  1.00  0.00    -0.000 C 
BRANCH  14  15
ATOM     15  C   UNL     1     -34.911   2.620  -6.302  1.00  0.00    -0.003 C 
ATOM     16  C   UNL     1     -34.933   1.400  -5.383  1.00  0.00     0.004 C 
ENDBRANCH  14  15
ENDBRANCH  13  14
ENDBRANCH  12  13
ENDBRANCH  11  12
ENDBRANCH  10  11
ENDBRANCH   1  10
TORSDOF 12
ENDMDL
MODEL 8
REMARK VINA RESULT:    -3.404      3.912      6.098
REMARK INTER + INTRA:          -7.285
REMARK INTER:                  -5.453
REMARK INTRA:                  -1.832
REMARK UNBOUND:                -1.493
REMARK SMILES CCCCCCCCCCCCCC(=O)[O-]
REMARK SMILES IDX 8 1 9 2 10 3 11 4 12 5 13 6 14 7 15 8 16 9 7 10 6 11 5 12
REMARK SMILES IDX 4 13 3 14 2 15 1 16
REMARK H PARENT
REMARK Flexibility Score: inf
ROOT
ATOM      1  C   UNL     1     -31.732   6.917  -3.242  1.00  0.00     0.000 C 
ENDROOT
BRANCH   1   2
ATOM      2  C   UNL     1     -31.990   5.722  -2.306  1.00  0.00     0.000 C 
BRANCH   2   3
ATOM      3  C   UNL     1     -32.767   6.061  -1.021  1.00  0.00     0.000 C 
BRANCH   3   4
ATOM      4  C   UNL     1     -34.280   5.764  -1.116  1.00  0.00     0.000 C 
BRANCH   4   5
ATOM      5  C   UNL     1     -35.116   7.045  -1.289  1.00  0.00     0.006 C 
BRANCH   5   6
ATOM      6  C   UNL     1     -36.016   6.987  -2.530  1.00  0.00     0.053 C 
BRANCH   6   7
ATOM      7  C   UNL     1     -35.647   8.037  -3.534  1.00  0.00     0.041 C 
ATOM      8  O   UNL     1     -36.044   9.223  -3.387  1.00  0.00    -0.550 OA
ATOM      9  O   UNL     1     -34.893   7.696  -4.649  1.00  0.00    -0.550 OA
ENDBRANCH   6   7
ENDBRANCH   5   6
ENDBRANCH   4   5
ENDBRANCH   3   4
ENDBRANCH   2   3
ENDBRANCH   1   2
BRANCH   1  10
ATOM     10  C   UNL     1     -31.864   8.302  -2.577  1.00  0.00     0.000 C 
BRANCH  10  11
ATOM     11  C   UNL     1     -30.514   9.025  -2.377  1.00  0.00    -0.000 C 
BRANCH  11  12
ATOM     12  C   UNL     1     -29.892   8.728  -1.004  1.00  0.00    -0.000 C 
BRANCH  12  13
ATOM     13  C   UNL     1     -28.541   8.016  -1.154  1.00  0.00    -0.000 C 
BRANCH  13  14
ATOM     14  C   UNL     1     -28.643   6.491  -0.970  1.00  0.00    -0.000 C 
BRANCH  14  15
ATOM     15  C   UNL     1     -28.127   5.659  -2.159  1.00  0.00    -0.003 C 
ATOM     16  C   UNL     1     -27.903   6.491  -3.421  1.00  0.00     0.004 C 
ENDBRANCH  14  15
ENDBRANCH  13  14
ENDBRANCH  12  13
ENDBRANCH  11  12
ENDBRANCH  10  11
ENDBRANCH   1  10
TORSDOF 12
ENDMDL
MODEL 9
REMARK VINA RESULT:    -3.399      2.174      4.670
REMARK INTER + INTRA:          -7.275
REMARK INTER:                  -5.078
REMARK INTRA:                  -2.197
REMARK UNBOUND:                -1.493
REMARK SMILES CCCCCCCCCCCCCC(=O)[O-]
REMARK SMILES IDX 8 1 9 2 10 3 11 4 12 5 13 6 14 7 15 8 16 9 7 10 6 11 5 12
REMARK SMILES IDX 4 13 3 14 2 15 1 16
REMARK H PARENT
REMARK Flexibility Score: inf
ROOT
ATOM      1  C   UNL     1     -34.629   8.360  -3.481  1.00  0.00     0.000 C 
ENDROOT
BRANCH   1   2
ATOM      2  C   UNL     1     -33.448   8.139  -2.519  1.00  0.00     0.000 C 
BRANCH   2   3
ATOM      3  C   UNL     1     -32.402   7.115  -3.000  1.00  0.00     0.000 C 
BRANCH   3   4
ATOM      4  C   UNL     1     -31.662   6.398  -1.850  1.00  0.00     0.000 C 
BRANCH   4   5
ATOM      5  C   UNL     1     -32.600   6.049  -0.682  1.00  0.00     0.006 C 
BRANCH   5   6
ATOM      6  C   UNL     1     -32.177   4.761   0.037  1.00  0.00     0.053 C 
BRANCH   6   7
ATOM      7  C   UNL     1     -32.837   3.552  -0.555  1.00  0.00     0.041 C 
ATOM      8  O   UNL     1     -32.276   2.914  -1.484  1.00  0.00    -0.550 OA
ATOM      9  O   UNL     1     -34.087   3.151  -0.101  1.00  0.00    -0.550 OA
ENDBRANCH   6   7
ENDBRANCH   5   6
ENDBRANCH   4   5
ENDBRANCH   3   4
ENDBRANCH   2   3
ENDBRANCH   1   2
BRANCH   1  10
ATOM     10  C   UNL     1     -35.983   7.820  -2.979  1.00  0.00     0.000 C 
BRANCH  10  11
ATOM     11  C   UNL     1     -35.961   7.364  -1.504  1.00  0.00    -0.000 C 
BRANCH  11  12
ATOM     12  C   UNL     1     -36.193   5.853  -1.358  1.00  0.00    -0.000 C 
BRANCH  12  13
ATOM     13  C   UNL     1     -36.609   5.228  -2.697  1.00  0.00    -0.000 C 
BRANCH  13  14
ATOM     14  C   UNL     1     -35.766   3.995  -3.069  1.00  0.00    -0.000 C 
BRANCH  14  15
ATOM     15  C   UNL     1     -34.476   4.303  -3.852  1.00  0.00    -0.003 C 
ATOM     16  C   UNL     1     -34.737   5.007  -5.183  1.00  0.00     0.004 C 
ENDBRANCH  14  15
ENDBRANCH  13  14
ENDBRANCH  12  13
ENDBRANCH  11  12
ENDBRANCH  10  11
ENDBRANCH   1  10
TORSDOF 12
ENDMDL
