MODEL 1
REMARK VINA RESULT:    -3.062      0.000      0.000
REMARK INTER + INTRA:          -6.128
REMARK INTER:                  -5.568
REMARK INTRA:                  -0.561
REMARK UNBOUND:                -0.561
REMARK SMILES CCCCCCCCCCCCCCCC(=O)[O-]
REMARK SMILES IDX 9 1 10 2 11 3 12 4 13 5 14 6 15 7 16 8 17 9 18 10 8 11 7 12
REMARK SMILES IDX 6 13 5 14 4 15 3 16 2 17 1 18
REMARK H PARENT
REMARK Flexibility Score: inf
ROOT
ATOM      1  C   UNL     1       6.805  10.098  34.036  1.00  0.00     0.000 C 
ENDROOT
BRANCH   1   2
ATOM      2  C   UNL     1       6.011  11.413  34.119  1.00  0.00     0.000 C 
BRANCH   2   3
ATOM      3  C   UNL     1       6.242  12.169  35.435  1.00  0.00     0.000 C 
BRANCH   3   4
ATOM      4  C   UNL     1       5.876  13.653  35.287  1.00  0.00     0.000 C 
BRANCH   4   5
ATOM      5  C   UNL     1       6.329  14.244  33.943  1.00  0.00     0.000 C 
BRANCH   5   6
ATOM      6  C   UNL     1       6.437  15.776  33.975  1.00  0.00     0.006 C 
BRANCH   6   7
ATOM      7  C   UNL     1       5.972  16.328  35.327  1.00  0.00     0.053 C 
BRANCH   7   8
ATOM      8  C   UNL     1       6.154  17.813  35.377  1.00  0.00     0.041 C 
ATOM      9  O   UNL     1       6.604  18.430  34.377  1.00  0.00    -0.550 OA
ATOM     10  O   UNL     1       5.875  18.508  36.548  1.00  0.00    -0.550 OA
ENDBRANCH   7   8
ENDBRANCH   6   7
ENDBRANCH   5   6
ENDBRANCH   4   5
ENDBRANCH   3   4
ENDBRANCH   2   3
ENDBRANCH   1   2
BRANCH   1  11
ATOM     11  C   UNL     1       5.955   8.814  34.135  1.00  0.00     0.000 C 
BRANCH  11  12
ATOM     12  C   UNL     1       6.480   7.619  33.319  1.00  0.00    -0.000 C 
BRANCH  12  13
ATOM     13  C   UNL     1       6.570   6.327  34.143  1.00  0.00    -0.000 C 
BRANCH  13  14
ATOM     14  C   UNL     1       8.031   5.996  34.486  1.00  0.00    -0.000 C 
BRANCH  14  15
ATOM     15  C   UNL     1       8.163   5.156  35.766  1.00  0.00    -0.000 C 
BRANCH  15  16
ATOM     16  C   UNL     1       9.598   5.146  36.321  1.00  0.00    -0.000 C 
BRANCH  16  17
ATOM     17  C   UNL     1      10.226   3.743  36.304  1.00  0.00    -0.003 C 
ATOM     18  C   UNL     1       9.189   2.631  36.464  1.00  0.00     0.004 C 
ENDBRANCH  16  17
ENDBRANCH  15  16
ENDBRANCH  14  15
ENDBRANCH  13  14
ENDBRANCH  12  13
ENDBRANCH  11  12
ENDBRANCH   1  11
TORSDOF 14
ENDMDL
MODEL 2
REMARK VINA RESULT:    -2.847     21.810     24.147
REMARK INTER + INTRA:          -5.738
REMARK INTER:                  -4.192
REMARK INTRA:                  -1.545
REMARK UNBOUND:                -0.561
REMARK SMILES CCCCCCCCCCCCCCCC(=O)[O-]
REMARK SMILES IDX 9 1 10 2 11 3 12 4 13 5 14 6 15 7 16 8 17 9 18 10 8 11 7 12
REMARK SMILES IDX 6 13 5 14 4 15 3 16 2 17 1 18
REMARK H PARENT
REMARK Flexibility Score: inf
ROOT
ATOM      1  C   UNL     1      20.487  20.628  20.571  1.00  0.00     0.000 C 
ENDROOT
BRANCH   1   2
ATOM      2  C   UNL     1      19.020  21.077  20.684  1.00  0.00     0.000 C 
BRANCH   2   3
ATOM      3  C   UNL     1      18.611  22.064  19.580  1.00  0.00     0.000 C 
BRANCH   3   4
ATOM      4  C   UNL     1      18.158  21.316  18.317  1.00  0.00     0.000 C 
BRANCH   4   5
ATOM      5  C   UNL     1      16.762  20.690  18.468  1.00  0.00     0.000 C 
BRANCH   5   6
ATOM      6  C   UNL     1      16.799  19.155  18.473  1.00  0.00     0.006 C 
BRANCH   6   7
ATOM      7  C   UNL     1      17.143  18.611  17.083  1.00  0.00     0.053 C 
BRANCH   7   8
ATOM      8  C   UNL     1      18.398  17.798  17.133  1.00  0.00     0.041 C 
ATOM      9  O   UNL     1      18.338  16.548  17.274  1.00  0.00    -0.550 OA
ATOM     10  O   UNL     1      19.636  18.425  17.075  1.00  0.00    -0.550 OA
ENDBRANCH   7   8
ENDBRANCH   6   7
ENDBRANCH   5   6
ENDBRANCH   4   5
ENDBRANCH   3   4
ENDBRANCH   2   3
ENDBRANCH   1   2
BRANCH   1  11
ATOM     11  C   UNL     1      21.529  21.759  20.701  1.00  0.00     0.000 C 
BRANCH  11  12
ATOM     12  C   UNL     1      22.283  22.102  19.404  1.00  0.00    -0.000 C 
BRANCH  12  13
ATOM     13  C   UNL     1      21.949  21.149  18.248  1.00  0.00    -0.000 C 
BRANCH  13  14
ATOM     14  C   UNL     1      22.780  21.486  17.001  1.00  0.00    -0.000 C 
BRANCH  14  15
ATOM     15  C   UNL     1      24.191  20.880  17.049  1.00  0.00    -0.000 C 
BRANCH  15  16
ATOM     16  C   UNL     1      24.241  19.559  17.836  1.00  0.00    -0.000 C 
BRANCH  16  17
ATOM     17  C   UNL     1      25.211  19.619  19.027  1.00  0.00    -0.003 C 
ATOM     18  C   UNL     1      24.701  18.844  20.242  1.00  0.00     0.004 C 
ENDBRANCH  16  17
ENDBRANCH  15  16
ENDBRANCH  14  15
ENDBRANCH  13  14
ENDBRANCH  12  13
ENDBRANCH  11  12
ENDBRANCH   1  11
TORSDOF 14
ENDMDL
MODEL 3
REMARK VINA RESULT:    -2.751      5.451     10.438
REMARK INTER + INTRA:          -5.563
REMARK INTER:                  -5.003
REMARK INTRA:                  -0.560
REMARK UNBOUND:                -0.561
REMARK SMILES CCCCCCCCCCCCCCCC(=O)[O-]
REMARK SMILES IDX 9 1 10 2 11 3 12 4 13 5 14 6 15 7 16 8 17 9 18 10 8 11 7 12
REMARK SMILES IDX 6 13 5 14 4 15 3 16 2 17 1 18
REMARK H PARENT
REMARK Flexibility Score: inf
ROOT
ATOM      1  C   UNL     1       7.250   9.274  33.374  1.00  0.00     0.000 C 
ENDROOT
BRANCH   1   2
ATOM      2  C   UNL     1       7.285   7.760  33.646  1.00  0.00     0.000 C 
BRANCH   2   3
ATOM      3  C   UNL     1       6.390   7.343  34.822  1.00  0.00     0.000 C 
BRANCH   3   4
ATOM      4  C   UNL     1       7.235   6.863  36.011  1.00  0.00     0.000 C 
BRANCH   4   5
ATOM      5  C   UNL     1       8.035   5.589  35.693  1.00  0.00     0.000 C 
BRANCH   5   6
ATOM      6  C   UNL     1       9.454   5.621  36.279  1.00  0.00     0.006 C 
BRANCH   6   7
ATOM      7  C   UNL     1       9.805   4.282  36.937  1.00  0.00     0.053 C 
BRANCH   7   8
ATOM      8  C   UNL     1      10.512   3.389  35.966  1.00  0.00     0.041 C 
ATOM      9  O   UNL     1      11.141   3.883  34.994  1.00  0.00    -0.550 OA
ATOM     10  O   UNL     1      10.432   2.009  36.105  1.00  0.00    -0.550 OA
ENDBRANCH   7   8
ENDBRANCH   6   7
ENDBRANCH   5   6
ENDBRANCH   4   5
ENDBRANCH   3   4
ENDBRANCH   2   3
ENDBRANCH   1   2
BRANCH   1  11
ATOM     11  C   UNL     1       7.243  10.164  34.635  1.00  0.00     0.000 C 
BRANCH  11  12
ATOM     12  C   UNL     1       5.875  10.768  34.998  1.00  0.00    -0.000 C 
BRANCH  12  13
ATOM     13  C   UNL     1       5.989  12.148  35.660  1.00  0.00    -0.000 C 
BRANCH  13  14
ATOM     14  C   UNL     1       5.922  13.268  34.609  1.00  0.00    -0.000 C 
BRANCH  14  15
ATOM     15  C   UNL     1       5.941  14.670  35.237  1.00  0.00    -0.000 C 
BRANCH  15  16
ATOM     16  C   UNL     1       5.925  15.790  34.182  1.00  0.00    -0.000 C 
BRANCH  16  17
ATOM     17  C   UNL     1       5.995  17.191  34.809  1.00  0.00    -0.003 C 
ATOM     18  C   UNL     1       6.190  17.150  36.324  1.00  0.00     0.004 C 
ENDBRANCH  16  17
ENDBRANCH  15  16
ENDBRANCH  14  15
ENDBRANCH  13  14
ENDBRANCH  12  13
ENDBRANCH  11  12
ENDBRANCH   1  11
TORSDOF 14
ENDMDL
MODEL 4
REMARK VINA RESULT:    -2.675     22.130     24.494
REMARK INTER + INTRA:          -5.424
REMARK INTER:                  -4.073
REMARK INTRA:                  -1.351
REMARK UNBOUND:                -0.561
REMARK SMILES CCCCCCCCCCCCCCCC(=O)[O-]
REMARK SMILES IDX 9 1 10 2 11 3 12 4 13 5 14 6 15 7 16 8 17 9 18 10 8 11 7 12
REMARK SMILES IDX 6 13 5 14 4 15 3 16 2 17 1 18
REMARK H PARENT
REMARK Flexibility Score: inf
ROOT
ATOM      1  C   UNL     1      20.032  19.256  16.875  1.00  0.00     0.000 C 
ENDROOT
BRANCH   1   2
ATOM      2  C   UNL     1      21.519  19.649  16.909  1.00  0.00     0.000 C 
BRANCH   2   3
ATOM      3  C   UNL     1      21.791  20.884  17.781  1.00  0.00     0.000 C 
BRANCH   3   4
ATOM      4  C   UNL     1      23.292  21.031  18.070  1.00  0.00     0.000 C 
BRANCH   4   5
ATOM      5  C   UNL     1      24.133  19.925  17.414  1.00  0.00     0.000 C 
BRANCH   5   6
ATOM      6  C   UNL     1      25.401  19.591  18.215  1.00  0.00     0.006 C 
BRANCH   6   7
ATOM      7  C   UNL     1      25.083  18.635  19.368  1.00  0.00     0.053 C 
BRANCH   7   8
ATOM      8  C   UNL     1      25.531  19.216  20.672  1.00  0.00     0.041 C 
ATOM      9  O   UNL     1      26.028  18.474  21.559  1.00  0.00    -0.550 OA
ATOM     10  O   UNL     1      25.352  20.571  20.927  1.00  0.00    -0.550 OA
ENDBRANCH   7   8
ENDBRANCH   6   7
ENDBRANCH   5   6
ENDBRANCH   4   5
ENDBRANCH   3   4
ENDBRANCH   2   3
ENDBRANCH   1   2
BRANCH   1  11
ATOM     11  C   UNL     1      19.758  17.738  16.894  1.00  0.00     0.000 C 
BRANCH  11  12
ATOM     12  C   UNL     1      18.421  17.324  17.535  1.00  0.00    -0.000 C 
BRANCH  12  13
ATOM     13  C   UNL     1      17.902  18.352  18.550  1.00  0.00    -0.000 C 
BRANCH  13  14
ATOM     14  C   UNL     1      16.695  19.117  17.988  1.00  0.00    -0.000 C 
BRANCH  14  15
ATOM     15  C   UNL     1      16.621  20.564  18.499  1.00  0.00    -0.000 C 
BRANCH  15  16
ATOM     16  C   UNL     1      17.947  21.323  18.319  1.00  0.00    -0.000 C 
BRANCH  16  17
ATOM     17  C   UNL     1      18.420  22.000  19.615  1.00  0.00    -0.003 C 
ATOM     18  C   UNL     1      19.210  21.055  20.520  1.00  0.00     0.004 C 
ENDBRANCH  16  17
ENDBRANCH  15  16
ENDBRANCH  14  15
ENDBRANCH  13  14
ENDBRANCH  12  13
ENDBRANCH  11  12
ENDBRANCH   1  11
TORSDOF 14
ENDMDL
MODEL 5
REMARK VINA RESULT:    -2.621      3.554      5.918
REMARK INTER + INTRA:          -5.327
REMARK INTER:                  -4.350
REMARK INTRA:                  -0.977
REMARK UNBOUND:                -0.561
REMARK SMILES CCCCCCCCCCCCCCCC(=O)[O-]
REMARK SMILES IDX 9 1 10 2 11 3 12 4 13 5 14 6 15 7 16 8 17 9 18 10 8 11 7 12
REMARK SMILES IDX 6 13 5 14 4 15 3 16 2 17 1 18
REMARK H PARENT
REMARK Flexibility Score: inf
ROOT
ATOM      1  C   UNL     1       8.819   5.886  34.702  1.00  0.00     0.000 C 
ENDROOT
BRANCH   1   2
ATOM      2  C   UNL     1       7.749   5.572  35.763  1.00  0.00     0.000 C 
BRANCH   2   3
ATOM      3  C   UNL     1       6.320   5.844  35.270  1.00  0.00     0.000 C 
BRANCH   3   4
ATOM      4  C   UNL     1       6.324   6.297  33.802  1.00  0.00     0.000 C 
BRANCH   4   5
ATOM      5  C   UNL     1       5.881   7.759  33.632  1.00  0.00     0.000 C 
BRANCH   5   6
ATOM      6  C   UNL     1       7.066   8.733  33.569  1.00  0.00     0.006 C 
BRANCH   6   7
ATOM      7  C   UNL     1       6.734   9.942  32.689  1.00  0.00     0.053 C 
BRANCH   7   8
ATOM      8  C   UNL     1       6.228  11.076  33.523  1.00  0.00     0.041 C 
ATOM      9  O   UNL     1       6.067  12.216  33.013  1.00  0.00    -0.550 OA
ATOM     10  O   UNL     1       5.984  10.887  34.878  1.00  0.00    -0.550 OA
ENDBRANCH   7   8
ENDBRANCH   6   7
ENDBRANCH   5   6
ENDBRANCH   4   5
ENDBRANCH   3   4
ENDBRANCH   2   3
ENDBRANCH   1   2
BRANCH   1  11
ATOM     11  C   UNL     1      10.180   5.193  34.922  1.00  0.00     0.000 C 
BRANCH  11  12
ATOM     12  C   UNL     1      10.281   4.345  36.202  1.00  0.00    -0.000 C 
BRANCH  12  13
ATOM     13  C   UNL     1      11.119   3.073  36.010  1.00  0.00    -0.000 C 
BRANCH  13  14
ATOM     14  C   UNL     1      10.627   1.948  36.933  1.00  0.00    -0.000 C 
BRANCH  14  15
ATOM     15  C   UNL     1       9.102   1.960  37.121  1.00  0.00    -0.000 C 
BRANCH  15  16
ATOM     16  C   UNL     1       8.342   1.876  35.786  1.00  0.00    -0.000 C 
BRANCH  16  17
ATOM     17  C   UNL     1       6.897   2.387  35.898  1.00  0.00    -0.003 C 
ATOM     18  C   UNL     1       6.150   2.342  34.565  1.00  0.00     0.004 C 
ENDBRANCH  16  17
ENDBRANCH  15  16
ENDBRANCH  14  15
ENDBRANCH  13  14
ENDBRANCH  12  13
ENDBRANCH  11  12
ENDBRANCH   1  11
TORSDOF 14
ENDMDL
MODEL 6
REMARK VINA RESULT:    -2.595      5.588     10.516
REMARK INTER + INTRA:          -5.280
REMARK INTER:                  -4.460
REMARK INTRA:                  -0.820
REMARK UNBOUND:                -0.561
REMARK SMILES CCCCCCCCCCCCCCCC(=O)[O-]
REMARK SMILES IDX 9 1 10 2 11 3 12 4 13 5 14 6 15 7 16 8 17 9 18 10 8 11 7 12
REMARK SMILES IDX 6 13 5 14 4 15 3 16 2 17 1 18
REMARK H PARENT
REMARK Flexibility Score: inf
ROOT
ATOM      1  C   UNL     1       7.643   6.761  35.315  1.00  0.00     0.000 C 
ENDROOT
BRANCH   1   2
ATOM      2  C   UNL     1       7.515   5.267  34.970  1.00  0.00     0.000 C 
BRANCH   2   3
ATOM      3  C   UNL     1       6.400   4.564  35.759  1.00  0.00     0.000 C 
BRANCH   3   4
ATOM      4  C   UNL     1       6.949   3.955  37.058  1.00  0.00     0.000 C 
BRANCH   4   5
ATOM      5  C   UNL     1       7.139   2.433  36.963  1.00  0.00     0.000 C 
BRANCH   5   6
ATOM      6  C   UNL     1       8.578   2.038  36.597  1.00  0.00     0.006 C 
BRANCH   6   7
ATOM      7  C   UNL     1       9.557   3.168  36.931  1.00  0.00     0.053 C 
BRANCH   7   8
ATOM      8  C   UNL     1      10.733   3.133  36.006  1.00  0.00     0.041 C 
ATOM      9  O   UNL     1      10.952   4.095  35.224  1.00  0.00    -0.550 OA
ATOM     10  O   UNL     1      11.557   2.015  35.971  1.00  0.00    -0.550 OA
ENDBRANCH   7   8
ENDBRANCH   6   7
ENDBRANCH   5   6
ENDBRANCH   4   5
ENDBRANCH   3   4
ENDBRANCH   2   3
ENDBRANCH   1   2
BRANCH   1  11
ATOM     11  C   UNL     1       6.422   7.372  36.035  1.00  0.00     0.000 C 
BRANCH  11  12
ATOM     12  C   UNL     1       6.722   8.618  36.886  1.00  0.00    -0.000 C 
BRANCH  12  13
ATOM     13  C   UNL     1       5.916   9.849  36.448  1.00  0.00    -0.000 C 
BRANCH  13  14
ATOM     14  C   UNL     1       6.653  10.624  35.346  1.00  0.00    -0.000 C 
BRANCH  14  15
ATOM     15  C   UNL     1       5.909  11.899  34.919  1.00  0.00    -0.000 C 
BRANCH  15  16
ATOM     16  C   UNL     1       5.965  13.003  35.989  1.00  0.00    -0.000 C 
BRANCH  16  17
ATOM     17  C   UNL     1       5.957  14.414  35.380  1.00  0.00    -0.003 C 
ATOM     18  C   UNL     1       6.216  14.408  33.873  1.00  0.00     0.004 C 
ENDBRANCH  16  17
ENDBRANCH  15  16
ENDBRANCH  14  15
ENDBRANCH  13  14
ENDBRANCH  12  13
ENDBRANCH  11  12
ENDBRANCH   1  11
TORSDOF 14
ENDMDL
MODEL 7
REMARK VINA RESULT:    -2.541     21.494     23.593
REMARK INTER + INTRA:          -5.182
REMARK INTER:                  -3.687
REMARK INTRA:                  -1.495
REMARK UNBOUND:                -0.561
REMARK SMILES CCCCCCCCCCCCCCCC(=O)[O-]
REMARK SMILES IDX 9 1 10 2 11 3 12 4 13 5 14 6 15 7 16 8 17 9 18 10 8 11 7 12
REMARK SMILES IDX 6 13 5 14 4 15 3 16 2 17 1 18
REMARK H PARENT
REMARK Flexibility Score: inf
ROOT
ATOM      1  C   UNL     1      18.618  17.045  17.671  1.00  0.00     0.000 C 
ENDROOT
BRANCH   1   2
ATOM      2  C   UNL     1      17.448  17.950  17.246  1.00  0.00     0.000 C 
BRANCH   2   3
ATOM      3  C   UNL     1      16.876  18.774  18.409  1.00  0.00     0.000 C 
BRANCH   3   4
ATOM      4  C   UNL     1      16.302  20.107  17.906  1.00  0.00     0.000 C 
BRANCH   4   5
ATOM      5  C   UNL     1      17.390  21.161  17.648  1.00  0.00     0.000 C 
BRANCH   5   6
ATOM      6  C   UNL     1      17.718  21.991  18.898  1.00  0.00     0.006 C 
BRANCH   6   7
ATOM      7  C   UNL     1      19.223  21.980  19.183  1.00  0.00     0.053 C 
BRANCH   7   8
ATOM      8  C   UNL     1      19.527  21.119  20.368  1.00  0.00     0.041 C 
ATOM      9  O   UNL     1      19.685  19.878  20.225  1.00  0.00    -0.550 OA
ATOM     10  O   UNL     1      19.585  21.679  21.638  1.00  0.00    -0.550 OA
ENDBRANCH   7   8
ENDBRANCH   6   7
ENDBRANCH   5   6
ENDBRANCH   4   5
ENDBRANCH   3   4
ENDBRANCH   2   3
ENDBRANCH   1   2
BRANCH   1  11
ATOM     11  C   UNL     1      19.966  17.357  16.989  1.00  0.00     0.000 C 
BRANCH  11  12
ATOM     12  C   UNL     1      20.309  18.853  16.875  1.00  0.00    -0.000 C 
BRANCH  12  13
ATOM     13  C   UNL     1      21.821  19.122  16.884  1.00  0.00    -0.000 C 
BRANCH  13  14
ATOM     14  C   UNL     1      22.119  20.567  17.310  1.00  0.00    -0.000 C 
BRANCH  14  15
ATOM     15  C   UNL     1      23.624  20.851  17.426  1.00  0.00    -0.000 C 
BRANCH  15  16
ATOM     16  C   UNL     1      24.057  21.169  18.868  1.00  0.00    -0.000 C 
BRANCH  16  17
ATOM     17  C   UNL     1      25.168  20.232  19.370  1.00  0.00    -0.003 C 
ATOM     18  C   UNL     1      24.620  18.963  20.022  1.00  0.00     0.004 C 
ENDBRANCH  16  17
ENDBRANCH  15  16
ENDBRANCH  14  15
ENDBRANCH  13  14
ENDBRANCH  12  13
ENDBRANCH  11  12
ENDBRANCH   1  11
TORSDOF 14
ENDMDL
MODEL 8
REMARK VINA RESULT:    -2.200     22.173     24.442
REMARK INTER + INTRA:          -4.561
REMARK INTER:                  -3.291
REMARK INTRA:                  -1.270
REMARK UNBOUND:                -0.561
REMARK SMILES CCCCCCCCCCCCCCCC(=O)[O-]
REMARK SMILES IDX 9 1 10 2 11 3 12 4 13 5 14 6 15 7 16 8 17 9 18 10 8 11 7 12
REMARK SMILES IDX 6 13 5 14 4 15 3 16 2 17 1 18
REMARK H PARENT
REMARK Flexibility Score: inf
ROOT
ATOM      1  C   UNL     1      20.035   3.982  19.946  1.00  0.00     0.000 C 
ENDROOT
BRANCH   1   2
ATOM      2  C   UNL     1      20.628   2.711  20.579  1.00  0.00     0.000 C 
BRANCH   2   3
ATOM      3  C   UNL     1      22.145   2.590  20.369  1.00  0.00     0.000 C 
BRANCH   3   4
ATOM      4  C   UNL     1      22.854   3.906  20.725  1.00  0.00     0.000 C 
BRANCH   4   5
ATOM      5  C   UNL     1      24.134   3.685  21.546  1.00  0.00     0.000 C 
BRANCH   5   6
ATOM      6  C   UNL     1      24.751   2.297  21.319  1.00  0.00     0.006 C 
BRANCH   6   7
ATOM      7  C   UNL     1      26.125   2.193  21.988  1.00  0.00     0.053 C 
BRANCH   7   8
ATOM      8  C   UNL     1      26.063   2.697  23.396  1.00  0.00     0.041 C 
ATOM      9  O   UNL     1      25.959   1.888  24.355  1.00  0.00    -0.550 OA
ATOM     10  O   UNL     1      26.068   4.064  23.646  1.00  0.00    -0.550 OA
ENDBRANCH   7   8
ENDBRANCH   6   7
ENDBRANCH   5   6
ENDBRANCH   4   5
ENDBRANCH   3   4
ENDBRANCH   2   3
ENDBRANCH   1   2
BRANCH   1  11
ATOM     11  C   UNL     1      20.320   4.155  18.439  1.00  0.00     0.000 C 
BRANCH  11  12
ATOM     12  C   UNL     1      20.810   5.553  18.024  1.00  0.00    -0.000 C 
BRANCH  12  13
ATOM     13  C   UNL     1      21.827   5.513  16.875  1.00  0.00    -0.000 C 
BRANCH  13  14
ATOM     14  C   UNL     1      22.947   6.540  17.098  1.00  0.00    -0.000 C 
BRANCH  14  15
ATOM     15  C   UNL     1      24.347   5.906  17.067  1.00  0.00    -0.000 C 
BRANCH  15  16
ATOM     16  C   UNL     1      24.331   4.420  17.463  1.00  0.00    -0.000 C 
BRANCH  16  17
ATOM     17  C   UNL     1      25.658   3.964  18.091  1.00  0.00    -0.003 C 
ATOM     18  C   UNL     1      25.966   2.492  17.817  1.00  0.00     0.004 C 
ENDBRANCH  16  17
ENDBRANCH  15  16
ENDBRANCH  14  15
ENDBRANCH  13  14
ENDBRANCH  12  13
ENDBRANCH  11  12
ENDBRANCH   1  11
TORSDOF 14
ENDMDL
MODEL 9
REMARK VINA RESULT:    -2.078     22.284     24.700
REMARK INTER + INTRA:          -4.340
REMARK INTER:                  -3.178
REMARK INTRA:                  -1.162
REMARK UNBOUND:                -0.561
REMARK SMILES CCCCCCCCCCCCCCCC(=O)[O-]
REMARK SMILES IDX 9 1 10 2 11 3 12 4 13 5 14 6 15 7 16 8 17 9 18 10 8 11 7 12
REMARK SMILES IDX 6 13 5 14 4 15 3 16 2 17 1 18
REMARK H PARENT
REMARK Flexibility Score: inf
ROOT
ATOM      1  C   UNL     1      21.374  21.318  19.259  1.00  0.00     0.000 C 
ENDROOT
BRANCH   1   2
ATOM      2  C   UNL     1      19.914  21.802  19.204  1.00  0.00     0.000 C 
BRANCH   2   3
ATOM      3  C   UNL     1      18.959  20.913  20.014  1.00  0.00     0.000 C 
BRANCH   3   4
ATOM      4  C   UNL     1      17.901  20.273  19.103  1.00  0.00     0.000 C 
BRANCH   4   5
ATOM      5  C   UNL     1      18.203  20.475  17.610  1.00  0.00     0.000 C 
BRANCH   5   6
ATOM      6  C   UNL     1      18.956  19.287  16.992  1.00  0.00     0.006 C 
BRANCH   6   7
ATOM      7  C   UNL     1      18.093  18.022  17.012  1.00  0.00     0.053 C 
BRANCH   7   8
ATOM      8  C   UNL     1      18.944  16.808  17.211  1.00  0.00     0.041 C 
ATOM      9  O   UNL     1      18.449  15.761  17.702  1.00  0.00    -0.550 OA
ATOM     10  O   UNL     1      20.298  16.851  16.900  1.00  0.00    -0.550 OA
ENDBRANCH   7   8
ENDBRANCH   6   7
ENDBRANCH   5   6
ENDBRANCH   4   5
ENDBRANCH   3   4
ENDBRANCH   2   3
ENDBRANCH   1   2
BRANCH   1  11
ATOM     11  C   UNL     1      22.217  21.914  20.405  1.00  0.00     0.000 C 
BRANCH  11  12
ATOM     12  C   UNL     1      23.738  21.732  20.260  1.00  0.00    -0.000 C 
BRANCH  12  13
ATOM     13  C   UNL     1      24.243  20.418  20.869  1.00  0.00    -0.000 C 
BRANCH  13  14
ATOM     14  C   UNL     1      25.751  20.246  20.631  1.00  0.00    -0.000 C 
BRANCH  14  15
ATOM     15  C   UNL     1      26.125  20.296  19.142  1.00  0.00    -0.000 C 
BRANCH  15  16
ATOM     16  C   UNL     1      25.525  19.127  18.342  1.00  0.00    -0.000 C 
BRANCH  16  17
ATOM     17  C   UNL     1      25.135  19.530  16.910  1.00  0.00    -0.003 C 
ATOM     18  C   UNL     1      24.117  20.670  16.875  1.00  0.00     0.004 C 
ENDBRANCH  16  17
ENDBRANCH  15  16
ENDBRANCH  14  15
ENDBRANCH  13  14
ENDBRANCH  12  13
ENDBRANCH  11  12
ENDBRANCH   1  11
TORSDOF 14
ENDMDL
