MODEL 1
REMARK VINA RESULT:    -3.391      0.000      0.000
REMARK INTER + INTRA:         -11.446
REMARK INTER:                  -7.356
REMARK INTRA:                  -4.090
REMARK UNBOUND:                -4.090
REMARK SMILES CCCCCCCCCCCCCCCCCCCCCC(=O)[O-]
REMARK SMILES IDX 12 1 11 2 10 3 9 4 8 5 7 6 6 7 5 8 4 9 3 10 2 11 1 12 13 13
REMARK SMILES IDX 14 14 15 15 16 16 17 17 18 18 19 19 20 20 21 21 22 22 23 23
REMARK SMILES IDX 24 24
REMARK H PARENT
REMARK Flexibility Score: inf
ROOT
ATOM      1  C   UNL     1     124.310 127.153 124.793  1.00  0.00     0.000 C 
ENDROOT
BRANCH   1   2
ATOM      2  C   UNL     1     125.775 126.841 125.126  1.00  0.00     0.000 C 
BRANCH   2   3
ATOM      3  C   UNL     1     125.898 126.194 126.514  1.00  0.00     0.000 C 
BRANCH   3   4
ATOM      4  C   UNL     1     127.086 126.742 127.321  1.00  0.00    -0.000 C 
BRANCH   4   5
ATOM      5  C   UNL     1     127.225 128.270 127.205  1.00  0.00    -0.000 C 
BRANCH   5   6
ATOM      6  C   UNL     1     126.485 129.017 128.327  1.00  0.00    -0.000 C 
BRANCH   6   7
ATOM      7  C   UNL     1     125.339 129.896 127.795  1.00  0.00    -0.000 C 
BRANCH   7   8
ATOM      8  C   UNL     1     124.057 129.766 128.633  1.00  0.00    -0.000 C 
BRANCH   8   9
ATOM      9  C   UNL     1     124.342 129.541 130.126  1.00  0.00    -0.000 C 
BRANCH   9  10
ATOM     10  C   UNL     1     123.564 128.330 130.657  1.00  0.00    -0.000 C 
BRANCH  10  11
ATOM     11  C   UNL     1     123.381 127.270 129.565  1.00  0.00    -0.003 C 
ATOM     12  C   UNL     1     124.344 126.103 129.762  1.00  0.00     0.004 C 
ENDBRANCH  10  11
ENDBRANCH   9  10
ENDBRANCH   8   9
ENDBRANCH   7   8
ENDBRANCH   6   7
ENDBRANCH   5   6
ENDBRANCH   4   5
ENDBRANCH   3   4
ENDBRANCH   2   3
ENDBRANCH   1   2
BRANCH   1  13
ATOM     13  C   UNL     1     123.484 127.337 126.076  1.00  0.00     0.000 C 
BRANCH  13  14
ATOM     14  C   UNL     1     122.115 127.982 125.811  1.00  0.00     0.000 C 
BRANCH  14  15
ATOM     15  C   UNL     1     122.156 129.006 124.664  1.00  0.00     0.000 C 
BRANCH  15  16
ATOM     16  C   UNL     1     122.024 130.458 125.158  1.00  0.00     0.000 C 
BRANCH  16  17
ATOM     17  C   UNL     1     123.002 131.456 124.507  1.00  0.00     0.000 C 
BRANCH  17  18
ATOM     18  C   UNL     1     123.786 130.908 123.299  1.00  0.00     0.000 C 
BRANCH  18  19
ATOM     19  C   UNL     1     125.300 131.200 123.318  1.00  0.00     0.000 C 
BRANCH  19  20
ATOM     20  C   UNL     1     126.115 130.356 124.319  1.00  0.00     0.006 C 
BRANCH  20  21
ATOM     21  C   UNL     1     127.531 129.994 123.842  1.00  0.00     0.053 C 
BRANCH  21  22
ATOM     22  C   UNL     1     128.591 130.695 124.636  1.00  0.00     0.041 C 
ATOM     23  O   UNL     1     129.786 130.689 124.241  1.00  0.00    -0.550 OA
ATOM     24  O   UNL     1     128.255 131.366 125.806  1.00  0.00    -0.550 OA
ENDBRANCH  21  22
ENDBRANCH  20  21
ENDBRANCH  19  20
ENDBRANCH  18  19
ENDBRANCH  17  18
ENDBRANCH  16  17
ENDBRANCH  15  16
ENDBRANCH  14  15
ENDBRANCH  13  14
ENDBRANCH   1  13
TORSDOF 20
ENDMDL
MODEL 2
REMARK VINA RESULT:    -3.386     10.034     12.881
REMARK INTER + INTRA:         -11.435
REMARK INTER:                  -8.044
REMARK INTRA:                  -3.392
REMARK UNBOUND:                -4.090
REMARK SMILES CCCCCCCCCCCCCCCCCCCCCC(=O)[O-]
REMARK SMILES IDX 12 1 11 2 10 3 9 4 8 5 7 6 6 7 5 8 4 9 3 10 2 11 1 12 13 13
REMARK SMILES IDX 14 14 15 15 16 16 17 17 18 18 19 19 20 20 21 21 22 22 23 23
REMARK SMILES IDX 24 24
REMARK H PARENT
REMARK Flexibility Score: inf
ROOT
ATOM      1  C   UNL     1     128.297 121.140 119.928  1.00  0.00     0.000 C 
ENDROOT
BRANCH   1   2
ATOM      2  C   UNL     1     128.763 120.793 118.509  1.00  0.00     0.000 C 
BRANCH   2   3
ATOM      3  C   UNL     1     127.644 120.100 117.716  1.00  0.00     0.000 C 
BRANCH   3   4
ATOM      4  C   UNL     1     126.247 120.379 118.293  1.00  0.00    -0.000 C 
BRANCH   4   5
ATOM      5  C   UNL     1     125.137 119.615 117.550  1.00  0.00    -0.000 C 
BRANCH   5   6
ATOM      6  C   UNL     1     123.942 120.514 117.191  1.00  0.00    -0.000 C 
BRANCH   6   7
ATOM      7  C   UNL     1     124.334 121.997 117.070  1.00  0.00    -0.000 C 
BRANCH   7   8
ATOM      8  C   UNL     1     123.482 122.909 117.967  1.00  0.00    -0.000 C 
BRANCH   8   9
ATOM      9  C   UNL     1     122.436 122.132 118.781  1.00  0.00    -0.000 C 
BRANCH   9  10
ATOM     10  C   UNL     1     122.658 122.324 120.286  1.00  0.00    -0.000 C 
BRANCH  10  11
ATOM     11  C   UNL     1     123.587 121.242 120.849  1.00  0.00    -0.003 C 
ATOM     12  C   UNL     1     124.908 121.842 121.323  1.00  0.00     0.004 C 
ENDBRANCH  10  11
ENDBRANCH   9  10
ENDBRANCH   8   9
ENDBRANCH   7   8
ENDBRANCH   6   7
ENDBRANCH   5   6
ENDBRANCH   4   5
ENDBRANCH   3   4
ENDBRANCH   2   3
ENDBRANCH   1   2
BRANCH   1  13
ATOM     13  C   UNL     1     129.379 121.930 120.682  1.00  0.00     0.000 C 
BRANCH  13  14
ATOM     14  C   UNL     1     130.656 122.126 119.851  1.00  0.00     0.000 C 
BRANCH  14  15
ATOM     15  C   UNL     1     131.900 122.363 120.725  1.00  0.00     0.000 C 
BRANCH  15  16
ATOM     16  C   UNL     1     132.867 121.165 120.721  1.00  0.00     0.000 C 
BRANCH  16  17
ATOM     17  C   UNL     1     132.704 120.204 119.527  1.00  0.00     0.000 C 
BRANCH  17  18
ATOM     18  C   UNL     1     132.411 118.738 119.903  1.00  0.00     0.000 C 
BRANCH  18  19
ATOM     19  C   UNL     1     131.603 118.549 121.202  1.00  0.00     0.000 C 
BRANCH  19  20
ATOM     20  C   UNL     1     130.112 118.208 121.000  1.00  0.00     0.006 C 
BRANCH  20  21
ATOM     21  C   UNL     1     129.791 117.529 119.659  1.00  0.00     0.053 C 
BRANCH  21  22
ATOM     22  C   UNL     1     128.384 117.016 119.609  1.00  0.00     0.041 C 
ATOM     23  O   UNL     1     128.117 115.960 118.977  1.00  0.00    -0.550 OA
ATOM     24  O   UNL     1     127.370 117.699 120.270  1.00  0.00    -0.550 OA
ENDBRANCH  21  22
ENDBRANCH  20  21
ENDBRANCH  19  20
ENDBRANCH  18  19
ENDBRANCH  17  18
ENDBRANCH  16  17
ENDBRANCH  15  16
ENDBRANCH  14  15
ENDBRANCH  13  14
ENDBRANCH   1  13
TORSDOF 20
ENDMDL
MODEL 3
REMARK VINA RESULT:    -3.369     10.288     12.841
REMARK INTER + INTRA:         -11.397
REMARK INTER:                  -7.285
REMARK INTRA:                  -4.112
REMARK UNBOUND:                -4.090
REMARK SMILES CCCCCCCCCCCCCCCCCCCCCC(=O)[O-]
REMARK SMILES IDX 12 1 11 2 10 3 9 4 8 5 7 6 6 7 5 8 4 9 3 10 2 11 1 12 13 13
REMARK SMILES IDX 14 14 15 15 16 16 17 17 18 18 19 19 20 20 21 21 22 22 23 23
REMARK SMILES IDX 24 24
REMARK H PARENT
REMARK Flexibility Score: inf
ROOT
ATOM      1  C   UNL     1     127.627 120.504 121.589  1.00  0.00     0.000 C 
ENDROOT
BRANCH   1   2
ATOM      2  C   UNL     1     127.904 121.499 120.455  1.00  0.00     0.000 C 
BRANCH   2   3
ATOM      3  C   UNL     1     129.183 121.123 119.693  1.00  0.00     0.000 C 
BRANCH   3   4
ATOM      4  C   UNL     1     128.912 120.742 118.228  1.00  0.00    -0.000 C 
BRANCH   4   5
ATOM      5  C   UNL     1     129.580 119.415 117.828  1.00  0.00    -0.000 C 
BRANCH   5   6
ATOM      6  C   UNL     1     128.984 118.207 118.572  1.00  0.00    -0.000 C 
BRANCH   6   7
ATOM      7  C   UNL     1     130.046 117.413 119.353  1.00  0.00    -0.000 C 
BRANCH   7   8
ATOM      8  C   UNL     1     130.115 117.817 120.835  1.00  0.00    -0.000 C 
BRANCH   8   9
ATOM      9  C   UNL     1     131.383 118.615 121.174  1.00  0.00    -0.000 C 
BRANCH   9  10
ATOM     10  C   UNL     1     132.467 118.401 120.110  1.00  0.00    -0.000 C 
BRANCH  10  11
ATOM     11  C   UNL     1     132.910 119.736 119.499  1.00  0.00    -0.003 C 
ATOM     12  C   UNL     1     133.199 119.590 118.008  1.00  0.00     0.004 C 
ENDBRANCH  10  11
ENDBRANCH   9  10
ENDBRANCH   8   9
ENDBRANCH   7   8
ENDBRANCH   6   7
ENDBRANCH   5   6
ENDBRANCH   4   5
ENDBRANCH   3   4
ENDBRANCH   2   3
ENDBRANCH   1   2
BRANCH   1  13
ATOM     13  C   UNL     1     126.753 119.340 121.095  1.00  0.00     0.000 C 
BRANCH  13  14
ATOM     14  C   UNL     1     125.619 119.803 120.168  1.00  0.00     0.000 C 
BRANCH  14  15
ATOM     15  C   UNL     1     125.394 118.846 118.985  1.00  0.00     0.000 C 
BRANCH  15  16
ATOM     16  C   UNL     1     125.136 119.588 117.660  1.00  0.00     0.000 C 
BRANCH  16  17
ATOM     17  C   UNL     1     125.344 121.114 117.721  1.00  0.00     0.000 C 
BRANCH  17  18
ATOM     18  C   UNL     1     124.324 121.945 116.917  1.00  0.00     0.000 C 
BRANCH  18  19
ATOM     19  C   UNL     1     123.479 122.926 117.754  1.00  0.00     0.000 C 
BRANCH  19  20
ATOM     20  C   UNL     1     123.381 122.586 119.256  1.00  0.00     0.006 C 
BRANCH  20  21
ATOM     21  C   UNL     1     122.013 122.044 119.698  1.00  0.00     0.053 C 
BRANCH  21  22
ATOM     22  C   UNL     1     121.962 120.547 119.669  1.00  0.00     0.041 C 
ATOM     23  O   UNL     1     121.658 119.944 118.606  1.00  0.00    -0.550 OA
ATOM     24  O   UNL     1     122.264 119.817 120.812  1.00  0.00    -0.550 OA
ENDBRANCH  21  22
ENDBRANCH  20  21
ENDBRANCH  19  20
ENDBRANCH  18  19
ENDBRANCH  17  18
ENDBRANCH  16  17
ENDBRANCH  15  16
ENDBRANCH  14  15
ENDBRANCH  13  14
ENDBRANCH   1  13
TORSDOF 20
ENDMDL
MODEL 4
REMARK VINA RESULT:    -3.359      9.119     11.687
REMARK INTER + INTRA:         -11.376
REMARK INTER:                  -8.796
REMARK INTRA:                  -2.580
REMARK UNBOUND:                -4.090
REMARK SMILES CCCCCCCCCCCCCCCCCCCCCC(=O)[O-]
REMARK SMILES IDX 12 1 11 2 10 3 9 4 8 5 7 6 6 7 5 8 4 9 3 10 2 11 1 12 13 13
REMARK SMILES IDX 14 14 15 15 16 16 17 17 18 18 19 19 20 20 21 21 22 22 23 23
REMARK SMILES IDX 24 24
REMARK H PARENT
REMARK Flexibility Score: inf
ROOT
ATOM      1  C   UNL     1     125.729 119.828 117.748  1.00  0.00     0.000 C 
ENDROOT
BRANCH   1   2
ATOM      2  C   UNL     1     126.818 120.903 117.858  1.00  0.00     0.000 C 
BRANCH   2   3
ATOM      3  C   UNL     1     127.962 120.437 118.771  1.00  0.00     0.000 C 
BRANCH   3   4
ATOM      4  C   UNL     1     127.724 120.793 120.248  1.00  0.00    -0.000 C 
BRANCH   4   5
ATOM      5  C   UNL     1     128.715 121.849 120.769  1.00  0.00    -0.000 C 
BRANCH   5   6
ATOM      6  C   UNL     1     129.998 121.921 119.925  1.00  0.00    -0.000 C 
BRANCH   6   7
ATOM      7  C   UNL     1     131.139 122.659 120.647  1.00  0.00    -0.000 C 
BRANCH   7   8
ATOM      8  C   UNL     1     132.394 121.786 120.815  1.00  0.00    -0.000 C 
BRANCH   8   9
ATOM      9  C   UNL     1     132.129 120.301 120.521  1.00  0.00    -0.000 C 
BRANCH   9  10
ATOM     10  C   UNL     1     133.055 119.787 119.412  1.00  0.00    -0.000 C 
BRANCH  10  11
ATOM     11  C   UNL     1     132.261 119.048 118.329  1.00  0.00    -0.003 C 
ATOM     12  C   UNL     1     131.622 120.028 117.349  1.00  0.00     0.004 C 
ENDBRANCH  10  11
ENDBRANCH   9  10
ENDBRANCH   8   9
ENDBRANCH   7   8
ENDBRANCH   6   7
ENDBRANCH   5   6
ENDBRANCH   4   5
ENDBRANCH   3   4
ENDBRANCH   2   3
ENDBRANCH   1   2
BRANCH   1  13
ATOM     13  C   UNL     1     124.428 120.422 117.185  1.00  0.00     0.000 C 
BRANCH  13  14
ATOM     14  C   UNL     1     124.514 121.941 116.972  1.00  0.00     0.000 C 
BRANCH  14  15
ATOM     15  C   UNL     1     123.251 122.677 117.452  1.00  0.00     0.000 C 
BRANCH  15  16
ATOM     16  C   UNL     1     123.173 122.788 118.985  1.00  0.00     0.000 C 
BRANCH  16  17
ATOM     17  C   UNL     1     122.068 121.936 119.641  1.00  0.00     0.000 C 
BRANCH  17  18
ATOM     18  C   UNL     1     122.573 120.757 120.496  1.00  0.00     0.000 C 
BRANCH  18  19
ATOM     19  C   UNL     1     124.079 120.789 120.825  1.00  0.00     0.000 C 
BRANCH  19  20
ATOM     20  C   UNL     1     124.461 121.642 122.052  1.00  0.00     0.006 C 
BRANCH  20  21
ATOM     21  C   UNL     1     124.169 120.976 123.405  1.00  0.00     0.053 C 
BRANCH  21  22
ATOM     22  C   UNL     1     125.420 120.704 124.183  1.00  0.00     0.041 C 
ATOM     23  O   UNL     1     126.387 120.107 123.640  1.00  0.00    -0.550 OA
ATOM     24  O   UNL     1     125.524 121.122 125.504  1.00  0.00    -0.550 OA
ENDBRANCH  21  22
ENDBRANCH  20  21
ENDBRANCH  19  20
ENDBRANCH  18  19
ENDBRANCH  17  18
ENDBRANCH  16  17
ENDBRANCH  15  16
ENDBRANCH  14  15
ENDBRANCH  13  14
ENDBRANCH   1  13
TORSDOF 20
ENDMDL
MODEL 5
REMARK VINA RESULT:    -3.354      9.595     12.109
REMARK INTER + INTRA:         -11.365
REMARK INTER:                  -7.988
REMARK INTRA:                  -3.377
REMARK UNBOUND:                -4.090
REMARK SMILES CCCCCCCCCCCCCCCCCCCCCC(=O)[O-]
REMARK SMILES IDX 12 1 11 2 10 3 9 4 8 5 7 6 6 7 5 8 4 9 3 10 2 11 1 12 13 13
REMARK SMILES IDX 14 14 15 15 16 16 17 17 18 18 19 19 20 20 21 21 22 22 23 23
REMARK SMILES IDX 24 24
REMARK H PARENT
REMARK Flexibility Score: inf
ROOT
ATOM      1  C   UNL     1     126.324 119.340 117.960  1.00  0.00     0.000 C 
ENDROOT
BRANCH   1   2
ATOM      2  C   UNL     1     127.044 120.680 117.764  1.00  0.00     0.000 C 
BRANCH   2   3
ATOM      3  C   UNL     1     128.080 120.916 118.873  1.00  0.00     0.000 C 
BRANCH   3   4
ATOM      4  C   UNL     1     127.464 120.870 120.281  1.00  0.00    -0.000 C 
BRANCH   4   5
ATOM      5  C   UNL     1     128.147 119.835 121.193  1.00  0.00    -0.000 C 
BRANCH   5   6
ATOM      6  C   UNL     1     129.060 118.875 120.413  1.00  0.00    -0.000 C 
BRANCH   6   7
ATOM      7  C   UNL     1     130.536 118.993 120.833  1.00  0.00    -0.000 C 
BRANCH   7   8
ATOM      8  C   UNL     1     131.463 119.314 119.649  1.00  0.00    -0.000 C 
BRANCH   8   9
ATOM      9  C   UNL     1     131.683 120.823 119.460  1.00  0.00    -0.000 C 
BRANCH   9  10
ATOM     10  C   UNL     1     132.388 121.432 120.679  1.00  0.00    -0.000 C 
BRANCH  10  11
ATOM     11  C   UNL     1     131.962 122.890 120.890  1.00  0.00    -0.003 C 
ATOM     12  C   UNL     1     130.443 123.025 120.893  1.00  0.00     0.004 C 
ENDBRANCH  10  11
ENDBRANCH   9  10
ENDBRANCH   8   9
ENDBRANCH   7   8
ENDBRANCH   6   7
ENDBRANCH   5   6
ENDBRANCH   4   5
ENDBRANCH   3   4
ENDBRANCH   2   3
ENDBRANCH   1   2
BRANCH   1  13
ATOM     13  C   UNL     1     124.827 119.471 117.639  1.00  0.00     0.000 C 
BRANCH  13  14
ATOM     14  C   UNL     1     124.417 120.913 117.305  1.00  0.00     0.000 C 
BRANCH  14  15
ATOM     15  C   UNL     1     122.967 121.226 117.713  1.00  0.00     0.000 C 
BRANCH  15  16
ATOM     16  C   UNL     1     122.876 122.315 118.798  1.00  0.00     0.000 C 
BRANCH  16  17
ATOM     17  C   UNL     1     124.110 122.420 119.715  1.00  0.00     0.000 C 
BRANCH  17  18
ATOM     18  C   UNL     1     123.923 121.839 121.130  1.00  0.00     0.000 C 
BRANCH  18  19
ATOM     19  C   UNL     1     123.764 120.306 121.189  1.00  0.00     0.000 C 
BRANCH  19  20
ATOM     20  C   UNL     1     122.447 119.810 121.820  1.00  0.00     0.006 C 
BRANCH  20  21
ATOM     21  C   UNL     1     121.238 119.832 120.871  1.00  0.00     0.053 C 
BRANCH  21  22
ATOM     22  C   UNL     1     120.165 120.765 121.345  1.00  0.00     0.041 C 
ATOM     23  O   UNL     1     119.060 120.310 121.741  1.00  0.00    -0.550 OA
ATOM     24  O   UNL     1     120.392 122.136 121.362  1.00  0.00    -0.550 OA
ENDBRANCH  21  22
ENDBRANCH  20  21
ENDBRANCH  19  20
ENDBRANCH  18  19
ENDBRANCH  17  18
ENDBRANCH  16  17
ENDBRANCH  15  16
ENDBRANCH  14  15
ENDBRANCH  13  14
ENDBRANCH   1  13
TORSDOF 20
ENDMDL
MODEL 6
REMARK VINA RESULT:    -3.338      1.272      2.458
REMARK INTER + INTRA:         -11.331
REMARK INTER:                  -7.067
REMARK INTRA:                  -4.263
REMARK UNBOUND:                -4.090
REMARK SMILES CCCCCCCCCCCCCCCCCCCCCC(=O)[O-]
REMARK SMILES IDX 12 1 11 2 10 3 9 4 8 5 7 6 6 7 5 8 4 9 3 10 2 11 1 12 13 13
REMARK SMILES IDX 14 14 15 15 16 16 17 17 18 18 19 19 20 20 21 21 22 22 23 23
REMARK SMILES IDX 24 24
REMARK H PARENT
REMARK Flexibility Score: inf
ROOT
ATOM      1  C   UNL     1     125.458 126.654 125.306  1.00  0.00     0.000 C 
ENDROOT
BRANCH   1   2
ATOM      2  C   UNL     1     126.553 127.506 125.959  1.00  0.00     0.000 C 
BRANCH   2   3
ATOM      3  C   UNL     1     127.017 126.885 127.285  1.00  0.00     0.000 C 
BRANCH   3   4
ATOM      4  C   UNL     1     126.542 125.434 127.459  1.00  0.00    -0.000 C 
BRANCH   4   5
ATOM      5  C   UNL     1     125.479 125.288 128.563  1.00  0.00    -0.000 C 
BRANCH   5   6
ATOM      6  C   UNL     1     125.952 125.846 129.915  1.00  0.00    -0.000 C 
BRANCH   6   7
ATOM      7  C   UNL     1     124.866 126.672 130.626  1.00  0.00    -0.000 C 
BRANCH   7   8
ATOM      8  C   UNL     1     123.781 127.176 129.661  1.00  0.00    -0.000 C 
BRANCH   8   9
ATOM      9  C   UNL     1     123.672 128.708 129.638  1.00  0.00    -0.000 C 
BRANCH   9  10
ATOM     10  C   UNL     1     124.720 129.319 128.699  1.00  0.00    -0.000 C 
BRANCH  10  11
ATOM     11  C   UNL     1     125.645 130.279 129.456  1.00  0.00    -0.003 C 
ATOM     12  C   UNL     1     127.039 129.682 129.626  1.00  0.00     0.004 C 
ENDBRANCH  10  11
ENDBRANCH   9  10
ENDBRANCH   8   9
ENDBRANCH   7   8
ENDBRANCH   6   7
ENDBRANCH   5   6
ENDBRANCH   4   5
ENDBRANCH   3   4
ENDBRANCH   2   3
ENDBRANCH   1   2
BRANCH   1  13
ATOM     13  C   UNL     1     124.252 127.521 124.909  1.00  0.00     0.000 C 
BRANCH  13  14
ATOM     14  C   UNL     1     123.152 127.531 125.981  1.00  0.00     0.000 C 
BRANCH  14  15
ATOM     15  C   UNL     1     122.098 128.624 125.737  1.00  0.00     0.000 C 
BRANCH  15  16
ATOM     16  C   UNL     1     122.221 129.268 124.344  1.00  0.00     0.000 C 
BRANCH  16  17
ATOM     17  C   UNL     1     122.619 130.758 124.351  1.00  0.00     0.000 C 
BRANCH  17  18
ATOM     18  C   UNL     1     122.741 131.394 125.749  1.00  0.00     0.000 C 
BRANCH  18  19
ATOM     19  C   UNL     1     124.170 131.812 126.152  1.00  0.00     0.000 C 
BRANCH  19  20
ATOM     20  C   UNL     1     125.300 131.084 125.395  1.00  0.00     0.006 C 
BRANCH  20  21
ATOM     21  C   UNL     1     126.690 131.228 126.036  1.00  0.00     0.053 C 
BRANCH  21  22
ATOM     22  C   UNL     1     127.791 131.109 125.027  1.00  0.00     0.041 C 
ATOM     23  O   UNL     1     127.826 131.881 124.033  1.00  0.00    -0.550 OA
ATOM     24  O   UNL     1     128.787 130.154 125.194  1.00  0.00    -0.550 OA
ENDBRANCH  21  22
ENDBRANCH  20  21
ENDBRANCH  19  20
ENDBRANCH  18  19
ENDBRANCH  17  18
ENDBRANCH  16  17
ENDBRANCH  15  16
ENDBRANCH  14  15
ENDBRANCH  13  14
ENDBRANCH   1  13
TORSDOF 20
ENDMDL
MODEL 7
REMARK VINA RESULT:    -3.337      9.207     11.409
REMARK INTER + INTRA:         -11.329
REMARK INTER:                  -8.550
REMARK INTRA:                  -2.779
REMARK UNBOUND:                -4.090
REMARK SMILES CCCCCCCCCCCCCCCCCCCCCC(=O)[O-]
REMARK SMILES IDX 12 1 11 2 10 3 9 4 8 5 7 6 6 7 5 8 4 9 3 10 2 11 1 12 13 13
REMARK SMILES IDX 14 14 15 15 16 16 17 17 18 18 19 19 20 20 21 21 22 22 23 23
REMARK SMILES IDX 24 24
REMARK H PARENT
REMARK Flexibility Score: inf
ROOT
ATOM      1  C   UNL     1     124.165 120.283 117.327  1.00  0.00     0.000 C 
ENDROOT
BRANCH   1   2
ATOM      2  C   UNL     1     124.447 121.733 116.915  1.00  0.00     0.000 C 
BRANCH   2   3
ATOM      3  C   UNL     1     123.514 122.706 117.651  1.00  0.00     0.000 C 
BRANCH   3   4
ATOM      4  C   UNL     1     122.886 122.088 118.911  1.00  0.00    -0.000 C 
BRANCH   4   5
ATOM      5  C   UNL     1     123.493 122.647 120.210  1.00  0.00    -0.000 C 
BRANCH   5   6
ATOM      6  C   UNL     1     124.507 121.683 120.849  1.00  0.00    -0.000 C 
BRANCH   6   7
ATOM      7  C   UNL     1     123.943 120.261 121.020  1.00  0.00    -0.000 C 
BRANCH   7   8
ATOM      8  C   UNL     1     123.964 119.790 122.483  1.00  0.00    -0.000 C 
BRANCH   8   9
ATOM      9  C   UNL     1     123.182 120.723 123.420  1.00  0.00    -0.000 C 
BRANCH   9  10
ATOM     10  C   UNL     1     121.673 120.617 123.166  1.00  0.00    -0.000 C 
BRANCH  10  11
ATOM     11  C   UNL     1     121.064 121.993 122.875  1.00  0.00    -0.003 C 
ATOM     12  C   UNL     1     120.189 121.956 121.625  1.00  0.00     0.004 C 
ENDBRANCH  10  11
ENDBRANCH   9  10
ENDBRANCH   8   9
ENDBRANCH   7   8
ENDBRANCH   6   7
ENDBRANCH   5   6
ENDBRANCH   4   5
ENDBRANCH   3   4
ENDBRANCH   2   3
ENDBRANCH   1   2
BRANCH   1  13
ATOM     13  C   UNL     1     125.465 119.560 117.713  1.00  0.00     0.000 C 
BRANCH  13  14
ATOM     14  C   UNL     1     126.575 120.530 118.149  1.00  0.00     0.000 C 
BRANCH  14  15
ATOM     15  C   UNL     1     127.984 119.973 117.887  1.00  0.00     0.000 C 
BRANCH  15  16
ATOM     16  C   UNL     1     129.080 120.748 118.641  1.00  0.00     0.000 C 
BRANCH  16  17
ATOM     17  C   UNL     1     128.707 121.166 120.077  1.00  0.00     0.000 C 
BRANCH  17  18
ATOM     18  C   UNL     1     129.636 122.218 120.713  1.00  0.00     0.000 C 
BRANCH  18  19
ATOM     19  C   UNL     1     131.041 122.313 120.083  1.00  0.00     0.000 C 
BRANCH  19  20
ATOM     20  C   UNL     1     132.154 121.575 120.855  1.00  0.00     0.006 C 
BRANCH  20  21
ATOM     21  C   UNL     1     132.888 120.499 120.039  1.00  0.00     0.053 C 
BRANCH  21  22
ATOM     22  C   UNL     1     132.394 119.120 120.351  1.00  0.00     0.041 C 
ATOM     23  O   UNL     1     132.919 118.118 119.797  1.00  0.00    -0.550 OA
ATOM     24  O   UNL     1     131.363 118.939 121.265  1.00  0.00    -0.550 OA
ENDBRANCH  21  22
ENDBRANCH  20  21
ENDBRANCH  19  20
ENDBRANCH  18  19
ENDBRANCH  17  18
ENDBRANCH  16  17
ENDBRANCH  15  16
ENDBRANCH  14  15
ENDBRANCH  13  14
ENDBRANCH   1  13
TORSDOF 20
ENDMDL
MODEL 8
REMARK VINA RESULT:    -3.330      9.880     12.198
REMARK INTER + INTRA:         -11.314
REMARK INTER:                  -8.404
REMARK INTRA:                  -2.910
REMARK UNBOUND:                -4.090
REMARK SMILES CCCCCCCCCCCCCCCCCCCCCC(=O)[O-]
REMARK SMILES IDX 12 1 11 2 10 3 9 4 8 5 7 6 6 7 5 8 4 9 3 10 2 11 1 12 13 13
REMARK SMILES IDX 14 14 15 15 16 16 17 17 18 18 19 19 20 20 21 21 22 22 23 23
REMARK SMILES IDX 24 24
REMARK H PARENT
REMARK Flexibility Score: inf
ROOT
ATOM      1  C   UNL     1     128.512 121.679 121.018  1.00  0.00     0.000 C 
ENDROOT
BRANCH   1   2
ATOM      2  C   UNL     1     129.768 121.900 120.167  1.00  0.00     0.000 C 
BRANCH   2   3
ATOM      3  C   UNL     1     130.646 123.013 120.759  1.00  0.00     0.000 C 
BRANCH   3   4
ATOM      4  C   UNL     1     132.143 122.660 120.743  1.00  0.00    -0.000 C 
BRANCH   4   5
ATOM      5  C   UNL     1     132.405 121.179 121.066  1.00  0.00    -0.000 C 
BRANCH   5   6
ATOM      6  C   UNL     1     133.109 120.440 119.916  1.00  0.00    -0.000 C 
BRANCH   6   7
ATOM      7  C   UNL     1     132.566 119.015 119.709  1.00  0.00    -0.000 C 
BRANCH   7   8
ATOM      8  C   UNL     1     131.511 118.627 120.758  1.00  0.00    -0.000 C 
BRANCH   8   9
ATOM      9  C   UNL     1     130.185 118.173 120.127  1.00  0.00    -0.000 C 
BRANCH   9  10
ATOM     10  C   UNL     1     129.145 117.853 121.208  1.00  0.00    -0.000 C 
BRANCH  10  11
ATOM     11  C   UNL     1     128.183 116.755 120.738  1.00  0.00    -0.003 C 
ATOM     12  C   UNL     1     126.841 117.343 120.312  1.00  0.00     0.004 C 
ENDBRANCH  10  11
ENDBRANCH   9  10
ENDBRANCH   8   9
ENDBRANCH   7   8
ENDBRANCH   6   7
ENDBRANCH   5   6
ENDBRANCH   4   5
ENDBRANCH   3   4
ENDBRANCH   2   3
ENDBRANCH   1   2
BRANCH   1  13
ATOM     13  C   UNL     1     127.413 120.979 120.202  1.00  0.00     0.000 C 
BRANCH  13  14
ATOM     14  C   UNL     1     127.874 120.610 118.784  1.00  0.00     0.000 C 
BRANCH  14  15
ATOM     15  C   UNL     1     126.807 120.913 117.718  1.00  0.00     0.000 C 
BRANCH  15  16
ATOM     16  C   UNL     1     125.650 119.898 117.728  1.00  0.00     0.000 C 
BRANCH  16  17
ATOM     17  C   UNL     1     124.290 120.462 117.269  1.00  0.00     0.000 C 
BRANCH  17  18
ATOM     18  C   UNL     1     124.276 121.975 116.976  1.00  0.00     0.000 C 
BRANCH  18  19
ATOM     19  C   UNL     1     123.266 122.790 117.810  1.00  0.00     0.000 C 
BRANCH  19  20
ATOM     20  C   UNL     1     123.476 122.722 119.336  1.00  0.00     0.006 C 
BRANCH  20  21
ATOM     21  C   UNL     1     122.322 122.063 120.108  1.00  0.00     0.053 C 
BRANCH  21  22
ATOM     22  C   UNL     1     122.712 120.735 120.681  1.00  0.00     0.041 C 
ATOM     23  O   UNL     1     123.926 120.417 120.775  1.00  0.00    -0.550 OA
ATOM     24  O   UNL     1     121.733 119.852 121.123  1.00  0.00    -0.550 OA
ENDBRANCH  21  22
ENDBRANCH  20  21
ENDBRANCH  19  20
ENDBRANCH  18  19
ENDBRANCH  17  18
ENDBRANCH  16  17
ENDBRANCH  15  16
ENDBRANCH  14  15
ENDBRANCH  13  14
ENDBRANCH   1  13
TORSDOF 20
ENDMDL
MODEL 9
REMARK VINA RESULT:    -3.283      9.687     12.432
REMARK INTER + INTRA:         -11.212
REMARK INTER:                  -8.200
REMARK INTRA:                  -3.012
REMARK UNBOUND:                -4.090
REMARK SMILES CCCCCCCCCCCCCCCCCCCCCC(=O)[O-]
REMARK SMILES IDX 12 1 11 2 10 3 9 4 8 5 7 6 6 7 5 8 4 9 3 10 2 11 1 12 13 13
REMARK SMILES IDX 14 14 15 15 16 16 17 17 18 18 19 19 20 20 21 21 22 22 23 23
REMARK SMILES IDX 24 24
REMARK H PARENT
REMARK Flexibility Score: inf
ROOT
ATOM      1  C   UNL     1     126.097 119.682 119.557  1.00  0.00     0.000 C 
ENDROOT
BRANCH   1   2
ATOM      2  C   UNL     1     126.227 121.001 120.329  1.00  0.00     0.000 C 
BRANCH   2   3
ATOM      3  C   UNL     1     127.518 121.026 121.161  1.00  0.00     0.000 C 
BRANCH   3   4
ATOM      4  C   UNL     1     128.679 120.285 120.478  1.00  0.00    -0.000 C 
BRANCH   4   5
ATOM      5  C   UNL     1     129.500 121.199 119.551  1.00  0.00    -0.000 C 
BRANCH   5   6
ATOM      6  C   UNL     1     129.342 120.828 118.067  1.00  0.00    -0.000 C 
BRANCH   6   7
ATOM      7  C   UNL     1     129.327 119.306 117.837  1.00  0.00    -0.000 C 
BRANCH   7   8
ATOM      8  C   UNL     1     130.734 118.687 117.889  1.00  0.00    -0.000 C 
BRANCH   8   9
ATOM      9  C   UNL     1     131.779 119.524 117.136  1.00  0.00    -0.000 C 
BRANCH   9  10
ATOM     10  C   UNL     1     133.075 119.644 117.947  1.00  0.00    -0.000 C 
BRANCH  10  11
ATOM     11  C   UNL     1     132.828 119.339 119.429  1.00  0.00    -0.003 C 
ATOM     12  C   UNL     1     132.914 120.606 120.274  1.00  0.00     0.004 C 
ENDBRANCH  10  11
ENDBRANCH   9  10
ENDBRANCH   8   9
ENDBRANCH   7   8
ENDBRANCH   6   7
ENDBRANCH   5   6
ENDBRANCH   4   5
ENDBRANCH   3   4
ENDBRANCH   2   3
ENDBRANCH   1   2
BRANCH   1  13
ATOM     13  C   UNL     1     125.637 119.936 118.113  1.00  0.00     0.000 C 
BRANCH  13  14
ATOM     14  C   UNL     1     125.634 121.428 117.746  1.00  0.00     0.000 C 
BRANCH  14  15
ATOM     15  C   UNL     1     124.540 121.784 116.725  1.00  0.00     0.000 C 
BRANCH  15  16
ATOM     16  C   UNL     1     123.308 122.438 117.377  1.00  0.00     0.000 C 
BRANCH  16  17
ATOM     17  C   UNL     1     123.453 122.737 118.882  1.00  0.00     0.000 C 
BRANCH  17  18
ATOM     18  C   UNL     1     122.280 122.256 119.760  1.00  0.00     0.000 C 
BRANCH  18  19
ATOM     19  C   UNL     1     122.514 120.912 120.479  1.00  0.00     0.000 C 
BRANCH  19  20
ATOM     20  C   UNL     1     121.344 120.434 121.363  1.00  0.00     0.006 C 
BRANCH  20  21
ATOM     21  C   UNL     1     120.307 121.520 121.690  1.00  0.00     0.053 C 
BRANCH  21  22
ATOM     22  C   UNL     1     120.492 122.081 123.067  1.00  0.00     0.041 C 
ATOM     23  O   UNL     1     121.577 122.635 123.385  1.00  0.00    -0.550 OA
ATOM     24  O   UNL     1     119.460 122.004 123.994  1.00  0.00    -0.550 OA
ENDBRANCH  21  22
ENDBRANCH  20  21
ENDBRANCH  19  20
ENDBRANCH  18  19
ENDBRANCH  17  18
ENDBRANCH  16  17
ENDBRANCH  15  16
ENDBRANCH  14  15
ENDBRANCH  13  14
ENDBRANCH   1  13
TORSDOF 20
ENDMDL
