MODEL 1
REMARK VINA RESULT:     7.548      0.000      0.000
REMARK INTER + INTRA:          13.522
REMARK INTER:                  14.608
REMARK INTRA:                  -1.086
REMARK UNBOUND:                -1.086
REMARK SMILES CCCCCCCCCCCCCCCCCC(=O)[O-]
REMARK SMILES IDX 10 1 11 2 12 3 13 4 14 5 15 6 16 7 17 8 18 9 19 10 20 11
REMARK SMILES IDX 9 12 8 13 7 14 6 15 5 16 4 17 3 18 2 19 1 20
REMARK H PARENT
REMARK Flexibility Score: inf
ROOT
ATOM      1  C   UNL     1      17.502  14.031 -13.346  1.00  0.00     0.000 C 
ENDROOT
BRANCH   1   2
ATOM      2  C   UNL     1      16.076  14.610 -13.274  1.00  0.00     0.000 C 
BRANCH   2   3
ATOM      3  C   UNL     1      15.302  14.269 -11.989  1.00  0.00     0.000 C 
BRANCH   3   4
ATOM      4  C   UNL     1      14.929  15.480 -11.113  1.00  0.00     0.000 C 
BRANCH   4   5
ATOM      5  C   UNL     1      14.560  15.110  -9.660  1.00  0.00     0.000 C 
BRANCH   5   6
ATOM      6  C   UNL     1      15.567  15.667  -8.639  1.00  0.00     0.000 C 
BRANCH   6   7
ATOM      7  C   UNL     1      14.949  15.870  -7.242  1.00  0.00     0.006 C 
BRANCH   7   8
ATOM      8  C   UNL     1      13.518  16.430  -7.261  1.00  0.00     0.053 C 
BRANCH   8   9
ATOM      9  C   UNL     1      13.302  17.462  -6.196  1.00  0.00     0.041 C 
ATOM     10  O   UNL     1      12.417  17.289  -5.317  1.00  0.00    -0.550 OA
ATOM     11  O   UNL     1      14.089  18.606  -6.166  1.00  0.00    -0.550 OA
ENDBRANCH   8   9
ENDBRANCH   7   8
ENDBRANCH   6   7
ENDBRANCH   5   6
ENDBRANCH   4   5
ENDBRANCH   3   4
ENDBRANCH   2   3
ENDBRANCH   1   2
BRANCH   1  12
ATOM     12  C   UNL     1      18.613  15.098 -13.232  1.00  0.00     0.000 C 
BRANCH  12  13
ATOM     13  C   UNL     1      18.046  16.523 -13.117  1.00  0.00    -0.000 C 
BRANCH  13  14
ATOM     14  C   UNL     1      18.954  17.454 -12.282  1.00  0.00    -0.000 C 
BRANCH  14  15
ATOM     15  C   UNL     1      18.262  18.038 -11.036  1.00  0.00    -0.000 C 
BRANCH  15  16
ATOM     16  C   UNL     1      17.997  19.555 -11.089  1.00  0.00    -0.000 C 
BRANCH  16  17
ATOM     17  C   UNL     1      18.449  20.250 -12.386  1.00  0.00    -0.000 C 
BRANCH  17  18
ATOM     18  C   UNL     1      19.448  21.389 -12.138  1.00  0.00    -0.000 C 
BRANCH  18  19
ATOM     19  C   UNL     1      20.837  21.029 -12.682  1.00  0.00    -0.003 C 
ATOM     20  C   UNL     1      21.355  19.736 -12.060  1.00  0.00     0.004 C 
ENDBRANCH  18  19
ENDBRANCH  17  18
ENDBRANCH  16  17
ENDBRANCH  15  16
ENDBRANCH  14  15
ENDBRANCH  13  14
ENDBRANCH  12  13
ENDBRANCH   1  12
TORSDOF 16
ENDMDL
MODEL 2
REMARK VINA RESULT:     7.576      3.181      6.974
REMARK INTER + INTRA:          13.576
REMARK INTER:                  14.741
REMARK INTRA:                  -1.165
REMARK UNBOUND:                -1.086
REMARK SMILES CCCCCCCCCCCCCCCCCC(=O)[O-]
REMARK SMILES IDX 10 1 11 2 12 3 13 4 14 5 15 6 16 7 17 8 18 9 19 10 20 11
REMARK SMILES IDX 9 12 8 13 7 14 6 15 5 16 4 17 3 18 2 19 1 20
REMARK H PARENT
REMARK Flexibility Score: inf
ROOT
ATOM      1  C   UNL     1      16.283  14.315 -13.619  1.00  0.00     0.000 C 
ENDROOT
BRANCH   1   2
ATOM      2  C   UNL     1      17.713  13.863 -13.270  1.00  0.00     0.000 C 
BRANCH   2   3
ATOM      3  C   UNL     1      18.770  14.980 -13.291  1.00  0.00     0.000 C 
BRANCH   3   4
ATOM      4  C   UNL     1      18.220  16.401 -13.054  1.00  0.00     0.000 C 
BRANCH   4   5
ATOM      5  C   UNL     1      19.074  17.247 -12.086  1.00  0.00     0.000 C 
BRANCH   5   6
ATOM      6  C   UNL     1      18.231  17.891 -10.970  1.00  0.00     0.000 C 
BRANCH   6   7
ATOM      7  C   UNL     1      17.874  19.360 -11.266  1.00  0.00     0.006 C 
BRANCH   7   8
ATOM      8  C   UNL     1      18.478  19.906 -12.570  1.00  0.00     0.053 C 
BRANCH   8   9
ATOM      9  C   UNL     1      19.657  20.795 -12.317  1.00  0.00     0.041 C 
ATOM     10  O   UNL     1      19.486  22.013 -12.047  1.00  0.00    -0.550 OA
ATOM     11  O   UNL     1      20.945  20.274 -12.364  1.00  0.00    -0.550 OA
ENDBRANCH   8   9
ENDBRANCH   7   8
ENDBRANCH   6   7
ENDBRANCH   5   6
ENDBRANCH   4   5
ENDBRANCH   3   4
ENDBRANCH   2   3
ENDBRANCH   1   2
BRANCH   1  12
ATOM     12  C   UNL     1      15.293  14.213 -12.438  1.00  0.00     0.000 C 
BRANCH  12  13
ATOM     13  C   UNL     1      15.269  15.492 -11.582  1.00  0.00    -0.000 C 
BRANCH  13  14
ATOM     14  C   UNL     1      14.780  15.228 -10.140  1.00  0.00    -0.000 C 
BRANCH  14  15
ATOM     15  C   UNL     1      15.645  15.904  -9.060  1.00  0.00    -0.000 C 
BRANCH  15  16
ATOM     16  C   UNL     1      15.363  15.443  -7.617  1.00  0.00    -0.000 C 
BRANCH  16  17
ATOM     17  C   UNL     1      14.107  16.055  -6.971  1.00  0.00    -0.000 C 
BRANCH  17  18
ATOM     18  C   UNL     1      14.305  17.517  -6.544  1.00  0.00    -0.000 C 
BRANCH  18  19
ATOM     19  C   UNL     1      13.056  18.057  -5.838  1.00  0.00    -0.003 C 
ATOM     20  C   UNL     1      12.095  16.929  -5.477  1.00  0.00     0.004 C 
ENDBRANCH  18  19
ENDBRANCH  17  18
ENDBRANCH  16  17
ENDBRANCH  15  16
ENDBRANCH  14  15
ENDBRANCH  13  14
ENDBRANCH  12  13
ENDBRANCH   1  12
TORSDOF 16
ENDMDL
MODEL 3
REMARK VINA RESULT:     8.294      4.897      8.221
REMARK INTER + INTRA:          14.965
REMARK INTER:                  15.651
REMARK INTRA:                  -0.686
REMARK UNBOUND:                -1.086
REMARK SMILES CCCCCCCCCCCCCCCCCC(=O)[O-]
REMARK SMILES IDX 10 1 11 2 12 3 13 4 14 5 15 6 16 7 17 8 18 9 19 10 20 11
REMARK SMILES IDX 9 12 8 13 7 14 6 15 5 16 4 17 3 18 2 19 1 20
REMARK H PARENT
REMARK Flexibility Score: inf
ROOT
ATOM      1  C   UNL     1      11.931  16.308  -5.717  1.00  0.00     0.000 C 
ENDROOT
BRANCH   1   2
ATOM      2  C   UNL     1      11.886  15.642  -4.328  1.00  0.00     0.000 C 
BRANCH   2   3
ATOM      3  C   UNL     1      10.793  14.574  -4.157  1.00  0.00     0.000 C 
BRANCH   3   4
ATOM      4  C   UNL     1      11.043  13.564  -3.019  1.00  0.00     0.000 C 
BRANCH   4   5
ATOM      5  C   UNL     1      11.445  14.218  -1.680  1.00  0.00     0.000 C 
BRANCH   5   6
ATOM      6  C   UNL     1      10.376  14.026  -0.589  1.00  0.00     0.000 C 
BRANCH   6   7
ATOM      7  C   UNL     1      10.984  13.715   0.792  1.00  0.00     0.006 C 
BRANCH   7   8
ATOM      8  C   UNL     1      10.396  14.550   1.941  1.00  0.00     0.053 C 
BRANCH   8   9
ATOM      9  C   UNL     1      10.374  16.014   1.622  1.00  0.00     0.041 C 
ATOM     10  O   UNL     1      11.453  16.639   1.441  1.00  0.00    -0.550 OA
ATOM     11  O   UNL     1       9.162  16.684   1.508  1.00  0.00    -0.550 OA
ENDBRANCH   8   9
ENDBRANCH   7   8
ENDBRANCH   6   7
ENDBRANCH   5   6
ENDBRANCH   4   5
ENDBRANCH   3   4
ENDBRANCH   2   3
ENDBRANCH   1   2
BRANCH   1  12
ATOM     12  C   UNL     1      12.795  17.587  -5.766  1.00  0.00     0.000 C 
BRANCH  12  13
ATOM     13  C   UNL     1      14.118  17.371  -6.521  1.00  0.00    -0.000 C 
BRANCH  13  14
ATOM     14  C   UNL     1      14.156  16.020  -7.269  1.00  0.00    -0.000 C 
BRANCH  14  15
ATOM     15  C   UNL     1      15.251  15.941  -8.350  1.00  0.00    -0.000 C 
BRANCH  15  16
ATOM     16  C   UNL     1      14.827  15.245  -9.657  1.00  0.00    -0.000 C 
BRANCH  16  17
ATOM     17  C   UNL     1      15.603  15.687 -10.912  1.00  0.00    -0.000 C 
BRANCH  17  18
ATOM     18  C   UNL     1      15.518  14.668 -12.057  1.00  0.00    -0.000 C 
BRANCH  18  19
ATOM     19  C   UNL     1      16.274  15.169 -13.294  1.00  0.00    -0.003 C 
ATOM     20  C   UNL     1      17.683  15.629 -12.931  1.00  0.00     0.004 C 
ENDBRANCH  18  19
ENDBRANCH  17  18
ENDBRANCH  16  17
ENDBRANCH  15  16
ENDBRANCH  14  15
ENDBRANCH  13  14
ENDBRANCH  12  13
ENDBRANCH   1  12
TORSDOF 16
ENDMDL
MODEL 4
REMARK VINA RESULT:     8.546      6.383     10.453
REMARK INTER + INTRA:          15.452
REMARK INTER:                  16.576
REMARK INTRA:                  -1.124
REMARK UNBOUND:                -1.086
REMARK SMILES CCCCCCCCCCCCCCCCCC(=O)[O-]
REMARK SMILES IDX 10 1 11 2 12 3 13 4 14 5 15 6 16 7 17 8 18 9 19 10 20 11
REMARK SMILES IDX 9 12 8 13 7 14 6 15 5 16 4 17 3 18 2 19 1 20
REMARK H PARENT
REMARK Flexibility Score: inf
ROOT
ATOM      1  C   UNL     1      10.768  13.928  -2.372  1.00  0.00     0.000 C 
ENDROOT
BRANCH   1   2
ATOM      2  C   UNL     1      11.168  12.875  -1.320  1.00  0.00     0.000 C 
BRANCH   2   3
ATOM      3  C   UNL     1      12.455  13.194  -0.541  1.00  0.00     0.000 C 
BRANCH   3   4
ATOM      4  C   UNL     1      12.255  13.465   0.964  1.00  0.00     0.000 C 
BRANCH   4   5
ATOM      5  C   UNL     1      11.271  14.615   1.266  1.00  0.00     0.000 C 
BRANCH   5   6
ATOM      6  C   UNL     1      10.074  14.154   2.118  1.00  0.00     0.000 C 
BRANCH   6   7
ATOM      7  C   UNL     1       8.729  14.295   1.381  1.00  0.00     0.006 C 
BRANCH   7   8
ATOM      8  C   UNL     1       8.529  15.652   0.687  1.00  0.00     0.053 C 
BRANCH   8   9
ATOM      9  C   UNL     1       8.417  16.778   1.671  1.00  0.00     0.041 C 
ATOM     10  O   UNL     1       7.291  17.114   2.123  1.00  0.00    -0.550 OA
ATOM     11  O   UNL     1       9.559  17.444   2.099  1.00  0.00    -0.550 OA
ENDBRANCH   8   9
ENDBRANCH   7   8
ENDBRANCH   6   7
ENDBRANCH   5   6
ENDBRANCH   4   5
ENDBRANCH   3   4
ENDBRANCH   2   3
ENDBRANCH   1   2
BRANCH   1  12
ATOM     12  C   UNL     1      10.796  13.399  -3.823  1.00  0.00     0.000 C 
BRANCH  12  13
ATOM     13  C   UNL     1      10.630  14.525  -4.859  1.00  0.00    -0.000 C 
BRANCH  13  14
ATOM     14  C   UNL     1      11.856  15.464  -4.911  1.00  0.00    -0.000 C 
BRANCH  14  15
ATOM     15  C   UNL     1      11.835  16.444  -6.100  1.00  0.00    -0.000 C 
BRANCH  15  16
ATOM     16  C   UNL     1      12.650  17.735  -5.895  1.00  0.00    -0.000 C 
BRANCH  16  17
ATOM     17  C   UNL     1      14.036  17.744  -6.566  1.00  0.00    -0.000 C 
BRANCH  17  18
ATOM     18  C   UNL     1      14.267  16.530  -7.477  1.00  0.00    -0.000 C 
BRANCH  18  19
ATOM     19  C   UNL     1      15.573  15.813  -7.117  1.00  0.00    -0.003 C 
ATOM     20  C   UNL     1      15.678  14.467  -7.827  1.00  0.00     0.004 C 
ENDBRANCH  18  19
ENDBRANCH  17  18
ENDBRANCH  16  17
ENDBRANCH  15  16
ENDBRANCH  14  15
ENDBRANCH  13  14
ENDBRANCH  12  13
ENDBRANCH   1  12
TORSDOF 16
ENDMDL
MODEL 5
REMARK VINA RESULT:     9.148      4.681      8.782
REMARK INTER + INTRA:          16.619
REMARK INTER:                  17.244
REMARK INTRA:                  -0.625
REMARK UNBOUND:                -1.086
REMARK SMILES CCCCCCCCCCCCCCCCCC(=O)[O-]
REMARK SMILES IDX 10 1 11 2 12 3 13 4 14 5 15 6 16 7 17 8 18 9 19 10 20 11
REMARK SMILES IDX 9 12 8 13 7 14 6 15 5 16 4 17 3 18 2 19 1 20
REMARK H PARENT
REMARK Flexibility Score: inf
ROOT
ATOM      1  C   UNL     1      18.225  17.052 -13.180  1.00  0.00     0.000 C 
ENDROOT
BRANCH   1   2
ATOM      2  C   UNL     1      18.561  17.867 -11.916  1.00  0.00     0.000 C 
BRANCH   2   3
ATOM      3  C   UNL     1      19.302  19.190 -12.175  1.00  0.00     0.000 C 
BRANCH   3   4
ATOM      4  C   UNL     1      18.435  20.315 -12.776  1.00  0.00     0.000 C 
BRANCH   4   5
ATOM      5  C   UNL     1      19.099  21.707 -12.727  1.00  0.00     0.000 C 
BRANCH   5   6
ATOM      6  C   UNL     1      18.140  22.830 -13.162  1.00  0.00     0.000 C 
BRANCH   6   7
ATOM      7  C   UNL     1      18.870  24.018 -13.816  1.00  0.00     0.006 C 
BRANCH   7   8
ATOM      8  C   UNL     1      17.965  24.924 -14.666  1.00  0.00     0.053 C 
BRANCH   8   9
ATOM      9  C   UNL     1      18.717  25.585 -15.781  1.00  0.00     0.041 C 
ATOM     10  O   UNL     1      18.247  26.610 -16.342  1.00  0.00    -0.550 OA
ATOM     11  O   UNL     1      19.944  25.078 -16.190  1.00  0.00    -0.550 OA
ENDBRANCH   8   9
ENDBRANCH   7   8
ENDBRANCH   6   7
ENDBRANCH   5   6
ENDBRANCH   4   5
ENDBRANCH   3   4
ENDBRANCH   2   3
ENDBRANCH   1   2
BRANCH   1  12
ATOM     12  C   UNL     1      17.659  15.647 -12.881  1.00  0.00     0.000 C 
BRANCH  12  13
ATOM     13  C   UNL     1      16.121  15.632 -12.842  1.00  0.00    -0.000 C 
BRANCH  13  14
ATOM     14  C   UNL     1      15.565  14.561 -11.877  1.00  0.00    -0.000 C 
BRANCH  14  15
ATOM     15  C   UNL     1      14.759  15.144 -10.702  1.00  0.00    -0.000 C 
BRANCH  15  16
ATOM     16  C   UNL     1      15.599  15.860  -9.627  1.00  0.00    -0.000 C 
BRANCH  16  17
ATOM     17  C   UNL     1      15.249  15.490  -8.173  1.00  0.00    -0.000 C 
BRANCH  17  18
ATOM     18  C   UNL     1      13.987  16.199  -7.663  1.00  0.00    -0.000 C 
BRANCH  18  19
ATOM     19  C   UNL     1      14.294  17.038  -6.417  1.00  0.00    -0.003 C 
ATOM     20  C   UNL     1      13.027  17.679  -5.858  1.00  0.00     0.004 C 
ENDBRANCH  18  19
ENDBRANCH  17  18
ENDBRANCH  16  17
ENDBRANCH  15  16
ENDBRANCH  14  15
ENDBRANCH  13  14
ENDBRANCH  12  13
ENDBRANCH   1  12
TORSDOF 16
ENDMDL
MODEL 6
REMARK VINA RESULT:     9.344      5.103      9.533
REMARK INTER + INTRA:          16.998
REMARK INTER:                  17.753
REMARK INTRA:                  -0.755
REMARK UNBOUND:                -1.086
REMARK SMILES CCCCCCCCCCCCCCCCCC(=O)[O-]
REMARK SMILES IDX 10 1 11 2 12 3 13 4 14 5 15 6 16 7 17 8 18 9 19 10 20 11
REMARK SMILES IDX 9 12 8 13 7 14 6 15 5 16 4 17 3 18 2 19 1 20
REMARK H PARENT
REMARK Flexibility Score: inf
ROOT
ATOM      1  C   UNL     1      19.361  21.428 -12.190  1.00  0.00     0.000 C 
ENDROOT
BRANCH   1   2
ATOM      2  C   UNL     1      20.741  20.745 -12.150  1.00  0.00     0.000 C 
BRANCH   2   3
ATOM      3  C   UNL     1      21.622  20.991 -13.386  1.00  0.00     0.000 C 
BRANCH   3   4
ATOM      4  C   UNL     1      22.017  22.463 -13.622  1.00  0.00     0.000 C 
BRANCH   4   5
ATOM      5  C   UNL     1      22.442  22.770 -15.073  1.00  0.00     0.000 C 
BRANCH   5   6
ATOM      6  C   UNL     1      22.026  24.184 -15.519  1.00  0.00     0.000 C 
BRANCH   6   7
ATOM      7  C   UNL     1      20.508  24.421 -15.408  1.00  0.00     0.006 C 
BRANCH   7   8
ATOM      8  C   UNL     1      19.999  25.631 -16.208  1.00  0.00     0.053 C 
BRANCH   8   9
ATOM      9  C   UNL     1      18.573  25.961 -15.884  1.00  0.00     0.041 C 
ATOM     10  O   UNL     1      17.893  25.188 -15.159  1.00  0.00    -0.550 OA
ATOM     11  O   UNL     1      18.001  27.130 -16.370  1.00  0.00    -0.550 OA
ENDBRANCH   8   9
ENDBRANCH   7   8
ENDBRANCH   6   7
ENDBRANCH   5   6
ENDBRANCH   4   5
ENDBRANCH   3   4
ENDBRANCH   2   3
ENDBRANCH   1   2
BRANCH   1  12
ATOM     12  C   UNL     1      18.208  20.480 -12.584  1.00  0.00     0.000 C 
BRANCH  12  13
ATOM     13  C   UNL     1      18.694  19.042 -12.838  1.00  0.00    -0.000 C 
BRANCH  13  14
ATOM     14  C   UNL     1      18.720  18.192 -11.548  1.00  0.00    -0.000 C 
BRANCH  14  15
ATOM     15  C   UNL     1      18.356  16.712 -11.774  1.00  0.00    -0.000 C 
BRANCH  15  16
ATOM     16  C   UNL     1      17.276  16.463 -12.844  1.00  0.00    -0.000 C 
BRANCH  16  17
ATOM     17  C   UNL     1      16.949  14.982 -13.107  1.00  0.00    -0.000 C 
BRANCH  17  18
ATOM     18  C   UNL     1      18.031  14.266 -13.927  1.00  0.00    -0.000 C 
BRANCH  18  19
ATOM     19  C   UNL     1      18.803  13.263 -13.061  1.00  0.00    -0.003 C 
ATOM     20  C   UNL     1      20.163  13.821 -12.650  1.00  0.00     0.004 C 
ENDBRANCH  18  19
ENDBRANCH  17  18
ENDBRANCH  16  17
ENDBRANCH  15  16
ENDBRANCH  14  15
ENDBRANCH  13  14
ENDBRANCH  12  13
ENDBRANCH   1  12
TORSDOF 16
ENDMDL
MODEL 7
REMARK VINA RESULT:     9.714      4.795      9.637
REMARK INTER + INTRA:          17.714
REMARK INTER:                  18.435
REMARK INTRA:                  -0.720
REMARK UNBOUND:                -1.086
REMARK SMILES CCCCCCCCCCCCCCCCCC(=O)[O-]
REMARK SMILES IDX 10 1 11 2 12 3 13 4 14 5 15 6 16 7 17 8 18 9 19 10 20 11
REMARK SMILES IDX 9 12 8 13 7 14 6 15 5 16 4 17 3 18 2 19 1 20
REMARK H PARENT
REMARK Flexibility Score: inf
ROOT
ATOM      1  C   UNL     1      19.658  21.549 -12.246  1.00  0.00     0.000 C 
ENDROOT
BRANCH   1   2
ATOM      2  C   UNL     1      20.807  20.545 -12.466  1.00  0.00     0.000 C 
BRANCH   2   3
ATOM      3  C   UNL     1      21.769  20.901 -13.612  1.00  0.00     0.000 C 
BRANCH   3   4
ATOM      4  C   UNL     1      22.007  22.410 -13.817  1.00  0.00     0.000 C 
BRANCH   4   5
ATOM      5  C   UNL     1      22.407  22.789 -15.259  1.00  0.00     0.000 C 
BRANCH   5   6
ATOM      6  C   UNL     1      22.196  24.285 -15.553  1.00  0.00     0.000 C 
BRANCH   6   7
ATOM      7  C   UNL     1      20.803  24.785 -15.128  1.00  0.00     0.006 C 
BRANCH   7   8
ATOM      8  C   UNL     1      19.960  25.356 -16.280  1.00  0.00     0.053 C 
BRANCH   8   9
ATOM      9  C   UNL     1      18.591  25.766 -15.828  1.00  0.00     0.041 C 
ATOM     10  O   UNL     1      18.050  26.800 -16.302  1.00  0.00    -0.550 OA
ATOM     11  O   UNL     1      17.906  24.996 -14.895  1.00  0.00    -0.550 OA
ENDBRANCH   8   9
ENDBRANCH   7   8
ENDBRANCH   6   7
ENDBRANCH   5   6
ENDBRANCH   4   5
ENDBRANCH   3   4
ENDBRANCH   2   3
ENDBRANCH   1   2
BRANCH   1  12
ATOM     12  C   UNL     1      18.277  21.021 -12.691  1.00  0.00     0.000 C 
BRANCH  12  13
ATOM     13  C   UNL     1      18.271  19.495 -12.893  1.00  0.00    -0.000 C 
BRANCH  13  14
ATOM     14  C   UNL     1      18.417  18.724 -11.562  1.00  0.00    -0.000 C 
BRANCH  14  15
ATOM     15  C   UNL     1      18.671  17.215 -11.746  1.00  0.00    -0.000 C 
BRANCH  15  16
ATOM     16  C   UNL     1      17.975  16.581 -12.965  1.00  0.00    -0.000 C 
BRANCH  16  17
ATOM     17  C   UNL     1      18.472  15.172 -13.339  1.00  0.00    -0.000 C 
BRANCH  17  18
ATOM     18  C   UNL     1      17.359  14.116 -13.306  1.00  0.00    -0.000 C 
BRANCH  18  19
ATOM     19  C   UNL     1      16.008  14.753 -12.955  1.00  0.00    -0.003 C 
ATOM     20  C   UNL     1      15.142  13.797 -12.141  1.00  0.00     0.004 C 
ENDBRANCH  18  19
ENDBRANCH  17  18
ENDBRANCH  16  17
ENDBRANCH  15  16
ENDBRANCH  14  15
ENDBRANCH  13  14
ENDBRANCH  12  13
ENDBRANCH   1  12
TORSDOF 16
ENDMDL
