MODEL 1
REMARK VINA RESULT:    -7.689      0.000      0.000
REMARK INTER + INTRA:          -9.311
REMARK INTER:                  -9.263
REMARK INTRA:                  -0.048
REMARK UNBOUND:                -0.048
REMARK SMILES Oc1cc(O)c2cc(O)c(-c3ccc(O)c(O)c3)[o+]c2c1.[Cl-]
REMARK SMILES IDX 10 1 19 2 20 3 21 4 2 5 3 6 4 7 6 8 7 9 8 10 11 11 12 12
REMARK SMILES IDX 13 13 14 14 18 15 16 16 15 17 17 19 9 21 1 23 5 25
REMARK H PARENT 15 18 17 20 9 22 1 24 5 26
REMARK Flexibility Score: inf
ROOT
ATOM      1  C   UNL     1      49.692 -39.677  -3.408  1.00  0.00     0.402 A 
ATOM      2  O   UNL     1      48.741 -40.019  -2.543  1.00  0.00    -0.202 OA
ATOM      3  C   UNL     1      47.443 -39.882  -2.793  1.00  0.00     0.368 A 
ATOM      4  C   UNL     1      46.518 -40.273  -1.821  1.00  0.00     0.162 A 
ATOM      5  C   UNL     1      45.150 -40.144  -2.058  1.00  0.00     0.128 A 
ATOM      6  C   UNL     1      44.699 -39.620  -3.275  1.00  0.00     0.093 A 
ATOM      7  C   UNL     1      45.605 -39.221  -4.264  1.00  0.00     0.136 A 
ATOM      8  C   UNL     1      46.998 -39.349  -4.026  1.00  0.00     0.125 A 
ATOM      9  C   UNL     1      47.980 -38.963  -4.955  1.00  0.00     0.078 A 
ATOM     10  C   UNL     1      49.335 -39.115  -4.647  1.00  0.00     0.223 A 
ENDROOT
BRANCH   1  11
ATOM     11  C   UNL     1      51.104 -39.888  -3.015  1.00  0.00     0.087 A 
ATOM     12  C   UNL     1      52.000 -38.807  -3.050  1.00  0.00     0.022 A 
ATOM     13  C   UNL     1      53.332 -38.979  -2.664  1.00  0.00     0.051 A 
ATOM     14  C   UNL     1      53.784 -40.230  -2.224  1.00  0.00     0.157 A 
ATOM     15  C   UNL     1      51.558 -41.138  -2.552  1.00  0.00     0.068 A 
ATOM     16  C   UNL     1      52.894 -41.310  -2.164  1.00  0.00     0.158 A 
BRANCH  14  17
ATOM     17  O   UNL     1      55.113 -40.405  -1.842  1.00  0.00    -0.504 OA
ATOM     18  H   UNL     1      55.357 -40.856  -0.968  1.00  0.00     0.293 HD
ENDBRANCH  14  17
BRANCH  16  19
ATOM     19  O   UNL     1      53.344 -42.549  -1.713  1.00  0.00    -0.504 OA
ATOM     20  H   UNL     1      52.727 -43.351  -1.665  1.00  0.00     0.293 HD
ENDBRANCH  16  19
ENDBRANCH   1  11
BRANCH  10  21
ATOM     21  O   UNL     1      50.309 -38.686  -5.548  1.00  0.00    -0.500 OA
ATOM     22  H   UNL     1      51.259 -39.034  -5.510  1.00  0.00     0.294 HD
ENDBRANCH  10  21
BRANCH   5  23
ATOM     23  O   UNL     1      44.243 -40.539  -1.076  1.00  0.00    -0.507 OA
ATOM     24  H   UNL     1      44.479 -40.504  -0.092  1.00  0.00     0.293 HD
ENDBRANCH   5  23
BRANCH   7  25
ATOM     25  O   UNL     1      45.077 -38.712  -5.454  1.00  0.00    -0.507 OA
ATOM     26  H   UNL     1      44.096 -38.714  -5.690  1.00  0.00     0.293 HD
ENDBRANCH   7  25
TORSDOF 6
ENDMDL
MODEL 2
REMARK VINA RESULT:    -7.057      1.481      6.974
REMARK INTER + INTRA:          -8.549
REMARK INTER:                  -8.263
REMARK INTRA:                  -0.286
REMARK UNBOUND:                -0.048
REMARK SMILES Oc1cc(O)c2cc(O)c(-c3ccc(O)c(O)c3)[o+]c2c1.[Cl-]
REMARK SMILES IDX 10 1 19 2 20 3 21 4 2 5 3 6 4 7 6 8 7 9 8 10 11 11 12 12
REMARK SMILES IDX 13 13 14 14 18 15 16 16 15 17 17 19 9 21 1 23 5 25
REMARK H PARENT 15 18 17 20 9 22 1 24 5 26
REMARK Flexibility Score: inf
ROOT
ATOM      1  C   UNL     1      50.297 -39.685  -2.979  1.00  0.00     0.402 A 
ATOM      2  O   UNL     1      51.044 -40.713  -2.587  1.00  0.00    -0.202 OA
ATOM      3  C   UNL     1      52.360 -40.636  -2.417  1.00  0.00     0.368 A 
ATOM      4  C   UNL     1      53.060 -41.772  -1.999  1.00  0.00     0.162 A 
ATOM      5  C   UNL     1      54.440 -41.719  -1.809  1.00  0.00     0.128 A 
ATOM      6  C   UNL     1      55.131 -40.524  -2.037  1.00  0.00     0.093 A 
ATOM      7  C   UNL     1      54.453 -39.372  -2.456  1.00  0.00     0.136 A 
ATOM      8  C   UNL     1      53.048 -39.422  -2.653  1.00  0.00     0.125 A 
ATOM      9  C   UNL     1      52.288 -38.322  -3.084  1.00  0.00     0.078 A 
ATOM     10  C   UNL     1      50.908 -38.449  -3.259  1.00  0.00     0.223 A 
ENDROOT
BRANCH   1  11
ATOM     11  C   UNL     1      48.838 -39.894  -3.122  1.00  0.00     0.087 A 
ATOM     12  C   UNL     1      48.284 -40.046  -4.404  1.00  0.00     0.022 A 
ATOM     13  C   UNL     1      46.914 -40.265  -4.562  1.00  0.00     0.051 A 
ATOM     14  C   UNL     1      46.079 -40.351  -3.440  1.00  0.00     0.157 A 
ATOM     15  C   UNL     1      47.999 -40.002  -1.998  1.00  0.00     0.068 A 
ATOM     16  C   UNL     1      46.623 -40.223  -2.156  1.00  0.00     0.158 A 
BRANCH  14  17
ATOM     17  O   UNL     1      44.710 -40.566  -3.594  1.00  0.00    -0.504 OA
ATOM     18  H   UNL     1      44.104 -39.858  -3.990  1.00  0.00     0.293 HD
ENDBRANCH  14  17
BRANCH  16  19
ATOM     19  O   UNL     1      45.792 -40.323  -1.043  1.00  0.00    -0.504 OA
ATOM     20  H   UNL     1      44.894 -39.855  -1.007  1.00  0.00     0.293 HD
ENDBRANCH  16  19
ENDBRANCH   1  11
BRANCH  10  21
ATOM     21  O   UNL     1      50.161 -37.371  -3.735  1.00  0.00    -0.500 OA
ATOM     22  H   UNL     1      49.319 -37.507  -4.281  1.00  0.00     0.294 HD
ENDBRANCH  10  21
BRANCH   5  23
ATOM     23  O   UNL     1      55.120 -42.862  -1.393  1.00  0.00    -0.507 OA
ATOM     24  H   UNL     1      55.600 -43.464  -2.052  1.00  0.00     0.293 HD
ENDBRANCH   5  23
BRANCH   7  25
ATOM     25  O   UNL     1      55.212 -38.216  -2.659  1.00  0.00    -0.507 OA
ATOM     26  H   UNL     1      55.280 -37.724  -3.538  1.00  0.00     0.293 HD
ENDBRANCH   7  25
TORSDOF 6
ENDMDL
MODEL 3
REMARK VINA RESULT:    -7.018      2.002      2.857
REMARK INTER + INTRA:          -8.503
REMARK INTER:                  -8.578
REMARK INTRA:                   0.075
REMARK UNBOUND:                -0.048
REMARK SMILES Oc1cc(O)c2cc(O)c(-c3ccc(O)c(O)c3)[o+]c2c1.[Cl-]
REMARK SMILES IDX 10 1 19 2 20 3 21 4 2 5 3 6 4 7 6 8 7 9 8 10 11 11 12 12
REMARK SMILES IDX 13 13 14 14 18 15 16 16 15 17 17 19 9 21 1 23 5 25
REMARK H PARENT 15 18 17 20 9 22 1 24 5 26
REMARK Flexibility Score: inf
ROOT
ATOM      1  C   UNL     1      50.401 -39.635  -3.334  1.00  0.00     0.402 A 
ATOM      2  O   UNL     1      49.984 -38.408  -3.034  1.00  0.00    -0.202 OA
ATOM      3  C   UNL     1      48.804 -37.925  -3.412  1.00  0.00     0.368 A 
ATOM      4  C   UNL     1      48.453 -36.624  -3.046  1.00  0.00     0.162 A 
ATOM      5  C   UNL     1      47.221 -36.093  -3.425  1.00  0.00     0.128 A 
ATOM      6  C   UNL     1      46.329 -36.866  -4.177  1.00  0.00     0.093 A 
ATOM      7  C   UNL     1      46.658 -38.174  -4.557  1.00  0.00     0.136 A 
ATOM      8  C   UNL     1      47.912 -38.716  -4.174  1.00  0.00     0.125 A 
ATOM      9  C   UNL     1      48.332 -40.012  -4.521  1.00  0.00     0.078 A 
ATOM     10  C   UNL     1      49.584 -40.476  -4.111  1.00  0.00     0.223 A 
ENDROOT
BRANCH   1  11
ATOM     11  C   UNL     1      51.733 -40.060  -2.846  1.00  0.00     0.087 A 
ATOM     12  C   UNL     1      51.899 -41.354  -2.327  1.00  0.00     0.022 A 
ATOM     13  C   UNL     1      53.151 -41.783  -1.880  1.00  0.00     0.051 A 
ATOM     14  C   UNL     1      54.259 -40.930  -1.958  1.00  0.00     0.157 A 
ATOM     15  C   UNL     1      52.854 -39.214  -2.942  1.00  0.00     0.068 A 
ATOM     16  C   UNL     1      54.111 -39.644  -2.494  1.00  0.00     0.158 A 
BRANCH  14  17
ATOM     17  O   UNL     1      55.509 -41.353  -1.510  1.00  0.00    -0.504 OA
ATOM     18  H   UNL     1      56.311 -40.735  -1.515  1.00  0.00     0.293 HD
ENDBRANCH  14  17
BRANCH  16  19
ATOM     19  O   UNL     1      55.218 -38.804  -2.585  1.00  0.00    -0.504 OA
ATOM     20  H   UNL     1      55.118 -37.813  -2.775  1.00  0.00     0.293 HD
ENDBRANCH  16  19
ENDBRANCH   1  11
BRANCH  10  21
ATOM     21  O   UNL     1      50.021 -41.743  -4.497  1.00  0.00    -0.500 OA
ATOM     22  H   UNL     1      49.597 -42.240  -5.271  1.00  0.00     0.294 HD
ENDBRANCH  10  21
BRANCH   5  23
ATOM     23  O   UNL     1      46.888 -34.792  -3.050  1.00  0.00    -0.507 OA
ATOM     24  H   UNL     1      46.705 -34.072  -3.739  1.00  0.00     0.293 HD
ENDBRANCH   5  23
BRANCH   7  25
ATOM     25  O   UNL     1      45.714 -38.884  -5.303  1.00  0.00    -0.507 OA
ATOM     26  H   UNL     1      45.375 -39.805  -5.068  1.00  0.00     0.293 HD
ENDBRANCH   7  25
TORSDOF 6
ENDMDL
MODEL 4
REMARK VINA RESULT:    -6.891      3.367      3.428
REMARK INTER + INTRA:          -8.349
REMARK INTER:                  -7.997
REMARK INTRA:                  -0.353
REMARK UNBOUND:                -0.048
REMARK SMILES Oc1cc(O)c2cc(O)c(-c3ccc(O)c(O)c3)[o+]c2c1.[Cl-]
REMARK SMILES IDX 10 1 19 2 20 3 21 4 2 5 3 6 4 7 6 8 7 9 8 10 11 11 12 12
REMARK SMILES IDX 13 13 14 14 18 15 16 16 15 17 17 19 9 21 1 23 5 25
REMARK H PARENT 15 18 17 20 9 22 1 24 5 26
REMARK Flexibility Score: inf
ROOT
ATOM      1  C   UNL     1      51.410 -38.337  -3.562  1.00  0.00     0.402 A 
ATOM      2  O   UNL     1      50.626 -37.677  -2.713  1.00  0.00    -0.202 OA
ATOM      3  C   UNL     1      49.702 -36.805  -3.099  1.00  0.00     0.368 A 
ATOM      4  C   UNL     1      48.925 -36.163  -2.131  1.00  0.00     0.162 A 
ATOM      5  C   UNL     1      47.945 -35.245  -2.508  1.00  0.00     0.128 A 
ATOM      6  C   UNL     1      47.736 -34.965  -3.863  1.00  0.00     0.093 A 
ATOM      7  C   UNL     1      48.501 -35.595  -4.853  1.00  0.00     0.136 A 
ATOM      8  C   UNL     1      49.501 -36.527  -4.473  1.00  0.00     0.125 A 
ATOM      9  C   UNL     1      50.324 -37.197  -5.394  1.00  0.00     0.078 A 
ATOM     10  C   UNL     1      51.291 -38.099  -4.944  1.00  0.00     0.223 A 
ENDROOT
BRANCH   1  11
ATOM     11  C   UNL     1      52.397 -39.291  -3.008  1.00  0.00     0.087 A 
ATOM     12  C   UNL     1      53.655 -38.823  -2.595  1.00  0.00     0.022 A 
ATOM     13  C   UNL     1      54.594 -39.702  -2.050  1.00  0.00     0.051 A 
ATOM     14  C   UNL     1      54.284 -41.059  -1.896  1.00  0.00     0.157 A 
ATOM     15  C   UNL     1      52.083 -40.652  -2.832  1.00  0.00     0.068 A 
ATOM     16  C   UNL     1      53.025 -41.534  -2.284  1.00  0.00     0.158 A 
BRANCH  14  17
ATOM     17  O   UNL     1      55.220 -41.940  -1.356  1.00  0.00    -0.504 OA
ATOM     18  H   UNL     1      55.425 -41.951  -0.364  1.00  0.00     0.293 HD
ENDBRANCH  14  17
BRANCH  16  19
ATOM     19  O   UNL     1      52.715 -42.882  -2.116  1.00  0.00    -0.504 OA
ATOM     20  H   UNL     1      53.033 -43.585  -2.773  1.00  0.00     0.293 HD
ENDBRANCH  16  19
ENDBRANCH   1  11
BRANCH  10  21
ATOM     21  O   UNL     1      52.141 -38.726  -5.855  1.00  0.00    -0.500 OA
ATOM     22  H   UNL     1      52.096 -39.723  -6.027  1.00  0.00     0.294 HD
ENDBRANCH  10  21
BRANCH   5  23
ATOM     23  O   UNL     1      47.181 -34.615  -1.528  1.00  0.00    -0.507 OA
ATOM     24  H   UNL     1      46.882 -33.652  -1.626  1.00  0.00     0.293 HD
ENDBRANCH   5  23
BRANCH   7  25
ATOM     25  O   UNL     1      48.230 -35.265  -6.183  1.00  0.00    -0.507 OA
ATOM     26  H   UNL     1      47.725 -35.857  -6.827  1.00  0.00     0.293 HD
ENDBRANCH   7  25
TORSDOF 6
ENDMDL
MODEL 5
REMARK VINA RESULT:    -6.885      2.784      6.507
REMARK INTER + INTRA:          -8.342
REMARK INTER:                  -8.046
REMARK INTRA:                  -0.296
REMARK UNBOUND:                -0.048
REMARK SMILES Oc1cc(O)c2cc(O)c(-c3ccc(O)c(O)c3)[o+]c2c1.[Cl-]
REMARK SMILES IDX 10 1 19 2 20 3 21 4 2 5 3 6 4 7 6 8 7 9 8 10 11 11 12 12
REMARK SMILES IDX 13 13 14 14 18 15 16 16 15 17 17 19 9 21 1 23 5 25
REMARK H PARENT 15 18 17 20 9 22 1 24 5 26
REMARK Flexibility Score: inf
ROOT
ATOM      1  C   UNL     1      48.606 -39.238  -4.077  1.00  0.00     0.402 A 
ATOM      2  O   UNL     1      48.719 -37.967  -4.453  1.00  0.00    -0.202 OA
ATOM      3  C   UNL     1      49.696 -37.522  -5.236  1.00  0.00     0.368 A 
ATOM      4  C   UNL     1      49.729 -36.168  -5.579  1.00  0.00     0.162 A 
ATOM      5  C   UNL     1      50.741 -35.673  -6.402  1.00  0.00     0.128 A 
ATOM      6  C   UNL     1      51.728 -36.536  -6.889  1.00  0.00     0.093 A 
ATOM      7  C   UNL     1      51.718 -37.898  -6.559  1.00  0.00     0.136 A 
ATOM      8  C   UNL     1      50.692 -38.404  -5.720  1.00  0.00     0.125 A 
ATOM      9  C   UNL     1      50.608 -39.751  -5.327  1.00  0.00     0.078 A 
ATOM     10  C   UNL     1      49.570 -40.175  -4.494  1.00  0.00     0.223 A 
ENDROOT
BRANCH   1  11
ATOM     11  C   UNL     1      47.466 -39.613  -3.210  1.00  0.00     0.087 A 
ATOM     12  C   UNL     1      46.196 -39.802  -3.780  1.00  0.00     0.022 A 
ATOM     13  C   UNL     1      45.111 -40.175  -2.983  1.00  0.00     0.051 A 
ATOM     14  C   UNL     1      45.282 -40.380  -1.608  1.00  0.00     0.157 A 
ATOM     15  C   UNL     1      47.637 -39.840  -1.831  1.00  0.00     0.068 A 
ATOM     16  C   UNL     1      46.548 -40.216  -1.031  1.00  0.00     0.158 A 
BRANCH  14  17
ATOM     17  O   UNL     1      44.201 -40.749  -0.810  1.00  0.00    -0.504 OA
ATOM     18  H   UNL     1      44.278 -41.489  -0.122  1.00  0.00     0.293 HD
ENDBRANCH  14  17
BRANCH  16  19
ATOM     19  O   UNL     1      46.717 -40.434   0.334  1.00  0.00    -0.504 OA
ATOM     20  H   UNL     1      45.931 -40.636   0.940  1.00  0.00     0.293 HD
ENDBRANCH  16  19
ENDBRANCH   1  11
BRANCH  10  21
ATOM     21  O   UNL     1      49.515 -41.500  -4.064  1.00  0.00    -0.500 OA
ATOM     22  H   UNL     1      49.865 -42.260  -4.634  1.00  0.00     0.294 HD
ENDBRANCH  10  21
BRANCH   5  23
ATOM     23  O   UNL     1      50.756 -34.319  -6.733  1.00  0.00    -0.507 OA
ATOM     24  H   UNL     1      51.205 -33.634  -6.137  1.00  0.00     0.293 HD
ENDBRANCH   5  23
BRANCH   7  25
ATOM     25  O   UNL     1      52.736 -38.696  -7.088  1.00  0.00    -0.507 OA
ATOM     26  H   UNL     1      52.590 -39.595  -7.523  1.00  0.00     0.293 HD
ENDBRANCH   7  25
TORSDOF 6
ENDMDL
MODEL 6
REMARK VINA RESULT:    -6.851      3.359      4.010
REMARK INTER + INTRA:          -8.302
REMARK INTER:                  -8.020
REMARK INTRA:                  -0.282
REMARK UNBOUND:                -0.048
REMARK SMILES Oc1cc(O)c2cc(O)c(-c3ccc(O)c(O)c3)[o+]c2c1.[Cl-]
REMARK SMILES IDX 10 1 19 2 20 3 21 4 2 5 3 6 4 7 6 8 7 9 8 10 11 11 12 12
REMARK SMILES IDX 13 13 14 14 18 15 16 16 15 17 17 19 9 21 1 23 5 25
REMARK H PARENT 15 18 17 20 9 22 1 24 5 26
REMARK Flexibility Score: inf
ROOT
ATOM      1  C   UNL     1      50.997 -38.102  -4.026  1.00  0.00     0.402 A 
ATOM      2  O   UNL     1      50.028 -37.450  -3.389  1.00  0.00    -0.202 OA
ATOM      3  C   UNL     1      49.351 -36.440  -3.926  1.00  0.00     0.368 A 
ATOM      4  C   UNL     1      48.348 -35.819  -3.177  1.00  0.00     0.162 A 
ATOM      5  C   UNL     1      47.619 -34.759  -3.717  1.00  0.00     0.128 A 
ATOM      6  C   UNL     1      47.893 -34.314  -5.015  1.00  0.00     0.093 A 
ATOM      7  C   UNL     1      48.894 -34.919  -5.785  1.00  0.00     0.136 A 
ATOM      8  C   UNL     1      49.639 -35.997  -5.239  1.00  0.00     0.125 A 
ATOM      9  C   UNL     1      50.669 -36.655  -5.932  1.00  0.00     0.078 A 
ATOM     10  C   UNL     1      51.362 -37.706  -5.326  1.00  0.00     0.223 A 
ENDROOT
BRANCH   1  11
ATOM     11  C   UNL     1      51.670 -39.217  -3.323  1.00  0.00     0.087 A 
ATOM     12  C   UNL     1      51.027 -40.462  -3.226  1.00  0.00     0.022 A 
ATOM     13  C   UNL     1      51.652 -41.534  -2.585  1.00  0.00     0.051 A 
ATOM     14  C   UNL     1      52.935 -41.383  -2.045  1.00  0.00     0.157 A 
ATOM     15  C   UNL     1      52.968 -39.076  -2.797  1.00  0.00     0.068 A 
ATOM     16  C   UNL     1      53.596 -40.153  -2.155  1.00  0.00     0.158 A 
BRANCH  14  17
ATOM     17  O   UNL     1      53.561 -42.450  -1.402  1.00  0.00    -0.504 OA
ATOM     18  H   UNL     1      53.190 -42.844  -0.546  1.00  0.00     0.293 HD
ENDBRANCH  14  17
BRANCH  16  19
ATOM     19  O   UNL     1      54.878 -40.010  -1.629  1.00  0.00    -0.504 OA
ATOM     20  H   UNL     1      55.702 -40.065  -2.217  1.00  0.00     0.293 HD
ENDBRANCH  16  19
ENDBRANCH   1  11
BRANCH  10  21
ATOM     21  O   UNL     1      52.417 -38.326  -5.995  1.00  0.00    -0.500 OA
ATOM     22  H   UNL     1      53.042 -37.808  -6.600  1.00  0.00     0.294 HD
ENDBRANCH  10  21
BRANCH   5  23
ATOM     23  O   UNL     1      46.623 -34.153  -2.955  1.00  0.00    -0.507 OA
ATOM     24  H   UNL     1      45.790 -33.765  -3.383  1.00  0.00     0.293 HD
ENDBRANCH   5  23
BRANCH   7  25
ATOM     25  O   UNL     1      49.105 -34.421  -7.073  1.00  0.00    -0.507 OA
ATOM     26  H   UNL     1      48.368 -34.179  -7.720  1.00  0.00     0.293 HD
ENDBRANCH   7  25
TORSDOF 6
ENDMDL
MODEL 7
REMARK VINA RESULT:    -6.746      1.734      7.133
REMARK INTER + INTRA:          -8.174
REMARK INTER:                  -8.592
REMARK INTRA:                   0.418
REMARK UNBOUND:                -0.048
REMARK SMILES Oc1cc(O)c2cc(O)c(-c3ccc(O)c(O)c3)[o+]c2c1.[Cl-]
REMARK SMILES IDX 10 1 19 2 20 3 21 4 2 5 3 6 4 7 6 8 7 9 8 10 11 11 12 12
REMARK SMILES IDX 13 13 14 14 18 15 16 16 15 17 17 19 9 21 1 23 5 25
REMARK H PARENT 15 18 17 20 9 22 1 24 5 26
REMARK Flexibility Score: inf
ROOT
ATOM      1  C   UNL     1      49.785 -39.331  -3.630  1.00  0.00     0.402 A 
ATOM      2  O   UNL     1      50.966 -38.724  -3.549  1.00  0.00    -0.202 OA
ATOM      3  C   UNL     1      52.051 -39.301  -3.043  1.00  0.00     0.368 A 
ATOM      4  C   UNL     1      53.248 -38.582  -3.002  1.00  0.00     0.162 A 
ATOM      5  C   UNL     1      54.403 -39.164  -2.480  1.00  0.00     0.128 A 
ATOM      6  C   UNL     1      54.364 -40.476  -1.994  1.00  0.00     0.093 A 
ATOM      7  C   UNL     1      53.177 -41.218  -2.023  1.00  0.00     0.136 A 
ATOM      8  C   UNL     1      51.999 -40.628  -2.551  1.00  0.00     0.125 A 
ATOM      9  C   UNL     1      50.761 -41.291  -2.609  1.00  0.00     0.078 A 
ATOM     10  C   UNL     1      49.643 -40.643  -3.140  1.00  0.00     0.223 A 
ENDROOT
BRANCH   1  11
ATOM     11  C   UNL     1      48.653 -38.584  -4.223  1.00  0.00     0.087 A 
ATOM     12  C   UNL     1      48.888 -37.338  -4.827  1.00  0.00     0.022 A 
ATOM     13  C   UNL     1      47.838 -36.626  -5.412  1.00  0.00     0.051 A 
ATOM     14  C   UNL     1      46.541 -37.154  -5.414  1.00  0.00     0.157 A 
ATOM     15  C   UNL     1      47.352 -39.121  -4.247  1.00  0.00     0.068 A 
ATOM     16  C   UNL     1      46.298 -38.406  -4.835  1.00  0.00     0.158 A 
BRANCH  14  17
ATOM     17  O   UNL     1      45.490 -36.445  -5.994  1.00  0.00    -0.504 OA
ATOM     18  H   UNL     1      45.134 -36.681  -6.912  1.00  0.00     0.293 HD
ENDBRANCH  14  17
BRANCH  16  19
ATOM     19  O   UNL     1      45.010 -38.936  -4.852  1.00  0.00    -0.504 OA
ATOM     20  H   UNL     1      44.488 -39.035  -5.715  1.00  0.00     0.293 HD
ENDBRANCH  16  19
ENDBRANCH   1  11
BRANCH  10  21
ATOM     21  O   UNL     1      48.404 -41.282  -3.151  1.00  0.00    -0.500 OA
ATOM     22  H   UNL     1      47.768 -41.197  -3.935  1.00  0.00     0.294 HD
ENDBRANCH  10  21
BRANCH   5  23
ATOM     23  O   UNL     1      55.587 -38.431  -2.449  1.00  0.00    -0.507 OA
ATOM     24  H   UNL     1      55.584 -37.418  -2.476  1.00  0.00     0.293 HD
ENDBRANCH   5  23
BRANCH   7  25
ATOM     25  O   UNL     1      53.220 -42.522  -1.523  1.00  0.00    -0.507 OA
ATOM     26  H   UNL     1      52.417 -43.129  -1.441  1.00  0.00     0.293 HD
ENDBRANCH   7  25
TORSDOF 6
ENDMDL
MODEL 8
REMARK VINA RESULT:    -6.637      2.453      6.620
REMARK INTER + INTRA:          -8.043
REMARK INTER:                  -7.781
REMARK INTRA:                  -0.262
REMARK UNBOUND:                -0.048
REMARK SMILES Oc1cc(O)c2cc(O)c(-c3ccc(O)c(O)c3)[o+]c2c1.[Cl-]
REMARK SMILES IDX 10 1 19 2 20 3 21 4 2 5 3 6 4 7 6 8 7 9 8 10 11 11 12 12
REMARK SMILES IDX 13 13 14 14 18 15 16 16 15 17 17 19 9 21 1 23 5 25
REMARK H PARENT 15 18 17 20 9 22 1 24 5 26
REMARK Flexibility Score: inf
ROOT
ATOM      1  C   UNL     1      48.620 -39.106  -3.587  1.00  0.00     0.402 A 
ATOM      2  O   UNL     1      48.588 -37.910  -4.168  1.00  0.00    -0.202 OA
ATOM      3  C   UNL     1      49.565 -37.447  -4.942  1.00  0.00     0.368 A 
ATOM      4  C   UNL     1      49.439 -36.177  -5.510  1.00  0.00     0.162 A 
ATOM      5  C   UNL     1      50.447 -35.668  -6.328  1.00  0.00     0.128 A 
ATOM      6  C   UNL     1      51.591 -36.432  -6.583  1.00  0.00     0.093 A 
ATOM      7  C   UNL     1      51.742 -37.707  -6.025  1.00  0.00     0.136 A 
ATOM      8  C   UNL     1      50.719 -38.228  -5.190  1.00  0.00     0.125 A 
ATOM      9  C   UNL     1      50.790 -39.491  -4.577  1.00  0.00     0.078 A 
ATOM     10  C   UNL     1      49.744 -39.934  -3.763  1.00  0.00     0.223 A 
ENDROOT
BRANCH   1  11
ATOM     11  C   UNL     1      47.464 -39.511  -2.756  1.00  0.00     0.087 A 
ATOM     12  C   UNL     1      47.587 -39.516  -1.357  1.00  0.00     0.022 A 
ATOM     13  C   UNL     1      46.503 -39.876  -0.552  1.00  0.00     0.051 A 
ATOM     14  C   UNL     1      45.276 -40.221  -1.133  1.00  0.00     0.157 A 
ATOM     15  C   UNL     1      46.223 -39.839  -3.334  1.00  0.00     0.068 A 
ATOM     16  C   UNL     1      45.135 -40.199  -2.527  1.00  0.00     0.158 A 
BRANCH  14  17
ATOM     17  O   UNL     1      44.193 -40.583  -0.334  1.00  0.00    -0.504 OA
ATOM     18  H   UNL     1      44.202 -41.433   0.218  1.00  0.00     0.293 HD
ENDBRANCH  14  17
BRANCH  16  19
ATOM     19  O   UNL     1      43.910 -40.529  -3.101  1.00  0.00    -0.504 OA
ATOM     20  H   UNL     1      43.853 -41.066  -3.958  1.00  0.00     0.293 HD
ENDBRANCH  16  19
ENDBRANCH   1  11
BRANCH  10  21
ATOM     21  O   UNL     1      49.836 -41.166  -3.115  1.00  0.00    -0.500 OA
ATOM     22  H   UNL     1      49.950 -41.232  -2.111  1.00  0.00     0.294 HD
ENDBRANCH  10  21
BRANCH   5  23
ATOM     23  O   UNL     1      50.303 -34.399  -6.886  1.00  0.00    -0.507 OA
ATOM     24  H   UNL     1      49.394 -33.959  -6.974  1.00  0.00     0.293 HD
ENDBRANCH   5  23
BRANCH   7  25
ATOM     25  O   UNL     1      52.911 -38.409  -6.330  1.00  0.00    -0.507 OA
ATOM     26  H   UNL     1      53.308 -39.135  -5.752  1.00  0.00     0.293 HD
ENDBRANCH   7  25
TORSDOF 6
ENDMDL
MODEL 9
REMARK VINA RESULT:    -6.617      3.462      6.830
REMARK INTER + INTRA:          -8.019
REMARK INTER:                  -7.767
REMARK INTRA:                  -0.252
REMARK UNBOUND:                -0.048
REMARK SMILES Oc1cc(O)c2cc(O)c(-c3ccc(O)c(O)c3)[o+]c2c1.[Cl-]
REMARK SMILES IDX 10 1 19 2 20 3 21 4 2 5 3 6 4 7 6 8 7 9 8 10 11 11 12 12
REMARK SMILES IDX 13 13 14 14 18 15 16 16 15 17 17 19 9 21 1 23 5 25
REMARK H PARENT 15 18 17 20 9 22 1 24 5 26
REMARK Flexibility Score: inf
ROOT
ATOM      1  C   UNL     1      49.574 -37.240  -4.667  1.00  0.00     0.402 A 
ATOM      2  O   UNL     1      50.785 -37.541  -4.206  1.00  0.00    -0.202 OA
ATOM      3  C   UNL     1      51.095 -38.724  -3.684  1.00  0.00     0.368 A 
ATOM      4  C   UNL     1      52.396 -38.946  -3.227  1.00  0.00     0.162 A 
ATOM      5  C   UNL     1      52.750 -40.179  -2.679  1.00  0.00     0.128 A 
ATOM      6  C   UNL     1      51.798 -41.200  -2.585  1.00  0.00     0.093 A 
ATOM      7  C   UNL     1      50.486 -41.002  -3.035  1.00  0.00     0.136 A 
ATOM      8  C   UNL     1      50.122 -39.748  -3.591  1.00  0.00     0.125 A 
ATOM      9  C   UNL     1      48.828 -39.455  -4.056  1.00  0.00     0.078 A 
ATOM     10  C   UNL     1      48.543 -38.195  -4.588  1.00  0.00     0.223 A 
ENDROOT
BRANCH   1  11
ATOM     11  C   UNL     1      49.357 -35.890  -5.234  1.00  0.00     0.087 A 
ATOM     12  C   UNL     1      49.889 -35.576  -6.495  1.00  0.00     0.022 A 
ATOM     13  C   UNL     1      49.679 -34.315  -7.058  1.00  0.00     0.051 A 
ATOM     14  C   UNL     1      48.922 -33.354  -6.376  1.00  0.00     0.157 A 
ATOM     15  C   UNL     1      48.578 -34.929  -4.562  1.00  0.00     0.068 A 
ATOM     16  C   UNL     1      48.367 -33.663  -5.128  1.00  0.00     0.158 A 
BRANCH  14  17
ATOM     17  O   UNL     1      48.713 -32.094  -6.933  1.00  0.00    -0.504 OA
ATOM     18  H   UNL     1      49.411 -31.363  -6.868  1.00  0.00     0.293 HD
ENDBRANCH  14  17
BRANCH  16  19
ATOM     19  O   UNL     1      47.602 -32.711  -4.458  1.00  0.00    -0.504 OA
ATOM     20  H   UNL     1      47.051 -32.024  -4.961  1.00  0.00     0.293 HD
ENDBRANCH  16  19
ENDBRANCH   1  11
BRANCH  10  21
ATOM     21  O   UNL     1      47.248 -37.888  -5.003  1.00  0.00    -0.500 OA
ATOM     22  H   UNL     1      46.812 -38.363  -5.784  1.00  0.00     0.294 HD
ENDBRANCH  10  21
BRANCH   5  23
ATOM     23  O   UNL     1      54.053 -40.382  -2.229  1.00  0.00    -0.507 OA
ATOM     24  H   UNL     1      54.244 -40.751  -1.305  1.00  0.00     0.293 HD
ENDBRANCH   5  23
BRANCH   7  25
ATOM     25  O   UNL     1      49.595 -42.070  -2.910  1.00  0.00    -0.507 OA
ATOM     26  H   UNL     1      49.279 -42.452  -2.030  1.00  0.00     0.293 HD
ENDBRANCH   7  25
TORSDOF 6
ENDMDL
