MODEL 1
REMARK VINA RESULT:    -2.681      0.000      0.000
REMARK INTER + INTRA:          -3.468
REMARK INTER:                  -3.151
REMARK INTRA:                  -0.317
REMARK UNBOUND:                -0.317
REMARK SMILES O=c1cc(-c2ccc(O)c(O)c2)oc2cc(O)cc(O)c12
REMARK SMILES IDX 4 1 3 2 2 3 1 4 21 5 19 6 18 7 16 8 15 9 14 10 13 11 5 12
REMARK SMILES IDX 6 13 7 14 8 15 12 16 10 17 9 18 11 20 20 22 17 24
REMARK H PARENT 9 19 11 21 20 23 17 25
REMARK Flexibility Score: inf
ROOT
ATOM      1  C   UNL     1      42.278  18.328  35.361  1.00  0.00     0.138 A 
ATOM      2  C   UNL     1      41.118  18.231  34.580  1.00  0.00     0.100 A 
ATOM      3  C   UNL     1      39.866  18.279  35.195  1.00  0.00     0.197 A 
ATOM      4  O   UNL     1      38.843  18.252  34.463  1.00  0.00    -0.289 OA
ATOM      5  C   UNL     1      39.778  18.395  36.603  1.00  0.00     0.107 A 
ATOM      6  C   UNL     1      38.557  18.413  37.341  1.00  0.00     0.134 A 
ATOM      7  C   UNL     1      38.589  18.649  38.721  1.00  0.00     0.093 A 
ATOM      8  C   UNL     1      39.801  18.807  39.398  1.00  0.00     0.123 A 
ATOM      9  C   UNL     1      41.001  18.737  38.694  1.00  0.00     0.094 A 
ATOM     10  C   UNL     1      41.000  18.537  37.311  1.00  0.00     0.146 A 
ATOM     11  O   UNL     1      42.166  18.492  36.675  1.00  0.00    -0.456 OA
ENDROOT
BRANCH   1  12
ATOM     12  C   UNL     1      43.634  18.281  34.760  1.00  0.00     0.021 A 
ATOM     13  C   UNL     1      43.834  17.922  33.413  1.00  0.00     0.016 A 
ATOM     14  C   UNL     1      45.123  17.875  32.875  1.00  0.00     0.051 A 
ATOM     15  C   UNL     1      46.233  18.180  33.672  1.00  0.00     0.157 A 
ATOM     16  C   UNL     1      44.756  18.573  35.556  1.00  0.00     0.062 A 
ATOM     17  C   UNL     1      46.050  18.527  35.016  1.00  0.00     0.158 A 
BRANCH  15  18
ATOM     18  O   UNL     1      47.519  18.136  33.139  1.00  0.00    -0.504 OA
ATOM     19  H   UNL     1      48.339  18.095  33.735  1.00  0.00     0.293 HD
ENDBRANCH  15  18
BRANCH  17  20
ATOM     20  O   UNL     1      47.156  18.826  35.808  1.00  0.00    -0.504 OA
ATOM     21  H   UNL     1      47.749  18.098  36.189  1.00  0.00     0.293 HD
ENDBRANCH  17  20
ENDBRANCH   1  12
BRANCH   6  22
ATOM     22  O   UNL     1      37.299  18.182  36.777  1.00  0.00    -0.507 OA
ATOM     23  H   UNL     1      36.812  18.824  36.170  1.00  0.00     0.293 HD
ENDBRANCH   6  22
BRANCH   8  24
ATOM     24  O   UNL     1      39.824  19.026  40.773  1.00  0.00    -0.508 OA
ATOM     25  H   UNL     1      40.507  18.573  41.371  1.00  0.00     0.293 HD
ENDBRANCH   8  24
TORSDOF 5
ENDMDL
MODEL 2
REMARK VINA RESULT:    -2.603      1.340      2.766
REMARK INTER + INTRA:          -3.376
REMARK INTER:                  -3.092
REMARK INTRA:                  -0.284
REMARK UNBOUND:                -0.317
REMARK SMILES O=c1cc(-c2ccc(O)c(O)c2)oc2cc(O)cc(O)c12
REMARK SMILES IDX 4 1 3 2 2 3 1 4 21 5 19 6 18 7 16 8 15 9 14 10 13 11 5 12
REMARK SMILES IDX 6 13 7 14 8 15 12 16 10 17 9 18 11 20 20 22 17 24
REMARK H PARENT 9 19 11 21 20 23 17 25
REMARK Flexibility Score: inf
ROOT
ATOM      1  C   UNL     1      42.527  18.537  35.463  1.00  0.00     0.138 A 
ATOM      2  C   UNL     1      42.330  18.217  36.813  1.00  0.00     0.100 A 
ATOM      3  C   UNL     1      41.062  18.358  37.378  1.00  0.00     0.197 A 
ATOM      4  O   UNL     1      40.902  18.005  38.575  1.00  0.00    -0.289 OA
ATOM      5  C   UNL     1      39.993  18.852  36.593  1.00  0.00     0.107 A 
ATOM      6  C   UNL     1      38.668  19.076  37.073  1.00  0.00     0.134 A 
ATOM      7  C   UNL     1      37.664  19.457  36.174  1.00  0.00     0.093 A 
ATOM      8  C   UNL     1      37.950  19.681  34.825  1.00  0.00     0.123 A 
ATOM      9  C   UNL     1      39.252  19.517  34.358  1.00  0.00     0.094 A 
ATOM     10  C   UNL     1      40.269  19.104  35.223  1.00  0.00     0.146 A 
ATOM     11  O   UNL     1      41.494  18.946  34.733  1.00  0.00    -0.456 OA
ENDROOT
BRANCH   1  12
ATOM     12  C   UNL     1      43.855  18.406  34.811  1.00  0.00     0.021 A 
ATOM     13  C   UNL     1      43.982  18.031  33.460  1.00  0.00     0.016 A 
ATOM     14  C   UNL     1      45.244  17.904  32.875  1.00  0.00     0.051 A 
ATOM     15  C   UNL     1      46.399  18.145  33.628  1.00  0.00     0.157 A 
ATOM     16  C   UNL     1      45.021  18.633  35.564  1.00  0.00     0.062 A 
ATOM     17  C   UNL     1      46.288  18.507  34.976  1.00  0.00     0.158 A 
BRANCH  15  18
ATOM     18  O   UNL     1      47.660  18.021  33.048  1.00  0.00    -0.504 OA
ATOM     19  H   UNL     1      48.340  17.352  33.393  1.00  0.00     0.293 HD
ENDBRANCH  15  18
BRANCH  17  20
ATOM     20  O   UNL     1      47.439  18.742  35.725  1.00  0.00    -0.504 OA
ATOM     21  H   UNL     1      48.363  18.549  35.354  1.00  0.00     0.293 HD
ENDBRANCH  17  20
ENDBRANCH   1  12
BRANCH   6  22
ATOM     22  O   UNL     1      38.294  18.963  38.415  1.00  0.00    -0.507 OA
ATOM     23  H   UNL     1      38.929  18.785  39.178  1.00  0.00     0.293 HD
ENDBRANCH   6  22
BRANCH   8  24
ATOM     24  O   UNL     1      36.948  20.074  33.941  1.00  0.00    -0.508 OA
ATOM     25  H   UNL     1      36.688  19.502  33.146  1.00  0.00     0.293 HD
ENDBRANCH   8  24
TORSDOF 5
ENDMDL
MODEL 3
REMARK VINA RESULT:    -2.201      4.383      7.057
REMARK INTER + INTRA:          -2.904
REMARK INTER:                  -2.635
REMARK INTRA:                  -0.270
REMARK UNBOUND:                -0.317
REMARK SMILES O=c1cc(-c2ccc(O)c(O)c2)oc2cc(O)cc(O)c12
REMARK SMILES IDX 4 1 3 2 2 3 1 4 21 5 19 6 18 7 16 8 15 9 14 10 13 11 5 12
REMARK SMILES IDX 6 13 7 14 8 15 12 16 10 17 9 18 11 20 20 22 17 24
REMARK H PARENT 9 19 11 21 20 23 17 25
REMARK Flexibility Score: inf
ROOT
ATOM      1  C   UNL     1      39.258  22.170  36.615  1.00  0.00     0.138 A 
ATOM      2  C   UNL     1      38.070  21.433  36.711  1.00  0.00     0.100 A 
ATOM      3  C   UNL     1      37.928  20.254  35.978  1.00  0.00     0.197 A 
ATOM      4  O   UNL     1      36.875  19.582  36.131  1.00  0.00    -0.289 OA
ATOM      5  C   UNL     1      38.971  19.829  35.121  1.00  0.00     0.107 A 
ATOM      6  C   UNL     1      38.920  18.666  34.295  1.00  0.00     0.134 A 
ATOM      7  C   UNL     1      40.058  18.281  33.575  1.00  0.00     0.093 A 
ATOM      8  C   UNL     1      41.225  19.049  33.605  1.00  0.00     0.123 A 
ATOM      9  C   UNL     1      41.266  20.216  34.366  1.00  0.00     0.094 A 
ATOM     10  C   UNL     1      40.158  20.608  35.122  1.00  0.00     0.146 A 
ATOM     11  O   UNL     1      40.244  21.719  35.846  1.00  0.00    -0.456 OA
ENDROOT
BRANCH   1  12
ATOM     12  C   UNL     1      39.462  23.430  37.372  1.00  0.00     0.021 A 
ATOM     13  C   UNL     1      38.824  24.629  36.998  1.00  0.00     0.016 A 
ATOM     14  C   UNL     1      39.043  25.804  37.722  1.00  0.00     0.051 A 
ATOM     15  C   UNL     1      39.905  25.805  38.825  1.00  0.00     0.157 A 
ATOM     16  C   UNL     1      40.336  23.444  38.474  1.00  0.00     0.062 A 
ATOM     17  C   UNL     1      40.554  24.623  39.201  1.00  0.00     0.158 A 
BRANCH  15  18
ATOM     18  O   UNL     1      40.124  26.974  39.550  1.00  0.00    -0.504 OA
ATOM     19  H   UNL     1      39.923  27.887  39.156  1.00  0.00     0.293 HD
ENDBRANCH  15  18
BRANCH  17  20
ATOM     20  O   UNL     1      41.415  24.627  40.297  1.00  0.00    -0.504 OA
ATOM     21  H   UNL     1      41.803  25.488  40.664  1.00  0.00     0.293 HD
ENDBRANCH  17  20
ENDBRANCH   1  12
BRANCH   6  22
ATOM     22  O   UNL     1      37.779  17.875  34.127  1.00  0.00    -0.507 OA
ATOM     23  H   UNL     1      37.061  18.038  33.439  1.00  0.00     0.293 HD
ENDBRANCH   6  22
BRANCH   8  24
ATOM     24  O   UNL     1      42.347  18.667  32.875  1.00  0.00    -0.508 OA
ATOM     25  H   UNL     1      43.038  18.031  33.259  1.00  0.00     0.293 HD
ENDBRANCH   8  24
TORSDOF 5
ENDMDL
MODEL 4
REMARK VINA RESULT:    -1.184      2.531      2.769
REMARK INTER + INTRA:          -1.709
REMARK INTER:                  -1.443
REMARK INTRA:                  -0.266
REMARK UNBOUND:                -0.317
REMARK SMILES O=c1cc(-c2ccc(O)c(O)c2)oc2cc(O)cc(O)c12
REMARK SMILES IDX 4 1 3 2 2 3 1 4 21 5 19 6 18 7 16 8 15 9 14 10 13 11 5 12
REMARK SMILES IDX 6 13 7 14 8 15 12 16 10 17 9 18 11 20 20 22 17 24
REMARK H PARENT 9 19 11 21 20 23 17 25
REMARK Flexibility Score: inf
ROOT
ATOM      1  C   UNL     1      41.190  19.360  35.673  1.00  0.00     0.138 A 
ATOM      2  C   UNL     1      40.271  18.403  36.124  1.00  0.00     0.100 A 
ATOM      3  C   UNL     1      39.135  18.812  36.824  1.00  0.00     0.197 A 
ATOM      4  O   UNL     1      38.298  17.936  37.162  1.00  0.00    -0.289 OA
ATOM      5  C   UNL     1      38.936  20.186  37.100  1.00  0.00     0.107 A 
ATOM      6  C   UNL     1      37.837  20.714  37.840  1.00  0.00     0.134 A 
ATOM      7  C   UNL     1      37.683  22.102  37.951  1.00  0.00     0.093 A 
ATOM      8  C   UNL     1      38.622  22.978  37.399  1.00  0.00     0.123 A 
ATOM      9  C   UNL     1      39.727  22.469  36.721  1.00  0.00     0.094 A 
ATOM     10  C   UNL     1      39.890  21.090  36.564  1.00  0.00     0.146 A 
ATOM     11  O   UNL     1      40.951  20.648  35.898  1.00  0.00    -0.456 OA
ENDROOT
BRANCH   1  12
ATOM     12  C   UNL     1      42.415  18.980  34.925  1.00  0.00     0.021 A 
ATOM     13  C   UNL     1      42.375  18.666  33.553  1.00  0.00     0.016 A 
ATOM     14  C   UNL     1      43.541  18.300  32.876  1.00  0.00     0.051 A 
ATOM     15  C   UNL     1      44.763  18.237  33.556  1.00  0.00     0.157 A 
ATOM     16  C   UNL     1      43.645  18.901  35.603  1.00  0.00     0.062 A 
ATOM     17  C   UNL     1      44.815  18.536  34.922  1.00  0.00     0.158 A 
BRANCH  15  18
ATOM     18  O   UNL     1      45.929  17.875  32.883  1.00  0.00    -0.504 OA
ATOM     19  H   UNL     1      46.613  18.568  32.598  1.00  0.00     0.293 HD
ENDBRANCH  15  18
BRANCH  17  20
ATOM     20  O   UNL     1      46.032  18.468  35.598  1.00  0.00    -0.504 OA
ATOM     21  H   UNL     1      46.080  18.239  36.584  1.00  0.00     0.293 HD
ENDBRANCH  17  20
ENDBRANCH   1  12
BRANCH   6  22
ATOM     22  O   UNL     1      36.890  19.927  38.502  1.00  0.00    -0.507 OA
ATOM     23  H   UNL     1      36.478  19.085  38.131  1.00  0.00     0.293 HD
ENDBRANCH   6  22
BRANCH   8  24
ATOM     24  O   UNL     1      38.469  24.356  37.527  1.00  0.00    -0.508 OA
ATOM     25  H   UNL     1      39.039  25.004  36.994  1.00  0.00     0.293 HD
ENDBRANCH   8  24
TORSDOF 5
ENDMDL
MODEL 5
REMARK VINA RESULT:     0.140      4.764      7.197
REMARK INTER + INTRA:          -0.152
REMARK INTER:                   0.164
REMARK INTRA:                  -0.316
REMARK UNBOUND:                -0.317
REMARK SMILES O=c1cc(-c2ccc(O)c(O)c2)oc2cc(O)cc(O)c12
REMARK SMILES IDX 4 1 3 2 2 3 1 4 21 5 19 6 18 7 16 8 15 9 14 10 13 11 5 12
REMARK SMILES IDX 6 13 7 14 8 15 12 16 10 17 9 18 11 20 20 22 17 24
REMARK H PARENT 9 19 11 21 20 23 17 25
REMARK Flexibility Score: inf
ROOT
ATOM      1  C   UNL     1      39.054  22.496  37.315  1.00  0.00     0.138 A 
ATOM      2  C   UNL     1      38.079  21.726  37.962  1.00  0.00     0.100 A 
ATOM      3  C   UNL     1      37.731  20.477  37.448  1.00  0.00     0.197 A 
ATOM      4  O   UNL     1      36.898  19.783  38.085  1.00  0.00    -0.289 OA
ATOM      5  C   UNL     1      38.344  20.011  36.260  1.00  0.00     0.107 A 
ATOM      6  C   UNL     1      38.039  18.772  35.621  1.00  0.00     0.134 A 
ATOM      7  C   UNL     1      38.792  18.362  34.514  1.00  0.00     0.093 A 
ATOM      8  C   UNL     1      39.798  19.175  33.986  1.00  0.00     0.123 A 
ATOM      9  C   UNL     1      40.067  20.411  34.570  1.00  0.00     0.094 A 
ATOM     10  C   UNL     1      39.356  20.832  35.697  1.00  0.00     0.146 A 
ATOM     11  O   UNL     1      39.654  22.011  36.232  1.00  0.00    -0.456 OA
ENDROOT
BRANCH   1  12
ATOM     12  C   UNL     1      39.461  23.832  37.818  1.00  0.00     0.021 A 
ATOM     13  C   UNL     1      38.714  24.511  38.800  1.00  0.00     0.016 A 
ATOM     14  C   UNL     1      39.114  25.773  39.248  1.00  0.00     0.051 A 
ATOM     15  C   UNL     1      40.260  26.380  38.721  1.00  0.00     0.157 A 
ATOM     16  C   UNL     1      40.604  24.456  37.285  1.00  0.00     0.062 A 
ATOM     17  C   UNL     1      41.005  25.722  37.736  1.00  0.00     0.158 A 
BRANCH  15  18
ATOM     18  O   UNL     1      40.663  27.637  39.167  1.00  0.00    -0.504 OA
ATOM     19  H   UNL     1      40.007  28.407  39.246  1.00  0.00     0.293 HD
ENDBRANCH  15  18
BRANCH  17  20
ATOM     20  O   UNL     1      42.143  26.329  37.209  1.00  0.00    -0.504 OA
ATOM     21  H   UNL     1      42.079  27.118  36.577  1.00  0.00     0.293 HD
ENDBRANCH  17  20
ENDBRANCH   1  12
BRANCH   6  22
ATOM     22  O   UNL     1      36.999  17.924  36.016  1.00  0.00    -0.507 OA
ATOM     23  H   UNL     1      36.020  18.164  35.995  1.00  0.00     0.293 HD
ENDBRANCH   6  22
BRANCH   8  24
ATOM     24  O   UNL     1      40.532  18.767  32.875  1.00  0.00    -0.508 OA
ATOM     25  H   UNL     1      40.814  19.424  32.156  1.00  0.00     0.293 HD
ENDBRANCH   8  24
TORSDOF 5
ENDMDL
